MODEL 1
REMARK VINA RESULT:    -3.013      0.000      0.000
REMARK INTER + INTRA:          -3.828
REMARK INTER:                  -3.717
REMARK INTRA:                  -0.111
REMARK UNBOUND:                -0.111
REMARK SMILES CCCCCC(=O)[O-]
REMARK SMILES IDX 4 1 5 2 6 3 7 4 8 5 3 6 2 7 1 8
REMARK H PARENT
REMARK Flexibility Score: inf
ROOT
ATOM      1  C   UNL     1     111.861  53.071 232.857  1.00  0.00     0.006 C 
ENDROOT
BRANCH   1   2
ATOM      2  C   UNL     1     110.397  53.293 232.443  1.00  0.00     0.053 C 
BRANCH   2   3
ATOM      3  C   UNL     1     109.492  52.238 232.997  1.00  0.00     0.041 C 
ATOM      4  O   UNL     1     108.638  52.531 233.875  1.00  0.00    -0.550 OA
ATOM      5  O   UNL     1     109.570  50.935 232.520  1.00  0.00    -0.550 OA
ENDBRANCH   2   3
ENDBRANCH   1   2
BRANCH   1   6
ATOM      6  C   UNL     1     112.865  53.131 231.690  1.00  0.00     0.000 C 
BRANCH   6   7
ATOM      7  C   UNL     1     112.638  54.344 230.774  1.00  0.00    -0.003 C 
ATOM      8  C   UNL     1     112.874  53.978 229.312  1.00  0.00     0.004 C 
ENDBRANCH   6   7
ENDBRANCH   1   6
TORSDOF 4
ENDMDL
MODEL 2
REMARK VINA RESULT:    -2.966      5.661      6.893
REMARK INTER + INTRA:          -3.770
REMARK INTER:                  -3.646
REMARK INTRA:                  -0.124
REMARK UNBOUND:                -0.111
REMARK SMILES CCCCCC(=O)[O-]
REMARK SMILES IDX 4 1 5 2 6 3 7 4 8 5 3 6 2 7 1 8
REMARK H PARENT
REMARK Flexibility Score: inf
ROOT
ATOM      1  C   UNL     1     105.836  48.615 230.323  1.00  0.00     0.006 C 
ENDROOT
BRANCH   1   2
ATOM      2  C   UNL     1     107.014  49.450 230.853  1.00  0.00     0.053 C 
BRANCH   2   3
ATOM      3  C   UNL     1     107.660  48.813 232.043  1.00  0.00     0.041 C 
ATOM      4  O   UNL     1     108.827  49.144 232.385  1.00  0.00    -0.550 OA
ATOM      5  O   UNL     1     106.963  47.875 232.796  1.00  0.00    -0.550 OA
ENDBRANCH   2   3
ENDBRANCH   1   2
BRANCH   1   6
ATOM      6  C   UNL     1     104.553  49.426 230.062  1.00  0.00     0.000 C 
BRANCH   6   7
ATOM      7  C   UNL     1     104.830  50.772 229.377  1.00  0.00    -0.003 C 
ATOM      8  C   UNL     1     104.110  51.911 230.093  1.00  0.00     0.004 C 
ENDBRANCH   6   7
ENDBRANCH   1   6
TORSDOF 4
ENDMDL
MODEL 3
REMARK VINA RESULT:    -2.928      4.862      6.445
REMARK INTER + INTRA:          -3.724
REMARK INTER:                  -3.624
REMARK INTRA:                  -0.100
REMARK UNBOUND:                -0.111
REMARK SMILES CCCCCC(=O)[O-]
REMARK SMILES IDX 4 1 5 2 6 3 7 4 8 5 3 6 2 7 1 8
REMARK H PARENT
REMARK Flexibility Score: inf
ROOT
ATOM      1  C   UNL     1     112.460  53.462 225.862  1.00  0.00     0.006 C 
ENDROOT
BRANCH   1   2
ATOM      2  C   UNL     1     110.968  53.779 226.056  1.00  0.00     0.053 C 
BRANCH   2   3
ATOM      3  C   UNL     1     110.103  52.997 225.119  1.00  0.00     0.041 C 
ATOM      4  O   UNL     1     109.938  53.386 223.932  1.00  0.00    -0.550 OA
ATOM      5  O   UNL     1     109.502  51.819 225.546  1.00  0.00    -0.550 OA
ENDBRANCH   2   3
ENDBRANCH   1   2
BRANCH   1   6
ATOM      6  C   UNL     1     113.237  53.246 227.174  1.00  0.00     0.000 C 
BRANCH   6   7
ATOM      7  C   UNL     1     113.122  54.440 228.135  1.00  0.00    -0.003 C 
ATOM      8  C   UNL     1     112.861  53.971 229.563  1.00  0.00     0.004 C 
ENDBRANCH   6   7
ENDBRANCH   1   6
TORSDOF 4
ENDMDL
MODEL 4
REMARK VINA RESULT:    -2.857      4.727      7.279
REMARK INTER + INTRA:          -3.636
REMARK INTER:                  -3.569
REMARK INTRA:                  -0.067
REMARK UNBOUND:                -0.111
REMARK SMILES CCCCCC(=O)[O-]
REMARK SMILES IDX 4 1 5 2 6 3 7 4 8 5 3 6 2 7 1 8
REMARK H PARENT
REMARK Flexibility Score: inf
ROOT
ATOM      1  C   UNL     1     106.065  49.342 232.301  1.00  0.00     0.006 C 
ENDROOT
BRANCH   1   2
ATOM      2  C   UNL     1     107.271  49.630 231.393  1.00  0.00     0.053 C 
BRANCH   2   3
ATOM      3  C   UNL     1     108.496  49.974 232.182  1.00  0.00     0.041 C 
ATOM      4  O   UNL     1     108.651  51.139 232.636  1.00  0.00    -0.550 OA
ATOM      5  O   UNL     1     109.452  49.001 232.443  1.00  0.00    -0.550 OA
ENDBRANCH   2   3
ENDBRANCH   1   2
BRANCH   1   6
ATOM      6  C   UNL     1     105.279  48.072 231.926  1.00  0.00     0.000 C 
BRANCH   6   7
ATOM      7  C   UNL     1     104.012  47.885 232.775  1.00  0.00    -0.003 C 
ATOM      8  C   UNL     1     104.346  47.878 234.264  1.00  0.00     0.004 C 
ENDBRANCH   6   7
ENDBRANCH   1   6
TORSDOF 4
ENDMDL
MODEL 5
REMARK VINA RESULT:    -2.806     19.093     20.484
REMARK INTER + INTRA:          -3.573
REMARK INTER:                  -3.450
REMARK INTRA:                  -0.124
REMARK UNBOUND:                -0.111
REMARK SMILES CCCCCC(=O)[O-]
REMARK SMILES IDX 4 1 5 2 6 3 7 4 8 5 3 6 2 7 1 8
REMARK H PARENT
REMARK Flexibility Score: inf
ROOT
ATOM      1  C   UNL     1     111.657  64.016 215.943  1.00  0.00     0.006 C 
ENDROOT
BRANCH   1   2
ATOM      2  C   UNL     1     111.508  65.483 216.376  1.00  0.00     0.053 C 
BRANCH   2   3
ATOM      3  C   UNL     1     112.636  66.331 215.879  1.00  0.00     0.041 C 
ATOM      4  O   UNL     1     113.540  65.827 215.160  1.00  0.00    -0.550 OA
ATOM      5  O   UNL     1     112.675  67.686 216.182  1.00  0.00    -0.550 OA
ENDBRANCH   2   3
ENDBRANCH   1   2
BRANCH   1   6
ATOM      6  C   UNL     1     110.613  63.551 214.911  1.00  0.00     0.000 C 
BRANCH   6   7
ATOM      7  C   UNL     1     110.122  62.118 215.166  1.00  0.00    -0.003 C 
ATOM      8  C   UNL     1     110.750  61.540 216.431  1.00  0.00     0.004 C 
ENDBRANCH   6   7
ENDBRANCH   1   6
TORSDOF 4
ENDMDL
MODEL 6
REMARK VINA RESULT:    -2.795     19.110     20.403
REMARK INTER + INTRA:          -3.560
REMARK INTER:                  -3.444
REMARK INTRA:                  -0.116
REMARK UNBOUND:                -0.111
REMARK SMILES CCCCCC(=O)[O-]
REMARK SMILES IDX 4 1 5 2 6 3 7 4 8 5 3 6 2 7 1 8
REMARK H PARENT
REMARK Flexibility Score: inf
ROOT
ATOM      1  C   UNL     1     111.578  64.113 216.266  1.00  0.00     0.006 C 
ENDROOT
BRANCH   1   2
ATOM      2  C   UNL     1     111.534  65.599 216.656  1.00  0.00     0.053 C 
BRANCH   2   3
ATOM      3  C   UNL     1     112.614  66.387 215.984  1.00  0.00     0.041 C 
ATOM      4  O   UNL     1     112.661  67.639 216.114  1.00  0.00    -0.550 OA
ATOM      5  O   UNL     1     113.590  65.736 215.239  1.00  0.00    -0.550 OA
ENDBRANCH   2   3
ENDBRANCH   1   2
BRANCH   1   6
ATOM      6  C   UNL     1     110.662  63.741 215.084  1.00  0.00     0.000 C 
BRANCH   6   7
ATOM      7  C   UNL     1     110.301  62.248 215.061  1.00  0.00    -0.003 C 
ATOM      8  C   UNL     1     110.699  61.567 216.367  1.00  0.00     0.004 C 
ENDBRANCH   6   7
ENDBRANCH   1   6
TORSDOF 4
ENDMDL
MODEL 7
REMARK VINA RESULT:    -2.792      4.388      6.078
REMARK INTER + INTRA:          -3.556
REMARK INTER:                  -3.459
REMARK INTRA:                  -0.096
REMARK UNBOUND:                -0.111
REMARK SMILES CCCCCC(=O)[O-]
REMARK SMILES IDX 4 1 5 2 6 3 7 4 8 5 3 6 2 7 1 8
REMARK H PARENT
REMARK Flexibility Score: inf
ROOT
ATOM      1  C   UNL     1     112.978  53.555 228.214  1.00  0.00     0.006 C 
ENDROOT
BRANCH   1   2
ATOM      2  C   UNL     1     113.554  53.406 226.797  1.00  0.00     0.053 C 
BRANCH   2   3
ATOM      3  C   UNL     1     112.483  53.423 225.752  1.00  0.00     0.041 C 
ATOM      4  O   UNL     1     112.759  53.741 224.565  1.00  0.00    -0.550 OA
ATOM      5  O   UNL     1     111.184  53.056 226.082  1.00  0.00    -0.550 OA
ENDBRANCH   2   3
ENDBRANCH   1   2
BRANCH   1   6
ATOM      6  C   UNL     1     113.405  54.845 228.939  1.00  0.00     0.000 C 
BRANCH   6   7
ATOM      7  C   UNL     1     113.103  54.807 230.445  1.00  0.00    -0.003 C 
ATOM      8  C   UNL     1     112.575  53.438 230.864  1.00  0.00     0.004 C 
ENDBRANCH   6   7
ENDBRANCH   1   6
TORSDOF 4
ENDMDL
MODEL 8
REMARK VINA RESULT:    -2.784      2.977      3.916
REMARK INTER + INTRA:          -3.546
REMARK INTER:                  -3.445
REMARK INTRA:                  -0.101
REMARK UNBOUND:                -0.111
REMARK SMILES CCCCCC(=O)[O-]
REMARK SMILES IDX 4 1 5 2 6 3 7 4 8 5 3 6 2 7 1 8
REMARK H PARENT
REMARK Flexibility Score: inf
ROOT
ATOM      1  C   UNL     1     113.457  54.947 229.830  1.00  0.00     0.006 C 
ENDROOT
BRANCH   1   2
ATOM      2  C   UNL     1     112.777  53.778 230.562  1.00  0.00     0.053 C 
BRANCH   2   3
ATOM      3  C   UNL     1     113.265  53.638 231.969  1.00  0.00     0.041 C 
ATOM      4  O   UNL     1     113.616  54.656 232.624  1.00  0.00    -0.550 OA
ATOM      5  O   UNL     1     113.305  52.387 232.571  1.00  0.00    -0.550 OA
ENDBRANCH   2   3
ENDBRANCH   1   2
BRANCH   1   6
ATOM      6  C   UNL     1     113.447  54.824 228.295  1.00  0.00     0.000 C 
BRANCH   6   7
ATOM      7  C   UNL     1     112.988  53.439 227.813  1.00  0.00    -0.003 C 
ATOM      8  C   UNL     1     113.634  53.082 226.477  1.00  0.00     0.004 C 
ENDBRANCH   6   7
ENDBRANCH   1   6
TORSDOF 4
ENDMDL
MODEL 9
REMARK VINA RESULT:    -2.743     18.156     19.819
REMARK INTER + INTRA:          -3.495
REMARK INTER:                  -3.357
REMARK INTRA:                  -0.139
REMARK UNBOUND:                -0.111
REMARK SMILES CCCCCC(=O)[O-]
REMARK SMILES IDX 4 1 5 2 6 3 7 4 8 5 3 6 2 7 1 8
REMARK H PARENT
REMARK Flexibility Score: inf
ROOT
ATOM      1  C   UNL     1     111.123  65.241 217.466  1.00  0.00     0.006 C 
ENDROOT
BRANCH   1   2
ATOM      2  C   UNL     1     111.537  65.214 215.986  1.00  0.00     0.053 C 
BRANCH   2   3
ATOM      3  C   UNL     1     112.714  66.099 215.718  1.00  0.00     0.041 C 
ATOM      4  O   UNL     1     113.748  65.631 215.172  1.00  0.00    -0.550 OA
ATOM      5  O   UNL     1     112.658  67.449 216.042  1.00  0.00    -0.550 OA
ENDBRANCH   2   3
ENDBRANCH   1   2
BRANCH   1   6
ATOM      6  C   UNL     1     111.540  63.990 218.263  1.00  0.00     0.000 C 
BRANCH   6   7
ATOM      7  C   UNL     1     111.777  62.766 217.365  1.00  0.00    -0.003 C 
ATOM      8  C   UNL     1     111.134  61.517 217.960  1.00  0.00     0.004 C 
ENDBRANCH   6   7
ENDBRANCH   1   6
TORSDOF 4
ENDMDL
