MODEL 1
REMARK VINA RESULT:    -2.854      0.000      0.000
REMARK INTER + INTRA:          -7.078
REMARK INTER:                  -5.190
REMARK INTRA:                  -1.888
REMARK UNBOUND:                -1.888
REMARK SMILES CCCCCCCCCCCCCCCC(=O)[O-]
REMARK SMILES IDX 9 1 10 2 11 3 12 4 13 5 14 6 15 7 16 8 17 9 18 10 8 11 7 12
REMARK SMILES IDX 6 13 5 14 4 15 3 16 2 17 1 18
REMARK H PARENT
REMARK Flexibility Score: inf
ROOT
ATOM      1  C   UNL     1      14.149  38.325  10.628  1.00  0.00     0.000 C 
ENDROOT
BRANCH   1   2
ATOM      2  C   UNL     1      14.714  39.045   9.391  1.00  0.00     0.000 C 
BRANCH   2   3
ATOM      3  C   UNL     1      14.109  38.523   8.077  1.00  0.00     0.000 C 
BRANCH   3   4
ATOM      4  C   UNL     1      14.994  38.819   6.857  1.00  0.00     0.000 C 
BRANCH   4   5
ATOM      5  C   UNL     1      16.412  39.218   7.292  1.00  0.00     0.000 C 
BRANCH   5   6
ATOM      6  C   UNL     1      16.753  40.681   6.952  1.00  0.00     0.006 C 
BRANCH   6   7
ATOM      7  C   UNL     1      17.100  41.551   8.170  1.00  0.00     0.053 C 
BRANCH   7   8
ATOM      8  C   UNL     1      16.040  42.571   8.453  1.00  0.00     0.041 C 
ATOM      9  O   UNL     1      14.846  42.353   8.121  1.00  0.00    -0.550 OA
ATOM     10  O   UNL     1      16.368  43.748   9.112  1.00  0.00    -0.550 OA
ENDBRANCH   7   8
ENDBRANCH   6   7
ENDBRANCH   5   6
ENDBRANCH   4   5
ENDBRANCH   3   4
ENDBRANCH   2   3
ENDBRANCH   1   2
BRANCH   1  11
ATOM     11  C   UNL     1      14.879  37.006  10.927  1.00  0.00     0.000 C 
BRANCH  11  12
ATOM     12  C   UNL     1      16.255  37.228  11.580  1.00  0.00    -0.000 C 
BRANCH  12  13
ATOM     13  C   UNL     1      16.308  36.740  13.040  1.00  0.00    -0.000 C 
BRANCH  13  14
ATOM     14  C   UNL     1      16.389  37.858  14.100  1.00  0.00    -0.000 C 
BRANCH  14  15
ATOM     15  C   UNL     1      15.191  38.828  14.125  1.00  0.00    -0.000 C 
BRANCH  15  16
ATOM     16  C   UNL     1      15.544  40.303  13.857  1.00  0.00    -0.000 C 
BRANCH  16  17
ATOM     17  C   UNL     1      16.860  40.469  13.085  1.00  0.00    -0.003 C 
ATOM     18  C   UNL     1      16.697  41.447  11.926  1.00  0.00     0.004 C 
ENDBRANCH  16  17
ENDBRANCH  15  16
ENDBRANCH  14  15
ENDBRANCH  13  14
ENDBRANCH  12  13
ENDBRANCH  11  12
ENDBRANCH   1  11
TORSDOF 14
ENDMDL
MODEL 2
REMARK VINA RESULT:    -2.589      3.175      6.058
REMARK INTER + INTRA:          -6.597
REMARK INTER:                  -5.206
REMARK INTRA:                  -1.390
REMARK UNBOUND:                -1.888
REMARK SMILES CCCCCCCCCCCCCCCC(=O)[O-]
REMARK SMILES IDX 9 1 10 2 11 3 12 4 13 5 14 6 15 7 16 8 17 9 18 10 8 11 7 12
REMARK SMILES IDX 6 13 5 14 4 15 3 16 2 17 1 18
REMARK H PARENT
REMARK Flexibility Score: inf
ROOT
ATOM      1  C   UNL     1      14.055  38.267   7.951  1.00  0.00     0.000 C 
ENDROOT
BRANCH   1   2
ATOM      2  C   UNL     1      14.297  38.986   9.290  1.00  0.00     0.000 C 
BRANCH   2   3
ATOM      3  C   UNL     1      14.209  38.035  10.495  1.00  0.00     0.000 C 
BRANCH   3   4
ATOM      4  C   UNL     1      14.930  38.581  11.737  1.00  0.00     0.000 C 
BRANCH   4   5
ATOM      5  C   UNL     1      14.615  37.727  12.974  1.00  0.00     0.000 C 
BRANCH   5   6
ATOM      6  C   UNL     1      15.761  37.720  14.003  1.00  0.00     0.006 C 
BRANCH   6   7
ATOM      7  C   UNL     1      17.009  36.943  13.556  1.00  0.00     0.053 C 
BRANCH   7   8
ATOM      8  C   UNL     1      16.680  35.543  13.140  1.00  0.00     0.041 C 
ATOM      9  O   UNL     1      16.642  35.235  11.920  1.00  0.00    -0.550 OA
ATOM     10  O   UNL     1      16.446  34.570  14.104  1.00  0.00    -0.550 OA
ENDBRANCH   7   8
ENDBRANCH   6   7
ENDBRANCH   5   6
ENDBRANCH   4   5
ENDBRANCH   3   4
ENDBRANCH   2   3
ENDBRANCH   1   2
BRANCH   1  11
ATOM     11  C   UNL     1      14.698  39.001   6.764  1.00  0.00     0.000 C 
BRANCH  11  12
ATOM     12  C   UNL     1      16.216  38.766   6.676  1.00  0.00    -0.000 C 
BRANCH  12  13
ATOM     13  C   UNL     1      17.031  40.062   6.842  1.00  0.00    -0.000 C 
BRANCH  13  14
ATOM     14  C   UNL     1      16.233  41.272   7.368  1.00  0.00    -0.000 C 
BRANCH  14  15
ATOM     15  C   UNL     1      16.940  42.099   8.461  1.00  0.00    -0.000 C 
BRANCH  15  16
ATOM     16  C   UNL     1      16.222  42.123   9.823  1.00  0.00    -0.000 C 
BRANCH  16  17
ATOM     17  C   UNL     1      16.943  41.288  10.890  1.00  0.00    -0.003 C 
ATOM     18  C   UNL     1      16.964  42.012  12.233  1.00  0.00     0.004 C 
ENDBRANCH  16  17
ENDBRANCH  15  16
ENDBRANCH  14  15
ENDBRANCH  13  14
ENDBRANCH  12  13
ENDBRANCH  11  12
ENDBRANCH   1  11
TORSDOF 14
ENDMDL
MODEL 3
REMARK VINA RESULT:    -2.292      1.592      2.746
REMARK INTER + INTRA:          -6.057
REMARK INTER:                  -5.007
REMARK INTRA:                  -1.050
REMARK UNBOUND:                -1.888
REMARK SMILES CCCCCCCCCCCCCCCC(=O)[O-]
REMARK SMILES IDX 9 1 10 2 11 3 12 4 13 5 14 6 15 7 16 8 17 9 18 10 8 11 7 12
REMARK SMILES IDX 6 13 5 14 4 15 3 16 2 17 1 18
REMARK H PARENT
REMARK Flexibility Score: inf
ROOT
ATOM      1  C   UNL     1      13.820  38.274   8.048  1.00  0.00     0.000 C 
ENDROOT
BRANCH   1   2
ATOM      2  C   UNL     1      14.578  39.157   7.041  1.00  0.00     0.000 C 
BRANCH   2   3
ATOM      3  C   UNL     1      15.631  38.372   6.242  1.00  0.00     0.000 C 
BRANCH   3   4
ATOM      4  C   UNL     1      17.044  38.956   6.387  1.00  0.00     0.000 C 
BRANCH   4   5
ATOM      5  C   UNL     1      17.125  39.902   7.594  1.00  0.00     0.000 C 
BRANCH   5   6
ATOM      6  C   UNL     1      17.120  41.388   7.190  1.00  0.00     0.006 C 
BRANCH   6   7
ATOM      7  C   UNL     1      16.031  42.228   7.877  1.00  0.00     0.053 C 
BRANCH   7   8
ATOM      8  C   UNL     1      16.568  42.999   9.042  1.00  0.00     0.041 C 
ATOM      9  O   UNL     1      16.866  44.216   8.916  1.00  0.00    -0.550 OA
ATOM     10  O   UNL     1      16.709  42.381  10.278  1.00  0.00    -0.550 OA
ENDBRANCH   7   8
ENDBRANCH   6   7
ENDBRANCH   5   6
ENDBRANCH   4   5
ENDBRANCH   3   4
ENDBRANCH   2   3
ENDBRANCH   1   2
BRANCH   1  11
ATOM     11  C   UNL     1      14.063  38.700   9.505  1.00  0.00     0.000 C 
BRANCH  11  12
ATOM     12  C   UNL     1      15.542  38.590   9.913  1.00  0.00    -0.000 C 
BRANCH  12  13
ATOM     13  C   UNL     1      15.767  38.843  11.416  1.00  0.00    -0.000 C 
BRANCH  13  14
ATOM     14  C   UNL     1      14.631  38.354  12.337  1.00  0.00    -0.000 C 
BRANCH  14  15
ATOM     15  C   UNL     1      15.089  37.583  13.591  1.00  0.00    -0.000 C 
BRANCH  15  16
ATOM     16  C   UNL     1      16.573  37.171  13.594  1.00  0.00    -0.000 C 
BRANCH  16  17
ATOM     17  C   UNL     1      16.775  35.671  13.340  1.00  0.00    -0.003 C 
ATOM     18  C   UNL     1      16.736  35.356  11.848  1.00  0.00     0.004 C 
ENDBRANCH  16  17
ENDBRANCH  15  16
ENDBRANCH  14  15
ENDBRANCH  13  14
ENDBRANCH  12  13
ENDBRANCH  11  12
ENDBRANCH   1  11
TORSDOF 14
ENDMDL
MODEL 4
REMARK VINA RESULT:    -2.258      1.610      3.113
REMARK INTER + INTRA:          -5.994
REMARK INTER:                  -4.943
REMARK INTRA:                  -1.051
REMARK UNBOUND:                -1.888
REMARK SMILES CCCCCCCCCCCCCCCC(=O)[O-]
REMARK SMILES IDX 9 1 10 2 11 3 12 4 13 5 14 6 15 7 16 8 17 9 18 10 8 11 7 12
REMARK SMILES IDX 6 13 5 14 4 15 3 16 2 17 1 18
REMARK H PARENT
REMARK Flexibility Score: inf
ROOT
ATOM      1  C   UNL     1      14.105  38.432   7.788  1.00  0.00     0.000 C 
ENDROOT
BRANCH   1   2
ATOM      2  C   UNL     1      15.161  38.909   6.775  1.00  0.00     0.000 C 
BRANCH   2   3
ATOM      3  C   UNL     1      16.394  39.528   7.454  1.00  0.00     0.000 C 
BRANCH   3   4
ATOM      4  C   UNL     1      16.991  40.695   6.653  1.00  0.00     0.000 C 
BRANCH   4   5
ATOM      5  C   UNL     1      17.122  41.949   7.528  1.00  0.00     0.000 C 
BRANCH   5   6
ATOM      6  C   UNL     1      15.870  42.213   8.386  1.00  0.00     0.006 C 
BRANCH   6   7
ATOM      7  C   UNL     1      16.121  43.098   9.617  1.00  0.00     0.053 C 
BRANCH   7   8
ATOM      8  C   UNL     1      16.535  42.294  10.811  1.00  0.00     0.041 C 
ATOM      9  O   UNL     1      16.784  41.066  10.694  1.00  0.00    -0.550 OA
ATOM     10  O   UNL     1      16.677  42.911  12.048  1.00  0.00    -0.550 OA
ENDBRANCH   7   8
ENDBRANCH   6   7
ENDBRANCH   5   6
ENDBRANCH   4   5
ENDBRANCH   3   4
ENDBRANCH   2   3
ENDBRANCH   1   2
BRANCH   1  11
ATOM     11  C   UNL     1      14.287  39.071   9.174  1.00  0.00     0.000 C 
BRANCH  11  12
ATOM     12  C   UNL     1      14.970  38.124  10.176  1.00  0.00    -0.000 C 
BRANCH  12  13
ATOM     13  C   UNL     1      14.087  37.813  11.399  1.00  0.00    -0.000 C 
BRANCH  13  14
ATOM     14  C   UNL     1      14.428  38.614  12.672  1.00  0.00    -0.000 C 
BRANCH  14  15
ATOM     15  C   UNL     1      14.880  37.767  13.879  1.00  0.00    -0.000 C 
BRANCH  15  16
ATOM     16  C   UNL     1      16.398  37.525  13.970  1.00  0.00    -0.000 C 
BRANCH  16  17
ATOM     17  C   UNL     1      16.864  36.339  13.115  1.00  0.00    -0.003 C 
ATOM     18  C   UNL     1      16.756  35.028  13.888  1.00  0.00     0.004 C 
ENDBRANCH  16  17
ENDBRANCH  15  16
ENDBRANCH  14  15
ENDBRANCH  13  14
ENDBRANCH  12  13
ENDBRANCH  11  12
ENDBRANCH   1  11
TORSDOF 14
ENDMDL
MODEL 5
REMARK VINA RESULT:    -2.037      1.575      5.113
REMARK INTER + INTRA:          -5.593
REMARK INTER:                  -4.243
REMARK INTRA:                  -1.350
REMARK UNBOUND:                -1.888
REMARK SMILES CCCCCCCCCCCCCCCC(=O)[O-]
REMARK SMILES IDX 9 1 10 2 11 3 12 4 13 5 14 6 15 7 16 8 17 9 18 10 8 11 7 12
REMARK SMILES IDX 6 13 5 14 4 15 3 16 2 17 1 18
REMARK H PARENT
REMARK Flexibility Score: inf
ROOT
ATOM      1  C   UNL     1      13.914  37.841   8.551  1.00  0.00     0.000 C 
ENDROOT
BRANCH   1   2
ATOM      2  C   UNL     1      14.226  38.540   9.886  1.00  0.00     0.000 C 
BRANCH   2   3
ATOM      3  C   UNL     1      14.757  37.567  10.953  1.00  0.00     0.000 C 
BRANCH   3   4
ATOM      4  C   UNL     1      16.174  37.923  11.428  1.00  0.00     0.000 C 
BRANCH   4   5
ATOM      5  C   UNL     1      16.189  38.214  12.936  1.00  0.00     0.000 C 
BRANCH   5   6
ATOM      6  C   UNL     1      15.300  39.411  13.322  1.00  0.00     0.006 C 
BRANCH   6   7
ATOM      7  C   UNL     1      16.062  40.591  13.945  1.00  0.00     0.053 C 
BRANCH   7   8
ATOM      8  C   UNL     1      16.390  41.645  12.933  1.00  0.00     0.041 C 
ATOM      9  O   UNL     1      16.786  41.320  11.783  1.00  0.00    -0.550 OA
ATOM     10  O   UNL     1      16.225  42.987  13.251  1.00  0.00    -0.550 OA
ENDBRANCH   7   8
ENDBRANCH   6   7
ENDBRANCH   5   6
ENDBRANCH   4   5
ENDBRANCH   3   4
ENDBRANCH   2   3
ENDBRANCH   1   2
BRANCH   1  11
ATOM     11  C   UNL     1      13.952  38.808   7.357  1.00  0.00     0.000 C 
BRANCH  11  12
ATOM     12  C   UNL     1      15.286  38.749   6.592  1.00  0.00    -0.000 C 
BRANCH  12  13
ATOM     13  C   UNL     1      16.504  38.628   7.527  1.00  0.00    -0.000 C 
BRANCH  13  14
ATOM     14  C   UNL     1      17.125  39.969   7.968  1.00  0.00    -0.000 C 
BRANCH  14  15
ATOM     15  C   UNL     1      16.847  41.160   7.031  1.00  0.00    -0.000 C 
BRANCH  15  16
ATOM     16  C   UNL     1      16.583  42.500   7.744  1.00  0.00    -0.000 C 
BRANCH  16  17
ATOM     17  C   UNL     1      15.259  42.510   8.521  1.00  0.00    -0.003 C 
ATOM     18  C   UNL     1      15.267  43.583   9.605  1.00  0.00     0.004 C 
ENDBRANCH  16  17
ENDBRANCH  15  16
ENDBRANCH  14  15
ENDBRANCH  13  14
ENDBRANCH  12  13
ENDBRANCH  11  12
ENDBRANCH   1  11
TORSDOF 14
ENDMDL
MODEL 6
REMARK VINA RESULT:    -1.977      2.107      3.685
REMARK INTER + INTRA:          -5.483
REMARK INTER:                  -3.790
REMARK INTRA:                  -1.693
REMARK UNBOUND:                -1.888
REMARK SMILES CCCCCCCCCCCCCCCC(=O)[O-]
REMARK SMILES IDX 9 1 10 2 11 3 12 4 13 5 14 6 15 7 16 8 17 9 18 10 8 11 7 12
REMARK SMILES IDX 6 13 5 14 4 15 3 16 2 17 1 18
REMARK H PARENT
REMARK Flexibility Score: inf
ROOT
ATOM      1  C   UNL     1      13.706  38.441  12.891  1.00  0.00     0.000 C 
ENDROOT
BRANCH   1   2
ATOM      2  C   UNL     1      14.494  38.582  11.576  1.00  0.00     0.000 C 
BRANCH   2   3
ATOM      3  C   UNL     1      14.991  37.231  11.036  1.00  0.00     0.000 C 
BRANCH   3   4
ATOM      4  C   UNL     1      16.523  37.145  10.971  1.00  0.00     0.000 C 
BRANCH   4   5
ATOM      5  C   UNL     1      17.125  38.462  10.461  1.00  0.00     0.000 C 
BRANCH   5   6
ATOM      6  C   UNL     1      17.057  38.595   8.928  1.00  0.00     0.006 C 
BRANCH   6   7
ATOM      7  C   UNL     1      15.915  39.488   8.419  1.00  0.00     0.053 C 
BRANCH   7   8
ATOM      8  C   UNL     1      15.063  38.788   7.406  1.00  0.00     0.041 C 
ATOM      9  O   UNL     1      15.455  38.677   6.215  1.00  0.00    -0.550 OA
ATOM     10  O   UNL     1      13.850  38.228   7.787  1.00  0.00    -0.550 OA
ENDBRANCH   7   8
ENDBRANCH   6   7
ENDBRANCH   5   6
ENDBRANCH   4   5
ENDBRANCH   3   4
ENDBRANCH   2   3
ENDBRANCH   1   2
BRANCH   1  11
ATOM     11  C   UNL     1      14.612  38.104  14.086  1.00  0.00     0.000 C 
BRANCH  11  12
ATOM     12  C   UNL     1      15.901  38.943  14.104  1.00  0.00    -0.000 C 
BRANCH  12  13
ATOM     13  C   UNL     1      15.627  40.459  14.122  1.00  0.00    -0.000 C 
BRANCH  13  14
ATOM     14  C   UNL     1      16.818  41.344  13.705  1.00  0.00    -0.000 C 
BRANCH  14  15
ATOM     15  C   UNL     1      16.489  42.448  12.681  1.00  0.00    -0.000 C 
BRANCH  15  16
ATOM     16  C   UNL     1      16.331  41.960  11.228  1.00  0.00    -0.000 C 
BRANCH  16  17
ATOM     17  C   UNL     1      16.428  43.100  10.204  1.00  0.00    -0.003 C 
ATOM     18  C   UNL     1      15.284  43.032   9.198  1.00  0.00     0.004 C 
ENDBRANCH  16  17
ENDBRANCH  15  16
ENDBRANCH  14  15
ENDBRANCH  13  14
ENDBRANCH  12  13
ENDBRANCH  11  12
ENDBRANCH   1  11
TORSDOF 14
ENDMDL
MODEL 7
REMARK VINA RESULT:    -1.943      2.017      3.829
REMARK INTER + INTRA:          -5.422
REMARK INTER:                  -4.019
REMARK INTRA:                  -1.403
REMARK UNBOUND:                -1.888
REMARK SMILES CCCCCCCCCCCCCCCC(=O)[O-]
REMARK SMILES IDX 9 1 10 2 11 3 12 4 13 5 14 6 15 7 16 8 17 9 18 10 8 11 7 12
REMARK SMILES IDX 6 13 5 14 4 15 3 16 2 17 1 18
REMARK H PARENT
REMARK Flexibility Score: inf
ROOT
ATOM      1  C   UNL     1      15.867  39.352   7.240  1.00  0.00     0.000 C 
ENDROOT
BRANCH   1   2
ATOM      2  C   UNL     1      15.154  40.708   7.397  1.00  0.00     0.000 C 
BRANCH   2   3
ATOM      3  C   UNL     1      16.006  41.885   6.893  1.00  0.00     0.000 C 
BRANCH   3   4
ATOM      4  C   UNL     1      17.062  42.334   7.914  1.00  0.00     0.000 C 
BRANCH   4   5
ATOM      5  C   UNL     1      16.417  43.144   9.048  1.00  0.00     0.000 C 
BRANCH   5   6
ATOM      6  C   UNL     1      16.304  42.348  10.362  1.00  0.00     0.006 C 
BRANCH   6   7
ATOM      7  C   UNL     1      17.122  42.928  11.527  1.00  0.00     0.053 C 
BRANCH   7   8
ATOM      8  C   UNL     1      16.560  42.536  12.858  1.00  0.00     0.041 C 
ATOM      9  O   UNL     1      17.110  41.630  13.538  1.00  0.00    -0.550 OA
ATOM     10  O   UNL     1      15.446  43.195  13.362  1.00  0.00    -0.550 OA
ENDBRANCH   7   8
ENDBRANCH   6   7
ENDBRANCH   5   6
ENDBRANCH   4   5
ENDBRANCH   3   4
ENDBRANCH   2   3
ENDBRANCH   1   2
BRANCH   1  11
ATOM     11  C   UNL     1      16.138  38.670   8.591  1.00  0.00     0.000 C 
BRANCH  11  12
ATOM     12  C   UNL     1      15.105  39.055   9.664  1.00  0.00    -0.000 C 
BRANCH  12  13
ATOM     13  C   UNL     1      14.407  37.831  10.286  1.00  0.00    -0.000 C 
BRANCH  13  14
ATOM     14  C   UNL     1      15.269  37.021  11.277  1.00  0.00    -0.000 C 
BRANCH  14  15
ATOM     15  C   UNL     1      15.876  37.836  12.435  1.00  0.00    -0.000 C 
BRANCH  15  16
ATOM     16  C   UNL     1      15.028  37.870  13.720  1.00  0.00    -0.000 C 
BRANCH  16  17
ATOM     17  C   UNL     1      14.167  39.137  13.831  1.00  0.00    -0.003 C 
ATOM     18  C   UNL     1      12.681  38.795  13.804  1.00  0.00     0.004 C 
ENDBRANCH  16  17
ENDBRANCH  15  16
ENDBRANCH  14  15
ENDBRANCH  13  14
ENDBRANCH  12  13
ENDBRANCH  11  12
ENDBRANCH   1  11
TORSDOF 14
ENDMDL
MODEL 8
REMARK VINA RESULT:    -0.546      1.193      2.238
REMARK INTER + INTRA:          -2.881
REMARK INTER:                  -1.706
REMARK INTRA:                  -1.174
REMARK UNBOUND:                -1.888
REMARK SMILES CCCCCCCCCCCCCCCC(=O)[O-]
REMARK SMILES IDX 9 1 10 2 11 3 12 4 13 5 14 6 15 7 16 8 17 9 18 10 8 11 7 12
REMARK SMILES IDX 6 13 5 14 4 15 3 16 2 17 1 18
REMARK H PARENT
REMARK Flexibility Score: inf
ROOT
ATOM      1  C   UNL     1      14.033  38.467   8.442  1.00  0.00     0.000 C 
ENDROOT
BRANCH   1   2
ATOM      2  C   UNL     1      14.601  39.091   7.154  1.00  0.00     0.000 C 
BRANCH   2   3
ATOM      3  C   UNL     1      15.921  38.438   6.713  1.00  0.00     0.000 C 
BRANCH   3   4
ATOM      4  C   UNL     1      17.024  39.467   6.421  1.00  0.00     0.000 C 
BRANCH   4   5
ATOM      5  C   UNL     1      17.125  40.498   7.553  1.00  0.00     0.000 C 
BRANCH   5   6
ATOM      6  C   UNL     1      17.057  41.951   7.046  1.00  0.00     0.006 C 
BRANCH   6   7
ATOM      7  C   UNL     1      17.075  43.012   8.158  1.00  0.00     0.053 C 
BRANCH   7   8
ATOM      8  C   UNL     1      15.825  42.982   8.982  1.00  0.00     0.041 C 
ATOM      9  O   UNL     1      15.828  43.439  10.156  1.00  0.00    -0.550 OA
ATOM     10  O   UNL     1      14.649  42.479   8.442  1.00  0.00    -0.550 OA
ENDBRANCH   7   8
ENDBRANCH   6   7
ENDBRANCH   5   6
ENDBRANCH   4   5
ENDBRANCH   3   4
ENDBRANCH   2   3
ENDBRANCH   1   2
BRANCH   1  11
ATOM     11  C   UNL     1      14.924  38.730   9.666  1.00  0.00     0.000 C 
BRANCH  11  12
ATOM     12  C   UNL     1      14.804  37.626  10.731  1.00  0.00    -0.000 C 
BRANCH  12  13
ATOM     13  C   UNL     1      16.097  37.441  11.547  1.00  0.00    -0.000 C 
BRANCH  13  14
ATOM     14  C   UNL     1      15.936  36.640  12.855  1.00  0.00    -0.000 C 
BRANCH  14  15
ATOM     15  C   UNL     1      15.648  37.485  14.111  1.00  0.00    -0.000 C 
BRANCH  15  16
ATOM     16  C   UNL     1      15.573  39.004  13.869  1.00  0.00    -0.000 C 
BRANCH  16  17
ATOM     17  C   UNL     1      14.172  39.579  14.121  1.00  0.00    -0.003 C 
ATOM     18  C   UNL     1      13.112  38.484  14.066  1.00  0.00     0.004 C 
ENDBRANCH  16  17
ENDBRANCH  15  16
ENDBRANCH  14  15
ENDBRANCH  13  14
ENDBRANCH  12  13
ENDBRANCH  11  12
ENDBRANCH   1  11
TORSDOF 14
ENDMDL
