MODEL 1
REMARK VINA RESULT:     6.354      0.000      0.000
REMARK INTER + INTRA:          14.285
REMARK INTER:                  16.756
REMARK INTRA:                  -2.471
REMARK UNBOUND:                -2.471
REMARK SMILES CCCCCCCCCCCCCCCCCCCCCCCCCCCCCC(=O)[O-]
REMARK SMILES IDX 16 1 17 2 18 3 19 4 20 5 21 6 22 7 23 8 24 9 25 10 26 11
REMARK SMILES IDX 27 12 28 13 29 14 30 15 31 16 32 17 15 18 14 19 13 20 12 21
REMARK SMILES IDX 11 22 10 23 9 24 8 25 7 26 6 27 5 28 4 29 3 30 2 31 1 32
REMARK H PARENT
REMARK Flexibility Score: inf
ROOT
ATOM      1  C   UNL     1       6.124 -37.431  22.456  1.00  0.00     0.000 C 
ENDROOT
BRANCH   1   2
ATOM      2  C   UNL     1       5.768 -38.148  21.136  1.00  0.00     0.000 C 
BRANCH   2   3
ATOM      3  C   UNL     1       5.103 -39.516  21.374  1.00  0.00     0.000 C 
BRANCH   3   4
ATOM      4  C   UNL     1       6.083 -40.567  21.920  1.00  0.00     0.000 C 
BRANCH   4   5
ATOM      5  C   UNL     1       5.370 -41.778  22.543  1.00  0.00     0.000 C 
BRANCH   5   6
ATOM      6  C   UNL     1       5.394 -41.708  24.075  1.00  0.00     0.000 C 
BRANCH   6   7
ATOM      7  C   UNL     1       5.901 -40.339  24.554  1.00  0.00     0.000 C 
BRANCH   7   8
ATOM      8  C   UNL     1       4.759 -39.361  24.884  1.00  0.00     0.000 C 
BRANCH   8   9
ATOM      9  C   UNL     1       5.194 -38.113  25.673  1.00  0.00     0.000 C 
BRANCH   9  10
ATOM     10  C   UNL     1       4.001 -37.325  26.243  1.00  0.00     0.000 C 
BRANCH  10  11
ATOM     11  C   UNL     1       3.043 -38.204  27.065  1.00  0.00     0.000 C 
BRANCH  11  12
ATOM     12  C   UNL     1       1.838 -37.458  27.666  1.00  0.00     0.000 C 
BRANCH  12  13
ATOM     13  C   UNL     1       2.005 -35.932  27.640  1.00  0.00     0.006 C 
BRANCH  13  14
ATOM     14  C   UNL     1       0.793 -35.235  28.268  1.00  0.00     0.053 C 
BRANCH  14  15
ATOM     15  C   UNL     1       1.208 -34.383  29.426  1.00  0.00     0.041 C 
ATOM     16  O   UNL     1       0.663 -33.264  29.618  1.00  0.00    -0.550 OA
ATOM     17  O   UNL     1       2.202 -34.822  30.293  1.00  0.00    -0.550 OA
ENDBRANCH  14  15
ENDBRANCH  13  14
ENDBRANCH  12  13
ENDBRANCH  11  12
ENDBRANCH  10  11
ENDBRANCH   9  10
ENDBRANCH   8   9
ENDBRANCH   7   8
ENDBRANCH   6   7
ENDBRANCH   5   6
ENDBRANCH   4   5
ENDBRANCH   3   4
ENDBRANCH   2   3
ENDBRANCH   1   2
BRANCH   1  18
ATOM     18  C   UNL     1       5.525 -36.015  22.578  1.00  0.00     0.000 C 
BRANCH  18  19
ATOM     19  C   UNL     1       4.245 -35.773  21.760  1.00  0.00     0.000 C 
BRANCH  19  20
ATOM     20  C   UNL     1       4.407 -34.649  20.723  1.00  0.00     0.000 C 
BRANCH  20  21
ATOM     21  C   UNL     1       5.735 -34.734  19.954  1.00  0.00     0.000 C 
BRANCH  21  22
ATOM     22  C   UNL     1       5.541 -35.073  18.469  1.00  0.00     0.000 C 
BRANCH  22  23
ATOM     23  C   UNL     1       4.151 -35.670  18.215  1.00  0.00     0.000 C 
BRANCH  23  24
ATOM     24  C   UNL     1       4.189 -37.203  18.288  1.00  0.00    -0.000 C 
BRANCH  24  25
ATOM     25  C   UNL     1       2.786 -37.835  18.299  1.00  0.00    -0.000 C 
BRANCH  25  26
ATOM     26  C   UNL     1       2.085 -37.801  16.923  1.00  0.00    -0.000 C 
BRANCH  26  27
ATOM     27  C   UNL     1       1.222 -36.537  16.708  1.00  0.00    -0.000 C 
BRANCH  27  28
ATOM     28  C   UNL     1       1.456 -35.839  15.354  1.00  0.00    -0.000 C 
BRANCH  28  29
ATOM     29  C   UNL     1       2.833 -36.129  14.726  1.00  0.00    -0.000 C 
BRANCH  29  30
ATOM     30  C   UNL     1       2.877 -37.483  13.998  1.00  0.00    -0.000 C 
BRANCH  30  31
ATOM     31  C   UNL     1       4.304 -38.038  13.875  1.00  0.00    -0.003 C 
ATOM     32  C   UNL     1       4.453 -39.422  14.509  1.00  0.00     0.004 C 
ENDBRANCH  30  31
ENDBRANCH  29  30
ENDBRANCH  28  29
ENDBRANCH  27  28
ENDBRANCH  26  27
ENDBRANCH  25  26
ENDBRANCH  24  25
ENDBRANCH  23  24
ENDBRANCH  22  23
ENDBRANCH  21  22
ENDBRANCH  20  21
ENDBRANCH  19  20
ENDBRANCH  18  19
ENDBRANCH   1  18
TORSDOF 28
ENDMDL
MODEL 2
REMARK VINA RESULT:     6.368      1.348      4.831
REMARK INTER + INTRA:          14.320
REMARK INTER:                  14.799
REMARK INTRA:                  -0.479
REMARK UNBOUND:                -2.471
REMARK SMILES CCCCCCCCCCCCCCCCCCCCCCCCCCCCCC(=O)[O-]
REMARK SMILES IDX 16 1 17 2 18 3 19 4 20 5 21 6 22 7 23 8 24 9 25 10 26 11
REMARK SMILES IDX 27 12 28 13 29 14 30 15 31 16 32 17 15 18 14 19 13 20 12 21
REMARK SMILES IDX 11 22 10 23 9 24 8 25 7 26 6 27 5 28 4 29 3 30 2 31 1 32
REMARK H PARENT
REMARK Flexibility Score: inf
ROOT
ATOM      1  C   UNL     1       1.430 -36.895  20.631  1.00  0.00     0.000 C 
ENDROOT
BRANCH   1   2
ATOM      2  C   UNL     1       2.808 -36.200  20.649  1.00  0.00     0.000 C 
BRANCH   2   3
ATOM      3  C   UNL     1       2.804 -34.909  21.486  1.00  0.00     0.000 C 
BRANCH   3   4
ATOM      4  C   UNL     1       4.218 -34.367  21.752  1.00  0.00     0.000 C 
BRANCH   4   5
ATOM      5  C   UNL     1       4.534 -34.240  23.250  1.00  0.00     0.000 C 
BRANCH   5   6
ATOM      6  C   UNL     1       5.770 -35.066  23.627  1.00  0.00     0.000 C 
BRANCH   6   7
ATOM      7  C   UNL     1       5.501 -35.917  24.877  1.00  0.00     0.000 C 
BRANCH   7   8
ATOM      8  C   UNL     1       6.116 -37.326  24.783  1.00  0.00     0.000 C 
BRANCH   8   9
ATOM      9  C   UNL     1       5.323 -38.420  25.522  1.00  0.00     0.000 C 
BRANCH   9  10
ATOM     10  C   UNL     1       3.817 -38.114  25.597  1.00  0.00     0.000 C 
BRANCH  10  11
ATOM     11  C   UNL     1       3.241 -38.297  27.012  1.00  0.00     0.000 C 
BRANCH  11  12
ATOM     12  C   UNL     1       2.051 -37.379  27.347  1.00  0.00     0.000 C 
BRANCH  12  13
ATOM     13  C   UNL     1       2.370 -36.366  28.456  1.00  0.00     0.006 C 
BRANCH  13  14
ATOM     14  C   UNL     1       1.705 -35.015  28.175  1.00  0.00     0.053 C 
BRANCH  14  15
ATOM     15  C   UNL     1       1.016 -34.495  29.397  1.00  0.00     0.041 C 
ATOM     16  O   UNL     1      -0.176 -34.094  29.332  1.00  0.00    -0.550 OA
ATOM     17  O   UNL     1       1.692 -34.447  30.611  1.00  0.00    -0.550 OA
ENDBRANCH  14  15
ENDBRANCH  13  14
ENDBRANCH  12  13
ENDBRANCH  11  12
ENDBRANCH  10  11
ENDBRANCH   9  10
ENDBRANCH   8   9
ENDBRANCH   7   8
ENDBRANCH   6   7
ENDBRANCH   5   6
ENDBRANCH   4   5
ENDBRANCH   3   4
ENDBRANCH   2   3
ENDBRANCH   1   2
BRANCH   1  18
ATOM     18  C   UNL     1       1.269 -37.936  19.506  1.00  0.00     0.000 C 
BRANCH  18  19
ATOM     19  C   UNL     1       0.332 -37.522  18.359  1.00  0.00     0.000 C 
BRANCH  19  20
ATOM     20  C   UNL     1       1.006 -37.612  16.980  1.00  0.00     0.000 C 
BRANCH  20  21
ATOM     21  C   UNL     1       1.102 -36.250  16.274  1.00  0.00     0.000 C 
BRANCH  21  22
ATOM     22  C   UNL     1       2.531 -35.918  15.816  1.00  0.00     0.000 C 
BRANCH  22  23
ATOM     23  C   UNL     1       3.498 -37.059  16.152  1.00  0.00     0.000 C 
BRANCH  23  24
ATOM     24  C   UNL     1       4.231 -36.788  17.474  1.00  0.00    -0.000 C 
BRANCH  24  25
ATOM     25  C   UNL     1       4.290 -35.293  17.828  1.00  0.00    -0.000 C 
BRANCH  25  26
ATOM     26  C   UNL     1       5.522 -34.909  18.677  1.00  0.00    -0.000 C 
BRANCH  26  27
ATOM     27  C   UNL     1       5.992 -36.039  19.618  1.00  0.00    -0.000 C 
BRANCH  27  28
ATOM     28  C   UNL     1       5.017 -37.230  19.707  1.00  0.00    -0.000 C 
BRANCH  28  29
ATOM     29  C   UNL     1       5.700 -38.583  19.990  1.00  0.00    -0.000 C 
BRANCH  29  30
ATOM     30  C   UNL     1       5.603 -38.995  21.468  1.00  0.00    -0.000 C 
BRANCH  30  31
ATOM     31  C   UNL     1       5.881 -40.491  21.680  1.00  0.00    -0.003 C 
ATOM     32  C   UNL     1       5.298 -41.017  22.992  1.00  0.00     0.004 C 
ENDBRANCH  30  31
ENDBRANCH  29  30
ENDBRANCH  28  29
ENDBRANCH  27  28
ENDBRANCH  26  27
ENDBRANCH  25  26
ENDBRANCH  24  25
ENDBRANCH  23  24
ENDBRANCH  22  23
ENDBRANCH  21  22
ENDBRANCH  20  21
ENDBRANCH  19  20
ENDBRANCH  18  19
ENDBRANCH   1  18
TORSDOF 28
ENDMDL
MODEL 3
REMARK VINA RESULT:     6.554      2.297      8.728
REMARK INTER + INTRA:          14.810
REMARK INTER:                  15.363
REMARK INTRA:                  -0.553
REMARK UNBOUND:                -2.471
REMARK SMILES CCCCCCCCCCCCCCCCCCCCCCCCCCCCCC(=O)[O-]
REMARK SMILES IDX 16 1 17 2 18 3 19 4 20 5 21 6 22 7 23 8 24 9 25 10 26 11
REMARK SMILES IDX 27 12 28 13 29 14 30 15 31 16 32 17 15 18 14 19 13 20 12 21
REMARK SMILES IDX 11 22 10 23 9 24 8 25 7 26 6 27 5 28 4 29 3 30 2 31 1 32
REMARK H PARENT
REMARK Flexibility Score: inf
ROOT
ATOM      1  C   UNL     1       5.959 -36.093  19.976  1.00  0.00     0.000 C 
ENDROOT
BRANCH   1   2
ATOM      2  C   UNL     1       6.124 -35.052  18.848  1.00  0.00     0.000 C 
BRANCH   2   3
ATOM      3  C   UNL     1       4.783 -34.682  18.190  1.00  0.00     0.000 C 
BRANCH   3   4
ATOM      4  C   UNL     1       3.912 -35.912  17.882  1.00  0.00     0.000 C 
BRANCH   4   5
ATOM      5  C   UNL     1       3.690 -36.121  16.376  1.00  0.00     0.000 C 
BRANCH   5   6
ATOM      6  C   UNL     1       2.947 -37.434  16.102  1.00  0.00     0.000 C 
BRANCH   6   7
ATOM      7  C   UNL     1       1.426 -37.230  16.177  1.00  0.00     0.000 C 
BRANCH   7   8
ATOM      8  C   UNL     1       0.958 -36.732  17.557  1.00  0.00     0.000 C 
BRANCH   8   9
ATOM      9  C   UNL     1       0.853 -37.831  18.630  1.00  0.00     0.000 C 
BRANCH   9  10
ATOM     10  C   UNL     1       2.101 -37.905  19.528  1.00  0.00     0.000 C 
BRANCH  10  11
ATOM     11  C   UNL     1       1.991 -37.013  20.777  1.00  0.00     0.000 C 
BRANCH  11  12
ATOM     12  C   UNL     1       2.807 -35.709  20.712  1.00  0.00     0.000 C 
BRANCH  12  13
ATOM     13  C   UNL     1       2.997 -35.052  22.087  1.00  0.00     0.006 C 
BRANCH  13  14
ATOM     14  C   UNL     1       4.265 -34.193  22.115  1.00  0.00     0.053 C 
BRANCH  14  15
ATOM     15  C   UNL     1       5.269 -34.756  23.073  1.00  0.00     0.041 C 
ATOM     16  O   UNL     1       5.817 -34.011  23.928  1.00  0.00    -0.550 OA
ATOM     17  O   UNL     1       5.604 -36.104  23.019  1.00  0.00    -0.550 OA
ENDBRANCH  14  15
ENDBRANCH  13  14
ENDBRANCH  12  13
ENDBRANCH  11  12
ENDBRANCH  10  11
ENDBRANCH   9  10
ENDBRANCH   8   9
ENDBRANCH   7   8
ENDBRANCH   6   7
ENDBRANCH   5   6
ENDBRANCH   4   5
ENDBRANCH   3   4
ENDBRANCH   2   3
ENDBRANCH   1   2
BRANCH   1  18
ATOM     18  C   UNL     1       5.776 -37.538  19.470  1.00  0.00     0.000 C 
BRANCH  18  19
ATOM     19  C   UNL     1       5.087 -38.495  20.457  1.00  0.00     0.000 C 
BRANCH  19  20
ATOM     20  C   UNL     1       6.075 -39.149  21.438  1.00  0.00     0.000 C 
BRANCH  20  21
ATOM     21  C   UNL     1       5.948 -40.680  21.480  1.00  0.00     0.000 C 
BRANCH  21  22
ATOM     22  C   UNL     1       5.513 -41.203  22.857  1.00  0.00     0.000 C 
BRANCH  22  23
ATOM     23  C   UNL     1       4.656 -40.166  23.595  1.00  0.00     0.000 C 
BRANCH  23  24
ATOM     24  C   UNL     1       5.125 -39.998  25.047  1.00  0.00    -0.000 C 
BRANCH  24  25
ATOM     25  C   UNL     1       5.643 -38.581  25.347  1.00  0.00    -0.000 C 
BRANCH  25  26
ATOM     26  C   UNL     1       4.538 -37.502  25.319  1.00  0.00    -0.000 C 
BRANCH  26  27
ATOM     27  C   UNL     1       3.928 -37.217  26.709  1.00  0.00    -0.000 C 
BRANCH  27  28
ATOM     28  C   UNL     1       2.487 -37.738  26.882  1.00  0.00    -0.000 C 
BRANCH  28  29
ATOM     29  C   UNL     1       1.676 -36.998  27.964  1.00  0.00    -0.000 C 
BRANCH  29  30
ATOM     30  C   UNL     1       2.060 -35.513  28.076  1.00  0.00    -0.000 C 
BRANCH  30  31
ATOM     31  C   UNL     1       1.576 -34.879  29.389  1.00  0.00    -0.003 C 
ATOM     32  C   UNL     1       0.216 -34.195  29.245  1.00  0.00     0.004 C 
ENDBRANCH  30  31
ENDBRANCH  29  30
ENDBRANCH  28  29
ENDBRANCH  27  28
ENDBRANCH  26  27
ENDBRANCH  25  26
ENDBRANCH  24  25
ENDBRANCH  23  24
ENDBRANCH  22  23
ENDBRANCH  21  22
ENDBRANCH  20  21
ENDBRANCH  19  20
ENDBRANCH  18  19
ENDBRANCH   1  18
TORSDOF 28
ENDMDL
MODEL 4
REMARK VINA RESULT:     6.583      4.608      9.426
REMARK INTER + INTRA:          14.887
REMARK INTER:                  14.746
REMARK INTRA:                   0.142
REMARK UNBOUND:                -2.471
REMARK SMILES CCCCCCCCCCCCCCCCCCCCCCCCCCCCCC(=O)[O-]
REMARK SMILES IDX 16 1 17 2 18 3 19 4 20 5 21 6 22 7 23 8 24 9 25 10 26 11
REMARK SMILES IDX 27 12 28 13 29 14 30 15 31 16 32 17 15 18 14 19 13 20 12 21
REMARK SMILES IDX 11 22 10 23 9 24 8 25 7 26 6 27 5 28 4 29 3 30 2 31 1 32
REMARK H PARENT
REMARK Flexibility Score: inf
ROOT
ATOM      1  C   UNL     1       1.389 -37.842  19.882  1.00  0.00     0.000 C 
ENDROOT
BRANCH   1   2
ATOM      2  C   UNL     1       2.776 -38.190  19.301  1.00  0.00     0.000 C 
BRANCH   2   3
ATOM      3  C   UNL     1       3.828 -38.432  20.397  1.00  0.00     0.000 C 
BRANCH   3   4
ATOM      4  C   UNL     1       5.268 -38.247  19.893  1.00  0.00     0.000 C 
BRANCH   4   5
ATOM      5  C   UNL     1       5.333 -37.559  18.520  1.00  0.00     0.000 C 
BRANCH   5   6
ATOM      6  C   UNL     1       5.976 -36.170  18.626  1.00  0.00     0.000 C 
BRANCH   6   7
ATOM      7  C   UNL     1       5.013 -35.167  19.278  1.00  0.00     0.000 C 
BRANCH   7   8
ATOM      8  C   UNL     1       4.220 -34.344  18.247  1.00  0.00     0.000 C 
BRANCH   8   9
ATOM      9  C   UNL     1       3.655 -35.164  17.072  1.00  0.00     0.000 C 
BRANCH   9  10
ATOM     10  C   UNL     1       2.446 -36.025  17.476  1.00  0.00     0.000 C 
BRANCH  10  11
ATOM     11  C   UNL     1       1.739 -36.663  16.268  1.00  0.00     0.000 C 
BRANCH  11  12
ATOM     12  C   UNL     1       1.983 -35.948  14.926  1.00  0.00     0.000 C 
BRANCH  12  13
ATOM     13  C   UNL     1       2.656 -36.849  13.881  1.00  0.00     0.006 C 
BRANCH  13  14
ATOM     14  C   UNL     1       2.843 -38.271  14.419  1.00  0.00     0.053 C 
BRANCH  14  15
ATOM     15  C   UNL     1       4.277 -38.691  14.327  1.00  0.00     0.041 C 
ATOM     16  O   UNL     1       4.599 -39.893  14.528  1.00  0.00    -0.550 OA
ATOM     17  O   UNL     1       5.260 -37.756  14.026  1.00  0.00    -0.550 OA
ENDBRANCH  14  15
ENDBRANCH  13  14
ENDBRANCH  12  13
ENDBRANCH  11  12
ENDBRANCH  10  11
ENDBRANCH   9  10
ENDBRANCH   8   9
ENDBRANCH   7   8
ENDBRANCH   6   7
ENDBRANCH   5   6
ENDBRANCH   4   5
ENDBRANCH   3   4
ENDBRANCH   2   3
ENDBRANCH   1   2
BRANCH   1  18
ATOM     18  C   UNL     1       1.413 -36.694  20.911  1.00  0.00     0.000 C 
BRANCH  18  19
ATOM     19  C   UNL     1       2.797 -36.075  21.169  1.00  0.00     0.000 C 
BRANCH  19  20
ATOM     20  C   UNL     1       2.743 -34.880  22.136  1.00  0.00     0.000 C 
BRANCH  20  21
ATOM     21  C   UNL     1       4.132 -34.302  22.448  1.00  0.00     0.000 C 
BRANCH  21  22
ATOM     22  C   UNL     1       5.155 -35.385  22.825  1.00  0.00     0.000 C 
BRANCH  22  23
ATOM     23  C   UNL     1       5.874 -35.033  24.133  1.00  0.00     0.000 C 
BRANCH  23  24
ATOM     24  C   UNL     1       6.072 -36.281  25.005  1.00  0.00    -0.000 C 
BRANCH  24  25
ATOM     25  C   UNL     1       4.797 -36.691  25.760  1.00  0.00    -0.000 C 
BRANCH  25  26
ATOM     26  C   UNL     1       4.520 -38.210  25.722  1.00  0.00    -0.000 C 
BRANCH  26  27
ATOM     27  C   UNL     1       5.641 -39.019  25.033  1.00  0.00    -0.000 C 
BRANCH  27  28
ATOM     28  C   UNL     1       5.859 -38.655  23.551  1.00  0.00    -0.000 C 
BRANCH  28  29
ATOM     29  C   UNL     1       5.409 -39.747  22.562  1.00  0.00    -0.000 C 
BRANCH  29  30
ATOM     30  C   UNL     1       4.952 -41.033  23.270  1.00  0.00    -0.000 C 
BRANCH  30  31
ATOM     31  C   UNL     1       6.123 -41.973  23.594  1.00  0.00    -0.003 C 
ATOM     32  C   UNL     1       5.873 -42.813  24.847  1.00  0.00     0.004 C 
ENDBRANCH  30  31
ENDBRANCH  29  30
ENDBRANCH  28  29
ENDBRANCH  27  28
ENDBRANCH  26  27
ENDBRANCH  25  26
ENDBRANCH  24  25
ENDBRANCH  23  24
ENDBRANCH  22  23
ENDBRANCH  21  22
ENDBRANCH  20  21
ENDBRANCH  19  20
ENDBRANCH  18  19
ENDBRANCH   1  18
TORSDOF 28
ENDMDL
MODEL 5
REMARK VINA RESULT:     7.029      2.684      9.511
REMARK INTER + INTRA:          16.064
REMARK INTER:                  16.386
REMARK INTRA:                  -0.322
REMARK UNBOUND:                -2.471
REMARK SMILES CCCCCCCCCCCCCCCCCCCCCCCCCCCCCC(=O)[O-]
REMARK SMILES IDX 16 1 17 2 18 3 19 4 20 5 21 6 22 7 23 8 24 9 25 10 26 11
REMARK SMILES IDX 27 12 28 13 29 14 30 15 31 16 32 17 15 18 14 19 13 20 12 21
REMARK SMILES IDX 11 22 10 23 9 24 8 25 7 26 6 27 5 28 4 29 3 30 2 31 1 32
REMARK H PARENT
REMARK Flexibility Score: inf
ROOT
ATOM      1  C   UNL     1       5.464 -39.995  21.761  1.00  0.00     0.000 C 
ENDROOT
BRANCH   1   2
ATOM      2  C   UNL     1       5.940 -39.745  20.313  1.00  0.00     0.000 C 
BRANCH   2   3
ATOM      3  C   UNL     1       5.579 -38.336  19.812  1.00  0.00     0.000 C 
BRANCH   3   4
ATOM      4  C   UNL     1       4.842 -37.498  20.870  1.00  0.00     0.000 C 
BRANCH   4   5
ATOM      5  C   UNL     1       4.767 -36.008  20.502  1.00  0.00     0.000 C 
BRANCH   5   6
ATOM      6  C   UNL     1       5.844 -35.636  19.476  1.00  0.00     0.000 C 
BRANCH   6   7
ATOM      7  C   UNL     1       5.396 -34.442  18.619  1.00  0.00     0.000 C 
BRANCH   7   8
ATOM      8  C   UNL     1       4.137 -34.745  17.785  1.00  0.00     0.000 C 
BRANCH   8   9
ATOM      9  C   UNL     1       4.113 -36.148  17.151  1.00  0.00     0.000 C 
BRANCH   9  10
ATOM     10  C   UNL     1       3.308 -36.192  15.840  1.00  0.00     0.000 C 
BRANCH  10  11
ATOM     11  C   UNL     1       1.987 -36.968  15.977  1.00  0.00     0.000 C 
BRANCH  11  12
ATOM     12  C   UNL     1       1.301 -36.835  17.349  1.00  0.00     0.000 C 
BRANCH  12  13
ATOM     13  C   UNL     1       1.219 -38.166  18.110  1.00  0.00     0.006 C 
BRANCH  13  14
ATOM     14  C   UNL     1       1.860 -38.048  19.496  1.00  0.00     0.053 C 
BRANCH  14  15
ATOM     15  C   UNL     1       1.063 -37.137  20.377  1.00  0.00     0.041 C 
ATOM     16  O   UNL     1       1.642 -36.260  21.071  1.00  0.00    -0.550 OA
ATOM     17  O   UNL     1      -0.320 -37.259  20.436  1.00  0.00    -0.550 OA
ENDBRANCH  14  15
ENDBRANCH  13  14
ENDBRANCH  12  13
ENDBRANCH  11  12
ENDBRANCH  10  11
ENDBRANCH   9  10
ENDBRANCH   8   9
ENDBRANCH   7   8
ENDBRANCH   6   7
ENDBRANCH   5   6
ENDBRANCH   4   5
ENDBRANCH   3   4
ENDBRANCH   2   3
ENDBRANCH   1   2
BRANCH   1  18
ATOM     18  C   UNL     1       5.918 -41.348  22.343  1.00  0.00     0.000 C 
BRANCH  18  19
ATOM     19  C   UNL     1       5.557 -41.580  23.820  1.00  0.00     0.000 C 
BRANCH  19  20
ATOM     20  C   UNL     1       5.604 -40.288  24.652  1.00  0.00     0.000 C 
BRANCH  20  21
ATOM     21  C   UNL     1       4.983 -39.086  23.924  1.00  0.00     0.000 C 
BRANCH  21  22
ATOM     22  C   UNL     1       5.916 -37.866  23.888  1.00  0.00     0.000 C 
BRANCH  22  23
ATOM     23  C   UNL     1       5.990 -37.188  25.261  1.00  0.00     0.000 C 
BRANCH  23  24
ATOM     24  C   UNL     1       4.587 -36.860  25.790  1.00  0.00    -0.000 C 
BRANCH  24  25
ATOM     25  C   UNL     1       4.094 -37.870  26.841  1.00  0.00    -0.000 C 
BRANCH  25  26
ATOM     26  C   UNL     1       2.598 -38.229  26.696  1.00  0.00    -0.000 C 
BRANCH  26  27
ATOM     27  C   UNL     1       1.714 -37.621  27.806  1.00  0.00    -0.000 C 
BRANCH  27  28
ATOM     28  C   UNL     1       1.413 -36.120  27.620  1.00  0.00    -0.000 C 
BRANCH  28  29
ATOM     29  C   UNL     1       2.271 -35.192  28.501  1.00  0.00    -0.000 C 
BRANCH  29  30
ATOM     30  C   UNL     1       1.525 -34.716  29.758  1.00  0.00    -0.000 C 
BRANCH  30  31
ATOM     31  C   UNL     1       0.528 -33.586  29.457  1.00  0.00    -0.003 C 
ATOM     32  C   UNL     1      -0.884 -34.106  29.182  1.00  0.00     0.004 C 
ENDBRANCH  30  31
ENDBRANCH  29  30
ENDBRANCH  28  29
ENDBRANCH  27  28
ENDBRANCH  26  27
ENDBRANCH  25  26
ENDBRANCH  24  25
ENDBRANCH  23  24
ENDBRANCH  22  23
ENDBRANCH  21  22
ENDBRANCH  20  21
ENDBRANCH  19  20
ENDBRANCH  18  19
ENDBRANCH   1  18
TORSDOF 28
ENDMDL
MODEL 6
REMARK VINA RESULT:     7.055      1.402      4.167
REMARK INTER + INTRA:          16.132
REMARK INTER:                  17.468
REMARK INTRA:                  -1.337
REMARK UNBOUND:                -2.471
REMARK SMILES CCCCCCCCCCCCCCCCCCCCCCCCCCCCCC(=O)[O-]
REMARK SMILES IDX 16 1 17 2 18 3 19 4 20 5 21 6 22 7 23 8 24 9 25 10 26 11
REMARK SMILES IDX 27 12 28 13 29 14 30 15 31 16 32 17 15 18 14 19 13 20 12 21
REMARK SMILES IDX 11 22 10 23 9 24 8 25 7 26 6 27 5 28 4 29 3 30 2 31 1 32
REMARK H PARENT
REMARK Flexibility Score: inf
ROOT
ATOM      1  C   UNL     1       6.100 -36.640  20.275  1.00  0.00     0.000 C 
ENDROOT
BRANCH   1   2
ATOM      2  C   UNL     1       5.310 -37.945  20.036  1.00  0.00     0.000 C 
BRANCH   2   3
ATOM      3  C   UNL     1       6.103 -39.195  20.458  1.00  0.00     0.000 C 
BRANCH   3   4
ATOM      4  C   UNL     1       5.290 -40.139  21.359  1.00  0.00     0.000 C 
BRANCH   4   5
ATOM      5  C   UNL     1       6.093 -41.371  21.807  1.00  0.00     0.000 C 
BRANCH   5   6
ATOM      6  C   UNL     1       6.014 -41.560  23.327  1.00  0.00     0.000 C 
BRANCH   6   7
ATOM      7  C   UNL     1       4.905 -40.686  23.933  1.00  0.00     0.000 C 
BRANCH   7   8
ATOM      8  C   UNL     1       5.445 -39.639  24.924  1.00  0.00     0.000 C 
BRANCH   8   9
ATOM      9  C   UNL     1       4.608 -38.349  25.010  1.00  0.00     0.000 C 
BRANCH   9  10
ATOM     10  C   UNL     1       4.420 -37.858  26.456  1.00  0.00     0.000 C 
BRANCH  10  11
ATOM     11  C   UNL     1       3.061 -38.264  27.052  1.00  0.00     0.000 C 
BRANCH  11  12
ATOM     12  C   UNL     1       1.948 -37.212  26.893  1.00  0.00     0.000 C 
BRANCH  12  13
ATOM     13  C   UNL     1       1.471 -36.637  28.234  1.00  0.00     0.006 C 
BRANCH  13  14
ATOM     14  C   UNL     1       1.909 -35.178  28.394  1.00  0.00     0.053 C 
BRANCH  14  15
ATOM     15  C   UNL     1       1.292 -34.566  29.612  1.00  0.00     0.041 C 
ATOM     16  O   UNL     1       1.998 -34.325  30.628  1.00  0.00    -0.550 OA
ATOM     17  O   UNL     1      -0.065 -34.265  29.631  1.00  0.00    -0.550 OA
ENDBRANCH  14  15
ENDBRANCH  13  14
ENDBRANCH  12  13
ENDBRANCH  11  12
ENDBRANCH  10  11
ENDBRANCH   9  10
ENDBRANCH   8   9
ENDBRANCH   7   8
ENDBRANCH   6   7
ENDBRANCH   5   6
ENDBRANCH   4   5
ENDBRANCH   3   4
ENDBRANCH   2   3
ENDBRANCH   1   2
BRANCH   1  18
ATOM     18  C   UNL     1       5.925 -35.592  19.158  1.00  0.00     0.000 C 
BRANCH  18  19
ATOM     19  C   UNL     1       4.469 -35.306  18.751  1.00  0.00     0.000 C 
BRANCH  19  20
ATOM     20  C   UNL     1       4.279 -35.254  17.226  1.00  0.00     0.000 C 
BRANCH  20  21
ATOM     21  C   UNL     1       3.665 -36.543  16.658  1.00  0.00     0.000 C 
BRANCH  21  22
ATOM     22  C   UNL     1       2.402 -36.284  15.823  1.00  0.00     0.000 C 
BRANCH  22  23
ATOM     23  C   UNL     1       1.146 -36.766  16.558  1.00  0.00     0.000 C 
BRANCH  23  24
ATOM     24  C   UNL     1       1.488 -37.870  17.568  1.00  0.00    -0.000 C 
BRANCH  24  25
ATOM     25  C   UNL     1       1.177 -37.470  19.020  1.00  0.00    -0.000 C 
BRANCH  25  26
ATOM     26  C   UNL     1       2.436 -37.137  19.851  1.00  0.00    -0.000 C 
BRANCH  26  27
ATOM     27  C   UNL     1       2.120 -36.395  21.168  1.00  0.00    -0.000 C 
BRANCH  27  28
ATOM     28  C   UNL     1       3.369 -35.961  21.961  1.00  0.00    -0.000 C 
BRANCH  28  29
ATOM     29  C   UNL     1       3.540 -34.434  22.079  1.00  0.00    -0.000 C 
BRANCH  29  30
ATOM     30  C   UNL     1       4.974 -34.029  22.461  1.00  0.00    -0.000 C 
BRANCH  30  31
ATOM     31  C   UNL     1       5.801 -35.215  22.980  1.00  0.00    -0.003 C 
ATOM     32  C   UNL     1       5.602 -35.460  24.476  1.00  0.00     0.004 C 
ENDBRANCH  30  31
ENDBRANCH  29  30
ENDBRANCH  28  29
ENDBRANCH  27  28
ENDBRANCH  26  27
ENDBRANCH  25  26
ENDBRANCH  24  25
ENDBRANCH  23  24
ENDBRANCH  22  23
ENDBRANCH  21  22
ENDBRANCH  20  21
ENDBRANCH  19  20
ENDBRANCH  18  19
ENDBRANCH   1  18
TORSDOF 28
ENDMDL
MODEL 7
REMARK VINA RESULT:     7.226      3.030      9.791
REMARK INTER + INTRA:          16.582
REMARK INTER:                  17.197
REMARK INTRA:                  -0.615
REMARK UNBOUND:                -2.471
REMARK SMILES CCCCCCCCCCCCCCCCCCCCCCCCCCCCCC(=O)[O-]
REMARK SMILES IDX 16 1 17 2 18 3 19 4 20 5 21 6 22 7 23 8 24 9 25 10 26 11
REMARK SMILES IDX 27 12 28 13 29 14 30 15 31 16 32 17 15 18 14 19 13 20 12 21
REMARK SMILES IDX 11 22 10 23 9 24 8 25 7 26 6 27 5 28 4 29 3 30 2 31 1 32
REMARK H PARENT
REMARK Flexibility Score: inf
ROOT
ATOM      1  C   UNL     1       5.097 -37.784  21.428  1.00  0.00     0.000 C 
ENDROOT
BRANCH   1   2
ATOM      2  C   UNL     1       6.072 -36.788  22.092  1.00  0.00     0.000 C 
BRANCH   2   3
ATOM      3  C   UNL     1       5.340 -35.691  22.885  1.00  0.00     0.000 C 
BRANCH   3   4
ATOM      4  C   UNL     1       4.102 -35.151  22.149  1.00  0.00     0.000 C 
BRANCH   4   5
ATOM      5  C   UNL     1       4.278 -35.132  20.623  1.00  0.00     0.000 C 
BRANCH   5   6
ATOM      6  C   UNL     1       5.721 -34.782  20.236  1.00  0.00     0.000 C 
BRANCH   6   7
ATOM      7  C   UNL     1       5.830 -34.492  18.731  1.00  0.00     0.000 C 
BRANCH   7   8
ATOM      8  C   UNL     1       4.536 -34.820  17.964  1.00  0.00     0.000 C 
BRANCH   8   9
ATOM      9  C   UNL     1       4.381 -36.302  17.576  1.00  0.00     0.000 C 
BRANCH   9  10
ATOM     10  C   UNL     1       4.113 -36.497  16.073  1.00  0.00     0.000 C 
BRANCH  10  11
ATOM     11  C   UNL     1       2.930 -37.440  15.796  1.00  0.00     0.000 C 
BRANCH  11  12
ATOM     12  C   UNL     1       1.570 -36.737  15.628  1.00  0.00     0.000 C 
BRANCH  12  13
ATOM     13  C   UNL     1       0.700 -36.806  16.891  1.00  0.00     0.006 C 
BRANCH  13  14
ATOM     14  C   UNL     1       1.565 -36.820  18.155  1.00  0.00     0.053 C 
BRANCH  14  15
ATOM     15  C   UNL     1       1.164 -37.939  19.063  1.00  0.00     0.041 C 
ATOM     16  O   UNL     1       1.485 -37.914  20.282  1.00  0.00    -0.550 OA
ATOM     17  O   UNL     1       0.438 -39.016  18.566  1.00  0.00    -0.550 OA
ENDBRANCH  14  15
ENDBRANCH  13  14
ENDBRANCH  12  13
ENDBRANCH  11  12
ENDBRANCH  10  11
ENDBRANCH   9  10
ENDBRANCH   8   9
ENDBRANCH   7   8
ENDBRANCH   6   7
ENDBRANCH   5   6
ENDBRANCH   4   5
ENDBRANCH   3   4
ENDBRANCH   2   3
ENDBRANCH   1   2
BRANCH   1  18
ATOM     18  C   UNL     1       5.751 -38.676  20.354  1.00  0.00     0.000 C 
BRANCH  18  19
ATOM     19  C   UNL     1       6.124 -40.094  20.818  1.00  0.00     0.000 C 
BRANCH  19  20
ATOM     20  C   UNL     1       5.175 -40.632  21.902  1.00  0.00     0.000 C 
BRANCH  20  21
ATOM     21  C   UNL     1       5.901 -41.467  22.968  1.00  0.00     0.000 C 
BRANCH  21  22
ATOM     22  C   UNL     1       5.715 -40.910  24.388  1.00  0.00     0.000 C 
BRANCH  22  23
ATOM     23  C   UNL     1       4.810 -39.672  24.381  1.00  0.00     0.000 C 
BRANCH  23  24
ATOM     24  C   UNL     1       5.411 -38.546  25.233  1.00  0.00    -0.000 C 
BRANCH  24  25
ATOM     25  C   UNL     1       4.341 -37.630  25.852  1.00  0.00    -0.000 C 
BRANCH  25  26
ATOM     26  C   UNL     1       3.681 -38.221  27.117  1.00  0.00    -0.000 C 
BRANCH  26  27
ATOM     27  C   UNL     1       2.143 -38.319  27.014  1.00  0.00    -0.000 C 
BRANCH  27  28
ATOM     28  C   UNL     1       1.418 -36.962  27.114  1.00  0.00    -0.000 C 
BRANCH  28  29
ATOM     29  C   UNL     1       2.118 -35.942  28.033  1.00  0.00    -0.000 C 
BRANCH  29  30
ATOM     30  C   UNL     1       1.135 -35.219  28.969  1.00  0.00    -0.000 C 
BRANCH  30  31
ATOM     31  C   UNL     1       1.729 -33.935  29.568  1.00  0.00    -0.003 C 
ATOM     32  C   UNL     1       2.057 -34.077  31.054  1.00  0.00     0.004 C 
ENDBRANCH  30  31
ENDBRANCH  29  30
ENDBRANCH  28  29
ENDBRANCH  27  28
ENDBRANCH  26  27
ENDBRANCH  25  26
ENDBRANCH  24  25
ENDBRANCH  23  24
ENDBRANCH  22  23
ENDBRANCH  21  22
ENDBRANCH  20  21
ENDBRANCH  19  20
ENDBRANCH  18  19
ENDBRANCH   1  18
TORSDOF 28
ENDMDL
MODEL 8
REMARK VINA RESULT:     7.313      1.684      3.813
REMARK INTER + INTRA:          16.813
REMARK INTER:                  16.562
REMARK INTRA:                   0.251
REMARK UNBOUND:                -2.471
REMARK SMILES CCCCCCCCCCCCCCCCCCCCCCCCCCCCCC(=O)[O-]
REMARK SMILES IDX 16 1 17 2 18 3 19 4 20 5 21 6 22 7 23 8 24 9 25 10 26 11
REMARK SMILES IDX 27 12 28 13 29 14 30 15 31 16 32 17 15 18 14 19 13 20 12 21
REMARK SMILES IDX 11 22 10 23 9 24 8 25 7 26 6 27 5 28 4 29 3 30 2 31 1 32
REMARK H PARENT
REMARK Flexibility Score: inf
ROOT
ATOM      1  C   UNL     1       4.438 -35.058  22.824  1.00  0.00     0.000 C 
ENDROOT
BRANCH   1   2
ATOM      2  C   UNL     1       3.377 -34.560  21.821  1.00  0.00     0.000 C 
BRANCH   2   3
ATOM      3  C   UNL     1       2.472 -35.696  21.311  1.00  0.00     0.000 C 
BRANCH   3   4
ATOM      4  C   UNL     1       2.975 -36.313  19.996  1.00  0.00     0.000 C 
BRANCH   4   5
ATOM      5  C   UNL     1       2.748 -37.831  19.927  1.00  0.00     0.000 C 
BRANCH   5   6
ATOM      6  C   UNL     1       3.635 -38.572  20.935  1.00  0.00     0.000 C 
BRANCH   6   7
ATOM      7  C   UNL     1       5.043 -38.800  20.364  1.00  0.00     0.000 C 
BRANCH   7   8
ATOM      8  C   UNL     1       6.021 -39.381  21.401  1.00  0.00     0.000 C 
BRANCH   8   9
ATOM      9  C   UNL     1       5.380 -40.350  22.411  1.00  0.00     0.000 C 
BRANCH   9  10
ATOM     10  C   UNL     1       5.449 -39.832  23.859  1.00  0.00     0.000 C 
BRANCH  10  11
ATOM     11  C   UNL     1       5.470 -38.295  23.941  1.00  0.00     0.000 C 
BRANCH  11  12
ATOM     12  C   UNL     1       5.622 -37.728  25.364  1.00  0.00     0.000 C 
BRANCH  12  13
ATOM     13  C   UNL     1       4.313 -37.146  25.919  1.00  0.00     0.006 C 
BRANCH  13  14
ATOM     14  C   UNL     1       3.539 -38.199  26.719  1.00  0.00     0.053 C 
BRANCH  14  15
ATOM     15  C   UNL     1       2.211 -37.665  27.156  1.00  0.00     0.041 C 
ATOM     16  O   UNL     1       1.167 -38.354  26.999  1.00  0.00    -0.550 OA
ATOM     17  O   UNL     1       2.122 -36.404  27.735  1.00  0.00    -0.550 OA
ENDBRANCH  14  15
ENDBRANCH  13  14
ENDBRANCH  12  13
ENDBRANCH  11  12
ENDBRANCH  10  11
ENDBRANCH   9  10
ENDBRANCH   8   9
ENDBRANCH   7   8
ENDBRANCH   6   7
ENDBRANCH   5   6
ENDBRANCH   4   5
ENDBRANCH   3   4
ENDBRANCH   2   3
ENDBRANCH   1   2
BRANCH   1  18
ATOM     18  C   UNL     1       5.809 -35.360  22.185  1.00  0.00     0.000 C 
BRANCH  18  19
ATOM     19  C   UNL     1       6.125 -34.563  20.907  1.00  0.00     0.000 C 
BRANCH  19  20
ATOM     20  C   UNL     1       5.947 -35.398  19.628  1.00  0.00     0.000 C 
BRANCH  20  21
ATOM     21  C   UNL     1       5.506 -34.553  18.422  1.00  0.00     0.000 C 
BRANCH  21  22
ATOM     22  C   UNL     1       4.355 -35.196  17.634  1.00  0.00     0.000 C 
BRANCH  22  23
ATOM     23  C   UNL     1       4.730 -36.607  17.163  1.00  0.00     0.000 C 
BRANCH  23  24
ATOM     24  C   UNL     1       3.549 -37.282  16.452  1.00  0.00    -0.000 C 
BRANCH  24  25
ATOM     25  C   UNL     1       3.957 -37.969  15.138  1.00  0.00    -0.000 C 
BRANCH  25  26
ATOM     26  C   UNL     1       3.545 -37.180  13.876  1.00  0.00    -0.000 C 
BRANCH  26  27
ATOM     27  C   UNL     1       2.248 -36.361  14.063  1.00  0.00    -0.000 C 
BRANCH  27  28
ATOM     28  C   UNL     1       1.306 -36.916  15.150  1.00  0.00    -0.000 C 
BRANCH  28  29
ATOM     29  C   UNL     1       1.047 -35.941  16.315  1.00  0.00    -0.000 C 
BRANCH  29  30
ATOM     30  C   UNL     1       1.110 -36.632  17.688  1.00  0.00    -0.000 C 
BRANCH  30  31
ATOM     31  C   UNL     1      -0.099 -37.546  17.941  1.00  0.00    -0.003 C 
ATOM     32  C   UNL     1       0.310 -38.948  18.394  1.00  0.00     0.004 C 
ENDBRANCH  30  31
ENDBRANCH  29  30
ENDBRANCH  28  29
ENDBRANCH  27  28
ENDBRANCH  26  27
ENDBRANCH  25  26
ENDBRANCH  24  25
ENDBRANCH  23  24
ENDBRANCH  22  23
ENDBRANCH  21  22
ENDBRANCH  20  21
ENDBRANCH  19  20
ENDBRANCH  18  19
ENDBRANCH   1  18
TORSDOF 28
ENDMDL
