MODEL 1
REMARK VINA RESULT:    -3.281      0.000      0.000
REMARK INTER + INTRA:          -3.955
REMARK INTER:                  -3.952
REMARK INTRA:                  -0.003
REMARK UNBOUND:                -0.003
REMARK SMILES OCC(O)CO
REMARK SMILES IDX 3 1 5 2 6 3 2 5 1 6 4 8
REMARK H PARENT 6 4 1 7 4 9
REMARK Flexibility Score: inf
ROOT
ATOM      1  C   UNL     1     -37.749  15.024 -10.309  1.00  0.00     0.165 C 
ENDROOT
BRANCH   1   2
ATOM      2  C   UNL     1     -38.047  16.301 -11.109  1.00  0.00     0.190 C 
BRANCH   2   3
ATOM      3  O   UNL     1     -37.437  17.419 -10.520  1.00  0.00    -0.394 OA
ATOM      4  H   UNL     1     -36.978  17.094  -9.701  1.00  0.00     0.210 HD
ENDBRANCH   2   3
ENDBRANCH   1   2
BRANCH   1   5
ATOM      5  C   UNL     1     -37.937  13.753 -11.156  1.00  0.00     0.190 C 
BRANCH   5   6
ATOM      6  O   UNL     1     -37.247  12.667 -10.596  1.00  0.00    -0.394 OA
ATOM      7  H   UNL     1     -37.855  11.885 -10.642  1.00  0.00     0.210 HD
ENDBRANCH   5   6
ENDBRANCH   1   5
BRANCH   1   8
ATOM      8  O   UNL     1     -36.433  15.087  -9.824  1.00  0.00    -0.388 OA
ATOM      9  H   UNL     1     -36.070  15.972 -10.090  1.00  0.00     0.211 HD
ENDBRANCH   1   8
TORSDOF 5
ENDMDL
MODEL 2
REMARK VINA RESULT:    -3.215      0.372      3.129
REMARK INTER + INTRA:          -3.875
REMARK INTER:                  -3.872
REMARK INTRA:                  -0.003
REMARK UNBOUND:                -0.003
REMARK SMILES OCC(O)CO
REMARK SMILES IDX 3 1 5 2 6 3 2 5 1 6 4 8
REMARK H PARENT 6 4 1 7 4 9
REMARK Flexibility Score: inf
ROOT
ATOM      1  C   UNL     1     -37.231  15.111 -10.952  1.00  0.00     0.165 C 
ENDROOT
BRANCH   1   2
ATOM      2  C   UNL     1     -38.052  13.813 -10.936  1.00  0.00     0.190 C 
BRANCH   2   3
ATOM      3  O   UNL     1     -37.273  12.729 -10.508  1.00  0.00    -0.394 OA
ATOM      4  H   UNL     1     -36.334  13.050 -10.470  1.00  0.00     0.210 HD
ENDBRANCH   2   3
ENDBRANCH   1   2
BRANCH   1   5
ATOM      5  C   UNL     1     -38.125  16.361 -11.026  1.00  0.00     0.190 C 
BRANCH   5   6
ATOM      6  O   UNL     1     -37.538  17.442 -10.350  1.00  0.00    -0.394 OA
ATOM      7  H   UNL     1     -37.312  18.122 -11.035  1.00  0.00     0.210 HD
ENDBRANCH   5   6
ENDBRANCH   1   5
BRANCH   1   8
ATOM      8  O   UNL     1     -36.434  15.159  -9.797  1.00  0.00    -0.388 OA
ATOM      9  H   UNL     1     -37.012  15.492  -9.062  1.00  0.00     0.211 HD
ENDBRANCH   1   8
TORSDOF 5
ENDMDL
MODEL 3
REMARK VINA RESULT:    -3.190     22.368     23.170
REMARK INTER + INTRA:          -3.845
REMARK INTER:                  -3.843
REMARK INTRA:                  -0.003
REMARK UNBOUND:                -0.003
REMARK SMILES OCC(O)CO
REMARK SMILES IDX 3 1 5 2 6 3 2 5 1 6 4 8
REMARK H PARENT 6 4 1 7 4 9
REMARK Flexibility Score: inf
ROOT
ATOM      1  C   UNL     1     -20.486   0.277  -6.473  1.00  0.00     0.165 C 
ENDROOT
BRANCH   1   2
ATOM      2  C   UNL     1     -19.414  -0.632  -7.094  1.00  0.00     0.190 C 
BRANCH   2   3
ATOM      3  O   UNL     1     -19.075  -0.202  -8.385  1.00  0.00    -0.394 OA
ATOM      4  H   UNL     1     -18.737   0.728  -8.296  1.00  0.00     0.210 HD
ENDBRANCH   2   3
ENDBRANCH   1   2
BRANCH   1   5
ATOM      5  C   UNL     1     -21.467  -0.509  -5.585  1.00  0.00     0.190 C 
BRANCH   5   6
ATOM      6  O   UNL     1     -22.481   0.327  -5.093  1.00  0.00    -0.394 OA
ATOM      7  H   UNL     1     -22.053   0.957  -4.458  1.00  0.00     0.210 HD
ENDBRANCH   5   6
ENDBRANCH   1   5
BRANCH   1   8
ATOM      8  O   UNL     1     -19.854   1.279  -5.721  1.00  0.00    -0.388 OA
ATOM      9  H   UNL     1     -20.131   2.149  -6.110  1.00  0.00     0.211 HD
ENDBRANCH   1   8
TORSDOF 5
ENDMDL
MODEL 4
REMARK VINA RESULT:    -2.899     22.876     23.857
REMARK INTER + INTRA:          -3.495
REMARK INTER:                  -3.463
REMARK INTRA:                  -0.032
REMARK UNBOUND:                -0.003
REMARK SMILES OCC(O)CO
REMARK SMILES IDX 3 1 5 2 6 3 2 5 1 6 4 8
REMARK H PARENT 6 4 1 7 4 9
REMARK Flexibility Score: inf
ROOT
ATOM      1  C   UNL     1     -20.144  -0.050  -6.359  1.00  0.00     0.165 C 
ENDROOT
BRANCH   1   2
ATOM      2  C   UNL     1     -19.198  -0.886  -7.233  1.00  0.00     0.190 C 
BRANCH   2   3
ATOM      3  O   UNL     1     -19.018  -0.293  -8.492  1.00  0.00    -0.394 OA
ATOM      4  H   UNL     1     -18.458  -0.918  -9.023  1.00  0.00     0.210 HD
ENDBRANCH   2   3
ENDBRANCH   1   2
BRANCH   1   5
ATOM      5  C   UNL     1     -19.496   0.346  -5.020  1.00  0.00     0.190 C 
BRANCH   5   6
ATOM      6  O   UNL     1     -18.264   0.985  -5.226  1.00  0.00    -0.394 OA
ATOM      7  H   UNL     1     -18.012   0.828  -6.172  1.00  0.00     0.210 HD
ENDBRANCH   5   6
ENDBRANCH   1   5
BRANCH   1   8
ATOM      8  O   UNL     1     -20.521   1.101  -7.067  1.00  0.00    -0.388 OA
ATOM      9  H   UNL     1     -20.070   1.870  -6.629  1.00  0.00     0.211 HD
ENDBRANCH   1   8
TORSDOF 5
ENDMDL
MODEL 5
REMARK VINA RESULT:    -2.897     22.336     23.046
REMARK INTER + INTRA:          -3.493
REMARK INTER:                  -3.277
REMARK INTRA:                  -0.215
REMARK UNBOUND:                -0.003
REMARK SMILES OCC(O)CO
REMARK SMILES IDX 3 1 5 2 6 3 2 5 1 6 4 8
REMARK H PARENT 6 4 1 7 4 9
REMARK Flexibility Score: inf
ROOT
ATOM      1  C   UNL     1     -21.061   0.019  -5.033  1.00  0.00     0.165 C 
ENDROOT
BRANCH   1   2
ATOM      2  C   UNL     1     -20.301   0.807  -6.111  1.00  0.00     0.190 C 
BRANCH   2   3
ATOM      3  O   UNL     1     -18.924   0.822  -5.848  1.00  0.00    -0.394 OA
ATOM      4  H   UNL     1     -18.698  -0.066  -5.462  1.00  0.00     0.210 HD
ENDBRANCH   2   3
ENDBRANCH   1   2
BRANCH   1   5
ATOM      5  C   UNL     1     -20.555   0.343  -3.616  1.00  0.00     0.190 C 
BRANCH   5   6
ATOM      6  O   UNL     1     -20.231   1.703  -3.495  1.00  0.00    -0.394 OA
ATOM      7  H   UNL     1     -21.038   2.162  -3.148  1.00  0.00     0.210 HD
ENDBRANCH   5   6
ENDBRANCH   1   5
BRANCH   1   8
ATOM      8  O   UNL     1     -22.430   0.314  -5.133  1.00  0.00    -0.388 OA
ATOM      9  H   UNL     1     -22.500   1.259  -5.429  1.00  0.00     0.211 HD
ENDBRANCH   1   8
TORSDOF 5
ENDMDL
MODEL 6
REMARK VINA RESULT:    -2.865     22.638     23.617
REMARK INTER + INTRA:          -3.454
REMARK INTER:                  -3.447
REMARK INTRA:                  -0.007
REMARK UNBOUND:                -0.003
REMARK SMILES OCC(O)CO
REMARK SMILES IDX 3 1 5 2 6 3 2 5 1 6 4 8
REMARK H PARENT 6 4 1 7 4 9
REMARK Flexibility Score: inf
ROOT
ATOM      1  C   UNL     1     -19.551  -0.137  -5.935  1.00  0.00     0.165 C 
ENDROOT
BRANCH   1   2
ATOM      2  C   UNL     1     -20.878   0.553  -6.285  1.00  0.00     0.190 C 
BRANCH   2   3
ATOM      3  O   UNL     1     -21.901   0.150  -5.414  1.00  0.00    -0.394 OA
ATOM      4  H   UNL     1     -21.485   0.043  -4.518  1.00  0.00     0.210 HD
ENDBRANCH   2   3
ENDBRANCH   1   2
BRANCH   1   5
ATOM      5  C   UNL     1     -19.026  -1.004  -7.093  1.00  0.00     0.190 C 
BRANCH   5   6
ATOM      6  O   UNL     1     -19.056  -0.299  -8.305  1.00  0.00    -0.394 OA
ATOM      7  H   UNL     1     -19.997  -0.301  -8.617  1.00  0.00     0.210 HD
ENDBRANCH   5   6
ENDBRANCH   1   5
BRANCH   1   8
ATOM      8  O   UNL     1     -18.603   0.843  -5.603  1.00  0.00    -0.388 OA
ATOM      9  H   UNL     1     -18.667   1.553  -6.294  1.00  0.00     0.211 HD
ENDBRANCH   1   8
TORSDOF 5
ENDMDL
MODEL 7
REMARK VINA RESULT:    -2.864     22.419     23.433
REMARK INTER + INTRA:          -3.453
REMARK INTER:                  -3.450
REMARK INTRA:                  -0.003
REMARK UNBOUND:                -0.003
REMARK SMILES OCC(O)CO
REMARK SMILES IDX 3 1 5 2 6 3 2 5 1 6 4 8
REMARK H PARENT 6 4 1 7 4 9
REMARK Flexibility Score: inf
ROOT
ATOM      1  C   UNL     1     -20.091   0.511  -5.936  1.00  0.00     0.165 C 
ENDROOT
BRANCH   1   2
ATOM      2  C   UNL     1     -21.364  -0.346  -5.855  1.00  0.00     0.190 C 
BRANCH   2   3
ATOM      3  O   UNL     1     -22.382   0.329  -5.165  1.00  0.00    -0.394 OA
ATOM      4  H   UNL     1     -23.218   0.187  -5.683  1.00  0.00     0.210 HD
ENDBRANCH   2   3
ENDBRANCH   1   2
BRANCH   1   5
ATOM      5  C   UNL     1     -19.017   0.047  -4.936  1.00  0.00     0.190 C 
BRANCH   5   6
ATOM      6  O   UNL     1     -18.180   1.111  -4.567  1.00  0.00    -0.394 OA
ATOM      7  H   UNL     1     -17.399   1.090  -5.178  1.00  0.00     0.210 HD
ENDBRANCH   5   6
ENDBRANCH   1   5
BRANCH   1   8
ATOM      8  O   UNL     1     -19.585   0.453  -7.244  1.00  0.00    -0.388 OA
ATOM      9  H   UNL     1     -18.624   0.216  -7.171  1.00  0.00     0.211 HD
ENDBRANCH   1   8
TORSDOF 5
ENDMDL
MODEL 8
REMARK VINA RESULT:    -2.848     23.412     23.862
REMARK INTER + INTRA:          -3.434
REMARK INTER:                  -3.240
REMARK INTRA:                  -0.194
REMARK UNBOUND:                -0.003
REMARK SMILES OCC(O)CO
REMARK SMILES IDX 3 1 5 2 6 3 2 5 1 6 4 8
REMARK H PARENT 6 4 1 7 4 9
REMARK Flexibility Score: inf
ROOT
ATOM      1  C   UNL     1     -20.423  -0.281  -6.414  1.00  0.00     0.165 C 
ENDROOT
BRANCH   1   2
ATOM      2  C   UNL     1     -19.816   0.496  -5.235  1.00  0.00     0.190 C 
BRANCH   2   3
ATOM      3  O   UNL     1     -18.483   0.846  -5.496  1.00  0.00    -0.394 OA
ATOM      4  H   UNL     1     -17.918   0.256  -4.931  1.00  0.00     0.210 HD
ENDBRANCH   2   3
ENDBRANCH   1   2
BRANCH   1   5
ATOM      5  C   UNL     1     -19.347  -0.985  -7.259  1.00  0.00     0.190 C 
BRANCH   5   6
ATOM      6  O   UNL     1     -19.009  -0.218  -8.385  1.00  0.00    -0.394 OA
ATOM      7  H   UNL     1     -19.330  -0.716  -9.180  1.00  0.00     0.210 HD
ENDBRANCH   5   6
ENDBRANCH   1   5
BRANCH   1   8
ATOM      8  O   UNL     1     -21.335  -1.225  -5.916  1.00  0.00    -0.388 OA
ATOM      9  H   UNL     1     -21.929  -0.744  -5.282  1.00  0.00     0.211 HD
ENDBRANCH   1   8
TORSDOF 5
ENDMDL
MODEL 9
REMARK VINA RESULT:    -2.843     22.941     23.945
REMARK INTER + INTRA:          -3.428
REMARK INTER:                  -3.248
REMARK INTRA:                  -0.180
REMARK UNBOUND:                -0.003
REMARK SMILES OCC(O)CO
REMARK SMILES IDX 3 1 5 2 6 3 2 5 1 6 4 8
REMARK H PARENT 6 4 1 7 4 9
REMARK Flexibility Score: inf
ROOT
ATOM      1  C   UNL     1     -19.435  -0.469  -6.564  1.00  0.00     0.165 C 
ENDROOT
BRANCH   1   2
ATOM      2  C   UNL     1     -18.440  -0.383  -5.397  1.00  0.00     0.190 C 
BRANCH   2   3
ATOM      3  O   UNL     1     -18.199   0.951  -5.039  1.00  0.00    -0.394 OA
ATOM      4  H   UNL     1     -19.006   1.467  -5.302  1.00  0.00     0.210 HD
ENDBRANCH   2   3
ENDBRANCH   1   2
BRANCH   1   5
ATOM      5  C   UNL     1     -20.467   0.672  -6.531  1.00  0.00     0.190 C 
BRANCH   5   6
ATOM      6  O   UNL     1     -21.316   0.551  -5.420  1.00  0.00    -0.394 OA
ATOM      7  H   UNL     1     -21.614  -0.394  -5.386  1.00  0.00     0.210 HD
ENDBRANCH   5   6
ENDBRANCH   1   5
BRANCH   1   8
ATOM      8  O   UNL     1     -18.723  -0.437  -7.774  1.00  0.00    -0.388 OA
ATOM      9  H   UNL     1     -19.254  -0.956  -8.434  1.00  0.00     0.211 HD
ENDBRANCH   1   8
TORSDOF 5
ENDMDL
