MODEL 1
REMARK VINA RESULT:    -5.226      0.000      0.000
REMARK INTER + INTRA:          -5.772
REMARK INTER:                  -5.532
REMARK INTRA:                  -0.240
REMARK UNBOUND:                -0.240
REMARK SMILES CC1=CC[C@H]2[C@@H]3[C@@H](C(C)C)CC[C@@]2(C)[C@H]13
REMARK SMILES IDX 1 1 2 2 3 3 4 4 5 5 6 6 15 7 13 8 12 9 11 10 7 11 14 12 8 13
REMARK SMILES IDX 9 14 10 15
REMARK H PARENT
REMARK Flexibility Score: inf
ROOT
ATOM      1  C   UNL     1      58.421  46.839  40.615  1.00  0.00     0.039 C 
ATOM      2  C   UNL     1      58.013  46.037  41.815  1.00  0.00    -0.073 C 
ATOM      3  C   UNL     1      58.811  45.952  42.911  1.00  0.00    -0.027 C 
ATOM      4  C   UNL     1      58.350  45.102  44.100  1.00  0.00     0.031 C 
ATOM      5  C   UNL     1      56.941  44.485  43.815  1.00  0.00     0.003 C 
ATOM      6  C   UNL     1      56.046  45.612  43.248  1.00  0.00     0.004 C 
ATOM      7  C   UNL     1      56.674  45.295  41.870  1.00  0.00     0.024 C 
ATOM      8  C   UNL     1      56.880  43.854  42.404  1.00  0.00    -0.022 C 
ATOM      9  C   UNL     1      55.567  43.025  42.289  1.00  0.00     0.008 C 
ATOM     10  C   UNL     1      54.300  43.897  42.475  1.00  0.00     0.005 C 
ATOM     11  C   UNL     1      54.543  45.192  43.320  1.00  0.00    -0.005 C 
ATOM     12  C   UNL     1      58.092  43.036  41.900  1.00  0.00     0.012 C 
ENDROOT
BRANCH  11  13
ATOM     13  C   UNL     1      53.575  46.341  42.890  1.00  0.00    -0.014 C 
ATOM     14  C   UNL     1      52.912  47.032  44.097  1.00  0.00     0.007 C 
ATOM     15  C   UNL     1      52.468  45.817  41.954  1.00  0.00     0.007 C 
ENDBRANCH  11  13
TORSDOF 1
ENDMDL
MODEL 2
REMARK VINA RESULT:    -4.403      1.895      5.256
REMARK INTER + INTRA:          -4.901
REMARK INTER:                  -4.627
REMARK INTRA:                  -0.274
REMARK UNBOUND:                -0.240
REMARK SMILES CC1=CC[C@H]2[C@@H]3[C@@H](C(C)C)CC[C@@]2(C)[C@H]13
REMARK SMILES IDX 1 1 2 2 3 3 4 4 5 5 6 6 15 7 13 8 12 9 11 10 7 11 14 12 8 13
REMARK SMILES IDX 9 14 10 15
REMARK H PARENT
REMARK Flexibility Score: inf
ROOT
ATOM      1  C   UNL     1      54.867  43.049  42.586  1.00  0.00     0.039 C 
ATOM      2  C   UNL     1      56.058  43.924  42.838  1.00  0.00    -0.073 C 
ATOM      3  C   UNL     1      56.124  44.728  43.931  1.00  0.00    -0.027 C 
ATOM      4  C   UNL     1      57.360  45.614  44.125  1.00  0.00     0.031 C 
ATOM      5  C   UNL     1      58.386  45.380  42.969  1.00  0.00     0.003 C 
ATOM      6  C   UNL     1      58.527  43.851  42.775  1.00  0.00     0.004 C 
ATOM      7  C   UNL     1      57.261  43.938  41.890  1.00  0.00     0.024 C 
ATOM      8  C   UNL     1      57.690  45.397  41.588  1.00  0.00    -0.022 C 
ATOM      9  C   UNL     1      58.785  45.438  40.483  1.00  0.00     0.008 C 
ATOM     10  C   UNL     1      59.717  44.202  40.528  1.00  0.00     0.005 C 
ATOM     11  C   UNL     1      59.808  43.531  41.940  1.00  0.00    -0.005 C 
ATOM     12  C   UNL     1      56.597  46.458  41.318  1.00  0.00     0.012 C 
ENDROOT
BRANCH  11  13
ATOM     13  C   UNL     1      60.084  41.997  41.824  1.00  0.00    -0.014 C 
ATOM     14  C   UNL     1      61.509  41.622  42.272  1.00  0.00     0.007 C 
ATOM     15  C   UNL     1      59.875  41.500  40.380  1.00  0.00     0.007 C 
ENDBRANCH  11  13
TORSDOF 1
ENDMDL
MODEL 3
REMARK VINA RESULT:    -4.217     18.513     20.546
REMARK INTER + INTRA:          -4.703
REMARK INTER:                  -4.267
REMARK INTRA:                  -0.436
REMARK UNBOUND:                -0.240
REMARK SMILES CC1=CC[C@H]2[C@@H]3[C@@H](C(C)C)CC[C@@]2(C)[C@H]13
REMARK SMILES IDX 1 1 2 2 3 3 4 4 5 5 6 6 15 7 13 8 12 9 11 10 7 11 14 12 8 13
REMARK SMILES IDX 9 14 10 15
REMARK H PARENT
REMARK Flexibility Score: inf
ROOT
ATOM      1  C   UNL     1      48.267  30.054  30.195  1.00  0.00     0.039 C 
ATOM      2  C   UNL     1      49.160  31.250  30.051  1.00  0.00    -0.073 C 
ATOM      3  C   UNL     1      49.937  31.678  31.080  1.00  0.00    -0.027 C 
ATOM      4  C   UNL     1      50.815  32.919  30.880  1.00  0.00     0.031 C 
ATOM      5  C   UNL     1      50.661  33.466  29.423  1.00  0.00     0.003 C 
ATOM      6  C   UNL     1      50.759  32.259  28.460  1.00  0.00     0.004 C 
ATOM      7  C   UNL     1      49.253  32.032  28.737  1.00  0.00     0.024 C 
ATOM      8  C   UNL     1      49.173  33.556  29.011  1.00  0.00    -0.022 C 
ATOM      9  C   UNL     1      49.075  34.357  27.680  1.00  0.00     0.008 C 
ATOM     10  C   UNL     1      49.847  33.675  26.523  1.00  0.00     0.005 C 
ATOM     11  C   UNL     1      51.020  32.755  27.002  1.00  0.00    -0.005 C 
ATOM     12  C   UNL     1      48.145  34.077  30.043  1.00  0.00     0.012 C 
ENDROOT
BRANCH  11  13
ATOM     13  C   UNL     1      51.265  31.580  26.001  1.00  0.00    -0.014 C 
ATOM     14  C   UNL     1      50.006  31.235  25.182  1.00  0.00     0.007 C 
ATOM     15  C   UNL     1      51.737  30.310  26.735  1.00  0.00     0.007 C 
ENDBRANCH  11  13
TORSDOF 1
ENDMDL
MODEL 4
REMARK VINA RESULT:    -3.925     21.410     23.503
REMARK INTER + INTRA:          -4.395
REMARK INTER:                  -4.177
REMARK INTRA:                  -0.217
REMARK UNBOUND:                -0.240
REMARK SMILES CC1=CC[C@H]2[C@@H]3[C@@H](C(C)C)CC[C@@]2(C)[C@H]13
REMARK SMILES IDX 1 1 2 2 3 3 4 4 5 5 6 6 15 7 13 8 12 9 11 10 7 11 14 12 8 13
REMARK SMILES IDX 9 14 10 15
REMARK H PARENT
REMARK Flexibility Score: inf
ROOT
ATOM      1  C   UNL     1      53.112  32.445  26.130  1.00  0.00     0.039 C 
ATOM      2  C   UNL     1      52.894  31.011  25.751  1.00  0.00    -0.073 C 
ATOM      3  C   UNL     1      52.137  30.673  24.674  1.00  0.00    -0.027 C 
ATOM      4  C   UNL     1      51.934  29.189  24.348  1.00  0.00     0.031 C 
ATOM      5  C   UNL     1      52.716  28.295  25.365  1.00  0.00     0.003 C 
ATOM      6  C   UNL     1      54.137  28.890  25.509  1.00  0.00     0.004 C 
ATOM      7  C   UNL     1      53.526  29.864  26.545  1.00  0.00     0.024 C 
ATOM      8  C   UNL     1      52.475  28.757  26.821  1.00  0.00    -0.022 C 
ATOM      9  C   UNL     1      53.045  27.676  27.784  1.00  0.00     0.008 C 
ATOM     10  C   UNL     1      54.568  27.464  27.600  1.00  0.00     0.005 C 
ATOM     11  C   UNL     1      55.091  27.847  26.175  1.00  0.00    -0.005 C 
ATOM     12  C   UNL     1      51.046  29.172  27.244  1.00  0.00     0.012 C 
ENDROOT
BRANCH  11  13
ATOM     13  C   UNL     1      56.575  28.334  26.226  1.00  0.00    -0.014 C 
ATOM     14  C   UNL     1      57.575  27.163  26.280  1.00  0.00     0.007 C 
ATOM     15  C   UNL     1      56.821  29.248  27.442  1.00  0.00     0.007 C 
ENDBRANCH  11  13
TORSDOF 1
ENDMDL
MODEL 5
REMARK VINA RESULT:    -3.904     21.767     23.618
REMARK INTER + INTRA:          -4.372
REMARK INTER:                  -3.947
REMARK INTRA:                  -0.425
REMARK UNBOUND:                -0.240
REMARK SMILES CC1=CC[C@H]2[C@@H]3[C@@H](C(C)C)CC[C@@]2(C)[C@H]13
REMARK SMILES IDX 1 1 2 2 3 3 4 4 5 5 6 6 15 7 13 8 12 9 11 10 7 11 14 12 8 13
REMARK SMILES IDX 9 14 10 15
REMARK H PARENT
REMARK Flexibility Score: inf
ROOT
ATOM      1  C   UNL     1      56.975  29.860  28.024  1.00  0.00     0.039 C 
ATOM      2  C   UNL     1      56.524  29.132  26.794  1.00  0.00    -0.073 C 
ATOM      3  C   UNL     1      57.271  28.136  26.250  1.00  0.00    -0.027 C 
ATOM      4  C   UNL     1      56.768  27.441  24.980  1.00  0.00     0.031 C 
ATOM      5  C   UNL     1      55.384  28.029  24.548  1.00  0.00     0.003 C 
ATOM      6  C   UNL     1      54.499  28.110  25.815  1.00  0.00     0.004 C 
ATOM      7  C   UNL     1      55.196  29.461  26.105  1.00  0.00     0.024 C 
ATOM      8  C   UNL     1      55.399  29.575  24.572  1.00  0.00    -0.022 C 
ATOM      9  C   UNL     1      54.107  30.093  23.876  1.00  0.00     0.008 C 
ATOM     10  C   UNL     1      52.819  29.620  24.595  1.00  0.00     0.005 C 
ATOM     11  C   UNL     1      53.001  28.297  25.411  1.00  0.00    -0.005 C 
ATOM     12  C   UNL     1      56.647  30.316  24.036  1.00  0.00     0.012 C 
ENDROOT
BRANCH  11  13
ATOM     13  C   UNL     1      52.036  28.249  26.640  1.00  0.00    -0.014 C 
ATOM     14  C   UNL     1      51.541  29.650  27.051  1.00  0.00     0.007 C 
ATOM     15  C   UNL     1      52.713  27.590  27.857  1.00  0.00     0.007 C 
ENDBRANCH  11  13
TORSDOF 1
ENDMDL
MODEL 6
REMARK VINA RESULT:    -3.847     18.741     20.754
REMARK INTER + INTRA:          -4.312
REMARK INTER:                  -4.042
REMARK INTRA:                  -0.270
REMARK UNBOUND:                -0.240
REMARK SMILES CC1=CC[C@H]2[C@@H]3[C@@H](C(C)C)CC[C@@]2(C)[C@H]13
REMARK SMILES IDX 1 1 2 2 3 3 4 4 5 5 6 6 15 7 13 8 12 9 11 10 7 11 14 12 8 13
REMARK SMILES IDX 9 14 10 15
REMARK H PARENT
REMARK Flexibility Score: inf
ROOT
ATOM      1  C   UNL     1      51.210  34.114  30.659  1.00  0.00     0.039 C 
ATOM      2  C   UNL     1      50.164  33.380  29.874  1.00  0.00    -0.073 C 
ATOM      3  C   UNL     1      48.935  33.917  29.662  1.00  0.00    -0.027 C 
ATOM      4  C   UNL     1      47.901  33.110  28.869  1.00  0.00     0.031 C 
ATOM      5  C   UNL     1      48.514  31.751  28.398  1.00  0.00     0.003 C 
ATOM      6  C   UNL     1      49.912  32.052  27.806  1.00  0.00     0.004 C 
ATOM      7  C   UNL     1      50.438  32.003  29.261  1.00  0.00     0.024 C 
ATOM      8  C   UNL     1      49.258  31.040  29.553  1.00  0.00    -0.022 C 
ATOM      9  C   UNL     1      49.599  29.590  29.103  1.00  0.00     0.008 C 
ATOM     10  C   UNL     1      50.518  29.558  27.857  1.00  0.00     0.005 C 
ATOM     11  C   UNL     1      50.409  30.837  26.960  1.00  0.00    -0.005 C 
ATOM     12  C   UNL     1      48.621  31.044  30.963  1.00  0.00     0.012 C 
ENDROOT
BRANCH  11  13
ATOM     13  C   UNL     1      51.756  31.128  26.222  1.00  0.00    -0.014 C 
ATOM     14  C   UNL     1      52.846  30.094  26.562  1.00  0.00     0.007 C 
ATOM     15  C   UNL     1      52.287  32.534  26.563  1.00  0.00     0.007 C 
ENDBRANCH  11  13
TORSDOF 1
ENDMDL
MODEL 7
REMARK VINA RESULT:    -3.724     18.895     20.710
REMARK INTER + INTRA:          -4.182
REMARK INTER:                  -3.809
REMARK INTRA:                  -0.373
REMARK UNBOUND:                -0.240
REMARK SMILES CC1=CC[C@H]2[C@@H]3[C@@H](C(C)C)CC[C@@]2(C)[C@H]13
REMARK SMILES IDX 1 1 2 2 3 3 4 4 5 5 6 6 15 7 13 8 12 9 11 10 7 11 14 12 8 13
REMARK SMILES IDX 9 14 10 15
REMARK H PARENT
REMARK Flexibility Score: inf
ROOT
ATOM      1  C   UNL     1      53.301  31.936  26.460  1.00  0.00     0.039 C 
ATOM      2  C   UNL     1      51.836  31.658  26.616  1.00  0.00    -0.073 C 
ATOM      3  C   UNL     1      51.280  30.514  26.139  1.00  0.00    -0.027 C 
ATOM      4  C   UNL     1      49.773  30.295  26.310  1.00  0.00     0.031 C 
ATOM      5  C   UNL     1      49.132  31.494  27.082  1.00  0.00     0.003 C 
ATOM      6  C   UNL     1      50.035  31.799  28.301  1.00  0.00     0.004 C 
ATOM      7  C   UNL     1      50.903  32.638  27.333  1.00  0.00     0.024 C 
ATOM      8  C   UNL     1      49.607  32.849  26.508  1.00  0.00    -0.022 C 
ATOM      9  C   UNL     1      48.734  33.981  27.124  1.00  0.00     0.008 C 
ATOM     10  C   UNL     1      48.857  34.050  28.666  1.00  0.00     0.005 C 
ATOM     11  C   UNL     1      49.268  32.692  29.328  1.00  0.00    -0.005 C 
ATOM     12  C   UNL     1      49.716  33.011  24.974  1.00  0.00     0.012 C 
ENDROOT
BRANCH  11  13
ATOM     13  C   UNL     1      50.075  32.924  30.646  1.00  0.00    -0.014 C 
ATOM     14  C   UNL     1      51.060  34.103  30.530  1.00  0.00     0.007 C 
ATOM     15  C   UNL     1      50.863  31.662  31.048  1.00  0.00     0.007 C 
ENDBRANCH  11  13
TORSDOF 1
ENDMDL
MODEL 8
REMARK VINA RESULT:    -3.681     18.787     20.656
REMARK INTER + INTRA:          -4.137
REMARK INTER:                  -3.700
REMARK INTRA:                  -0.437
REMARK UNBOUND:                -0.240
REMARK SMILES CC1=CC[C@H]2[C@@H]3[C@@H](C(C)C)CC[C@@]2(C)[C@H]13
REMARK SMILES IDX 1 1 2 2 3 3 4 4 5 5 6 6 15 7 13 8 12 9 11 10 7 11 14 12 8 13
REMARK SMILES IDX 9 14 10 15
REMARK H PARENT
REMARK Flexibility Score: inf
ROOT
ATOM      1  C   UNL     1      52.289  32.637  26.774  1.00  0.00     0.039 C 
ATOM      2  C   UNL     1      51.002  32.948  27.478  1.00  0.00    -0.073 C 
ATOM      3  C   UNL     1      50.299  34.077  27.198  1.00  0.00    -0.027 C 
ATOM      4  C   UNL     1      49.001  34.351  27.965  1.00  0.00     0.031 C 
ATOM      5  C   UNL     1      48.699  33.184  28.962  1.00  0.00     0.003 C 
ATOM      6  C   UNL     1      48.906  31.855  28.197  1.00  0.00     0.004 C 
ATOM      7  C   UNL     1      50.411  32.003  28.529  1.00  0.00     0.024 C 
ATOM      8  C   UNL     1      49.957  32.804  29.777  1.00  0.00    -0.022 C 
ATOM      9  C   UNL     1      49.530  31.846  30.927  1.00  0.00     0.008 C 
ATOM     10  C   UNL     1      48.893  30.536  30.400  1.00  0.00     0.005 C 
ATOM     11  C   UNL     1      48.246  30.676  28.981  1.00  0.00    -0.005 C 
ATOM     12  C   UNL     1      50.868  33.934  30.312  1.00  0.00     0.012 C 
ENDROOT
BRANCH  11  13
ATOM     13  C   UNL     1      48.300  29.325  28.196  1.00  0.00    -0.014 C 
ATOM     14  C   UNL     1      49.462  28.425  28.658  1.00  0.00     0.007 C 
ATOM     15  C   UNL     1      48.435  29.565  26.680  1.00  0.00     0.007 C 
ENDBRANCH  11  13
TORSDOF 1
ENDMDL
MODEL 9
REMARK VINA RESULT:    -3.643     19.099     20.927
REMARK INTER + INTRA:          -4.096
REMARK INTER:                  -3.664
REMARK INTRA:                  -0.432
REMARK UNBOUND:                -0.240
REMARK SMILES CC1=CC[C@H]2[C@@H]3[C@@H](C(C)C)CC[C@@]2(C)[C@H]13
REMARK SMILES IDX 1 1 2 2 3 3 4 4 5 5 6 6 15 7 13 8 12 9 11 10 7 11 14 12 8 13
REMARK SMILES IDX 9 14 10 15
REMARK H PARENT
REMARK Flexibility Score: inf
ROOT
ATOM      1  C   UNL     1      49.566  31.818  25.467  1.00  0.00     0.039 C 
ATOM      2  C   UNL     1      49.964  31.044  26.689  1.00  0.00    -0.073 C 
ATOM      3  C   UNL     1      50.998  30.164  26.660  1.00  0.00    -0.027 C 
ATOM      4  C   UNL     1      51.345  29.387  27.935  1.00  0.00     0.031 C 
ATOM      5  C   UNL     1      50.402  29.814  29.108  1.00  0.00     0.003 C 
ATOM      6  C   UNL     1      50.335  31.360  29.111  1.00  0.00     0.004 C 
ATOM      7  C   UNL     1      49.240  31.224  28.026  1.00  0.00     0.024 C 
ATOM      8  C   UNL     1      48.923  29.843  28.657  1.00  0.00    -0.022 C 
ATOM      9  C   UNL     1      48.024  30.000  29.917  1.00  0.00     0.008 C 
ATOM     10  C   UNL     1      48.311  31.312  30.688  1.00  0.00     0.005 C 
ATOM     11  C   UNL     1      49.757  31.870  30.470  1.00  0.00    -0.005 C 
ATOM     12  C   UNL     1      48.400  28.708  27.745  1.00  0.00     0.012 C 
ENDROOT
BRANCH  11  13
ATOM     13  C   UNL     1      49.790  33.428  30.592  1.00  0.00    -0.014 C 
ATOM     14  C   UNL     1      48.454  34.076  30.181  1.00  0.00     0.007 C 
ATOM     15  C   UNL     1      50.916  34.032  29.731  1.00  0.00     0.007 C 
ENDBRANCH  11  13
TORSDOF 1
ENDMDL
