MODEL 1
REMARK VINA RESULT:    -4.452      0.000      0.000
REMARK INTER + INTRA:          -8.845
REMARK INTER:                  -7.576
REMARK INTRA:                  -1.269
REMARK UNBOUND:                -1.269
REMARK SMILES CCCCCCCCCCCCCC(=O)[O-]
REMARK SMILES IDX 8 1 9 2 10 3 11 4 12 5 13 6 14 7 15 8 16 9 7 10 6 11 5 12
REMARK SMILES IDX 4 13 3 14 2 15 1 16
REMARK H PARENT
REMARK Flexibility Score: inf
ROOT
ATOM      1  C   UNL     1      30.640   8.495  49.009  1.00  0.00     0.000 C 
ENDROOT
BRANCH   1   2
ATOM      2  C   UNL     1      29.913   7.198  49.406  1.00  0.00     0.000 C 
BRANCH   2   3
ATOM      3  C   UNL     1      30.194   6.037  48.436  1.00  0.00     0.000 C 
BRANCH   3   4
ATOM      4  C   UNL     1      31.403   6.309  47.526  1.00  0.00     0.000 C 
BRANCH   4   5
ATOM      5  C   UNL     1      32.642   5.494  47.927  1.00  0.00     0.006 C 
BRANCH   5   6
ATOM      6  C   UNL     1      33.863   5.913  47.103  1.00  0.00     0.053 C 
BRANCH   6   7
ATOM      7  C   UNL     1      34.963   4.909  47.246  1.00  0.00     0.041 C 
ATOM      8  O   UNL     1      35.391   4.598  48.389  1.00  0.00    -0.550 OA
ATOM      9  O   UNL     1      35.549   4.353  46.117  1.00  0.00    -0.550 OA
ENDBRANCH   6   7
ENDBRANCH   5   6
ENDBRANCH   4   5
ENDBRANCH   3   4
ENDBRANCH   2   3
ENDBRANCH   1   2
BRANCH   1  10
ATOM     10  C   UNL     1      31.741   8.918  50.005  1.00  0.00     0.000 C 
BRANCH  10  11
ATOM     11  C   UNL     1      33.052   9.293  49.293  1.00  0.00    -0.000 C 
BRANCH  11  12
ATOM     12  C   UNL     1      32.818   9.873  47.889  1.00  0.00    -0.000 C 
BRANCH  12  13
ATOM     13  C   UNL     1      33.906   9.450  46.886  1.00  0.00    -0.000 C 
BRANCH  13  14
ATOM     14  C   UNL     1      34.659  10.650  46.292  1.00  0.00    -0.000 C 
BRANCH  14  15
ATOM     15  C   UNL     1      34.590  10.689  44.759  1.00  0.00    -0.003 C 
ATOM     16  C   UNL     1      34.674   9.284  44.170  1.00  0.00     0.004 C 
ENDBRANCH  14  15
ENDBRANCH  13  14
ENDBRANCH  12  13
ENDBRANCH  11  12
ENDBRANCH  10  11
ENDBRANCH   1  10
TORSDOF 12
ENDMDL
MODEL 2
REMARK VINA RESULT:    -4.277      1.103      1.348
REMARK INTER + INTRA:          -8.546
REMARK INTER:                  -7.413
REMARK INTRA:                  -1.133
REMARK UNBOUND:                -1.269
REMARK SMILES CCCCCCCCCCCCCC(=O)[O-]
REMARK SMILES IDX 8 1 9 2 10 3 11 4 12 5 13 6 14 7 15 8 16 9 7 10 6 11 5 12
REMARK SMILES IDX 4 13 3 14 2 15 1 16
REMARK H PARENT
REMARK Flexibility Score: inf
ROOT
ATOM      1  C   UNL     1      31.709   8.916  48.263  1.00  0.00     0.000 C 
ENDROOT
BRANCH   1   2
ATOM      2  C   UNL     1      30.522   8.245  48.976  1.00  0.00     0.000 C 
BRANCH   2   3
ATOM      3  C   UNL     1      30.432   6.736  48.693  1.00  0.00     0.000 C 
BRANCH   3   4
ATOM      4  C   UNL     1      31.337   6.300  47.529  1.00  0.00     0.000 C 
BRANCH   4   5
ATOM      5  C   UNL     1      32.373   5.244  47.947  1.00  0.00     0.006 C 
BRANCH   5   6
ATOM      6  C   UNL     1      33.782   5.842  47.979  1.00  0.00     0.053 C 
BRANCH   6   7
ATOM      7  C   UNL     1      34.535   5.479  46.738  1.00  0.00     0.041 C 
ATOM      8  O   UNL     1      35.437   4.602  46.779  1.00  0.00    -0.550 OA
ATOM      9  O   UNL     1      34.276   6.145  45.547  1.00  0.00    -0.550 OA
ENDBRANCH   6   7
ENDBRANCH   5   6
ENDBRANCH   4   5
ENDBRANCH   3   4
ENDBRANCH   2   3
ENDBRANCH   1   2
BRANCH   1  10
ATOM     10  C   UNL     1      31.893  10.404  48.633  1.00  0.00     0.000 C 
BRANCH  10  11
ATOM     11  C   UNL     1      33.343  10.724  49.037  1.00  0.00    -0.000 C 
BRANCH  11  12
ATOM     12  C   UNL     1      34.375  10.076  48.099  1.00  0.00    -0.000 C 
BRANCH  12  13
ATOM     13  C   UNL     1      35.255  11.115  47.382  1.00  0.00    -0.000 C 
BRANCH  13  14
ATOM     14  C   UNL     1      35.094  11.070  45.854  1.00  0.00    -0.000 C 
BRANCH  14  15
ATOM     15  C   UNL     1      34.353   9.814  45.375  1.00  0.00    -0.003 C 
ATOM     16  C   UNL     1      34.802   9.414  43.973  1.00  0.00     0.004 C 
ENDBRANCH  14  15
ENDBRANCH  13  14
ENDBRANCH  12  13
ENDBRANCH  11  12
ENDBRANCH  10  11
ENDBRANCH   1  10
TORSDOF 12
ENDMDL
MODEL 3
REMARK VINA RESULT:    -4.221     18.224     19.745
REMARK INTER + INTRA:          -8.452
REMARK INTER:                  -7.248
REMARK INTRA:                  -1.204
REMARK UNBOUND:                -1.269
REMARK SMILES CCCCCCCCCCCCCC(=O)[O-]
REMARK SMILES IDX 8 1 9 2 10 3 11 4 12 5 13 6 14 7 15 8 16 9 7 10 6 11 5 12
REMARK SMILES IDX 4 13 3 14 2 15 1 16
REMARK H PARENT
REMARK Flexibility Score: inf
ROOT
ATOM      1  C   UNL     1      20.707  13.865  35.372  1.00  0.00     0.000 C 
ENDROOT
BRANCH   1   2
ATOM      2  C   UNL     1      20.645  14.396  33.930  1.00  0.00     0.000 C 
BRANCH   2   3
ATOM      3  C   UNL     1      21.221  13.406  32.904  1.00  0.00     0.000 C 
BRANCH   3   4
ATOM      4  C   UNL     1      21.709  14.101  31.623  1.00  0.00     0.000 C 
BRANCH   4   5
ATOM      5  C   UNL     1      21.836  15.624  31.786  1.00  0.00     0.006 C 
BRANCH   5   6
ATOM      6  C   UNL     1      22.295  16.279  30.480  1.00  0.00     0.053 C 
BRANCH   6   7
ATOM      7  C   UNL     1      23.512  17.117  30.712  1.00  0.00     0.041 C 
ATOM      8  O   UNL     1      24.658  16.600  30.651  1.00  0.00    -0.550 OA
ATOM      9  O   UNL     1      23.379  18.459  31.045  1.00  0.00    -0.550 OA
ENDBRANCH   6   7
ENDBRANCH   5   6
ENDBRANCH   4   5
ENDBRANCH   3   4
ENDBRANCH   2   3
ENDBRANCH   1   2
BRANCH   1  10
ATOM     10  C   UNL     1      19.378  13.250  35.863  1.00  0.00     0.000 C 
BRANCH  10  11
ATOM     11  C   UNL     1      19.540  11.777  36.278  1.00  0.00    -0.000 C 
BRANCH  11  12
ATOM     12  C   UNL     1      19.510  10.818  35.077  1.00  0.00    -0.000 C 
BRANCH  12  13
ATOM     13  C   UNL     1      20.740   9.895  35.027  1.00  0.00    -0.000 C 
BRANCH  13  14
ATOM     14  C   UNL     1      21.894  10.403  35.906  1.00  0.00    -0.000 C 
BRANCH  14  15
ATOM     15  C   UNL     1      23.007  11.074  35.089  1.00  0.00    -0.003 C 
ATOM     16  C   UNL     1      24.365  10.897  35.763  1.00  0.00     0.004 C 
ENDBRANCH  14  15
ENDBRANCH  13  14
ENDBRANCH  12  13
ENDBRANCH  11  12
ENDBRANCH  10  11
ENDBRANCH   1  10
TORSDOF 12
ENDMDL
MODEL 4
REMARK VINA RESULT:    -4.201      2.805      5.239
REMARK INTER + INTRA:          -8.418
REMARK INTER:                  -7.213
REMARK INTRA:                  -1.205
REMARK UNBOUND:                -1.269
REMARK SMILES CCCCCCCCCCCCCC(=O)[O-]
REMARK SMILES IDX 8 1 9 2 10 3 11 4 12 5 13 6 14 7 15 8 16 9 7 10 6 11 5 12
REMARK SMILES IDX 4 13 3 14 2 15 1 16
REMARK H PARENT
REMARK Flexibility Score: inf
ROOT
ATOM      1  C   UNL     1      31.948   9.725  48.487  1.00  0.00     0.000 C 
ENDROOT
BRANCH   1   2
ATOM      2  C   UNL     1      33.093  10.609  49.011  1.00  0.00     0.000 C 
BRANCH   2   3
ATOM      3  C   UNL     1      34.420  10.365  48.272  1.00  0.00     0.000 C 
BRANCH   3   4
ATOM      4  C   UNL     1      35.102  11.673  47.840  1.00  0.00     0.000 C 
BRANCH   4   5
ATOM      5  C   UNL     1      35.571  11.643  46.377  1.00  0.00     0.006 C 
BRANCH   5   6
ATOM      6  C   UNL     1      34.967  10.448  45.633  1.00  0.00     0.053 C 
BRANCH   6   7
ATOM      7  C   UNL     1      34.438  10.872  44.299  1.00  0.00     0.041 C 
ATOM      8  O   UNL     1      34.375  12.094  44.003  1.00  0.00    -0.550 OA
ATOM      9  O   UNL     1      33.970   9.921  43.402  1.00  0.00    -0.550 OA
ENDBRANCH   6   7
ENDBRANCH   5   6
ENDBRANCH   4   5
ENDBRANCH   3   4
ENDBRANCH   2   3
ENDBRANCH   1   2
BRANCH   1  10
ATOM     10  C   UNL     1      31.303   8.838  49.574  1.00  0.00     0.000 C 
BRANCH  10  11
ATOM     11  C   UNL     1      30.145   7.991  49.018  1.00  0.00    -0.000 C 
BRANCH  11  12
ATOM     12  C   UNL     1      30.541   6.520  48.802  1.00  0.00    -0.000 C 
BRANCH  12  13
ATOM     13  C   UNL     1      31.173   6.276  47.421  1.00  0.00    -0.000 C 
BRANCH  13  14
ATOM     14  C   UNL     1      32.686   6.014  47.503  1.00  0.00    -0.000 C 
BRANCH  14  15
ATOM     15  C   UNL     1      33.510   7.079  46.766  1.00  0.00    -0.003 C 
ATOM     16  C   UNL     1      33.883   6.611  45.362  1.00  0.00     0.004 C 
ENDBRANCH  14  15
ENDBRANCH  13  14
ENDBRANCH  12  13
ENDBRANCH  11  12
ENDBRANCH  10  11
ENDBRANCH   1  10
TORSDOF 12
ENDMDL
MODEL 5
REMARK VINA RESULT:    -4.195      2.352      4.859
REMARK INTER + INTRA:          -8.408
REMARK INTER:                  -7.294
REMARK INTRA:                  -1.114
REMARK UNBOUND:                -1.269
REMARK SMILES CCCCCCCCCCCCCC(=O)[O-]
REMARK SMILES IDX 8 1 9 2 10 3 11 4 12 5 13 6 14 7 15 8 16 9 7 10 6 11 5 12
REMARK SMILES IDX 4 13 3 14 2 15 1 16
REMARK H PARENT
REMARK Flexibility Score: inf
ROOT
ATOM      1  C   UNL     1      30.921   8.832  48.945  1.00  0.00     0.000 C 
ENDROOT
BRANCH   1   2
ATOM      2  C   UNL     1      32.085   9.187  49.886  1.00  0.00     0.000 C 
BRANCH   2   3
ATOM      3  C   UNL     1      33.058  10.209  49.272  1.00  0.00     0.000 C 
BRANCH   3   4
ATOM      4  C   UNL     1      34.066   9.559  48.311  1.00  0.00     0.000 C 
BRANCH   4   5
ATOM      5  C   UNL     1      33.723   9.804  46.834  1.00  0.00     0.006 C 
BRANCH   5   6
ATOM      6  C   UNL     1      34.876  10.506  46.112  1.00  0.00     0.053 C 
BRANCH   6   7
ATOM      7  C   UNL     1      34.733  10.363  44.630  1.00  0.00     0.041 C 
ATOM      8  O   UNL     1      34.282  11.317  43.943  1.00  0.00    -0.550 OA
ATOM      9  O   UNL     1      35.050   9.160  44.013  1.00  0.00    -0.550 OA
ENDBRANCH   6   7
ENDBRANCH   5   6
ENDBRANCH   4   5
ENDBRANCH   3   4
ENDBRANCH   2   3
ENDBRANCH   1   2
BRANCH   1  10
ATOM     10  C   UNL     1      30.028   7.687  49.470  1.00  0.00     0.000 C 
BRANCH  10  11
ATOM     11  C   UNL     1      29.946   6.515  48.476  1.00  0.00    -0.000 C 
BRANCH  11  12
ATOM     12  C   UNL     1      31.161   6.450  47.536  1.00  0.00    -0.000 C 
BRANCH  12  13
ATOM     13  C   UNL     1      32.311   5.609  48.116  1.00  0.00    -0.000 C 
BRANCH  13  14
ATOM     14  C   UNL     1      33.677   5.988  47.521  1.00  0.00    -0.000 C 
BRANCH  14  15
ATOM     15  C   UNL     1      34.698   4.846  47.614  1.00  0.00    -0.003 C 
ATOM     16  C   UNL     1      35.379   4.606  46.269  1.00  0.00     0.004 C 
ENDBRANCH  14  15
ENDBRANCH  13  14
ENDBRANCH  12  13
ENDBRANCH  11  12
ENDBRANCH  10  11
ENDBRANCH   1  10
TORSDOF 12
ENDMDL
MODEL 6
REMARK VINA RESULT:    -4.009     18.573     20.228
REMARK INTER + INTRA:          -8.091
REMARK INTER:                  -6.894
REMARK INTRA:                  -1.198
REMARK UNBOUND:                -1.269
REMARK SMILES CCCCCCCCCCCCCC(=O)[O-]
REMARK SMILES IDX 8 1 9 2 10 3 11 4 12 5 13 6 14 7 15 8 16 9 7 10 6 11 5 12
REMARK SMILES IDX 4 13 3 14 2 15 1 16
REMARK H PARENT
REMARK Flexibility Score: inf
ROOT
ATOM      1  C   UNL     1      20.783  14.010  33.924  1.00  0.00     0.000 C 
ENDROOT
BRANCH   1   2
ATOM      2  C   UNL     1      21.239  13.217  32.686  1.00  0.00     0.000 C 
BRANCH   2   3
ATOM      3  C   UNL     1      21.952  14.096  31.645  1.00  0.00     0.000 C 
BRANCH   3   4
ATOM      4  C   UNL     1      21.645  15.591  31.826  1.00  0.00     0.000 C 
BRANCH   4   5
ATOM      5  C   UNL     1      22.237  16.459  30.705  1.00  0.00     0.006 C 
BRANCH   5   6
ATOM      6  C   UNL     1      22.690  17.818  31.245  1.00  0.00     0.053 C 
BRANCH   6   7
ATOM      7  C   UNL     1      24.163  17.995  31.051  1.00  0.00     0.041 C 
ATOM      8  O   UNL     1      24.736  19.037  31.466  1.00  0.00    -0.550 OA
ATOM      9  O   UNL     1      24.896  17.033  30.369  1.00  0.00    -0.550 OA
ENDBRANCH   6   7
ENDBRANCH   5   6
ENDBRANCH   4   5
ENDBRANCH   3   4
ENDBRANCH   2   3
ENDBRANCH   1   2
BRANCH   1  10
ATOM     10  C   UNL     1      19.444  13.519  34.516  1.00  0.00     0.000 C 
BRANCH  10  11
ATOM     11  C   UNL     1      19.554  13.211  36.019  1.00  0.00    -0.000 C 
BRANCH  11  12
ATOM     12  C   UNL     1      19.532  11.703  36.317  1.00  0.00    -0.000 C 
BRANCH  12  13
ATOM     13  C   UNL     1      19.509  10.849  35.037  1.00  0.00    -0.000 C 
BRANCH  13  14
ATOM     14  C   UNL     1      20.776   9.994  34.875  1.00  0.00    -0.000 C 
BRANCH  14  15
ATOM     15  C   UNL     1      21.885  10.390  35.860  1.00  0.00    -0.003 C 
ATOM     16  C   UNL     1      23.032  11.094  35.141  1.00  0.00     0.004 C 
ENDBRANCH  14  15
ENDBRANCH  13  14
ENDBRANCH  12  13
ENDBRANCH  11  12
ENDBRANCH  10  11
ENDBRANCH   1  10
TORSDOF 12
ENDMDL
MODEL 7
REMARK VINA RESULT:    -3.974      4.506      7.632
REMARK INTER + INTRA:          -8.031
REMARK INTER:                  -7.396
REMARK INTRA:                  -0.635
REMARK UNBOUND:                -1.269
REMARK SMILES CCCCCCCCCCCCCC(=O)[O-]
REMARK SMILES IDX 8 1 9 2 10 3 11 4 12 5 13 6 14 7 15 8 16 9 7 10 6 11 5 12
REMARK SMILES IDX 4 13 3 14 2 15 1 16
REMARK H PARENT
REMARK Flexibility Score: inf
ROOT
ATOM      1  C   UNL     1      34.257   9.136  44.975  1.00  0.00     0.000 C 
ENDROOT
BRANCH   1   2
ATOM      2  C   UNL     1      34.580  10.314  44.040  1.00  0.00     0.000 C 
BRANCH   2   3
ATOM      3  C   UNL     1      34.676  11.657  44.784  1.00  0.00     0.000 C 
BRANCH   3   4
ATOM      4  C   UNL     1      35.515  11.561  46.069  1.00  0.00     0.000 C 
BRANCH   4   5
ATOM      5  C   UNL     1      36.348  12.825  46.329  1.00  0.00     0.006 C 
BRANCH   5   6
ATOM      6  C   UNL     1      35.695  14.054  45.690  1.00  0.00     0.053 C 
BRANCH   6   7
ATOM      7  C   UNL     1      36.690  15.162  45.546  1.00  0.00     0.041 C 
ATOM      8  O   UNL     1      37.923  14.920  45.626  1.00  0.00    -0.550 OA
ATOM      9  O   UNL     1      36.255  16.469  45.372  1.00  0.00    -0.550 OA
ENDBRANCH   6   7
ENDBRANCH   5   6
ENDBRANCH   4   5
ENDBRANCH   3   4
ENDBRANCH   2   3
ENDBRANCH   1   2
BRANCH   1  10
ATOM     10  C   UNL     1      34.220   7.769  44.259  1.00  0.00     0.000 C 
BRANCH  10  11
ATOM     11  C   UNL     1      33.901   6.617  45.228  1.00  0.00    -0.000 C 
BRANCH  11  12
ATOM     12  C   UNL     1      33.555   7.112  46.642  1.00  0.00    -0.000 C 
BRANCH  12  13
ATOM     13  C   UNL     1      33.546   5.975  47.679  1.00  0.00    -0.000 C 
BRANCH  13  14
ATOM     14  C   UNL     1      32.155   5.745  48.290  1.00  0.00    -0.000 C 
BRANCH  14  15
ATOM     15  C   UNL     1      31.070   6.607  47.629  1.00  0.00    -0.003 C 
ATOM     16  C   UNL     1      29.691   6.285  48.197  1.00  0.00     0.004 C 
ENDBRANCH  14  15
ENDBRANCH  13  14
ENDBRANCH  12  13
ENDBRANCH  11  12
ENDBRANCH  10  11
ENDBRANCH   1  10
TORSDOF 12
ENDMDL
MODEL 8
REMARK VINA RESULT:    -3.917     18.687     20.231
REMARK INTER + INTRA:          -7.934
REMARK INTER:                  -6.283
REMARK INTRA:                  -1.651
REMARK UNBOUND:                -1.269
REMARK SMILES CCCCCCCCCCCCCC(=O)[O-]
REMARK SMILES IDX 8 1 9 2 10 3 11 4 12 5 13 6 14 7 15 8 16 9 7 10 6 11 5 12
REMARK SMILES IDX 4 13 3 14 2 15 1 16
REMARK H PARENT
REMARK Flexibility Score: inf
ROOT
ATOM      1  C   UNL     1      19.645  13.752  34.749  1.00  0.00     0.000 C 
ENDROOT
BRANCH   1   2
ATOM      2  C   UNL     1      20.786  14.547  34.089  1.00  0.00     0.000 C 
BRANCH   2   3
ATOM      3  C   UNL     1      20.663  14.607  32.557  1.00  0.00     0.000 C 
BRANCH   3   4
ATOM      4  C   UNL     1      21.913  14.069  31.844  1.00  0.00     0.000 C 
BRANCH   4   5
ATOM      5  C   UNL     1      22.521  15.084  30.864  1.00  0.00     0.006 C 
BRANCH   5   6
ATOM      6  C   UNL     1      22.217  16.519  31.303  1.00  0.00     0.053 C 
BRANCH   6   7
ATOM      7  C   UNL     1      23.379  17.415  31.010  1.00  0.00     0.041 C 
ATOM      8  O   UNL     1      24.461  16.930  30.585  1.00  0.00    -0.550 OA
ATOM      9  O   UNL     1      23.284  18.779  31.254  1.00  0.00    -0.550 OA
ENDBRANCH   6   7
ENDBRANCH   5   6
ENDBRANCH   4   5
ENDBRANCH   3   4
ENDBRANCH   2   3
ENDBRANCH   1   2
BRANCH   1  10
ATOM     10  C   UNL     1      20.118  12.809  35.876  1.00  0.00     0.000 C 
BRANCH  10  11
ATOM     11  C   UNL     1      21.613  12.465  35.754  1.00  0.00    -0.000 C 
BRANCH  11  12
ATOM     12  C   UNL     1      21.884  10.956  35.874  1.00  0.00    -0.000 C 
BRANCH  12  13
ATOM     13  C   UNL     1      21.244  10.149  34.732  1.00  0.00    -0.000 C 
BRANCH  13  14
ATOM     14  C   UNL     1      21.591  10.712  33.345  1.00  0.00    -0.000 C 
BRANCH  14  15
ATOM     15  C   UNL     1      20.403  10.667  32.374  1.00  0.00    -0.003 C 
ATOM     16  C   UNL     1      19.091  10.453  33.124  1.00  0.00     0.004 C 
ENDBRANCH  14  15
ENDBRANCH  13  14
ENDBRANCH  12  13
ENDBRANCH  11  12
ENDBRANCH  10  11
ENDBRANCH   1  10
TORSDOF 12
ENDMDL
MODEL 9
REMARK VINA RESULT:    -3.908      2.483      4.139
REMARK INTER + INTRA:          -7.918
REMARK INTER:                  -6.738
REMARK INTRA:                  -1.180
REMARK UNBOUND:                -1.269
REMARK SMILES CCCCCCCCCCCCCC(=O)[O-]
REMARK SMILES IDX 8 1 9 2 10 3 11 4 12 5 13 6 14 7 15 8 16 9 7 10 6 11 5 12
REMARK SMILES IDX 4 13 3 14 2 15 1 16
REMARK H PARENT
REMARK Flexibility Score: inf
ROOT
ATOM      1  C   UNL     1      32.412   5.503  47.812  1.00  0.00     0.000 C 
ENDROOT
BRANCH   1   2
ATOM      2  C   UNL     1      31.295   6.558  47.889  1.00  0.00     0.000 C 
BRANCH   2   3
ATOM      3  C   UNL     1      31.040   7.053  49.323  1.00  0.00     0.000 C 
BRANCH   3   4
ATOM      4  C   UNL     1      31.855   8.311  49.665  1.00  0.00     0.000 C 
BRANCH   4   5
ATOM      5  C   UNL     1      31.523   9.500  48.750  1.00  0.00     0.006 C 
BRANCH   5   6
ATOM      6  C   UNL     1      32.766   9.965  47.985  1.00  0.00     0.053 C 
BRANCH   6   7
ATOM      7  C   UNL     1      33.788  10.515  48.929  1.00  0.00     0.041 C 
ATOM      8  O   UNL     1      33.563  11.586  49.554  1.00  0.00    -0.550 OA
ATOM      9  O   UNL     1      35.010   9.873  49.082  1.00  0.00    -0.550 OA
ENDBRANCH   6   7
ENDBRANCH   5   6
ENDBRANCH   4   5
ENDBRANCH   3   4
ENDBRANCH   2   3
ENDBRANCH   1   2
BRANCH   1  10
ATOM     10  C   UNL     1      33.818   6.103  47.594  1.00  0.00     0.000 C 
BRANCH  10  11
ATOM     11  C   UNL     1      34.391   5.746  46.211  1.00  0.00    -0.000 C 
BRANCH  11  12
ATOM     12  C   UNL     1      33.826   6.634  45.090  1.00  0.00    -0.000 C 
BRANCH  12  13
ATOM     13  C   UNL     1      34.163   8.122  45.289  1.00  0.00    -0.000 C 
BRANCH  13  14
ATOM     14  C   UNL     1      34.654   8.793  43.996  1.00  0.00    -0.000 C 
BRANCH  14  15
ATOM     15  C   UNL     1      34.164  10.241  43.860  1.00  0.00    -0.003 C 
ATOM     16  C   UNL     1      34.784  11.134  44.931  1.00  0.00     0.004 C 
ENDBRANCH  14  15
ENDBRANCH  13  14
ENDBRANCH  12  13
ENDBRANCH  11  12
ENDBRANCH  10  11
ENDBRANCH   1  10
TORSDOF 12
ENDMDL
