MODEL 1
REMARK VINA RESULT:    -4.791      0.000      0.000
REMARK INTER + INTRA:          -6.518
REMARK INTER:                  -6.752
REMARK INTRA:                   0.233
REMARK UNBOUND:                 0.233
REMARK SMILES CC1=CCC(=C(C)C)C(=O)CC(C)=CCC1
REMARK SMILES IDX 12 1 14 2 13 3 15 4 16 5 2 6 1 7 3 8 11 10 9 11 10 12 5 13
REMARK SMILES IDX 6 14 7 15 8 16 4 17
REMARK H PARENT
REMARK Flexibility Score: 60.00
ROOT
ATOM      1  C   UNL     1      18.678  27.923 -14.258  1.00  0.00    -0.070 C 
ATOM      2  C   UNL     1      18.855  28.239 -12.956  1.00  0.00    -0.027 C 
ATOM      3  C   UNL     1      17.623  26.902 -14.600  1.00  0.00     0.039 C 
ENDROOT
BRANCH   2   4
ATOM      4  C   UNL     1      19.790  29.302 -12.423  1.00  0.00     0.032 C 
BRANCH   4   5
ATOM      5  C   UNL     1      21.237  28.827 -12.175  1.00  0.00     0.034 C 
BRANCH   5   6
ATOM      6  C   UNL     1      22.281  29.767 -12.751  1.00  0.00    -0.077 C 
ATOM      7  C   UNL     1      22.541  31.060 -12.020  1.00  0.00     0.039 C 
ATOM      8  C   UNL     1      23.043  29.489 -13.838  1.00  0.00    -0.023 CG0
ATOM      9  G   UNL     1      22.946  28.270 -14.735  1.00  0.00     0.000 G0
ENDBRANCH   5   6
ENDBRANCH   4   5
ENDBRANCH   2   4
BRANCH   1  10
ATOM     10  C   UNL     1      19.421  28.607 -15.388  1.00  0.00     0.111 C 
BRANCH  10  11
ATOM     11  C   UNL     1      20.639  27.828 -15.805  1.00  0.00     0.163 C 
ATOM     12  O   UNL     1      20.489  26.618 -16.125  1.00  0.00    -0.294 OA
BRANCH  11  13
ATOM     13  C   UNL     1      21.993  28.451 -15.910  1.00  0.00    -0.002 C 
ATOM     14  C   UNL     1      22.321  29.232 -16.983  1.00  0.00    -0.069 C 
ATOM     15  C   UNL     1      21.393  29.365 -18.170  1.00  0.00     0.039 C 
ATOM     16  C   UNL     1      23.621  30.003 -17.044  1.00  0.00     0.039 C 
BRANCH  13  17
ATOM     17  C   UNL     1      22.941  28.257 -14.737  1.00  0.00     0.066 CG0
ATOM     18  G   UNL     1      23.021  29.485 -13.852  1.00  0.00     0.000 G0
ENDBRANCH  13  17
ENDBRANCH  11  13
ENDBRANCH  10  11
ENDBRANCH   1  10
TORSDOF 0
ENDMDL
MODEL 2
REMARK VINA RESULT:    -4.741      2.121      4.994
REMARK INTER + INTRA:          -6.447
REMARK INTER:                  -6.606
REMARK INTRA:                   0.158
REMARK UNBOUND:                 0.233
REMARK SMILES CC1=CCC(=C(C)C)C(=O)CC(C)=CCC1
REMARK SMILES IDX 12 1 14 2 13 3 15 4 16 5 2 6 1 7 3 8 11 10 9 11 10 12 5 13
REMARK SMILES IDX 6 14 7 15 8 16 4 17
REMARK H PARENT
REMARK Flexibility Score: 60.00
ROOT
ATOM      1  C   UNL     1      22.104  28.850 -15.793  1.00  0.00    -0.070 C 
ATOM      2  C   UNL     1      20.877  28.665 -16.329  1.00  0.00    -0.027 C 
ATOM      3  C   UNL     1      23.031  29.825 -16.473  1.00  0.00     0.039 C 
ENDROOT
BRANCH   2   4
ATOM      4  C   UNL     1      19.777  27.807 -15.743  1.00  0.00     0.032 C 
BRANCH   4   5
ATOM      5  C   UNL     1      18.803  28.553 -14.808  1.00  0.00     0.034 C 
BRANCH   5   6
ATOM      6  C   UNL     1      18.589  27.846 -13.481  1.00  0.00    -0.077 C 
ATOM      7  C   UNL     1      17.637  26.675 -13.457  1.00  0.00     0.039 C 
ATOM      8  C   UNL     1      19.247  28.152 -12.337  1.00  0.00    -0.023 CG0
ATOM      9  G   UNL     1      20.226  29.289 -12.121  1.00  0.00     0.000 G0
ENDBRANCH   5   6
ENDBRANCH   4   5
ENDBRANCH   2   4
BRANCH   1  10
ATOM     10  C   UNL     1      22.553  28.199 -14.501  1.00  0.00     0.111 C 
BRANCH  10  11
ATOM     11  C   UNL     1      22.473  29.154 -13.339  1.00  0.00     0.163 C 
ATOM     12  O   UNL     1      23.065  30.262 -13.440  1.00  0.00    -0.294 OA
BRANCH  11  13
ATOM     13  C   UNL     1      21.672  28.860 -12.114  1.00  0.00    -0.002 C 
ATOM     14  C   UNL     1      22.257  28.294 -11.016  1.00  0.00    -0.069 C 
ATOM     15  C   UNL     1      23.687  27.802 -11.055  1.00  0.00     0.039 C 
ATOM     16  C   UNL     1      21.515  28.129  -9.708  1.00  0.00     0.039 C 
BRANCH  13  17
ATOM     17  C   UNL     1      20.217  29.303 -12.110  1.00  0.00     0.066 CG0
ATOM     18  G   UNL     1      19.263  28.148 -12.341  1.00  0.00     0.000 G0
ENDBRANCH  13  17
ENDBRANCH  11  13
ENDBRANCH  10  11
ENDBRANCH   1  10
TORSDOF 0
ENDMDL
MODEL 3
REMARK VINA RESULT:    -4.576      1.721      4.275
REMARK INTER + INTRA:          -6.215
REMARK INTER:                  -6.466
REMARK INTRA:                   0.252
REMARK UNBOUND:                 0.233
REMARK SMILES CC1=CCC(=C(C)C)C(=O)CC(C)=CCC1
REMARK SMILES IDX 12 1 14 2 13 3 15 4 16 5 2 6 1 7 3 8 11 10 9 11 10 12 5 13
REMARK SMILES IDX 6 14 7 15 8 16 4 17
REMARK H PARENT
REMARK Flexibility Score: 60.00
ROOT
ATOM      1  C   UNL     1      21.915  28.535 -16.052  1.00  0.00    -0.070 C 
ATOM      2  C   UNL     1      22.856  28.987 -15.194  1.00  0.00    -0.027 C 
ATOM      3  C   UNL     1      22.055  28.902 -17.508  1.00  0.00     0.039 C 
ENDROOT
BRANCH   2   4
ATOM      4  C   UNL     1      22.944  28.649 -13.721  1.00  0.00     0.032 C 
BRANCH   4   5
ATOM      5  C   UNL     1      22.071  29.526 -12.802  1.00  0.00     0.034 C 
BRANCH   5   6
ATOM      6  C   UNL     1      21.229  28.719 -11.829  1.00  0.00    -0.077 C 
ATOM      7  C   UNL     1      21.935  28.062 -10.669  1.00  0.00     0.039 C 
ATOM      8  C   UNL     1      19.879  28.609 -11.895  1.00  0.00    -0.023 CG0
ATOM      9  G   UNL     1      18.968  29.163 -12.973  1.00  0.00     0.000 G0
ENDBRANCH   5   6
ENDBRANCH   4   5
ENDBRANCH   2   4
BRANCH   1  10
ATOM     10  C   UNL     1      20.788  27.610 -15.640  1.00  0.00     0.111 C 
BRANCH  10  11
ATOM     11  C   UNL     1      19.520  28.371 -15.358  1.00  0.00     0.163 C 
ATOM     12  O   UNL     1      19.091  29.159 -16.244  1.00  0.00    -0.294 OA
BRANCH  11  13
ATOM     13  C   UNL     1      18.731  28.178 -14.105  1.00  0.00    -0.002 C 
ATOM     14  C   UNL     1      17.894  27.106 -13.965  1.00  0.00    -0.069 C 
ATOM     15  C   UNL     1      17.616  26.171 -15.120  1.00  0.00     0.039 C 
ATOM     16  C   UNL     1      17.203  26.796 -12.655  1.00  0.00     0.039 C 
BRANCH  13  17
ATOM     17  C   UNL     1      18.972  29.163 -12.972  1.00  0.00     0.066 CG0
ATOM     18  G   UNL     1      19.873  28.592 -11.895  1.00  0.00     0.000 G0
ENDBRANCH  13  17
ENDBRANCH  11  13
ENDBRANCH  10  11
ENDBRANCH   1  10
TORSDOF 0
ENDMDL
MODEL 4
REMARK VINA RESULT:    -4.129      1.752      4.363
REMARK INTER + INTRA:          -5.585
REMARK INTER:                  -6.037
REMARK INTRA:                   0.451
REMARK UNBOUND:                 0.233
REMARK SMILES CC1=CCC(=C(C)C)C(=O)CC(C)=CCC1
REMARK SMILES IDX 12 1 14 2 13 3 15 4 16 5 2 6 1 7 3 8 11 10 9 11 10 12 5 13
REMARK SMILES IDX 6 14 7 15 8 16 4 17
REMARK H PARENT
REMARK Flexibility Score: 60.00
ROOT
ATOM      1  C   UNL     1      20.450  28.323 -16.029  1.00  0.00    -0.070 C 
ATOM      2  C   UNL     1      20.257  28.878 -17.246  1.00  0.00    -0.027 C 
ATOM      3  C   UNL     1      19.522  28.731 -14.912  1.00  0.00     0.039 C 
ENDROOT
BRANCH   2   4
ATOM      4  C   UNL     1      21.016  28.528 -18.507  1.00  0.00     0.032 C 
BRANCH   4   5
ATOM      5  C   UNL     1      22.076  29.565 -18.934  1.00  0.00     0.034 C 
BRANCH   5   6
ATOM      6  C   UNL     1      23.478  29.211 -18.470  1.00  0.00    -0.077 C 
ATOM      7  C   UNL     1      24.377  28.490 -19.443  1.00  0.00     0.039 C 
ATOM      8  C   UNL     1      23.996  29.561 -17.267  1.00  0.00    -0.023 CG0
ATOM      9  G   UNL     1      23.280  30.265 -16.133  1.00  0.00     0.000 G0
ENDBRANCH   5   6
ENDBRANCH   4   5
ENDBRANCH   2   4
BRANCH   1  10
ATOM     10  C   UNL     1      21.486  27.252 -15.758  1.00  0.00     0.111 C 
BRANCH  10  11
ATOM     11  C   UNL     1      22.799  27.846 -15.321  1.00  0.00     0.163 C 
ATOM     12  O   UNL     1      23.812  27.096 -15.297  1.00  0.00    -0.294 OA
BRANCH  11  13
ATOM     13  C   UNL     1      22.950  29.292 -14.978  1.00  0.00    -0.002 C 
ATOM     14  C   UNL     1      22.877  29.713 -13.679  1.00  0.00    -0.069 C 
ATOM     15  C   UNL     1      22.487  28.765 -12.567  1.00  0.00     0.039 C 
ATOM     16  C   UNL     1      23.181  31.141 -13.283  1.00  0.00     0.039 C 
BRANCH  13  17
ATOM     17  C   UNL     1      23.279  30.246 -16.115  1.00  0.00     0.066 CG0
ATOM     18  G   UNL     1      23.991  29.553 -17.260  1.00  0.00     0.000 G0
ENDBRANCH  13  17
ENDBRANCH  11  13
ENDBRANCH  10  11
ENDBRANCH   1  10
TORSDOF 0
ENDMDL
MODEL 5
REMARK VINA RESULT:    -4.084     14.515     16.636
REMARK INTER + INTRA:          -5.522
REMARK INTER:                  -5.964
REMARK INTRA:                   0.442
REMARK UNBOUND:                 0.233
REMARK SMILES CC1=CCC(=C(C)C)C(=O)CC(C)=CCC1
REMARK SMILES IDX 12 1 14 2 13 3 15 4 16 5 2 6 1 7 3 8 11 10 9 11 10 12 5 13
REMARK SMILES IDX 6 14 7 15 8 16 4 17
REMARK H PARENT
REMARK Flexibility Score: 60.00
ROOT
ATOM      1  C   UNL     1      33.673  34.546 -21.079  1.00  0.00    -0.070 C 
ATOM      2  C   UNL     1      34.828  34.479 -21.777  1.00  0.00    -0.027 C 
ATOM      3  C   UNL     1      33.214  33.305 -20.356  1.00  0.00     0.039 C 
ENDROOT
BRANCH   2   4
ATOM      4  C   UNL     1      35.501  35.635 -22.485  1.00  0.00     0.032 C 
BRANCH   4   5
ATOM      5  C   UNL     1      35.268  35.686 -24.009  1.00  0.00     0.034 C 
BRANCH   5   6
ATOM      6  C   UNL     1      34.683  37.005 -24.480  1.00  0.00    -0.077 C 
ATOM      7  C   UNL     1      35.645  38.090 -24.898  1.00  0.00     0.039 C 
ATOM      8  C   UNL     1      33.356  37.248 -24.617  1.00  0.00    -0.023 CG0
ATOM      9  G   UNL     1      32.214  36.323 -24.245  1.00  0.00     0.000 G0
ENDBRANCH   5   6
ENDBRANCH   4   5
ENDBRANCH   2   4
BRANCH   1  10
ATOM     10  C   UNL     1      32.873  35.822 -20.914  1.00  0.00     0.111 C 
BRANCH  10  11
ATOM     11  C   UNL     1      31.647  35.826 -21.787  1.00  0.00     0.163 C 
ATOM     12  O   UNL     1      30.692  35.065 -21.474  1.00  0.00    -0.294 OA
BRANCH  11  13
ATOM     13  C   UNL     1      31.503  36.736 -22.963  1.00  0.00    -0.002 C 
ATOM     14  C   UNL     1      30.843  37.928 -22.846  1.00  0.00    -0.069 C 
ATOM     15  C   UNL     1      30.104  38.296 -21.579  1.00  0.00     0.039 C 
ATOM     16  C   UNL     1      30.815  38.940 -23.971  1.00  0.00     0.039 C 
BRANCH  13  17
ATOM     17  C   UNL     1      32.197  36.324 -24.251  1.00  0.00     0.066 CG0
ATOM     18  G   UNL     1      33.347  37.247 -24.605  1.00  0.00     0.000 G0
ENDBRANCH  13  17
ENDBRANCH  11  13
ENDBRANCH  10  11
ENDBRANCH   1  10
TORSDOF 0
ENDMDL
MODEL 6
REMARK VINA RESULT:    -4.041     15.175     16.722
REMARK INTER + INTRA:          -5.461
REMARK INTER:                  -6.004
REMARK INTRA:                   0.542
REMARK UNBOUND:                 0.233
REMARK SMILES CC1=CCC(=C(C)C)C(=O)CC(C)=CCC1
REMARK SMILES IDX 12 1 14 2 13 3 15 4 16 5 2 6 1 7 3 8 11 10 9 11 10 12 5 13
REMARK SMILES IDX 6 14 7 15 8 16 4 17
REMARK H PARENT
REMARK Flexibility Score: 60.00
ROOT
ATOM      1  C   UNL     1      30.658  38.177 -21.990  1.00  0.00    -0.070 C 
ATOM      2  C   UNL     1      31.046  37.032 -21.387  1.00  0.00    -0.027 C 
ATOM      3  C   UNL     1      29.181  38.475 -22.055  1.00  0.00     0.039 C 
ENDROOT
BRANCH   2   4
ATOM      4  C   UNL     1      32.476  36.605 -21.138  1.00  0.00     0.032 C 
BRANCH   4   5
ATOM      5  C   UNL     1      32.953  35.409 -21.988  1.00  0.00     0.034 C 
BRANCH   5   6
ATOM      6  C   UNL     1      33.821  35.820 -23.164  1.00  0.00    -0.077 C 
ATOM      7  C   UNL     1      35.317  35.701 -23.007  1.00  0.00     0.039 C 
ATOM      8  C   UNL     1      33.340  36.219 -24.367  1.00  0.00    -0.023 CG0
ATOM      9  G   UNL     1      31.887  36.430 -24.746  1.00  0.00     0.000 G0
ENDBRANCH   5   6
ENDBRANCH   4   5
ENDBRANCH   2   4
BRANCH   1  10
ATOM     10  C   UNL     1      31.632  39.211 -22.519  1.00  0.00     0.111 C 
BRANCH  10  11
ATOM     11  C   UNL     1      32.190  38.815 -23.860  1.00  0.00     0.163 C 
ATOM     12  O   UNL     1      33.330  39.248 -24.180  1.00  0.00    -0.294 OA
BRANCH  11  13
ATOM     13  C   UNL     1      31.473  37.887 -24.784  1.00  0.00    -0.002 C 
ATOM     14  C   UNL     1      30.555  38.363 -25.679  1.00  0.00    -0.069 C 
ATOM     15  C   UNL     1      30.118  39.811 -25.660  1.00  0.00     0.039 C 
ATOM     16  C   UNL     1      29.930  37.476 -26.733  1.00  0.00     0.039 C 
BRANCH  13  17
ATOM     17  C   UNL     1      31.876  36.421 -24.750  1.00  0.00     0.066 CG0
ATOM     18  G   UNL     1      33.328  36.233 -24.358  1.00  0.00     0.000 G0
ENDBRANCH  13  17
ENDBRANCH  11  13
ENDBRANCH  10  11
ENDBRANCH   1  10
TORSDOF 0
ENDMDL
MODEL 7
REMARK VINA RESULT:    -3.929      2.212      4.494
REMARK INTER + INTRA:          -5.304
REMARK INTER:                  -6.132
REMARK INTRA:                   0.828
REMARK UNBOUND:                 0.233
REMARK SMILES CC1=CCC(=C(C)C)C(=O)CC(C)=CCC1
REMARK SMILES IDX 12 1 14 2 13 3 15 4 16 5 2 6 1 7 3 8 11 10 9 11 10 12 5 13
REMARK SMILES IDX 6 14 7 15 8 16 4 17
REMARK H PARENT
REMARK Flexibility Score: 60.00
ROOT
ATOM      1  C   UNL     1      17.575  27.015 -13.751  1.00  0.00    -0.070 C 
ATOM      2  C   UNL     1      17.856  27.503 -14.981  1.00  0.00    -0.027 C 
ATOM      3  C   UNL     1      17.179  25.564 -13.642  1.00  0.00     0.039 C 
ENDROOT
BRANCH   2   4
ATOM      4  C   UNL     1      18.360  28.896 -15.284  1.00  0.00     0.032 C 
BRANCH   4   5
ATOM      5  C   UNL     1      19.732  28.950 -15.988  1.00  0.00     0.034 C 
BRANCH   5   6
ATOM      6  C   UNL     1      20.790  28.106 -15.299  1.00  0.00    -0.077 C 
ATOM      7  C   UNL     1      21.533  27.094 -16.135  1.00  0.00     0.039 C 
ATOM      8  C   UNL     1      21.157  28.250 -14.002  1.00  0.00    -0.023 CG0
ATOM      9  G   UNL     1      20.543  29.180 -12.975  1.00  0.00     0.000 G0
ENDBRANCH   5   6
ENDBRANCH   4   5
ENDBRANCH   2   4
BRANCH   1  10
ATOM     10  C   UNL     1      17.726  27.826 -12.481  1.00  0.00     0.111 C 
BRANCH  10  11
ATOM     11  C   UNL     1      19.002  27.490 -11.755  1.00  0.00     0.163 C 
ATOM     12  O   UNL     1      19.107  26.345 -11.238  1.00  0.00    -0.294 OA
BRANCH  11  13
ATOM     13  C   UNL     1      20.156  28.435 -11.683  1.00  0.00    -0.002 C 
ATOM     14  C   UNL     1      20.883  28.563 -10.533  1.00  0.00    -0.069 C 
ATOM     15  C   UNL     1      20.455  27.880  -9.253  1.00  0.00     0.039 C 
ATOM     16  C   UNL     1      22.149  29.390 -10.474  1.00  0.00     0.039 C 
BRANCH  13  17
ATOM     17  C   UNL     1      20.539  29.164 -12.961  1.00  0.00     0.066 CG0
ATOM     18  G   UNL     1      21.160  28.239 -13.989  1.00  0.00     0.000 G0
ENDBRANCH  13  17
ENDBRANCH  11  13
ENDBRANCH  10  11
ENDBRANCH   1  10
TORSDOF 0
ENDMDL
MODEL 8
REMARK VINA RESULT:    -3.908      2.310      4.003
REMARK INTER + INTRA:          -5.273
REMARK INTER:                  -6.230
REMARK INTRA:                   0.957
REMARK UNBOUND:                 0.233
REMARK SMILES CC1=CCC(=C(C)C)C(=O)CC(C)=CCC1
REMARK SMILES IDX 12 1 14 2 13 3 15 4 16 5 2 6 1 7 3 8 11 10 9 11 10 12 5 13
REMARK SMILES IDX 6 14 7 15 8 16 4 17
REMARK H PARENT
REMARK Flexibility Score: 60.00
ROOT
ATOM      1  C   UNL     1      20.980  28.505  -9.638  1.00  0.00    -0.070 C 
ATOM      2  C   UNL     1      22.260  28.925  -9.523  1.00  0.00    -0.027 C 
ATOM      3  C   UNL     1      20.488  27.468  -8.660  1.00  0.00     0.039 C 
ENDROOT
BRANCH   2   4
ATOM      4  C   UNL     1      22.906  30.021 -10.341  1.00  0.00     0.032 C 
BRANCH   4   5
ATOM      5  C   UNL     1      24.147  29.583 -11.147  1.00  0.00     0.034 C 
BRANCH   5   6
ATOM      6  C   UNL     1      23.914  28.324 -11.963  1.00  0.00    -0.077 C 
ATOM      7  C   UNL     1      24.865  27.171 -11.760  1.00  0.00     0.039 C 
ATOM      8  C   UNL     1      22.870  28.144 -12.809  1.00  0.00    -0.023 CG0
ATOM      9  G   UNL     1      21.809  29.160 -13.182  1.00  0.00     0.000 G0
ENDBRANCH   5   6
ENDBRANCH   4   5
ENDBRANCH   2   4
BRANCH   1  10
ATOM     10  C   UNL     1      19.999  29.089 -10.634  1.00  0.00     0.111 C 
BRANCH  10  11
ATOM     11  C   UNL     1      19.834  28.200 -11.838  1.00  0.00     0.163 C 
ATOM     12  O   UNL     1      19.135  27.158 -11.715  1.00  0.00    -0.294 OA
BRANCH  11  13
ATOM     13  C   UNL     1      20.413  28.541 -13.172  1.00  0.00    -0.002 C 
ATOM     14  C   UNL     1      19.675  28.393 -14.312  1.00  0.00    -0.069 C 
ATOM     15  C   UNL     1      18.313  27.735 -14.286  1.00  0.00     0.039 C 
ATOM     16  C   UNL     1      20.173  28.875 -15.657  1.00  0.00     0.039 C 
BRANCH  13  17
ATOM     17  C   UNL     1      21.809  29.143 -13.191  1.00  0.00     0.066 CG0
ATOM     18  G   UNL     1      22.876  28.135 -12.813  1.00  0.00     0.000 G0
ENDBRANCH  13  17
ENDBRANCH  11  13
ENDBRANCH  10  11
ENDBRANCH   1  10
TORSDOF 0
ENDMDL
MODEL 9
REMARK VINA RESULT:    -3.783      9.628     12.234
REMARK INTER + INTRA:          -5.098
REMARK INTER:                  -5.563
REMARK INTRA:                   0.465
REMARK UNBOUND:                 0.233
REMARK SMILES CC1=CCC(=C(C)C)C(=O)CC(C)=CCC1
REMARK SMILES IDX 12 1 14 2 13 3 15 4 16 5 2 6 1 7 3 8 11 10 9 11 10 12 5 13
REMARK SMILES IDX 6 14 7 15 8 16 4 17
REMARK H PARENT
REMARK Flexibility Score: 60.00
ROOT
ATOM      1  C   UNL     1      21.894  25.588 -23.284  1.00  0.00    -0.070 C 
ATOM      2  C   UNL     1      22.740  24.593 -23.632  1.00  0.00    -0.027 C 
ATOM      3  C   UNL     1      22.490  26.917 -22.893  1.00  0.00     0.039 C 
ENDROOT
BRANCH   2   4
ATOM      4  C   UNL     1      22.336  23.228 -24.144  1.00  0.00     0.032 C 
BRANCH   4   5
ATOM      5  C   UNL     1      22.871  22.877 -25.547  1.00  0.00     0.034 C 
BRANCH   5   6
ATOM      6  C   UNL     1      22.418  23.853 -26.619  1.00  0.00    -0.077 C 
ATOM      7  C   UNL     1      23.481  24.505 -27.467  1.00  0.00     0.039 C 
ATOM      8  C   UNL     1      21.121  24.122 -26.910  1.00  0.00    -0.023 CG0
ATOM      9  G   UNL     1      19.895  23.602 -26.185  1.00  0.00     0.000 G0
ENDBRANCH   5   6
ENDBRANCH   4   5
ENDBRANCH   2   4
BRANCH   1  10
ATOM     10  C   UNL     1      20.386  25.460 -23.355  1.00  0.00     0.111 C 
BRANCH  10  11
ATOM     11  C   UNL     1      19.869  25.739 -24.742  1.00  0.00     0.163 C 
ATOM     12  O   UNL     1      20.151  26.849 -25.268  1.00  0.00    -0.294 OA
BRANCH  11  13
ATOM     13  C   UNL     1      19.097  24.731 -25.528  1.00  0.00    -0.002 C 
ATOM     14  C   UNL     1      17.750  24.871 -25.712  1.00  0.00    -0.069 C 
ATOM     15  C   UNL     1      16.969  25.956 -25.002  1.00  0.00     0.039 C 
ATOM     16  C   UNL     1      16.968  23.958 -26.630  1.00  0.00     0.039 C 
BRANCH  13  17
ATOM     17  C   UNL     1      19.885  23.608 -26.184  1.00  0.00     0.066 CG0
ATOM     18  G   UNL     1      21.126  24.114 -26.894  1.00  0.00     0.000 G0
ENDBRANCH  13  17
ENDBRANCH  11  13
ENDBRANCH  10  11
ENDBRANCH   1  10
TORSDOF 0
ENDMDL
