MODEL 1
REMARK VINA RESULT:    -3.568      0.000      0.000
REMARK INTER + INTRA:          -9.182
REMARK INTER:                  -6.488
REMARK INTRA:                  -2.694
REMARK UNBOUND:                -2.694
REMARK SMILES CCCCCCCCCCCCCC[C@@H](C)C(=O)[O-]
REMARK SMILES IDX 9 1 10 2 11 3 12 4 13 5 14 6 15 7 16 8 17 9 18 10 19 11 8 12
REMARK SMILES IDX 7 13 6 14 5 15 4 16 3 17 2 18 1 19
REMARK H PARENT
REMARK Flexibility Score: inf
ROOT
ATOM      1  C   UNL     1       1.841 127.096 110.819  1.00  0.00     0.000 C 
ENDROOT
BRANCH   1   2
ATOM      2  C   UNL     1       3.091 126.876 109.953  1.00  0.00     0.000 C 
BRANCH   2   3
ATOM      3  C   UNL     1       3.822 125.566 110.293  1.00  0.00     0.000 C 
BRANCH   3   4
ATOM      4  C   UNL     1       3.169 124.812 111.462  1.00  0.00     0.000 C 
BRANCH   4   5
ATOM      5  C   UNL     1       4.122 123.804 112.127  1.00  0.00     0.001 C 
BRANCH   5   6
ATOM      6  C   UNL     1       5.595 123.981 111.703  1.00  0.00     0.009 C 
BRANCH   6   7
ATOM      7  C   UNL     1       6.608 124.308 112.831  1.00  0.00     0.032 C 
ATOM      8  C   UNL     1       6.193 123.721 114.189  1.00  0.00     0.014 C 
BRANCH   7   9
ATOM      9  C   UNL     1       8.023 123.943 112.456  1.00  0.00     0.044 C 
ATOM     10  O   UNL     1       8.621 123.029 113.084  1.00  0.00    -0.550 OA
ATOM     11  O   UNL     1       8.677 124.586 111.410  1.00  0.00    -0.550 OA
ENDBRANCH   7   9
ENDBRANCH   6   7
ENDBRANCH   5   6
ENDBRANCH   4   5
ENDBRANCH   3   4
ENDBRANCH   2   3
ENDBRANCH   1   2
BRANCH   1  12
ATOM     12  C   UNL     1       1.603 128.576 111.153  1.00  0.00     0.000 C 
BRANCH  12  13
ATOM     13  C   UNL     1       1.233 128.752 112.631  1.00  0.00    -0.000 C 
BRANCH  13  14
ATOM     14  C   UNL     1       2.287 129.589 113.366  1.00  0.00    -0.000 C 
BRANCH  14  15
ATOM     15  C   UNL     1       3.545 129.771 112.504  1.00  0.00    -0.000 C 
BRANCH  15  16
ATOM     16  C   UNL     1       4.816 129.250 113.195  1.00  0.00    -0.000 C 
BRANCH  16  17
ATOM     17  C   UNL     1       4.901 127.714 113.196  1.00  0.00    -0.000 C 
BRANCH  17  18
ATOM     18  C   UNL     1       4.751 127.118 114.605  1.00  0.00    -0.003 C 
ATOM     19  C   UNL     1       3.447 126.339 114.780  1.00  0.00     0.004 C 
ENDBRANCH  17  18
ENDBRANCH  16  17
ENDBRANCH  15  16
ENDBRANCH  14  15
ENDBRANCH  13  14
ENDBRANCH  12  13
ENDBRANCH   1  12
TORSDOF 14
ENDMDL
MODEL 2
REMARK VINA RESULT:    -3.528      3.033      5.839
REMARK INTER + INTRA:          -9.109
REMARK INTER:                  -7.552
REMARK INTRA:                  -1.557
REMARK UNBOUND:                -2.694
REMARK SMILES CCCCCCCCCCCCCC[C@@H](C)C(=O)[O-]
REMARK SMILES IDX 9 1 10 2 11 3 12 4 13 5 14 6 15 7 16 8 17 9 18 10 19 11 8 12
REMARK SMILES IDX 7 13 6 14 5 15 4 16 3 17 2 18 1 19
REMARK H PARENT
REMARK Flexibility Score: inf
ROOT
ATOM      1  C   UNL     1       2.931 125.245 113.121  1.00  0.00     0.000 C 
ENDROOT
BRANCH   1   2
ATOM      2  C   UNL     1       2.132 126.436 113.670  1.00  0.00     0.000 C 
BRANCH   2   3
ATOM      3  C   UNL     1       2.837 127.783 113.428  1.00  0.00     0.000 C 
BRANCH   3   4
ATOM      4  C   UNL     1       4.190 127.878 114.151  1.00  0.00     0.000 C 
BRANCH   4   5
ATOM      5  C   UNL     1       5.244 128.651 113.341  1.00  0.00     0.001 C 
BRANCH   5   6
ATOM      6  C   UNL     1       5.066 130.183 113.406  1.00  0.00     0.009 C 
BRANCH   6   7
ATOM      7  C   UNL     1       5.952 130.941 114.427  1.00  0.00     0.032 C 
ATOM      8  C   UNL     1       5.488 130.745 115.878  1.00  0.00     0.014 C 
BRANCH   7   9
ATOM      9  C   UNL     1       7.420 130.641 114.249  1.00  0.00     0.044 C 
ATOM     10  O   UNL     1       8.128 130.360 115.252  1.00  0.00    -0.550 OA
ATOM     11  O   UNL     1       8.006 130.646 112.987  1.00  0.00    -0.550 OA
ENDBRANCH   7   9
ENDBRANCH   6   7
ENDBRANCH   5   6
ENDBRANCH   4   5
ENDBRANCH   3   4
ENDBRANCH   2   3
ENDBRANCH   1   2
BRANCH   1  12
ATOM     12  C   UNL     1       2.698 125.014 111.620  1.00  0.00     0.000 C 
BRANCH  12  13
ATOM     13  C   UNL     1       3.913 125.466 110.801  1.00  0.00    -0.000 C 
BRANCH  13  14
ATOM     14  C   UNL     1       5.135 124.588 111.096  1.00  0.00    -0.000 C 
BRANCH  14  15
ATOM     15  C   UNL     1       6.304 125.433 111.627  1.00  0.00    -0.000 C 
BRANCH  15  16
ATOM     16  C   UNL     1       7.447 125.567 110.608  1.00  0.00    -0.000 C 
BRANCH  16  17
ATOM     17  C   UNL     1       7.691 124.270 109.819  1.00  0.00    -0.000 C 
BRANCH  17  18
ATOM     18  C   UNL     1       7.799 124.514 108.305  1.00  0.00    -0.003 C 
ATOM     19  C   UNL     1       6.731 125.476 107.786  1.00  0.00     0.004 C 
ENDBRANCH  17  18
ENDBRANCH  16  17
ENDBRANCH  15  16
ENDBRANCH  14  15
ENDBRANCH  13  14
ENDBRANCH  12  13
ENDBRANCH   1  12
TORSDOF 14
ENDMDL
MODEL 3
REMARK VINA RESULT:    -3.518      2.206      4.167
REMARK INTER + INTRA:          -9.092
REMARK INTER:                  -7.392
REMARK INTRA:                  -1.699
REMARK UNBOUND:                -2.694
REMARK SMILES CCCCCCCCCCCCCC[C@@H](C)C(=O)[O-]
REMARK SMILES IDX 9 1 10 2 11 3 12 4 13 5 14 6 15 7 16 8 17 9 18 10 19 11 8 12
REMARK SMILES IDX 7 13 6 14 5 15 4 16 3 17 2 18 1 19
REMARK H PARENT
REMARK Flexibility Score: inf
ROOT
ATOM      1  C   UNL     1       1.463 122.460 114.634  1.00  0.00     0.000 C 
ENDROOT
BRANCH   1   2
ATOM      2  C   UNL     1       1.807 121.035 114.175  1.00  0.00     0.000 C 
BRANCH   2   3
ATOM      3  C   UNL     1       3.318 120.826 113.975  1.00  0.00     0.000 C 
BRANCH   3   4
ATOM      4  C   UNL     1       4.102 122.148 113.985  1.00  0.00     0.000 C 
BRANCH   4   5
ATOM      5  C   UNL     1       4.666 122.515 112.602  1.00  0.00     0.001 C 
BRANCH   5   6
ATOM      6  C   UNL     1       5.507 123.809 112.606  1.00  0.00     0.009 C 
BRANCH   6   7
ATOM      7  C   UNL     1       6.582 123.941 111.496  1.00  0.00     0.032 C 
ATOM      8  C   UNL     1       6.393 125.198 110.634  1.00  0.00     0.014 C 
BRANCH   7   9
ATOM      9  C   UNL     1       7.984 123.822 112.038  1.00  0.00     0.044 C 
ATOM     10  O   UNL     1       8.201 123.128 113.067  1.00  0.00    -0.550 OA
ATOM     11  O   UNL     1       9.054 124.448 111.406  1.00  0.00    -0.550 OA
ENDBRANCH   7   9
ENDBRANCH   6   7
ENDBRANCH   5   6
ENDBRANCH   4   5
ENDBRANCH   3   4
ENDBRANCH   2   3
ENDBRANCH   1   2
BRANCH   1  12
ATOM     12  C   UNL     1       0.961 123.348 113.487  1.00  0.00     0.000 C 
BRANCH  12  13
ATOM     13  C   UNL     1       0.840 124.810 113.936  1.00  0.00    -0.000 C 
BRANCH  13  14
ATOM     14  C   UNL     1       1.382 125.763 112.864  1.00  0.00    -0.000 C 
BRANCH  14  15
ATOM     15  C   UNL     1       2.137 124.990 111.772  1.00  0.00    -0.000 C 
BRANCH  15  16
ATOM     16  C   UNL     1       2.743 125.916 110.704  1.00  0.00    -0.000 C 
BRANCH  16  17
ATOM     17  C   UNL     1       3.122 127.296 111.265  1.00  0.00    -0.000 C 
BRANCH  17  18
ATOM     18  C   UNL     1       2.464 128.448 110.490  1.00  0.00    -0.003 C 
ATOM     19  C   UNL     1       1.225 129.001 111.195  1.00  0.00     0.004 C 
ENDBRANCH  17  18
ENDBRANCH  16  17
ENDBRANCH  15  16
ENDBRANCH  14  15
ENDBRANCH  13  14
ENDBRANCH  12  13
ENDBRANCH   1  12
TORSDOF 14
ENDMDL
MODEL 4
REMARK VINA RESULT:    -3.486      1.367      2.357
REMARK INTER + INTRA:          -9.032
REMARK INTER:                  -7.201
REMARK INTRA:                  -1.831
REMARK UNBOUND:                -2.694
REMARK SMILES CCCCCCCCCCCCCC[C@@H](C)C(=O)[O-]
REMARK SMILES IDX 9 1 10 2 11 3 12 4 13 5 14 6 15 7 16 8 17 9 18 10 19 11 8 12
REMARK SMILES IDX 7 13 6 14 5 15 4 16 3 17 2 18 1 19
REMARK H PARENT
REMARK Flexibility Score: inf
ROOT
ATOM      1  C   UNL     1       2.227 126.295 110.951  1.00  0.00     0.000 C 
ENDROOT
BRANCH   1   2
ATOM      2  C   UNL     1       1.764 125.756 112.313  1.00  0.00     0.000 C 
BRANCH   2   3
ATOM      3  C   UNL     1       2.557 124.514 112.758  1.00  0.00     0.000 C 
BRANCH   3   4
ATOM      4  C   UNL     1       3.524 124.814 113.913  1.00  0.00     0.000 C 
BRANCH   4   5
ATOM      5  C   UNL     1       5.001 124.680 113.503  1.00  0.00     0.001 C 
BRANCH   5   6
ATOM      6  C   UNL     1       5.251 123.560 112.472  1.00  0.00     0.009 C 
BRANCH   6   7
ATOM      7  C   UNL     1       6.227 123.889 111.313  1.00  0.00     0.032 C 
ATOM      8  C   UNL     1       5.838 125.167 110.555  1.00  0.00     0.014 C 
BRANCH   7   9
ATOM      9  C   UNL     1       7.667 123.903 111.761  1.00  0.00     0.044 C 
ATOM     10  O   UNL     1       8.072 123.051 112.595  1.00  0.00    -0.550 OA
ATOM     11  O   UNL     1       8.569 124.831 111.250  1.00  0.00    -0.550 OA
ENDBRANCH   7   9
ENDBRANCH   6   7
ENDBRANCH   5   6
ENDBRANCH   4   5
ENDBRANCH   3   4
ENDBRANCH   2   3
ENDBRANCH   1   2
BRANCH   1  12
ATOM     12  C   UNL     1       1.392 127.491 110.471  1.00  0.00     0.000 C 
BRANCH  12  13
ATOM     13  C   UNL     1       1.592 128.704 111.389  1.00  0.00    -0.000 C 
BRANCH  13  14
ATOM     14  C   UNL     1       2.945 129.376 111.127  1.00  0.00    -0.000 C 
BRANCH  14  15
ATOM     15  C   UNL     1       3.664 129.698 112.446  1.00  0.00    -0.000 C 
BRANCH  15  16
ATOM     16  C   UNL     1       4.382 128.476 113.041  1.00  0.00    -0.000 C 
BRANCH  16  17
ATOM     17  C   UNL     1       5.578 128.865 113.926  1.00  0.00    -0.000 C 
BRANCH  17  18
ATOM     18  C   UNL     1       6.085 130.287 113.637  1.00  0.00    -0.003 C 
ATOM     19  C   UNL     1       7.051 130.797 114.706  1.00  0.00     0.004 C 
ENDBRANCH  17  18
ENDBRANCH  16  17
ENDBRANCH  15  16
ENDBRANCH  14  15
ENDBRANCH  13  14
ENDBRANCH  12  13
ENDBRANCH   1  12
TORSDOF 14
ENDMDL
MODEL 5
REMARK VINA RESULT:    -3.433      1.348      2.980
REMARK INTER + INTRA:          -8.937
REMARK INTER:                  -6.466
REMARK INTRA:                  -2.471
REMARK UNBOUND:                -2.694
REMARK SMILES CCCCCCCCCCCCCC[C@@H](C)C(=O)[O-]
REMARK SMILES IDX 9 1 10 2 11 3 12 4 13 5 14 6 15 7 16 8 17 9 18 10 19 11 8 12
REMARK SMILES IDX 7 13 6 14 5 15 4 16 3 17 2 18 1 19
REMARK H PARENT
REMARK Flexibility Score: inf
ROOT
ATOM      1  C   UNL     1       1.629 126.550 114.617  1.00  0.00     0.000 C 
ENDROOT
BRANCH   1   2
ATOM      2  C   UNL     1       1.200 125.767 113.367  1.00  0.00     0.000 C 
BRANCH   2   3
ATOM      3  C   UNL     1       2.310 124.840 112.840  1.00  0.00     0.000 C 
BRANCH   3   4
ATOM      4  C   UNL     1       2.516 124.971 111.323  1.00  0.00     0.000 C 
BRANCH   4   5
ATOM      5  C   UNL     1       4.002 125.026 110.927  1.00  0.00     0.001 C 
BRANCH   5   6
ATOM      6  C   UNL     1       4.912 124.178 111.840  1.00  0.00     0.009 C 
BRANCH   6   7
ATOM      7  C   UNL     1       6.297 124.779 112.191  1.00  0.00     0.032 C 
ATOM      8  C   UNL     1       6.443 125.102 113.685  1.00  0.00     0.014 C 
BRANCH   7   9
ATOM      9  C   UNL     1       7.436 123.936 111.672  1.00  0.00     0.044 C 
ATOM     10  O   UNL     1       7.195 122.935 110.947  1.00  0.00    -0.550 OA
ATOM     11  O   UNL     1       8.758 124.259 111.962  1.00  0.00    -0.550 OA
ENDBRANCH   7   9
ENDBRANCH   6   7
ENDBRANCH   5   6
ENDBRANCH   4   5
ENDBRANCH   3   4
ENDBRANCH   2   3
ENDBRANCH   1   2
BRANCH   1  12
ATOM     12  C   UNL     1       3.155 126.672 114.747  1.00  0.00     0.000 C 
BRANCH  12  13
ATOM     13  C   UNL     1       3.578 128.140 114.885  1.00  0.00    -0.000 C 
BRANCH  13  14
ATOM     14  C   UNL     1       2.654 129.059 114.076  1.00  0.00    -0.000 C 
BRANCH  14  15
ATOM     15  C   UNL     1       3.367 129.587 112.821  1.00  0.00    -0.000 C 
BRANCH  15  16
ATOM     16  C   UNL     1       3.349 128.577 111.662  1.00  0.00    -0.000 C 
BRANCH  16  17
ATOM     17  C   UNL     1       2.394 128.992 110.531  1.00  0.00    -0.000 C 
BRANCH  17  18
ATOM     18  C   UNL     1       1.068 128.216 110.565  1.00  0.00    -0.003 C 
ATOM     19  C   UNL     1      -0.042 128.977 111.289  1.00  0.00     0.004 C 
ENDBRANCH  17  18
ENDBRANCH  16  17
ENDBRANCH  15  16
ENDBRANCH  14  15
ENDBRANCH  13  14
ENDBRANCH  12  13
ENDBRANCH   1  12
TORSDOF 14
ENDMDL
MODEL 6
REMARK VINA RESULT:    -3.426      2.710      5.176
REMARK INTER + INTRA:          -8.924
REMARK INTER:                  -6.475
REMARK INTRA:                  -2.449
REMARK UNBOUND:                -2.694
REMARK SMILES CCCCCCCCCCCCCC[C@@H](C)C(=O)[O-]
REMARK SMILES IDX 9 1 10 2 11 3 12 4 13 5 14 6 15 7 16 8 17 9 18 10 19 11 8 12
REMARK SMILES IDX 7 13 6 14 5 15 4 16 3 17 2 18 1 19
REMARK H PARENT
REMARK Flexibility Score: inf
ROOT
ATOM      1  C   UNL     1       1.474 126.299 112.153  1.00  0.00     0.000 C 
ENDROOT
BRANCH   1   2
ATOM      2  C   UNL     1       1.663 126.794 113.595  1.00  0.00     0.000 C 
BRANCH   2   3
ATOM      3  C   UNL     1       2.764 127.863 113.714  1.00  0.00     0.000 C 
BRANCH   3   4
ATOM      4  C   UNL     1       3.623 127.687 114.976  1.00  0.00     0.000 C 
BRANCH   4   5
ATOM      5  C   UNL     1       5.090 128.095 114.758  1.00  0.00     0.001 C 
BRANCH   5   6
ATOM      6  C   UNL     1       5.319 128.887 113.454  1.00  0.00     0.009 C 
BRANCH   6   7
ATOM      7  C   UNL     1       5.789 130.356 113.608  1.00  0.00     0.032 C 
ATOM      8  C   UNL     1       5.009 131.119 114.689  1.00  0.00     0.014 C 
BRANCH   7   9
ATOM      9  C   UNL     1       7.282 130.466 113.794  1.00  0.00     0.044 C 
ATOM     10  O   UNL     1       7.771 130.452 114.955  1.00  0.00    -0.550 OA
ATOM     11  O   UNL     1       8.137 130.559 112.700  1.00  0.00    -0.550 OA
ENDBRANCH   7   9
ENDBRANCH   6   7
ENDBRANCH   5   6
ENDBRANCH   4   5
ENDBRANCH   3   4
ENDBRANCH   2   3
ENDBRANCH   1   2
BRANCH   1  12
ATOM     12  C   UNL     1       2.722 126.511 111.284  1.00  0.00     0.000 C 
BRANCH  12  13
ATOM     13  C   UNL     1       3.119 125.215 110.567  1.00  0.00    -0.000 C 
BRANCH  13  14
ATOM     14  C   UNL     1       4.614 124.922 110.743  1.00  0.00    -0.000 C 
BRANCH  14  15
ATOM     15  C   UNL     1       5.136 125.502 112.066  1.00  0.00    -0.000 C 
BRANCH  15  16
ATOM     16  C   UNL     1       5.387 124.420 113.128  1.00  0.00    -0.000 C 
BRANCH  16  17
ATOM     17  C   UNL     1       4.135 124.114 113.968  1.00  0.00    -0.000 C 
BRANCH  17  18
ATOM     18  C   UNL     1       3.369 122.884 113.455  1.00  0.00    -0.003 C 
ATOM     19  C   UNL     1       3.764 121.599 114.183  1.00  0.00     0.004 C 
ENDBRANCH  17  18
ENDBRANCH  16  17
ENDBRANCH  15  16
ENDBRANCH  14  15
ENDBRANCH  13  14
ENDBRANCH  12  13
ENDBRANCH   1  12
TORSDOF 14
ENDMDL
MODEL 7
REMARK VINA RESULT:    -3.413      2.856      5.618
REMARK INTER + INTRA:          -8.900
REMARK INTER:                  -6.610
REMARK INTRA:                  -2.291
REMARK UNBOUND:                -2.694
REMARK SMILES CCCCCCCCCCCCCC[C@@H](C)C(=O)[O-]
REMARK SMILES IDX 9 1 10 2 11 3 12 4 13 5 14 6 15 7 16 8 17 9 18 10 19 11 8 12
REMARK SMILES IDX 7 13 6 14 5 15 4 16 3 17 2 18 1 19
REMARK H PARENT
REMARK Flexibility Score: inf
ROOT
ATOM      1  C   UNL     1       3.050 124.246 113.787  1.00  0.00     0.000 C 
ENDROOT
BRANCH   1   2
ATOM      2  C   UNL     1       2.042 124.755 112.745  1.00  0.00     0.000 C 
BRANCH   2   3
ATOM      3  C   UNL     1       2.628 124.788 111.323  1.00  0.00     0.000 C 
BRANCH   3   4
ATOM      4  C   UNL     1       2.631 126.201 110.719  1.00  0.00     0.000 C 
BRANCH   4   5
ATOM      5  C   UNL     1       2.781 127.302 111.783  1.00  0.00     0.001 C 
BRANCH   5   6
ATOM      6  C   UNL     1       4.239 127.520 112.239  1.00  0.00     0.009 C 
BRANCH   6   7
ATOM      7  C   UNL     1       4.441 128.197 113.619  1.00  0.00     0.032 C 
ATOM      8  C   UNL     1       5.105 127.267 114.645  1.00  0.00     0.014 C 
BRANCH   7   9
ATOM      9  C   UNL     1       5.147 129.526 113.509  1.00  0.00     0.044 C 
ATOM     10  O   UNL     1       4.474 130.588 113.434  1.00  0.00    -0.550 OA
ATOM     11  O   UNL     1       6.536 129.604 113.511  1.00  0.00    -0.550 OA
ENDBRANCH   7   9
ENDBRANCH   6   7
ENDBRANCH   5   6
ENDBRANCH   4   5
ENDBRANCH   3   4
ENDBRANCH   2   3
ENDBRANCH   1   2
BRANCH   1  12
ATOM     12  C   UNL     1       4.122 123.330 113.178  1.00  0.00     0.000 C 
BRANCH  12  13
ATOM     13  C   UNL     1       5.503 123.633 113.770  1.00  0.00    -0.000 C 
BRANCH  13  14
ATOM     14  C   UNL     1       6.383 124.384 112.763  1.00  0.00    -0.000 C 
BRANCH  14  15
ATOM     15  C   UNL     1       6.071 123.942 111.325  1.00  0.00    -0.000 C 
BRANCH  15  16
ATOM     16  C   UNL     1       6.337 125.052 110.295  1.00  0.00    -0.000 C 
BRANCH  16  17
ATOM     17  C   UNL     1       7.793 125.064 109.801  1.00  0.00    -0.000 C 
BRANCH  17  18
ATOM     18  C   UNL     1       7.939 124.494 108.382  1.00  0.00    -0.003 C 
ATOM     19  C   UNL     1       7.020 125.182 107.373  1.00  0.00     0.004 C 
ENDBRANCH  17  18
ENDBRANCH  16  17
ENDBRANCH  15  16
ENDBRANCH  14  15
ENDBRANCH  13  14
ENDBRANCH  12  13
ENDBRANCH   1  12
TORSDOF 14
ENDMDL
MODEL 8
REMARK VINA RESULT:    -3.385      3.121      5.628
REMARK INTER + INTRA:          -8.850
REMARK INTER:                  -6.942
REMARK INTRA:                  -1.908
REMARK UNBOUND:                -2.694
REMARK SMILES CCCCCCCCCCCCCC[C@@H](C)C(=O)[O-]
REMARK SMILES IDX 9 1 10 2 11 3 12 4 13 5 14 6 15 7 16 8 17 9 18 10 19 11 8 12
REMARK SMILES IDX 7 13 6 14 5 15 4 16 3 17 2 18 1 19
REMARK H PARENT
REMARK Flexibility Score: inf
ROOT
ATOM      1  C   UNL     1       2.965 127.375 110.841  1.00  0.00     0.000 C 
ENDROOT
BRANCH   1   2
ATOM      2  C   UNL     1       3.015 128.778 111.467  1.00  0.00     0.000 C 
BRANCH   2   3
ATOM      3  C   UNL     1       3.381 128.745 112.961  1.00  0.00     0.000 C 
BRANCH   3   4
ATOM      4  C   UNL     1       4.895 128.847 113.201  1.00  0.00     0.000 C 
BRANCH   4   5
ATOM      5  C   UNL     1       5.358 128.046 114.429  1.00  0.00     0.001 C 
BRANCH   5   6
ATOM      6  C   UNL     1       5.928 128.929 115.559  1.00  0.00     0.009 C 
BRANCH   6   7
ATOM      7  C   UNL     1       5.945 130.459 115.302  1.00  0.00     0.032 C 
ATOM      8  C   UNL     1       5.173 131.248 116.370  1.00  0.00     0.014 C 
BRANCH   7   9
ATOM      9  C   UNL     1       7.341 130.991 115.093  1.00  0.00     0.044 C 
ATOM     10  O   UNL     1       7.875 131.712 115.977  1.00  0.00    -0.550 OA
ATOM     11  O   UNL     1       8.063 130.680 113.945  1.00  0.00    -0.550 OA
ENDBRANCH   7   9
ENDBRANCH   6   7
ENDBRANCH   5   6
ENDBRANCH   4   5
ENDBRANCH   3   4
ENDBRANCH   2   3
ENDBRANCH   1   2
BRANCH   1  12
ATOM     12  C   UNL     1       2.540 126.293 111.844  1.00  0.00     0.000 C 
BRANCH  12  13
ATOM     13  C   UNL     1       2.708 124.892 111.242  1.00  0.00    -0.000 C 
BRANCH  13  14
ATOM     14  C   UNL     1       4.178 124.605 110.912  1.00  0.00    -0.000 C 
BRANCH  14  15
ATOM     15  C   UNL     1       4.913 124.027 112.131  1.00  0.00    -0.000 C 
BRANCH  15  16
ATOM     16  C   UNL     1       6.020 124.958 112.651  1.00  0.00    -0.000 C 
BRANCH  16  17
ATOM     17  C   UNL     1       6.584 125.876 111.553  1.00  0.00    -0.000 C 
BRANCH  17  18
ATOM     18  C   UNL     1       7.890 125.336 110.949  1.00  0.00    -0.003 C 
ATOM     19  C   UNL     1       7.702 124.783 109.536  1.00  0.00     0.004 C 
ENDBRANCH  17  18
ENDBRANCH  16  17
ENDBRANCH  15  16
ENDBRANCH  14  15
ENDBRANCH  13  14
ENDBRANCH  12  13
ENDBRANCH   1  12
TORSDOF 14
ENDMDL
MODEL 9
REMARK VINA RESULT:    -3.378      1.522      2.312
REMARK INTER + INTRA:          -8.836
REMARK INTER:                  -6.499
REMARK INTRA:                  -2.337
REMARK UNBOUND:                -2.694
REMARK SMILES CCCCCCCCCCCCCC[C@@H](C)C(=O)[O-]
REMARK SMILES IDX 9 1 10 2 11 3 12 4 13 5 14 6 15 7 16 8 17 9 18 10 19 11 8 12
REMARK SMILES IDX 7 13 6 14 5 15 4 16 3 17 2 18 1 19
REMARK H PARENT
REMARK Flexibility Score: inf
ROOT
ATOM      1  C   UNL     1       2.494 126.511 113.881  1.00  0.00     0.000 C 
ENDROOT
BRANCH   1   2
ATOM      2  C   UNL     1       1.530 125.748 112.959  1.00  0.00     0.000 C 
BRANCH   2   3
ATOM      3  C   UNL     1       2.265 124.853 111.946  1.00  0.00     0.000 C 
BRANCH   3   4
ATOM      4  C   UNL     1       2.733 125.629 110.704  1.00  0.00     0.000 C 
BRANCH   4   5
ATOM      5  C   UNL     1       4.170 125.274 110.288  1.00  0.00     0.001 C 
BRANCH   5   6
ATOM      6  C   UNL     1       4.966 124.544 111.390  1.00  0.00     0.009 C 
BRANCH   6   7
ATOM      7  C   UNL     1       6.240 125.256 111.913  1.00  0.00     0.032 C 
ATOM      8  C   UNL     1       5.947 126.649 112.491  1.00  0.00     0.014 C 
BRANCH   7   9
ATOM      9  C   UNL     1       7.029 124.394 112.867  1.00  0.00     0.044 C 
ATOM     10  O   UNL     1       7.252 124.799 114.039  1.00  0.00    -0.550 OA
ATOM     11  O   UNL     1       7.499 123.142 112.483  1.00  0.00    -0.550 OA
ENDBRANCH   7   9
ENDBRANCH   6   7
ENDBRANCH   5   6
ENDBRANCH   4   5
ENDBRANCH   3   4
ENDBRANCH   2   3
ENDBRANCH   1   2
BRANCH   1  12
ATOM     12  C   UNL     1       2.036 127.950 114.158  1.00  0.00     0.000 C 
BRANCH  12  13
ATOM     13  C   UNL     1       1.977 128.767 112.861  1.00  0.00    -0.000 C 
BRANCH  13  14
ATOM     14  C   UNL     1       3.385 129.154 112.389  1.00  0.00    -0.000 C 
BRANCH  14  15
ATOM     15  C   UNL     1       3.944 130.317 113.223  1.00  0.00    -0.000 C 
BRANCH  15  16
ATOM     16  C   UNL     1       5.451 130.182 113.489  1.00  0.00    -0.000 C 
BRANCH  16  17
ATOM     17  C   UNL     1       5.788 130.161 114.990  1.00  0.00    -0.000 C 
BRANCH  17  18
ATOM     18  C   UNL     1       5.056 129.037 115.740  1.00  0.00    -0.003 C 
ATOM     19  C   UNL     1       5.950 127.824 116.000  1.00  0.00     0.004 C 
ENDBRANCH  17  18
ENDBRANCH  16  17
ENDBRANCH  15  16
ENDBRANCH  14  15
ENDBRANCH  13  14
ENDBRANCH  12  13
ENDBRANCH   1  12
TORSDOF 14
ENDMDL
