MODEL 1
REMARK VINA RESULT:    -3.117      0.000      0.000
REMARK INTER + INTRA:          -7.689
REMARK INTER:                  -5.485
REMARK INTRA:                  -2.204
REMARK UNBOUND:                -2.204
REMARK SMILES CCCCCCCCCCCCCCC(=O)[O-]
REMARK SMILES IDX 9 1 10 2 11 3 12 4 13 5 14 6 15 7 16 8 17 9 8 10 7 11 6 12
REMARK SMILES IDX 5 13 4 14 3 15 2 16 1 17
REMARK H PARENT
REMARK Flexibility Score: inf
ROOT
ATOM      1  C   UNL     1      11.511  21.285  19.962  1.00  0.00     0.000 C 
ENDROOT
BRANCH   1   2
ATOM      2  C   UNL     1      10.035  21.358  20.386  1.00  0.00     0.000 C 
BRANCH   2   3
ATOM      3  C   UNL     1       9.281  22.512  19.704  1.00  0.00     0.000 C 
BRANCH   3   4
ATOM      4  C   UNL     1       8.007  22.041  18.984  1.00  0.00     0.000 C 
BRANCH   4   5
ATOM      5  C   UNL     1       7.423  20.754  19.592  1.00  0.00     0.006 C 
BRANCH   5   6
ATOM      6  C   UNL     1       6.458  20.047  18.631  1.00  0.00     0.053 C 
BRANCH   6   7
ATOM      7  C   UNL     1       5.056  20.037  19.157  1.00  0.00     0.041 C 
ATOM      8  O   UNL     1       4.181  19.311  18.618  1.00  0.00    -0.550 OA
ATOM      9  O   UNL     1       4.710  20.852  20.228  1.00  0.00    -0.550 OA
ENDBRANCH   6   7
ENDBRANCH   5   6
ENDBRANCH   4   5
ENDBRANCH   3   4
ENDBRANCH   2   3
ENDBRANCH   1   2
BRANCH   1  10
ATOM     10  C   UNL     1      12.160  22.671  19.826  1.00  0.00     0.000 C 
BRANCH  10  11
ATOM     11  C   UNL     1      13.009  22.756  18.551  1.00  0.00    -0.000 C 
BRANCH  11  12
ATOM     12  C   UNL     1      12.146  22.549  17.300  1.00  0.00    -0.000 C 
BRANCH  12  13
ATOM     13  C   UNL     1      12.788  21.529  16.351  1.00  0.00    -0.000 C 
BRANCH  13  14
ATOM     14  C   UNL     1      11.789  20.427  15.972  1.00  0.00    -0.000 C 
BRANCH  14  15
ATOM     15  C   UNL     1      10.349  20.762  16.391  1.00  0.00    -0.000 C 
BRANCH  15  16
ATOM     16  C   UNL     1       9.523  19.511  16.722  1.00  0.00    -0.003 C 
ATOM     17  C   UNL     1      10.186  18.691  17.825  1.00  0.00     0.004 C 
ENDBRANCH  15  16
ENDBRANCH  14  15
ENDBRANCH  13  14
ENDBRANCH  12  13
ENDBRANCH  11  12
ENDBRANCH  10  11
ENDBRANCH   1  10
TORSDOF 13
ENDMDL
MODEL 2
REMARK VINA RESULT:    -3.093      1.663      2.037
REMARK INTER + INTRA:          -7.647
REMARK INTER:                  -5.636
REMARK INTRA:                  -2.011
REMARK UNBOUND:                -2.204
REMARK SMILES CCCCCCCCCCCCCCC(=O)[O-]
REMARK SMILES IDX 9 1 10 2 11 3 12 4 13 5 14 6 15 7 16 8 17 9 8 10 7 11 6 12
REMARK SMILES IDX 5 13 4 14 3 15 2 16 1 17
REMARK H PARENT
REMARK Flexibility Score: inf
ROOT
ATOM      1  C   UNL     1      11.588  21.185  20.255  1.00  0.00     0.000 C 
ENDROOT
BRANCH   1   2
ATOM      2  C   UNL     1      10.154  21.220  20.806  1.00  0.00     0.000 C 
BRANCH   2   3
ATOM      3  C   UNL     1       9.332  22.391  20.242  1.00  0.00     0.000 C 
BRANCH   3   4
ATOM      4  C   UNL     1       8.156  21.922  19.370  1.00  0.00     0.000 C 
BRANCH   4   5
ATOM      5  C   UNL     1       7.251  20.907  20.090  1.00  0.00     0.006 C 
BRANCH   5   6
ATOM      6  C   UNL     1       6.299  21.585  21.084  1.00  0.00     0.053 C 
BRANCH   6   7
ATOM      7  C   UNL     1       6.609  21.205  22.500  1.00  0.00     0.041 C 
ATOM      8  O   UNL     1       5.998  20.252  23.050  1.00  0.00    -0.550 OA
ATOM      9  O   UNL     1       7.556  21.923  23.220  1.00  0.00    -0.550 OA
ENDBRANCH   6   7
ENDBRANCH   5   6
ENDBRANCH   4   5
ENDBRANCH   3   4
ENDBRANCH   2   3
ENDBRANCH   1   2
BRANCH   1  10
ATOM     10  C   UNL     1      12.206  22.586  20.118  1.00  0.00     0.000 C 
BRANCH  10  11
ATOM     11  C   UNL     1      12.963  22.723  18.790  1.00  0.00    -0.000 C 
BRANCH  11  12
ATOM     12  C   UNL     1      12.020  22.530  17.597  1.00  0.00    -0.000 C 
BRANCH  12  13
ATOM     13  C   UNL     1      12.690  21.701  16.494  1.00  0.00    -0.000 C 
BRANCH  13  14
ATOM     14  C   UNL     1      11.815  20.504  16.096  1.00  0.00    -0.000 C 
BRANCH  14  15
ATOM     15  C   UNL     1      10.440  20.522  16.782  1.00  0.00    -0.000 C 
BRANCH  15  16
ATOM     16  C   UNL     1      10.167  19.248  17.594  1.00  0.00    -0.003 C 
ATOM     17  C   UNL     1       8.779  18.690  17.292  1.00  0.00     0.004 C 
ENDBRANCH  15  16
ENDBRANCH  14  15
ENDBRANCH  13  14
ENDBRANCH  12  13
ENDBRANCH  11  12
ENDBRANCH  10  11
ENDBRANCH   1  10
TORSDOF 13
ENDMDL
MODEL 3
REMARK VINA RESULT:    -3.054      1.385      2.549
REMARK INTER + INTRA:          -7.578
REMARK INTER:                  -5.824
REMARK INTRA:                  -1.754
REMARK UNBOUND:                -2.204
REMARK SMILES CCCCCCCCCCCCCCC(=O)[O-]
REMARK SMILES IDX 9 1 10 2 11 3 12 4 13 5 14 6 15 7 16 8 17 9 8 10 7 11 6 12
REMARK SMILES IDX 5 13 4 14 3 15 2 16 1 17
REMARK H PARENT
REMARK Flexibility Score: inf
ROOT
ATOM      1  C   UNL     1      12.857  22.392  18.538  1.00  0.00     0.000 C 
ENDROOT
BRANCH   1   2
ATOM      2  C   UNL     1      11.718  22.755  19.504  1.00  0.00     0.000 C 
BRANCH   2   3
ATOM      3  C   UNL     1      11.377  21.609  20.472  1.00  0.00     0.000 C 
BRANCH   3   4
ATOM      4  C   UNL     1      10.549  22.082  21.678  1.00  0.00     0.000 C 
BRANCH   4   5
ATOM      5  C   UNL     1       9.144  21.456  21.716  1.00  0.00     0.006 C 
BRANCH   5   6
ATOM      6  C   UNL     1       8.426  21.566  20.364  1.00  0.00     0.053 C 
BRANCH   6   7
ATOM      7  C   UNL     1       7.133  20.808  20.357  1.00  0.00     0.041 C 
ATOM      8  O   UNL     1       6.807  20.121  19.354  1.00  0.00    -0.550 OA
ATOM      9  O   UNL     1       6.277  20.885  21.448  1.00  0.00    -0.550 OA
ENDBRANCH   6   7
ENDBRANCH   5   6
ENDBRANCH   4   5
ENDBRANCH   3   4
ENDBRANCH   2   3
ENDBRANCH   1   2
BRANCH   1  10
ATOM     10  C   UNL     1      12.487  22.633  17.066  1.00  0.00     0.000 C 
BRANCH  10  11
ATOM     11  C   UNL     1      12.931  21.455  16.189  1.00  0.00    -0.000 C 
BRANCH  11  12
ATOM     12  C   UNL     1      11.752  20.527  15.875  1.00  0.00    -0.000 C 
BRANCH  12  13
ATOM     13  C   UNL     1      10.419  21.280  15.968  1.00  0.00    -0.000 C 
BRANCH  13  14
ATOM     14  C   UNL     1       9.406  20.501  16.819  1.00  0.00    -0.000 C 
BRANCH  14  15
ATOM     15  C   UNL     1      10.080  19.585  17.853  1.00  0.00    -0.000 C 
BRANCH  15  16
ATOM     16  C   UNL     1       9.518  18.157  17.833  1.00  0.00    -0.003 C 
ATOM     17  C   UNL     1       8.443  18.004  16.760  1.00  0.00     0.004 C 
ENDBRANCH  15  16
ENDBRANCH  14  15
ENDBRANCH  13  14
ENDBRANCH  12  13
ENDBRANCH  11  12
ENDBRANCH  10  11
ENDBRANCH   1  10
TORSDOF 13
ENDMDL
MODEL 4
REMARK VINA RESULT:    -2.980      9.249     11.561
REMARK INTER + INTRA:          -7.448
REMARK INTER:                  -5.974
REMARK INTRA:                  -1.474
REMARK UNBOUND:                -2.204
REMARK SMILES CCCCCCCCCCCCCCC(=O)[O-]
REMARK SMILES IDX 9 1 10 2 11 3 12 4 13 5 14 6 15 7 16 8 17 9 8 10 7 11 6 12
REMARK SMILES IDX 5 13 4 14 3 15 2 16 1 17
REMARK H PARENT
REMARK Flexibility Score: inf
ROOT
ATOM      1  C   UNL     1       0.648  12.716  19.061  1.00  0.00     0.000 C 
ENDROOT
BRANCH   1   2
ATOM      2  C   UNL     1       0.024  12.199  20.367  1.00  0.00     0.000 C 
BRANCH   2   3
ATOM      3  C   UNL     1       0.618  12.875  21.615  1.00  0.00     0.000 C 
BRANCH   3   4
ATOM      4  C   UNL     1       0.470  14.405  21.585  1.00  0.00     0.000 C 
BRANCH   4   5
ATOM      5  C   UNL     1       1.413  15.112  22.573  1.00  0.00     0.006 C 
BRANCH   5   6
ATOM      6  C   UNL     1       1.807  14.205  23.746  1.00  0.00     0.053 C 
BRANCH   6   7
ATOM      7  C   UNL     1       2.656  14.927  24.748  1.00  0.00     0.041 C 
ATOM      8  O   UNL     1       3.619  15.642  24.366  1.00  0.00    -0.550 OA
ATOM      9  O   UNL     1       2.398  14.788  26.105  1.00  0.00    -0.550 OA
ENDBRANCH   6   7
ENDBRANCH   5   6
ENDBRANCH   4   5
ENDBRANCH   3   4
ENDBRANCH   2   3
ENDBRANCH   1   2
BRANCH   1  10
ATOM     10  C   UNL     1       0.131  11.972  17.820  1.00  0.00     0.000 C 
BRANCH  10  11
ATOM     11  C   UNL     1       0.999  12.284  16.594  1.00  0.00    -0.000 C 
BRANCH  11  12
ATOM     12  C   UNL     1       2.148  13.232  16.958  1.00  0.00    -0.000 C 
BRANCH  12  13
ATOM     13  C   UNL     1       2.031  14.557  16.197  1.00  0.00    -0.000 C 
BRANCH  13  14
ATOM     14  C   UNL     1       2.812  15.671  16.908  1.00  0.00    -0.000 C 
BRANCH  14  15
ATOM     15  C   UNL     1       2.399  15.838  18.379  1.00  0.00    -0.000 C 
BRANCH  15  16
ATOM     16  C   UNL     1       1.305  16.898  18.569  1.00  0.00    -0.003 C 
ATOM     17  C   UNL     1      -0.085  16.276  18.466  1.00  0.00     0.004 C 
ENDBRANCH  15  16
ENDBRANCH  14  15
ENDBRANCH  13  14
ENDBRANCH  12  13
ENDBRANCH  11  12
ENDBRANCH  10  11
ENDBRANCH   1  10
TORSDOF 13
ENDMDL
MODEL 5
REMARK VINA RESULT:    -2.977      1.874      3.439
REMARK INTER + INTRA:          -7.442
REMARK INTER:                  -5.412
REMARK INTRA:                  -2.031
REMARK UNBOUND:                -2.204
REMARK SMILES CCCCCCCCCCCCCCC(=O)[O-]
REMARK SMILES IDX 9 1 10 2 11 3 12 4 13 5 14 6 15 7 16 8 17 9 8 10 7 11 6 12
REMARK SMILES IDX 5 13 4 14 3 15 2 16 1 17
REMARK H PARENT
REMARK Flexibility Score: inf
ROOT
ATOM      1  C   UNL     1       9.001  20.016  17.854  1.00  0.00     0.000 C 
ENDROOT
BRANCH   1   2
ATOM      2  C   UNL     1       8.584  21.423  17.397  1.00  0.00     0.000 C 
BRANCH   2   3
ATOM      3  C   UNL     1       7.973  22.257  18.536  1.00  0.00     0.000 C 
BRANCH   3   4
ATOM      4  C   UNL     1       7.822  21.456  19.839  1.00  0.00     0.000 C 
BRANCH   4   5
ATOM      5  C   UNL     1       8.020  22.323  21.095  1.00  0.00     0.006 C 
BRANCH   5   6
ATOM      6  C   UNL     1       7.838  21.517  22.388  1.00  0.00     0.053 C 
BRANCH   6   7
ATOM      7  C   UNL     1       6.391  21.305  22.714  1.00  0.00     0.041 C 
ATOM      8  O   UNL     1       6.013  20.234  23.255  1.00  0.00    -0.550 OA
ATOM      9  O   UNL     1       5.457  22.282  22.393  1.00  0.00    -0.550 OA
ENDBRANCH   6   7
ENDBRANCH   5   6
ENDBRANCH   4   5
ENDBRANCH   3   4
ENDBRANCH   2   3
ENDBRANCH   1   2
BRANCH   1  10
ATOM     10  C   UNL     1      10.336  19.563  17.242  1.00  0.00     0.000 C 
BRANCH  10  11
ATOM     11  C   UNL     1      10.716  20.444  16.044  1.00  0.00    -0.000 C 
BRANCH  11  12
ATOM     12  C   UNL     1      12.184  20.879  16.125  1.00  0.00    -0.000 C 
BRANCH  12  13
ATOM     13  C   UNL     1      12.298  22.393  16.339  1.00  0.00    -0.000 C 
BRANCH  13  14
ATOM     14  C   UNL     1      12.812  22.711  17.751  1.00  0.00    -0.000 C 
BRANCH  14  15
ATOM     15  C   UNL     1      11.709  22.623  18.817  1.00  0.00    -0.000 C 
BRANCH  15  16
ATOM     16  C   UNL     1      12.211  22.029  20.140  1.00  0.00    -0.003 C 
ATOM     17  C   UNL     1      11.357  20.839  20.568  1.00  0.00     0.004 C 
ENDBRANCH  15  16
ENDBRANCH  14  15
ENDBRANCH  13  14
ENDBRANCH  12  13
ENDBRANCH  11  12
ENDBRANCH  10  11
ENDBRANCH   1  10
TORSDOF 13
ENDMDL
MODEL 6
REMARK VINA RESULT:    -2.970      9.391     11.331
REMARK INTER + INTRA:          -7.430
REMARK INTER:                  -6.866
REMARK INTRA:                  -0.564
REMARK UNBOUND:                -2.204
REMARK SMILES CCCCCCCCCCCCCCC(=O)[O-]
REMARK SMILES IDX 9 1 10 2 11 3 12 4 13 5 14 6 15 7 16 8 17 9 8 10 7 11 6 12
REMARK SMILES IDX 5 13 4 14 3 15 2 16 1 17
REMARK H PARENT
REMARK Flexibility Score: inf
ROOT
ATOM      1  C   UNL     1      10.046  20.812  30.394  1.00  0.00     0.000 C 
ENDROOT
BRANCH   1   2
ATOM      2  C   UNL     1       8.532  20.966  30.179  1.00  0.00     0.000 C 
BRANCH   2   3
ATOM      3  C   UNL     1       8.190  22.031  29.123  1.00  0.00     0.000 C 
BRANCH   3   4
ATOM      4  C   UNL     1       7.510  21.434  27.880  1.00  0.00     0.000 C 
BRANCH   4   5
ATOM      5  C   UNL     1       7.266  22.479  26.777  1.00  0.00     0.006 C 
BRANCH   5   6
ATOM      6  C   UNL     1       6.342  21.949  25.673  1.00  0.00     0.053 C 
BRANCH   6   7
ATOM      7  C   UNL     1       4.984  22.579  25.733  1.00  0.00     0.041 C 
ATOM      8  O   UNL     1       4.484  22.905  26.842  1.00  0.00    -0.550 OA
ATOM      9  O   UNL     1       4.260  22.780  24.565  1.00  0.00    -0.550 OA
ENDBRANCH   6   7
ENDBRANCH   5   6
ENDBRANCH   4   5
ENDBRANCH   3   4
ENDBRANCH   2   3
ENDBRANCH   1   2
BRANCH   1  10
ATOM     10  C   UNL     1      10.875  21.644  29.403  1.00  0.00     0.000 C 
BRANCH  10  11
ATOM     11  C   UNL     1      11.741  22.673  30.140  1.00  0.00    -0.000 C 
BRANCH  11  12
ATOM     12  C   UNL     1      12.946  23.090  29.288  1.00  0.00    -0.000 C 
BRANCH  12  13
ATOM     13  C   UNL     1      14.233  23.097  30.121  1.00  0.00    -0.000 C 
BRANCH  13  14
ATOM     14  C   UNL     1      15.415  22.545  29.310  1.00  0.00    -0.000 C 
BRANCH  14  15
ATOM     15  C   UNL     1      16.361  21.678  30.157  1.00  0.00    -0.000 C 
BRANCH  15  16
ATOM     16  C   UNL     1      16.763  22.355  31.474  1.00  0.00    -0.003 C 
ATOM     17  C   UNL     1      18.010  21.705  32.068  1.00  0.00     0.004 C 
ENDBRANCH  15  16
ENDBRANCH  14  15
ENDBRANCH  13  14
ENDBRANCH  12  13
ENDBRANCH  11  12
ENDBRANCH  10  11
ENDBRANCH   1  10
TORSDOF 13
ENDMDL
MODEL 7
REMARK VINA RESULT:    -2.953      2.382      4.943
REMARK INTER + INTRA:          -7.401
REMARK INTER:                  -5.882
REMARK INTRA:                  -1.519
REMARK UNBOUND:                -2.204
REMARK SMILES CCCCCCCCCCCCCCC(=O)[O-]
REMARK SMILES IDX 9 1 10 2 11 3 12 4 13 5 14 6 15 7 16 8 17 9 8 10 7 11 6 12
REMARK SMILES IDX 5 13 4 14 3 15 2 16 1 17
REMARK H PARENT
REMARK Flexibility Score: inf
ROOT
ATOM      1  C   UNL     1      13.002  22.759  18.373  1.00  0.00     0.000 C 
ENDROOT
BRANCH   1   2
ATOM      2  C   UNL     1      12.465  22.760  16.933  1.00  0.00     0.000 C 
BRANCH   2   3
ATOM      3  C   UNL     1      12.793  21.460  16.178  1.00  0.00     0.000 C 
BRANCH   3   4
ATOM      4  C   UNL     1      11.619  20.468  16.174  1.00  0.00     0.000 C 
BRANCH   4   5
ATOM      5  C   UNL     1      10.252  21.165  16.290  1.00  0.00     0.006 C 
BRANCH   5   6
ATOM      6  C   UNL     1       9.417  20.610  17.451  1.00  0.00     0.053 C 
BRANCH   6   7
ATOM      7  C   UNL     1       9.291  19.119  17.384  1.00  0.00     0.041 C 
ATOM      8  O   UNL     1       8.600  18.580  16.480  1.00  0.00    -0.550 OA
ATOM      9  O   UNL     1       9.916  18.326  18.338  1.00  0.00    -0.550 OA
ENDBRANCH   6   7
ENDBRANCH   5   6
ENDBRANCH   4   5
ENDBRANCH   3   4
ENDBRANCH   2   3
ENDBRANCH   1   2
BRANCH   1  10
ATOM     10  C   UNL     1      11.882  22.798  19.425  1.00  0.00     0.000 C 
BRANCH  10  11
ATOM     11  C   UNL     1      11.749  21.445  20.135  1.00  0.00    -0.000 C 
BRANCH  11  12
ATOM     12  C   UNL     1      10.443  21.369  20.935  1.00  0.00    -0.000 C 
BRANCH  12  13
ATOM     13  C   UNL     1       9.582  22.616  20.702  1.00  0.00    -0.000 C 
BRANCH  13  14
ATOM     14  C   UNL     1       8.087  22.270  20.762  1.00  0.00    -0.000 C 
BRANCH  14  15
ATOM     15  C   UNL     1       7.717  21.451  22.009  1.00  0.00    -0.000 C 
BRANCH  15  16
ATOM     16  C   UNL     1       6.268  20.946  21.977  1.00  0.00    -0.003 C 
ATOM     17  C   UNL     1       5.817  20.484  23.360  1.00  0.00     0.004 C 
ENDBRANCH  15  16
ENDBRANCH  14  15
ENDBRANCH  13  14
ENDBRANCH  12  13
ENDBRANCH  11  12
ENDBRANCH  10  11
ENDBRANCH   1  10
TORSDOF 13
ENDMDL
MODEL 8
REMARK VINA RESULT:    -2.950      2.326      4.678
REMARK INTER + INTRA:          -7.396
REMARK INTER:                  -5.454
REMARK INTRA:                  -1.942
REMARK UNBOUND:                -2.204
REMARK SMILES CCCCCCCCCCCCCCC(=O)[O-]
REMARK SMILES IDX 9 1 10 2 11 3 12 4 13 5 14 6 15 7 16 8 17 9 8 10 7 11 6 12
REMARK SMILES IDX 5 13 4 14 3 15 2 16 1 17
REMARK H PARENT
REMARK Flexibility Score: inf
ROOT
ATOM      1  C   UNL     1      12.009  23.044  18.569  1.00  0.00     0.000 C 
ENDROOT
BRANCH   1   2
ATOM      2  C   UNL     1      12.908  22.821  17.342  1.00  0.00     0.000 C 
BRANCH   2   3
ATOM      3  C   UNL     1      12.281  21.862  16.316  1.00  0.00     0.000 C 
BRANCH   3   4
ATOM      4  C   UNL     1      10.762  22.056  16.178  1.00  0.00     0.000 C 
BRANCH   4   5
ATOM      5  C   UNL     1       9.970  20.770  16.472  1.00  0.00     0.006 C 
BRANCH   5   6
ATOM      6  C   UNL     1      10.862  19.660  17.043  1.00  0.00     0.053 C 
BRANCH   6   7
ATOM      7  C   UNL     1      10.131  18.816  18.042  1.00  0.00     0.041 C 
ATOM      8  O   UNL     1       9.024  18.295  17.743  1.00  0.00    -0.550 OA
ATOM      9  O   UNL     1      10.660  18.629  19.312  1.00  0.00    -0.550 OA
ENDBRANCH   6   7
ENDBRANCH   5   6
ENDBRANCH   4   5
ENDBRANCH   3   4
ENDBRANCH   2   3
ENDBRANCH   1   2
BRANCH   1  10
ATOM     10  C   UNL     1      12.234  21.995  19.669  1.00  0.00     0.000 C 
BRANCH  10  11
ATOM     11  C   UNL     1      12.555  22.667  21.010  1.00  0.00    -0.000 C 
BRANCH  11  12
ATOM     12  C   UNL     1      11.508  22.306  22.071  1.00  0.00    -0.000 C 
BRANCH  12  13
ATOM     13  C   UNL     1      10.445  21.361  21.497  1.00  0.00    -0.000 C 
BRANCH  13  14
ATOM     14  C   UNL     1       9.091  21.572  22.188  1.00  0.00    -0.000 C 
BRANCH  14  15
ATOM     15  C   UNL     1       7.955  21.857  21.193  1.00  0.00    -0.000 C 
BRANCH  15  16
ATOM     16  C   UNL     1       8.388  21.670  19.732  1.00  0.00    -0.003 C 
ATOM     17  C   UNL     1       8.241  22.970  18.945  1.00  0.00     0.004 C 
ENDBRANCH  15  16
ENDBRANCH  14  15
ENDBRANCH  13  14
ENDBRANCH  12  13
ENDBRANCH  11  12
ENDBRANCH  10  11
ENDBRANCH   1  10
TORSDOF 13
ENDMDL
MODEL 9
REMARK VINA RESULT:    -2.863      1.999      4.464
REMARK INTER + INTRA:          -7.242
REMARK INTER:                  -5.249
REMARK INTRA:                  -1.993
REMARK UNBOUND:                -2.204
REMARK SMILES CCCCCCCCCCCCCCC(=O)[O-]
REMARK SMILES IDX 9 1 10 2 11 3 12 4 13 5 14 6 15 7 16 8 17 9 8 10 7 11 6 12
REMARK SMILES IDX 5 13 4 14 3 15 2 16 1 17
REMARK H PARENT
REMARK Flexibility Score: inf
ROOT
ATOM      1  C   UNL     1      12.039  23.038  18.744  1.00  0.00     0.000 C 
ENDROOT
BRANCH   1   2
ATOM      2  C   UNL     1      13.003  22.714  17.591  1.00  0.00     0.000 C 
BRANCH   2   3
ATOM      3  C   UNL     1      12.380  21.773  16.546  1.00  0.00     0.000 C 
BRANCH   3   4
ATOM      4  C   UNL     1      10.912  22.116  16.243  1.00  0.00     0.000 C 
BRANCH   4   5
ATOM      5  C   UNL     1      10.021  20.867  16.133  1.00  0.00     0.006 C 
BRANCH   5   6
ATOM      6  C   UNL     1      10.482  19.744  17.071  1.00  0.00     0.053 C 
BRANCH   6   7
ATOM      7  C   UNL     1       9.378  18.775  17.365  1.00  0.00     0.041 C 
ATOM      8  O   UNL     1       9.263  18.274  18.514  1.00  0.00    -0.550 OA
ATOM      9  O   UNL     1       8.492  18.406  16.361  1.00  0.00    -0.550 OA
ENDBRANCH   6   7
ENDBRANCH   5   6
ENDBRANCH   4   5
ENDBRANCH   3   4
ENDBRANCH   2   3
ENDBRANCH   1   2
BRANCH   1  10
ATOM     10  C   UNL     1      12.284  22.167  19.986  1.00  0.00     0.000 C 
BRANCH  10  11
ATOM     11  C   UNL     1      11.069  21.278  20.281  1.00  0.00    -0.000 C 
BRANCH  11  12
ATOM     12  C   UNL     1       9.775  21.931  19.779  1.00  0.00    -0.000 C 
BRANCH  12  13
ATOM     13  C   UNL     1       8.556  21.393  20.539  1.00  0.00    -0.000 C 
BRANCH  13  14
ATOM     14  C   UNL     1       7.256  21.704  19.783  1.00  0.00    -0.000 C 
BRANCH  14  15
ATOM     15  C   UNL     1       6.341  20.477  19.648  1.00  0.00    -0.000 C 
BRANCH  15  16
ATOM     16  C   UNL     1       6.072  20.099  18.185  1.00  0.00    -0.003 C 
ATOM     17  C   UNL     1       6.357  21.273  17.253  1.00  0.00     0.004 C 
ENDBRANCH  15  16
ENDBRANCH  14  15
ENDBRANCH  13  14
ENDBRANCH  12  13
ENDBRANCH  11  12
ENDBRANCH  10  11
ENDBRANCH   1  10
TORSDOF 13
ENDMDL
