MODEL 1
REMARK VINA RESULT:     0.792      0.000      0.000
REMARK INTER + INTRA:           1.383
REMARK INTER:                   0.861
REMARK INTRA:                   0.522
REMARK UNBOUND:                 0.522
REMARK SMILES C[C@@H]1[C@H]2C3=CC[C@@H]4[C@]5(C)CC[C@@H](O)C(C)(C)[C@@H]5CC[C@]4(C)[C@@]3(C)CC[C@@]2(C(=O)[O-])CC[C@@H]1C
REMARK SMILES IDX 26 1 30 2 25 3 3 4 31 5 24 6 4 7 2 8 32 9 22 10 5 11 1 12
REMARK SMILES IDX 33 13 23 14 20 15 6 16 7 17 19 18 21 19 8 20 18 21 17 22
REMARK SMILES IDX 10 23 9 24 14 25 11 26 12 27 15 28 16 29 27 30 28 31 29 32
REMARK SMILES IDX 13 33
REMARK H PARENT 13 34
REMARK Flexibility Score: inf
ROOT
ATOM      1  C   UNL     1      77.666 -26.824  83.211  1.00  0.00     0.017 C 
ATOM      2  C   UNL     1      77.992 -26.390  81.750  1.00  0.00     0.014 C 
ATOM      3  C   UNL     1      77.020 -25.619  84.002  1.00  0.00     0.014 C 
ATOM      4  C   UNL     1      78.997 -27.405  83.848  1.00  0.00     0.030 C 
ATOM      5  C   UNL     1      78.316 -27.594  80.829  1.00  0.00     0.004 C 
ATOM      6  C   UNL     1      77.897 -24.828  85.004  1.00  0.00     0.013 C 
ATOM      7  C   UNL     1      79.720 -26.366  84.753  1.00  0.00    -0.063 C 
ATOM      8  C   UNL     1      79.942 -28.139  82.791  1.00  0.00    -0.003 C 
ATOM      9  C   UNL     1      79.271 -28.651  81.464  1.00  0.00    -0.011 C 
ATOM     10  C   UNL     1      78.889 -25.686  85.858  1.00  0.00    -0.006 C 
ATOM     11  C   UNL     1      80.865 -25.762  84.371  1.00  0.00    -0.027 C 
ATOM     12  C   UNL     1      80.793 -29.221  83.485  1.00  0.00     0.008 C 
ATOM     13  C   UNL     1      78.633 -30.046  81.549  1.00  0.00     0.008 C 
ATOM     14  C   UNL     1      78.098 -26.778  86.641  1.00  0.00     0.017 C 
ATOM     15  C   UNL     1      79.739 -24.744  86.907  1.00  0.00    -0.020 C 
ATOM     16  C   UNL     1      81.717 -25.058  85.344  1.00  0.00     0.032 C 
ATOM     17  C   UNL     1      80.946 -24.002  86.172  1.00  0.00     0.006 C 
ATOM     18  C   UNL     1      80.340 -25.601  88.089  1.00  0.00     0.008 C 
ATOM     19  C   UNL     1      78.733 -23.715  87.539  1.00  0.00     0.012 C 
ATOM     20  C   UNL     1      81.933 -23.160  87.133  1.00  0.00    -0.025 C 
ATOM     21  C   UNL     1      81.267 -24.822  89.043  1.00  0.00     0.005 C 
ATOM     22  C   UNL     1      82.432 -24.045  88.370  1.00  0.00     0.003 C 
ATOM     23  C   UNL     1      83.148 -22.539  86.306  1.00  0.00     0.010 C 
ATOM     24  C   UNL     1      81.181 -21.897  87.688  1.00  0.00     0.012 C 
ATOM     25  C   UNL     1      83.846 -24.819  88.307  1.00  0.00    -0.006 C 
ATOM     26  C   UNL     1      84.537 -22.803  86.890  1.00  0.00     0.033 C 
ATOM     27  C   UNL     1      84.706 -24.309  87.103  1.00  0.00     0.120 C 
ATOM     28  C   UNL     1      84.620 -24.567  89.646  1.00  0.00     0.014 C 
ATOM     29  C   UNL     1      83.759 -26.385  88.189  1.00  0.00     0.014 C 
ENDROOT
BRANCH   1  30
ATOM     30  C   UNL     1      76.569 -27.897  83.178  1.00  0.00     0.048 C 
ATOM     31  O   UNL     1      75.366 -27.556  83.020  1.00  0.00    -0.550 OA
ATOM     32  O   UNL     1      76.842 -29.232  83.490  1.00  0.00    -0.550 OA
ENDBRANCH   1  30
BRANCH  27  33
ATOM     33  O   UNL     1      86.050 -24.667  87.224  1.00  0.00    -0.393 OA
ATOM     34  H   UNL     1      86.124 -25.545  87.687  1.00  0.00     0.210 HD
ENDBRANCH  27  33
TORSDOF 2
ENDMDL
MODEL 2
REMARK VINA RESULT:     2.065      1.839      4.338
REMARK INTER + INTRA:           2.768
REMARK INTER:                   2.208
REMARK INTRA:                   0.560
REMARK UNBOUND:                 0.522
REMARK SMILES C[C@@H]1[C@H]2C3=CC[C@@H]4[C@]5(C)CC[C@@H](O)C(C)(C)[C@@H]5CC[C@]4(C)[C@@]3(C)CC[C@@]2(C(=O)[O-])CC[C@@H]1C
REMARK SMILES IDX 26 1 30 2 25 3 3 4 31 5 24 6 4 7 2 8 32 9 22 10 5 11 1 12
REMARK SMILES IDX 33 13 23 14 20 15 6 16 7 17 19 18 21 19 8 20 18 21 17 22
REMARK SMILES IDX 10 23 9 24 14 25 11 26 12 27 15 28 16 29 27 30 28 31 29 32
REMARK SMILES IDX 13 33
REMARK H PARENT 13 34
REMARK Flexibility Score: inf
ROOT
ATOM      1  C   UNL     1      76.737 -26.928  84.767  1.00  0.00     0.017 C 
ATOM      2  C   UNL     1      75.842 -27.409  85.950  1.00  0.00     0.014 C 
ATOM      3  C   UNL     1      77.641 -28.118  84.254  1.00  0.00     0.014 C 
ATOM      4  C   UNL     1      77.531 -25.646  85.255  1.00  0.00     0.030 C 
ATOM      5  C   UNL     1      74.707 -26.408  86.283  1.00  0.00     0.004 C 
ATOM      6  C   UNL     1      79.135 -28.150  84.665  1.00  0.00     0.013 C 
ATOM      7  C   UNL     1      78.989 -25.984  85.683  1.00  0.00    -0.063 C 
ATOM      8  C   UNL     1      76.720 -24.753  86.301  1.00  0.00    -0.003 C 
ATOM      9  C   UNL     1      75.156 -24.914  86.320  1.00  0.00    -0.011 C 
ATOM     10  C   UNL     1      79.861 -26.763  84.680  1.00  0.00    -0.006 C 
ATOM     11  C   UNL     1      79.370 -25.988  86.979  1.00  0.00    -0.027 C 
ATOM     12  C   UNL     1      77.167 -23.281  86.218  1.00  0.00     0.008 C 
ATOM     13  C   UNL     1      74.397 -24.045  85.306  1.00  0.00     0.008 C 
ATOM     14  C   UNL     1      79.743 -26.093  83.278  1.00  0.00     0.017 C 
ATOM     15  C   UNL     1      81.446 -26.927  85.096  1.00  0.00    -0.020 C 
ATOM     16  C   UNL     1      80.793 -25.965  87.355  1.00  0.00     0.032 C 
ATOM     17  C   UNL     1      81.618 -27.085  86.675  1.00  0.00     0.006 C 
ATOM     18  C   UNL     1      82.292 -25.677  84.635  1.00  0.00     0.008 C 
ATOM     19  C   UNL     1      82.007 -28.181  84.331  1.00  0.00     0.012 C 
ATOM     20  C   UNL     1      83.141 -27.112  87.210  1.00  0.00    -0.025 C 
ATOM     21  C   UNL     1      83.760 -25.683  85.106  1.00  0.00     0.005 C 
ATOM     22  C   UNL     1      83.980 -25.878  86.631  1.00  0.00     0.003 C 
ATOM     23  C   UNL     1      83.189 -27.180  88.803  1.00  0.00     0.010 C 
ATOM     24  C   UNL     1      83.835 -28.448  86.762  1.00  0.00     0.012 C 
ATOM     25  C   UNL     1      84.151 -24.525  87.493  1.00  0.00    -0.006 C 
ATOM     26  C   UNL     1      84.096 -26.146  89.473  1.00  0.00     0.033 C 
ATOM     27  C   UNL     1      83.706 -24.751  88.976  1.00  0.00     0.120 C 
ATOM     28  C   UNL     1      85.656 -24.091  87.460  1.00  0.00     0.014 C 
ATOM     29  C   UNL     1      83.366 -23.274  86.955  1.00  0.00     0.014 C 
ENDROOT
BRANCH   1  30
ATOM     30  C   UNL     1      75.838 -26.584  83.571  1.00  0.00     0.048 C 
ATOM     31  O   UNL     1      75.397 -27.507  82.834  1.00  0.00    -0.550 OA
ATOM     32  O   UNL     1      75.629 -25.262  83.170  1.00  0.00    -0.550 OA
ENDBRANCH   1  30
BRANCH  27  33
ATOM     33  O   UNL     1      84.175 -23.749  89.828  1.00  0.00    -0.393 OA
ATOM     34  H   UNL     1      84.084 -22.862  89.385  1.00  0.00     0.210 HD
ENDBRANCH  27  33
TORSDOF 2
ENDMDL
MODEL 3
REMARK VINA RESULT:     3.791      2.016      4.031
REMARK INTER + INTRA:           4.645
REMARK INTER:                   3.793
REMARK INTRA:                   0.852
REMARK UNBOUND:                 0.522
REMARK SMILES C[C@@H]1[C@H]2C3=CC[C@@H]4[C@]5(C)CC[C@@H](O)C(C)(C)[C@@H]5CC[C@]4(C)[C@@]3(C)CC[C@@]2(C(=O)[O-])CC[C@@H]1C
REMARK SMILES IDX 26 1 30 2 25 3 3 4 31 5 24 6 4 7 2 8 32 9 22 10 5 11 1 12
REMARK SMILES IDX 33 13 23 14 20 15 6 16 7 17 19 18 21 19 8 20 18 21 17 22
REMARK SMILES IDX 10 23 9 24 14 25 11 26 12 27 15 28 16 29 27 30 28 31 29 32
REMARK SMILES IDX 13 33
REMARK H PARENT 13 34
REMARK Flexibility Score: inf
ROOT
ATOM      1  C   UNL     1      79.368 -28.853  82.989  1.00  0.00     0.017 C 
ATOM      2  C   UNL     1      78.643 -29.952  83.824  1.00  0.00     0.014 C 
ATOM      3  C   UNL     1      80.933 -28.993  83.151  1.00  0.00     0.014 C 
ATOM      4  C   UNL     1      78.773 -27.449  83.424  1.00  0.00     0.030 C 
ATOM      5  C   UNL     1      77.144 -30.087  83.459  1.00  0.00     0.004 C 
ATOM      6  C   UNL     1      81.676 -28.010  84.089  1.00  0.00     0.013 C 
ATOM      7  C   UNL     1      79.693 -26.707  84.436  1.00  0.00    -0.063 C 
ATOM      8  C   UNL     1      77.234 -27.511  83.845  1.00  0.00    -0.003 C 
ATOM      9  C   UNL     1      76.393 -28.727  83.310  1.00  0.00    -0.011 C 
ATOM     10  C   UNL     1      81.174 -26.527  84.050  1.00  0.00    -0.006 C 
ATOM     11  C   UNL     1      79.368 -26.587  85.741  1.00  0.00    -0.027 C 
ATOM     12  C   UNL     1      76.548 -26.154  83.592  1.00  0.00     0.008 C 
ATOM     13  C   UNL     1      75.787 -28.539  81.911  1.00  0.00     0.008 C 
ATOM     14  C   UNL     1      81.255 -25.984  82.591  1.00  0.00     0.017 C 
ATOM     15  C   UNL     1      82.059 -25.573  85.058  1.00  0.00    -0.020 C 
ATOM     16  C   UNL     1      80.047 -25.611  86.609  1.00  0.00     0.032 C 
ATOM     17  C   UNL     1      81.589 -25.739  86.575  1.00  0.00     0.006 C 
ATOM     18  C   UNL     1      81.925 -24.049  84.670  1.00  0.00     0.008 C 
ATOM     19  C   UNL     1      83.569 -25.971  84.880  1.00  0.00     0.012 C 
ATOM     20  C   UNL     1      82.294 -24.745  87.634  1.00  0.00    -0.025 C 
ATOM     21  C   UNL     1      82.610 -23.072  85.646  1.00  0.00     0.005 C 
ATOM     22  C   UNL     1      82.218 -23.225  87.141  1.00  0.00     0.003 C 
ATOM     23  C   UNL     1      81.684 -24.938  89.096  1.00  0.00     0.010 C 
ATOM     24  C   UNL     1      83.804 -25.144  87.810  1.00  0.00     0.012 C 
ATOM     25  C   UNL     1      81.039 -22.252  87.660  1.00  0.00    -0.006 C 
ATOM     26  C   UNL     1      81.245 -23.649  89.794  1.00  0.00     0.033 C 
ATOM     27  C   UNL     1      80.286 -22.890  88.874  1.00  0.00     0.120 C 
ATOM     28  C   UNL     1      81.668 -20.885  88.095  1.00  0.00     0.014 C 
ATOM     29  C   UNL     1      79.956 -21.868  86.587  1.00  0.00     0.014 C 
ENDROOT
BRANCH   1  30
ATOM     30  C   UNL     1      79.109 -29.111  81.498  1.00  0.00     0.048 C 
ATOM     31  O   UNL     1      79.534 -28.291  80.639  1.00  0.00    -0.550 OA
ATOM     32  O   UNL     1      78.268 -30.141  81.068  1.00  0.00    -0.550 OA
ENDBRANCH   1  30
BRANCH  27  33
ATOM     33  O   UNL     1      79.527 -21.952  89.577  1.00  0.00    -0.393 OA
ATOM     34  H   UNL     1      79.750 -21.999  90.546  1.00  0.00     0.210 HD
ENDBRANCH  27  33
TORSDOF 2
ENDMDL
