MODEL 1
REMARK VINA RESULT:    -4.697      0.000      0.000
REMARK INTER + INTRA:          -5.709
REMARK INTER:                  -5.383
REMARK INTRA:                  -0.326
REMARK UNBOUND:                -0.326
REMARK SMILES COc1ccc(C(C)=O)c(O)c1
REMARK SMILES IDX 6 1 10 2 12 3 3 4 4 5 5 6 7 7 8 8 9 9 11 10 2 12 1 13
REMARK H PARENT 11 11
REMARK Flexibility Score: inf
ROOT
ATOM      1  C   UNL     1      25.613   1.329  13.175  1.00  0.00     0.059 A 
ATOM      2  C   UNL     1      26.716   0.445  13.135  1.00  0.00     0.130 A 
ATOM      3  C   UNL     1      26.774  -0.641  14.021  1.00  0.00     0.093 A 
ATOM      4  C   UNL     1      25.762  -0.858  14.962  1.00  0.00     0.122 A 
ATOM      5  C   UNL     1      24.675   0.031  15.014  1.00  0.00     0.047 A 
ATOM      6  C   UNL     1      24.606   1.112  14.133  1.00  0.00     0.019 A 
ENDROOT
BRANCH   1   7
ATOM      7  C   UNL     1      25.485   2.489  12.251  1.00  0.00     0.163 C 
ATOM      8  C   UNL     1      24.349   2.624  11.283  1.00  0.00     0.093 C 
ATOM      9  O   UNL     1      26.357   3.399  12.278  1.00  0.00    -0.294 OA
ENDBRANCH   1   7
BRANCH   2  10
ATOM     10  O   UNL     1      27.765   0.648  12.240  1.00  0.00    -0.507 OA
ATOM     11  H   UNL     1      28.732   0.659  12.543  1.00  0.00     0.293 HD
ENDBRANCH   2  10
BRANCH   4  12
ATOM     12  O   UNL     1      25.876  -1.960  15.822  1.00  0.00    -0.497 OA
ATOM     13  C   UNL     1      24.931  -2.290  16.834  1.00  0.00     0.278 C 
ENDBRANCH   4  12
TORSDOF 3
ENDMDL
MODEL 2
REMARK VINA RESULT:    -4.470      2.471      3.769
REMARK INTER + INTRA:          -5.449
REMARK INTER:                  -5.169
REMARK INTRA:                  -0.280
REMARK UNBOUND:                -0.326
REMARK SMILES COc1ccc(C(C)=O)c(O)c1
REMARK SMILES IDX 6 1 10 2 12 3 3 4 4 5 5 6 7 7 8 8 9 9 11 10 2 12 1 13
REMARK H PARENT 11 11
REMARK Flexibility Score: inf
ROOT
ATOM      1  C   UNL     1      27.761   1.635  12.866  1.00  0.00     0.059 A 
ATOM      2  C   UNL     1      27.300   0.306  13.000  1.00  0.00     0.130 A 
ATOM      3  C   UNL     1      25.932   0.023  12.868  1.00  0.00     0.093 A 
ATOM      4  C   UNL     1      25.007   1.042  12.622  1.00  0.00     0.122 A 
ATOM      5  C   UNL     1      25.462   2.365  12.507  1.00  0.00     0.047 A 
ATOM      6  C   UNL     1      26.822   2.657  12.631  1.00  0.00     0.019 A 
ENDROOT
BRANCH   1   7
ATOM      7  C   UNL     1      29.200   1.998  12.977  1.00  0.00     0.163 C 
ATOM      8  C   UNL     1      29.764   3.248  12.372  1.00  0.00     0.093 C 
ATOM      9  O   UNL     1      29.983   1.233  13.603  1.00  0.00    -0.294 OA
ENDBRANCH   1   7
BRANCH   2  10
ATOM     10  O   UNL     1      28.185  -0.734  13.285  1.00  0.00    -0.507 OA
ATOM     11  H   UNL     1      28.070  -1.324  14.101  1.00  0.00     0.293 HD
ENDBRANCH   2  10
BRANCH   4  12
ATOM     12  O   UNL     1      23.652   0.698  12.502  1.00  0.00    -0.497 OA
ATOM     13  C   UNL     1      22.584   1.638  12.474  1.00  0.00     0.278 C 
ENDBRANCH   4  12
TORSDOF 3
ENDMDL
MODEL 3
REMARK VINA RESULT:    -4.436      2.521      3.827
REMARK INTER + INTRA:          -5.410
REMARK INTER:                  -5.066
REMARK INTRA:                  -0.344
REMARK UNBOUND:                -0.326
REMARK SMILES COc1ccc(C(C)=O)c(O)c1
REMARK SMILES IDX 6 1 10 2 12 3 3 4 4 5 5 6 7 7 8 8 9 9 11 10 2 12 1 13
REMARK H PARENT 11 11
REMARK Flexibility Score: inf
ROOT
ATOM      1  C   UNL     1      25.965   0.994  12.736  1.00  0.00     0.059 A 
ATOM      2  C   UNL     1      26.802   2.125  12.595  1.00  0.00     0.130 A 
ATOM      3  C   UNL     1      28.173   2.018  12.873  1.00  0.00     0.093 A 
ATOM      4  C   UNL     1      28.728   0.810  13.307  1.00  0.00     0.122 A 
ATOM      5  C   UNL     1      27.893  -0.308  13.465  1.00  0.00     0.047 A 
ATOM      6  C   UNL     1      26.528  -0.214  13.185  1.00  0.00     0.019 A 
ENDROOT
BRANCH   1   7
ATOM      7  C   UNL     1      24.507   1.038  12.440  1.00  0.00     0.163 C 
ATOM      8  C   UNL     1      23.478   0.480  13.377  1.00  0.00     0.093 C 
ATOM      9  O   UNL     1      24.110   1.562  11.364  1.00  0.00    -0.294 OA
ENDBRANCH   1   7
BRANCH   2  10
ATOM     10  O   UNL     1      26.282   3.358  12.203  1.00  0.00    -0.507 OA
ATOM     11  H   UNL     1      26.877   4.163  12.048  1.00  0.00     0.293 HD
ENDBRANCH   2  10
BRANCH   4  12
ATOM     12  O   UNL     1      30.105   0.766  13.572  1.00  0.00    -0.497 OA
ATOM     13  C   UNL     1      31.006   1.840  13.323  1.00  0.00     0.278 C 
ENDBRANCH   4  12
TORSDOF 3
ENDMDL
MODEL 4
REMARK VINA RESULT:    -4.420      2.149      4.100
REMARK INTER + INTRA:          -5.391
REMARK INTER:                  -5.070
REMARK INTRA:                  -0.321
REMARK UNBOUND:                -0.326
REMARK SMILES COc1ccc(C(C)=O)c(O)c1
REMARK SMILES IDX 6 1 10 2 12 3 3 4 4 5 5 6 7 7 8 8 9 9 11 10 2 12 1 13
REMARK H PARENT 11 11
REMARK Flexibility Score: inf
ROOT
ATOM      1  C   UNL     1      25.871   0.718  13.446  1.00  0.00     0.059 A 
ATOM      2  C   UNL     1      26.973  -0.146  13.640  1.00  0.00     0.130 A 
ATOM      3  C   UNL     1      28.270   0.294  13.333  1.00  0.00     0.093 A 
ATOM      4  C   UNL     1      28.492   1.574  12.817  1.00  0.00     0.122 A 
ATOM      5  C   UNL     1      27.395   2.426  12.607  1.00  0.00     0.047 A 
ATOM      6  C   UNL     1      26.101   2.000  12.915  1.00  0.00     0.019 A 
ENDROOT
BRANCH   1   7
ATOM      7  C   UNL     1      24.475   0.317  13.769  1.00  0.00     0.163 C 
ATOM      8  C   UNL     1      23.297   0.791  12.972  1.00  0.00     0.093 C 
ATOM      9  O   UNL     1      24.263  -0.451  14.746  1.00  0.00    -0.294 OA
ENDBRANCH   1   7
BRANCH   2  10
ATOM     10  O   UNL     1      26.791  -1.445  14.115  1.00  0.00    -0.507 OA
ATOM     11  H   UNL     1      25.892  -1.768  14.452  1.00  0.00     0.293 HD
ENDBRANCH   2  10
BRANCH   4  12
ATOM     12  O   UNL     1      29.810   1.957  12.527  1.00  0.00    -0.497 OA
ATOM     13  C   UNL     1      30.892   1.875  13.449  1.00  0.00     0.278 C 
ENDBRANCH   4  12
TORSDOF 3
ENDMDL
MODEL 5
REMARK VINA RESULT:    -4.368      2.373      3.750
REMARK INTER + INTRA:          -5.331
REMARK INTER:                  -5.131
REMARK INTRA:                  -0.200
REMARK UNBOUND:                -0.326
REMARK SMILES COc1ccc(C(C)=O)c(O)c1
REMARK SMILES IDX 6 1 10 2 12 3 3 4 4 5 5 6 7 7 8 8 9 9 11 10 2 12 1 13
REMARK H PARENT 11 11
REMARK Flexibility Score: inf
ROOT
ATOM      1  C   UNL     1      28.236   1.751  12.939  1.00  0.00     0.059 A 
ATOM      2  C   UNL     1      27.059   2.481  12.655  1.00  0.00     0.130 A 
ATOM      3  C   UNL     1      25.803   1.880  12.833  1.00  0.00     0.093 A 
ATOM      4  C   UNL     1      25.694   0.557  13.273  1.00  0.00     0.122 A 
ATOM      5  C   UNL     1      26.864  -0.174  13.538  1.00  0.00     0.047 A 
ATOM      6  C   UNL     1      28.119   0.417  13.369  1.00  0.00     0.019 A 
ENDROOT
BRANCH   1   7
ATOM      7  C   UNL     1      29.595   2.337  12.787  1.00  0.00     0.163 C 
ATOM      8  C   UNL     1      30.832   1.634  13.259  1.00  0.00     0.093 C 
ATOM      9  O   UNL     1      29.724   3.466  12.241  1.00  0.00    -0.294 OA
ENDBRANCH   1   7
BRANCH   2  10
ATOM     10  O   UNL     1      27.124   3.789  12.176  1.00  0.00    -0.507 OA
ATOM     11  H   UNL     1      27.715   4.488  12.611  1.00  0.00     0.293 HD
ENDBRANCH   2  10
BRANCH   4  12
ATOM     12  O   UNL     1      24.412   0.010  13.431  1.00  0.00    -0.497 OA
ATOM     13  C   UNL     1      23.203   0.697  13.126  1.00  0.00     0.278 C 
ENDBRANCH   4  12
TORSDOF 3
ENDMDL
MODEL 6
REMARK VINA RESULT:    -4.332      1.679      2.299
REMARK INTER + INTRA:          -5.291
REMARK INTER:                  -4.948
REMARK INTRA:                  -0.343
REMARK UNBOUND:                -0.326
REMARK SMILES COc1ccc(C(C)=O)c(O)c1
REMARK SMILES IDX 6 1 10 2 12 3 3 4 4 5 5 6 7 7 8 8 9 9 11 10 2 12 1 13
REMARK H PARENT 11 11
REMARK Flexibility Score: inf
ROOT
ATOM      1  C   UNL     1      25.309   0.778  13.330  1.00  0.00     0.059 A 
ATOM      2  C   UNL     1      24.117   0.273  13.899  1.00  0.00     0.130 A 
ATOM      3  C   UNL     1      24.180  -0.713  14.894  1.00  0.00     0.093 A 
ATOM      4  C   UNL     1      25.408  -1.223  15.325  1.00  0.00     0.122 A 
ATOM      5  C   UNL     1      26.592  -0.735  14.747  1.00  0.00     0.047 A 
ATOM      6  C   UNL     1      26.540   0.251  13.759  1.00  0.00     0.019 A 
ENDROOT
BRANCH   1   7
ATOM      7  C   UNL     1      25.309   1.837  12.284  1.00  0.00     0.163 C 
ATOM      8  C   UNL     1      26.123   3.089  12.407  1.00  0.00     0.093 C 
ATOM      9  O   UNL     1      24.605   1.683  11.250  1.00  0.00    -0.294 OA
ENDBRANCH   1   7
BRANCH   2  10
ATOM     10  O   UNL     1      22.870   0.726  13.469  1.00  0.00    -0.507 OA
ATOM     11  H   UNL     1      22.437   1.554  13.863  1.00  0.00     0.293 HD
ENDBRANCH   2  10
BRANCH   4  12
ATOM     12  O   UNL     1      25.408  -2.210  16.322  1.00  0.00    -0.497 OA
ATOM     13  C   UNL     1      24.259  -2.598  17.068  1.00  0.00     0.278 C 
ENDBRANCH   4  12
TORSDOF 3
ENDMDL
MODEL 7
REMARK VINA RESULT:    -4.262      7.325      8.936
REMARK INTER + INTRA:          -5.210
REMARK INTER:                  -4.885
REMARK INTRA:                  -0.325
REMARK UNBOUND:                -0.326
REMARK SMILES COc1ccc(C(C)=O)c(O)c1
REMARK SMILES IDX 6 1 10 2 12 3 3 4 4 5 5 6 7 7 8 8 9 9 11 10 2 12 1 13
REMARK H PARENT 11 11
REMARK Flexibility Score: inf
ROOT
ATOM      1  C   UNL     1      28.402  -0.494   5.698  1.00  0.00     0.059 A 
ATOM      2  C   UNL     1      28.292  -0.473   7.108  1.00  0.00     0.130 A 
ATOM      3  C   UNL     1      29.426  -0.216   7.893  1.00  0.00     0.093 A 
ATOM      4  C   UNL     1      30.675   0.004   7.304  1.00  0.00     0.122 A 
ATOM      5  C   UNL     1      30.788  -0.036   5.905  1.00  0.00     0.047 A 
ATOM      6  C   UNL     1      29.664  -0.285   5.114  1.00  0.00     0.019 A 
ENDROOT
BRANCH   1   7
ATOM      7  C   UNL     1      27.234  -0.744   4.810  1.00  0.00     0.163 C 
ATOM      8  C   UNL     1      27.065  -0.052   3.491  1.00  0.00     0.093 C 
ATOM      9  O   UNL     1      26.350  -1.567   5.168  1.00  0.00    -0.294 OA
ENDBRANCH   1   7
BRANCH   2  10
ATOM     10  O   UNL     1      27.073  -0.727   7.736  1.00  0.00    -0.507 OA
ATOM     11  H   UNL     1      26.907  -0.470   8.702  1.00  0.00     0.293 HD
ENDBRANCH   2  10
BRANCH   4  12
ATOM     12  O   UNL     1      31.772   0.254   8.142  1.00  0.00    -0.497 OA
ATOM     13  C   UNL     1      33.121  -0.067   7.817  1.00  0.00     0.278 C 
ENDBRANCH   4  12
TORSDOF 3
ENDMDL
MODEL 8
REMARK VINA RESULT:    -4.252      1.500      4.543
REMARK INTER + INTRA:          -5.199
REMARK INTER:                  -4.898
REMARK INTRA:                  -0.302
REMARK UNBOUND:                -0.326
REMARK SMILES COc1ccc(C(C)=O)c(O)c1
REMARK SMILES IDX 6 1 10 2 12 3 3 4 4 5 5 6 7 7 8 8 9 9 11 10 2 12 1 13
REMARK H PARENT 11 11
REMARK Flexibility Score: inf
ROOT
ATOM      1  C   UNL     1      25.526  -0.571  14.630  1.00  0.00     0.059 A 
ATOM      2  C   UNL     1      26.370  -0.733  13.507  1.00  0.00     0.130 A 
ATOM      3  C   UNL     1      26.068  -0.075  12.305  1.00  0.00     0.093 A 
ATOM      4  C   UNL     1      24.930   0.729  12.190  1.00  0.00     0.122 A 
ATOM      5  C   UNL     1      24.082   0.876  13.300  1.00  0.00     0.047 A 
ATOM      6  C   UNL     1      24.377   0.229  14.503  1.00  0.00     0.019 A 
ENDROOT
BRANCH   1   7
ATOM      7  C   UNL     1      25.801  -1.227  15.937  1.00  0.00     0.163 C 
ATOM      8  C   UNL     1      24.900  -2.277  16.515  1.00  0.00     0.093 C 
ATOM      9  O   UNL     1      26.828  -0.897  16.590  1.00  0.00    -0.294 OA
ENDBRANCH   1   7
BRANCH   2  10
ATOM     10  O   UNL     1      27.493  -1.558  13.567  1.00  0.00    -0.507 OA
ATOM     11  H   UNL     1      27.413  -2.569  13.569  1.00  0.00     0.293 HD
ENDBRANCH   2  10
BRANCH   4  12
ATOM     12  O   UNL     1      24.680   1.360  10.963  1.00  0.00    -0.497 OA
ATOM     13  C   UNL     1      24.189   2.690  10.827  1.00  0.00     0.278 C 
ENDBRANCH   4  12
TORSDOF 3
ENDMDL
MODEL 9
REMARK VINA RESULT:    -4.158      4.987      6.305
REMARK INTER + INTRA:          -5.091
REMARK INTER:                  -4.774
REMARK INTRA:                  -0.317
REMARK UNBOUND:                -0.326
REMARK SMILES COc1ccc(C(C)=O)c(O)c1
REMARK SMILES IDX 6 1 10 2 12 3 3 4 4 5 5 6 7 7 8 8 9 9 11 10 2 12 1 13
REMARK H PARENT 11 11
REMARK Flexibility Score: inf
ROOT
ATOM      1  C   UNL     1      25.610  -1.178  18.578  1.00  0.00     0.059 A 
ATOM      2  C   UNL     1      24.476  -1.814  19.132  1.00  0.00     0.130 A 
ATOM      3  C   UNL     1      23.639  -2.589  18.314  1.00  0.00     0.093 A 
ATOM      4  C   UNL     1      23.897  -2.729  16.947  1.00  0.00     0.122 A 
ATOM      5  C   UNL     1      25.014  -2.082  16.393  1.00  0.00     0.047 A 
ATOM      6  C   UNL     1      25.856  -1.313  17.199  1.00  0.00     0.019 A 
ENDROOT
BRANCH   1   7
ATOM      7  C   UNL     1      26.546  -0.358  19.395  1.00  0.00     0.163 C 
ATOM      8  C   UNL     1      27.982  -0.737  19.595  1.00  0.00     0.093 C 
ATOM      9  O   UNL     1      26.126   0.697  19.942  1.00  0.00    -0.294 OA
ENDBRANCH   1   7
BRANCH   2  10
ATOM     10  O   UNL     1      24.160  -1.667  20.483  1.00  0.00    -0.507 OA
ATOM     11  H   UNL     1      24.255  -2.433  21.140  1.00  0.00     0.293 HD
ENDBRANCH   2  10
BRANCH   4  12
ATOM     12  O   UNL     1      23.024  -3.514  16.181  1.00  0.00    -0.497 OA
ATOM     13  C   UNL     1      22.451  -4.741  16.620  1.00  0.00     0.278 C 
ENDBRANCH   4  12
TORSDOF 3
ENDMDL
