MODEL 1
REMARK VINA RESULT:    -8.198      0.000      0.000
REMARK INTER + INTRA:          -9.909
REMARK INTER:                  -9.636
REMARK INTRA:                  -0.273
REMARK UNBOUND:                -0.273
REMARK SMILES O=c1c(O)c(-c2ccc(O)cc2)oc2cc(O)cc(O)c12
REMARK SMILES IDX 5 1 3 2 2 3 1 4 21 5 19 6 18 7 16 8 15 9 14 10 13 11 6 12
REMARK SMILES IDX 7 13 8 14 9 15 12 16 11 17 10 18 4 20 20 22 17 24
REMARK H PARENT 10 19 4 21 20 23 17 25
REMARK Flexibility Score: inf
ROOT
ATOM      1  C   UNL     1     -31.447  16.894  57.214  1.00  0.00     0.180 A 
ATOM      2  C   UNL     1     -30.187  16.287  57.078  1.00  0.00     0.208 A 
ATOM      3  C   UNL     1     -29.033  17.073  57.224  1.00  0.00     0.238 A 
ATOM      4  O   UNL     1     -27.909  16.536  57.047  1.00  0.00    -0.285 OA
ATOM      5  C   UNL     1     -29.153  18.453  57.519  1.00  0.00     0.111 A 
ATOM      6  C   UNL     1     -28.051  19.336  57.728  1.00  0.00     0.134 A 
ATOM      7  C   UNL     1     -28.286  20.708  57.885  1.00  0.00     0.093 A 
ATOM      8  C   UNL     1     -29.586  21.218  57.907  1.00  0.00     0.123 A 
ATOM      9  C   UNL     1     -30.670  20.356  57.764  1.00  0.00     0.094 A 
ATOM     10  C   UNL     1     -30.466  18.987  57.569  1.00  0.00     0.146 A 
ATOM     11  O   UNL     1     -31.527  18.202  57.426  1.00  0.00    -0.452 OA
ENDROOT
BRANCH   1  12
ATOM     12  C   UNL     1     -32.708  16.126  57.099  1.00  0.00     0.021 A 
ATOM     13  C   UNL     1     -33.178  15.400  58.206  1.00  0.00     0.016 A 
ATOM     14  C   UNL     1     -34.355  14.650  58.114  1.00  0.00     0.047 A 
ATOM     15  C   UNL     1     -35.068  14.604  56.912  1.00  0.00     0.115 A 
ATOM     16  C   UNL     1     -33.419  16.060  55.886  1.00  0.00     0.016 A 
ATOM     17  C   UNL     1     -34.595  15.309  55.797  1.00  0.00     0.047 A 
BRANCH  15  18
ATOM     18  O   UNL     1     -36.239  13.854  56.834  1.00  0.00    -0.508 OA
ATOM     19  H   UNL     1     -36.962  13.927  57.540  1.00  0.00     0.293 HD
ENDBRANCH  15  18
ENDBRANCH   1  12
BRANCH   2  20
ATOM     20  O   UNL     1     -30.091  14.929  56.764  1.00  0.00    -0.502 OA
ATOM     21  H   UNL     1     -30.347  14.561  55.856  1.00  0.00     0.293 HD
ENDBRANCH   2  20
BRANCH   6  22
ATOM     22  O   UNL     1     -26.720  18.917  57.816  1.00  0.00    -0.507 OA
ATOM     23  H   UNL     1     -26.279  18.272  57.178  1.00  0.00     0.293 HD
ENDBRANCH   6  22
BRANCH   8  24
ATOM     24  O   UNL     1     -29.811  22.582  58.079  1.00  0.00    -0.508 OA
ATOM     25  H   UNL     1     -30.704  23.005  57.855  1.00  0.00     0.293 HD
ENDBRANCH   8  24
TORSDOF 5
ENDMDL
MODEL 2
REMARK VINA RESULT:    -8.138      2.115      2.841
REMARK INTER + INTRA:          -9.839
REMARK INTER:                  -9.567
REMARK INTRA:                  -0.272
REMARK UNBOUND:                -0.273
REMARK SMILES O=c1c(O)c(-c2ccc(O)cc2)oc2cc(O)cc(O)c12
REMARK SMILES IDX 5 1 3 2 2 3 1 4 21 5 19 6 18 7 16 8 15 9 14 10 13 11 6 12
REMARK SMILES IDX 7 13 8 14 9 15 12 16 11 17 10 18 4 20 20 22 17 24
REMARK H PARENT 10 19 4 21 20 23 17 25
REMARK Flexibility Score: inf
ROOT
ATOM      1  C   UNL     1     -31.344  16.766  56.486  1.00  0.00     0.180 A 
ATOM      2  C   UNL     1     -31.376  17.399  57.740  1.00  0.00     0.208 A 
ATOM      3  C   UNL     1     -30.591  18.545  57.945  1.00  0.00     0.238 A 
ATOM      4  O   UNL     1     -30.582  19.075  59.086  1.00  0.00    -0.285 OA
ATOM      5  C   UNL     1     -29.797  19.053  56.889  1.00  0.00     0.111 A 
ATOM      6  C   UNL     1     -28.994  20.231  56.972  1.00  0.00     0.134 A 
ATOM      7  C   UNL     1     -28.148  20.566  55.907  1.00  0.00     0.093 A 
ATOM      8  C   UNL     1     -28.126  19.803  54.737  1.00  0.00     0.123 A 
ATOM      9  C   UNL     1     -28.949  18.687  54.623  1.00  0.00     0.094 A 
ATOM     10  C   UNL     1     -29.778  18.306  55.683  1.00  0.00     0.146 A 
ATOM     11  O   UNL     1     -30.539  17.228  55.536  1.00  0.00    -0.452 OA
ENDROOT
BRANCH   1  12
ATOM     12  C   UNL     1     -32.163  15.569  56.186  1.00  0.00     0.021 A 
ATOM     13  C   UNL     1     -33.514  15.726  55.837  1.00  0.00     0.016 A 
ATOM     14  C   UNL     1     -34.312  14.608  55.572  1.00  0.00     0.047 A 
ATOM     15  C   UNL     1     -33.774  13.321  55.666  1.00  0.00     0.115 A 
ATOM     16  C   UNL     1     -31.632  14.270  56.299  1.00  0.00     0.016 A 
ATOM     17  C   UNL     1     -32.432  13.155  56.034  1.00  0.00     0.047 A 
BRANCH  15  18
ATOM     18  O   UNL     1     -34.580  12.217  55.398  1.00  0.00    -0.508 OA
ATOM     19  H   UNL     1     -34.677  11.459  56.063  1.00  0.00     0.293 HD
ENDBRANCH  15  18
ENDBRANCH   1  12
BRANCH   2  20
ATOM     20  O   UNL     1     -32.150  16.869  58.776  1.00  0.00    -0.502 OA
ATOM     21  H   UNL     1     -32.781  16.088  58.639  1.00  0.00     0.293 HD
ENDBRANCH   2  20
BRANCH   6  22
ATOM     22  O   UNL     1     -29.010  21.111  58.057  1.00  0.00    -0.507 OA
ATOM     23  H   UNL     1     -28.515  20.964  58.924  1.00  0.00     0.293 HD
ENDBRANCH   6  22
BRANCH   8  24
ATOM     24  O   UNL     1     -27.292  20.154  53.677  1.00  0.00    -0.508 OA
ATOM     25  H   UNL     1     -26.972  19.466  53.004  1.00  0.00     0.293 HD
ENDBRANCH   8  24
TORSDOF 5
ENDMDL
MODEL 3
REMARK VINA RESULT:    -7.858      2.061      2.784
REMARK INTER + INTRA:          -9.509
REMARK INTER:                  -9.223
REMARK INTRA:                  -0.286
REMARK UNBOUND:                -0.273
REMARK SMILES O=c1c(O)c(-c2ccc(O)cc2)oc2cc(O)cc(O)c12
REMARK SMILES IDX 5 1 3 2 2 3 1 4 21 5 19 6 18 7 16 8 15 9 14 10 13 11 6 12
REMARK SMILES IDX 7 13 8 14 9 15 12 16 11 17 10 18 4 20 20 22 17 24
REMARK H PARENT 10 19 4 21 20 23 17 25
REMARK Flexibility Score: inf
ROOT
ATOM      1  C   UNL     1     -30.946  16.424  57.004  1.00  0.00     0.180 A 
ATOM      2  C   UNL     1     -31.188  17.347  55.973  1.00  0.00     0.208 A 
ATOM      3  C   UNL     1     -30.254  18.370  55.740  1.00  0.00     0.238 A 
ATOM      4  O   UNL     1     -30.503  19.226  54.852  1.00  0.00    -0.285 OA
ATOM      5  C   UNL     1     -29.083  18.447  56.532  1.00  0.00     0.111 A 
ATOM      6  C   UNL     1     -28.050  19.417  56.358  1.00  0.00     0.134 A 
ATOM      7  C   UNL     1     -26.999  19.478  57.282  1.00  0.00     0.093 A 
ATOM      8  C   UNL     1     -26.910  18.564  58.335  1.00  0.00     0.123 A 
ATOM      9  C   UNL     1     -27.882  17.577  58.477  1.00  0.00     0.094 A 
ATOM     10  C   UNL     1     -28.962  17.512  57.592  1.00  0.00     0.146 A 
ATOM     11  O   UNL     1     -29.871  16.562  57.770  1.00  0.00    -0.452 OA
ENDROOT
BRANCH   1  12
ATOM     12  C   UNL     1     -31.871  15.304  57.292  1.00  0.00     0.021 A 
ATOM     13  C   UNL     1     -32.773  15.410  58.363  1.00  0.00     0.016 A 
ATOM     14  C   UNL     1     -33.641  14.356  58.667  1.00  0.00     0.047 A 
ATOM     15  C   UNL     1     -33.607  13.178  57.915  1.00  0.00     0.115 A 
ATOM     16  C   UNL     1     -31.828  14.108  56.550  1.00  0.00     0.016 A 
ATOM     17  C   UNL     1     -32.696  13.055  56.857  1.00  0.00     0.047 A 
BRANCH  15  18
ATOM     18  O   UNL     1     -34.477  12.136  58.227  1.00  0.00    -0.508 OA
ATOM     19  H   UNL     1     -35.342  12.301  58.728  1.00  0.00     0.293 HD
ENDBRANCH  15  18
ENDBRANCH   1  12
BRANCH   2  20
ATOM     20  O   UNL     1     -32.362  17.267  55.218  1.00  0.00    -0.502 OA
ATOM     21  H   UNL     1     -33.167  17.854  55.399  1.00  0.00     0.293 HD
ENDBRANCH   2  20
BRANCH   6  22
ATOM     22  O   UNL     1     -27.995  20.316  55.289  1.00  0.00    -0.507 OA
ATOM     23  H   UNL     1     -28.287  21.280  55.336  1.00  0.00     0.293 HD
ENDBRANCH   6  22
BRANCH   8  24
ATOM     24  O   UNL     1     -25.853  18.624  59.240  1.00  0.00    -0.508 OA
ATOM     25  H   UNL     1     -25.674  19.454  59.792  1.00  0.00     0.293 HD
ENDBRANCH   8  24
TORSDOF 5
ENDMDL
MODEL 4
REMARK VINA RESULT:    -7.622      1.792      7.335
REMARK INTER + INTRA:          -9.232
REMARK INTER:                  -8.937
REMARK INTRA:                  -0.295
REMARK UNBOUND:                -0.273
REMARK SMILES O=c1c(O)c(-c2ccc(O)cc2)oc2cc(O)cc(O)c12
REMARK SMILES IDX 5 1 3 2 2 3 1 4 21 5 19 6 18 7 16 8 15 9 14 10 13 11 6 12
REMARK SMILES IDX 7 13 8 14 9 15 12 16 11 17 10 18 4 20 20 22 17 24
REMARK H PARENT 10 19 4 21 20 23 17 25
REMARK Flexibility Score: inf
ROOT
ATOM      1  C   UNL     1     -32.555  16.097  57.183  1.00  0.00     0.180 A 
ATOM      2  C   UNL     1     -33.261  16.125  55.968  1.00  0.00     0.208 A 
ATOM      3  C   UNL     1     -34.464  15.409  55.862  1.00  0.00     0.238 A 
ATOM      4  O   UNL     1     -35.063  15.393  54.755  1.00  0.00    -0.285 OA
ATOM      5  C   UNL     1     -34.954  14.686  56.976  1.00  0.00     0.111 A 
ATOM      6  C   UNL     1     -36.182  13.958  56.994  1.00  0.00     0.134 A 
ATOM      7  C   UNL     1     -36.503  13.174  58.110  1.00  0.00     0.093 A 
ATOM      8  C   UNL     1     -35.672  13.144  59.233  1.00  0.00     0.123 A 
ATOM      9  C   UNL     1     -34.503  13.897  59.248  1.00  0.00     0.094 A 
ATOM     10  C   UNL     1     -34.137  14.662  58.136  1.00  0.00     0.146 A 
ATOM     11  O   UNL     1     -33.007  15.357  58.189  1.00  0.00    -0.452 OA
ENDROOT
BRANCH   1  12
ATOM     12  C   UNL     1     -31.294  16.847  57.379  1.00  0.00     0.021 A 
ATOM     13  C   UNL     1     -30.066  16.217  57.114  1.00  0.00     0.016 A 
ATOM     14  C   UNL     1     -28.862  16.900  57.314  1.00  0.00     0.047 A 
ATOM     15  C   UNL     1     -28.868  18.213  57.794  1.00  0.00     0.115 A 
ATOM     16  C   UNL     1     -31.293  18.162  57.882  1.00  0.00     0.016 A 
ATOM     17  C   UNL     1     -30.087  18.842  58.081  1.00  0.00     0.047 A 
BRANCH  15  18
ATOM     18  O   UNL     1     -27.662  18.881  57.988  1.00  0.00    -0.508 OA
ATOM     19  H   UNL     1     -26.774  18.398  57.925  1.00  0.00     0.293 HD
ENDBRANCH  15  18
ENDBRANCH   1  12
BRANCH   2  20
ATOM     20  O   UNL     1     -32.748  16.826  54.874  1.00  0.00    -0.502 OA
ATOM     21  H   UNL     1     -33.341  17.211  54.148  1.00  0.00     0.293 HD
ENDBRANCH   2  20
BRANCH   6  22
ATOM     22  O   UNL     1     -37.125  13.993  55.963  1.00  0.00    -0.507 OA
ATOM     23  H   UNL     1     -37.565  13.179  55.560  1.00  0.00     0.293 HD
ENDBRANCH   6  22
BRANCH   8  24
ATOM     24  O   UNL     1     -36.008  12.372  60.343  1.00  0.00    -0.508 OA
ATOM     25  H   UNL     1     -36.969  12.275  60.651  1.00  0.00     0.293 HD
ENDBRANCH   8  24
TORSDOF 5
ENDMDL
MODEL 5
REMARK VINA RESULT:    -7.576      2.367      7.226
REMARK INTER + INTRA:          -9.178
REMARK INTER:                  -8.926
REMARK INTRA:                  -0.252
REMARK UNBOUND:                -0.273
REMARK SMILES O=c1c(O)c(-c2ccc(O)cc2)oc2cc(O)cc(O)c12
REMARK SMILES IDX 5 1 3 2 2 3 1 4 21 5 19 6 18 7 16 8 15 9 14 10 13 11 6 12
REMARK SMILES IDX 7 13 8 14 9 15 12 16 11 17 10 18 4 20 20 22 17 24
REMARK H PARENT 10 19 4 21 20 23 17 25
REMARK Flexibility Score: inf
ROOT
ATOM      1  C   UNL     1     -31.433  15.960  56.990  1.00  0.00     0.180 A 
ATOM      2  C   UNL     1     -32.118  16.119  58.206  1.00  0.00     0.208 A 
ATOM      3  C   UNL     1     -33.082  15.166  58.575  1.00  0.00     0.238 A 
ATOM      4  O   UNL     1     -33.731  15.343  59.639  1.00  0.00    -0.285 OA
ATOM      5  C   UNL     1     -33.337  14.059  57.731  1.00  0.00     0.111 A 
ATOM      6  C   UNL     1     -34.263  13.012  58.024  1.00  0.00     0.134 A 
ATOM      7  C   UNL     1     -34.529  12.036  57.056  1.00  0.00     0.093 A 
ATOM      8  C   UNL     1     -33.855  12.031  55.833  1.00  0.00     0.123 A 
ATOM      9  C   UNL     1     -32.907  13.013  55.561  1.00  0.00     0.094 A 
ATOM     10  C   UNL     1     -32.645  14.023  56.493  1.00  0.00     0.146 A 
ATOM     11  O   UNL     1     -31.741  14.946  56.189  1.00  0.00    -0.452 OA
ENDROOT
BRANCH   1  12
ATOM     12  C   UNL     1     -30.386  16.908  56.546  1.00  0.00     0.021 A 
ATOM     13  C   UNL     1     -29.103  16.836  57.113  1.00  0.00     0.016 A 
ATOM     14  C   UNL     1     -28.105  17.736  56.725  1.00  0.00     0.047 A 
ATOM     15  C   UNL     1     -28.380  18.726  55.777  1.00  0.00     0.115 A 
ATOM     16  C   UNL     1     -30.663  17.919  55.607  1.00  0.00     0.016 A 
ATOM     17  C   UNL     1     -29.663  18.818  55.221  1.00  0.00     0.047 A 
BRANCH  15  18
ATOM     18  O   UNL     1     -27.377  19.615  55.398  1.00  0.00    -0.508 OA
ATOM     19  H   UNL     1     -26.926  19.550  54.493  1.00  0.00     0.293 HD
ENDBRANCH  15  18
ENDBRANCH   1  12
BRANCH   2  20
ATOM     20  O   UNL     1     -31.867  17.231  59.015  1.00  0.00    -0.502 OA
ATOM     21  H   UNL     1     -32.186  18.162  58.774  1.00  0.00     0.293 HD
ENDBRANCH   2  20
BRANCH   6  22
ATOM     22  O   UNL     1     -34.920  12.872  59.249  1.00  0.00    -0.507 OA
ATOM     23  H   UNL     1     -34.463  12.682  60.128  1.00  0.00     0.293 HD
ENDBRANCH   6  22
BRANCH   8  24
ATOM     24  O   UNL     1     -34.115  11.046  54.882  1.00  0.00    -0.508 OA
ATOM     25  H   UNL     1     -34.151  10.064  55.132  1.00  0.00     0.293 HD
ENDBRANCH   8  24
TORSDOF 5
ENDMDL
MODEL 6
REMARK VINA RESULT:    -7.494      1.728      7.190
REMARK INTER + INTRA:          -9.082
REMARK INTER:                  -8.799
REMARK INTRA:                  -0.283
REMARK UNBOUND:                -0.273
REMARK SMILES O=c1c(O)c(-c2ccc(O)cc2)oc2cc(O)cc(O)c12
REMARK SMILES IDX 5 1 3 2 2 3 1 4 21 5 19 6 18 7 16 8 15 9 14 10 13 11 6 12
REMARK SMILES IDX 7 13 8 14 9 15 12 16 11 17 10 18 4 20 20 22 17 24
REMARK H PARENT 10 19 4 21 20 23 17 25
REMARK Flexibility Score: inf
ROOT
ATOM      1  C   UNL     1     -32.138  16.394  57.323  1.00  0.00     0.180 A 
ATOM      2  C   UNL     1     -32.778  16.477  56.075  1.00  0.00     0.208 A 
ATOM      3  C   UNL     1     -33.955  15.740  55.863  1.00  0.00     0.238 A 
ATOM      4  O   UNL     1     -34.494  15.776  54.726  1.00  0.00    -0.285 OA
ATOM      5  C   UNL     1     -34.484  14.942  56.906  1.00  0.00     0.111 A 
ATOM      6  C   UNL     1     -35.691  14.185  56.815  1.00  0.00     0.134 A 
ATOM      7  C   UNL     1     -36.049  13.329  57.864  1.00  0.00     0.093 A 
ATOM      8  C   UNL     1     -35.279  13.253  59.027  1.00  0.00     0.123 A 
ATOM      9  C   UNL     1     -34.132  14.032  59.149  1.00  0.00     0.094 A 
ATOM     10  C   UNL     1     -33.728  14.869  58.105  1.00  0.00     0.146 A 
ATOM     11  O   UNL     1     -32.622  15.586  58.258  1.00  0.00    -0.452 OA
ENDROOT
BRANCH   1  12
ATOM     12  C   UNL     1     -30.909  17.161  57.630  1.00  0.00     0.021 A 
ATOM     13  C   UNL     1     -31.016  18.493  58.063  1.00  0.00     0.016 A 
ATOM     14  C   UNL     1     -29.867  19.244  58.337  1.00  0.00     0.047 A 
ATOM     15  C   UNL     1     -28.600  18.678  58.169  1.00  0.00     0.115 A 
ATOM     16  C   UNL     1     -29.630  16.604  57.443  1.00  0.00     0.016 A 
ATOM     17  C   UNL     1     -28.484  17.356  57.718  1.00  0.00     0.047 A 
BRANCH  15  18
ATOM     18  O   UNL     1     -27.465  19.436  58.447  1.00  0.00    -0.508 OA
ATOM     19  H   UNL     1     -26.545  19.141  58.143  1.00  0.00     0.293 HD
ENDBRANCH  15  18
ENDBRANCH   1  12
BRANCH   2  20
ATOM     20  O   UNL     1     -32.228  17.254  55.052  1.00  0.00    -0.502 OA
ATOM     21  H   UNL     1     -32.267  16.977  54.078  1.00  0.00     0.293 HD
ENDBRANCH   2  20
BRANCH   6  22
ATOM     22  O   UNL     1     -36.579  14.258  55.738  1.00  0.00    -0.507 OA
ATOM     23  H   UNL     1     -37.566  14.450  55.820  1.00  0.00     0.293 HD
ENDBRANCH   6  22
BRANCH   8  24
ATOM     24  O   UNL     1     -35.652  12.409  60.072  1.00  0.00    -0.508 OA
ATOM     25  H   UNL     1     -36.436  12.628  60.675  1.00  0.00     0.293 HD
ENDBRANCH   8  24
TORSDOF 5
ENDMDL
MODEL 7
REMARK VINA RESULT:    -7.332      1.978      6.895
REMARK INTER + INTRA:          -8.892
REMARK INTER:                  -8.603
REMARK INTRA:                  -0.289
REMARK UNBOUND:                -0.273
REMARK SMILES O=c1c(O)c(-c2ccc(O)cc2)oc2cc(O)cc(O)c12
REMARK SMILES IDX 5 1 3 2 2 3 1 4 21 5 19 6 18 7 16 8 15 9 14 10 13 11 6 12
REMARK SMILES IDX 7 13 8 14 9 15 12 16 11 17 10 18 4 20 20 22 17 24
REMARK H PARENT 10 19 4 21 20 23 17 25
REMARK Flexibility Score: inf
ROOT
ATOM      1  C   UNL     1     -31.749  16.342  56.357  1.00  0.00     0.180 A 
ATOM      2  C   UNL     1     -31.063  15.135  56.576  1.00  0.00     0.208 A 
ATOM      3  C   UNL     1     -31.727  13.921  56.335  1.00  0.00     0.238 A 
ATOM      4  O   UNL     1     -31.127  12.844  56.586  1.00  0.00    -0.285 OA
ATOM      5  C   UNL     1     -33.062  13.929  55.864  1.00  0.00     0.111 A 
ATOM      6  C   UNL     1     -33.818  12.760  55.548  1.00  0.00     0.134 A 
ATOM      7  C   UNL     1     -35.172  12.883  55.214  1.00  0.00     0.093 A 
ATOM      8  C   UNL     1     -35.780  14.137  55.121  1.00  0.00     0.123 A 
ATOM      9  C   UNL     1     -35.036  15.287  55.368  1.00  0.00     0.094 A 
ATOM     10  C   UNL     1     -33.691  15.195  55.739  1.00  0.00     0.146 A 
ATOM     11  O   UNL     1     -33.021  16.316  55.977  1.00  0.00    -0.452 OA
ENDROOT
BRANCH   1  12
ATOM     12  C   UNL     1     -31.108  17.661  56.563  1.00  0.00     0.021 A 
ATOM     13  C   UNL     1     -30.419  18.268  55.500  1.00  0.00     0.016 A 
ATOM     14  C   UNL     1     -29.787  19.504  55.679  1.00  0.00     0.047 A 
ATOM     15  C   UNL     1     -29.824  20.139  56.923  1.00  0.00     0.115 A 
ATOM     16  C   UNL     1     -31.124  18.295  57.819  1.00  0.00     0.016 A 
ATOM     17  C   UNL     1     -30.491  19.530  57.995  1.00  0.00     0.047 A 
BRANCH  15  18
ATOM     18  O   UNL     1     -29.191  21.369  57.087  1.00  0.00    -0.508 OA
ATOM     19  H   UNL     1     -29.578  22.086  57.689  1.00  0.00     0.293 HD
ENDBRANCH  15  18
ENDBRANCH   1  12
BRANCH   2  20
ATOM     20  O   UNL     1     -29.754  15.149  57.062  1.00  0.00    -0.502 OA
ATOM     21  H   UNL     1     -28.967  15.449  56.499  1.00  0.00     0.293 HD
ENDBRANCH   2  20
BRANCH   6  22
ATOM     22  O   UNL     1     -33.283  11.469  55.522  1.00  0.00    -0.507 OA
ATOM     23  H   UNL     1     -32.533  11.170  54.917  1.00  0.00     0.293 HD
ENDBRANCH   6  22
BRANCH   8  24
ATOM     24  O   UNL     1     -37.125  14.250  54.773  1.00  0.00    -0.508 OA
ATOM     25  H   UNL     1     -37.644  13.463  54.402  1.00  0.00     0.293 HD
ENDBRANCH   8  24
TORSDOF 5
ENDMDL
MODEL 8
REMARK VINA RESULT:    -7.052      2.126      7.668
REMARK INTER + INTRA:          -8.563
REMARK INTER:                  -8.350
REMARK INTRA:                  -0.213
REMARK UNBOUND:                -0.273
REMARK SMILES O=c1c(O)c(-c2ccc(O)cc2)oc2cc(O)cc(O)c12
REMARK SMILES IDX 5 1 3 2 2 3 1 4 21 5 19 6 18 7 16 8 15 9 14 10 13 11 6 12
REMARK SMILES IDX 7 13 8 14 9 15 12 16 11 17 10 18 4 20 20 22 17 24
REMARK H PARENT 10 19 4 21 20 23 17 25
REMARK Flexibility Score: inf
ROOT
ATOM      1  C   UNL     1     -32.820  15.280  57.486  1.00  0.00     0.180 A 
ATOM      2  C   UNL     1     -33.430  14.955  58.708  1.00  0.00     0.208 A 
ATOM      3  C   UNL     1     -34.480  14.023  58.719  1.00  0.00     0.238 A 
ATOM      4  O   UNL     1     -35.060  13.778  59.809  1.00  0.00    -0.285 OA
ATOM      5  C   UNL     1     -34.897  13.416  57.510  1.00  0.00     0.111 A 
ATOM      6  C   UNL     1     -35.923  12.429  57.409  1.00  0.00     0.134 A 
ATOM      7  C   UNL     1     -36.339  11.994  56.145  1.00  0.00     0.093 A 
ATOM      8  C   UNL     1     -35.722  12.461  54.982  1.00  0.00     0.123 A 
ATOM      9  C   UNL     1     -34.680  13.379  55.073  1.00  0.00     0.094 A 
ATOM     10  C   UNL     1     -34.266  13.860  56.319  1.00  0.00     0.146 A 
ATOM     11  O   UNL     1     -33.275  14.743  56.360  1.00  0.00    -0.452 OA
ENDROOT
BRANCH   1  12
ATOM     12  C   UNL     1     -31.690  16.234  57.397  1.00  0.00     0.021 A 
ATOM     13  C   UNL     1     -31.937  17.611  57.521  1.00  0.00     0.016 A 
ATOM     14  C   UNL     1     -30.888  18.531  57.419  1.00  0.00     0.047 A 
ATOM     15  C   UNL     1     -29.585  18.088  57.177  1.00  0.00     0.115 A 
ATOM     16  C   UNL     1     -30.379  15.795  57.135  1.00  0.00     0.016 A 
ATOM     17  C   UNL     1     -29.333  16.717  57.032  1.00  0.00     0.047 A 
BRANCH  15  18
ATOM     18  O   UNL     1     -28.550  19.015  57.079  1.00  0.00    -0.508 OA
ATOM     19  H   UNL     1     -28.477  19.797  57.718  1.00  0.00     0.293 HD
ENDBRANCH  15  18
ENDBRANCH   1  12
BRANCH   2  20
ATOM     20  O   UNL     1     -33.020  15.582  59.888  1.00  0.00    -0.502 OA
ATOM     21  H   UNL     1     -33.532  15.495  60.758  1.00  0.00     0.293 HD
ENDBRANCH   2  20
BRANCH   6  22
ATOM     22  O   UNL     1     -36.540  11.830  58.511  1.00  0.00    -0.507 OA
ATOM     23  H   UNL     1     -37.518  11.585  58.558  1.00  0.00     0.293 HD
ENDBRANCH   6  22
BRANCH   8  24
ATOM     24  O   UNL     1     -36.134  12.010  53.729  1.00  0.00    -0.508 OA
ATOM     25  H   UNL     1     -35.495  11.973  52.943  1.00  0.00     0.293 HD
ENDBRANCH   8  24
TORSDOF 5
ENDMDL
MODEL 9
REMARK VINA RESULT:    -6.743      1.880      2.057
REMARK INTER + INTRA:          -8.199
REMARK INTER:                  -8.677
REMARK INTRA:                   0.478
REMARK UNBOUND:                -0.273
REMARK SMILES O=c1c(O)c(-c2ccc(O)cc2)oc2cc(O)cc(O)c12
REMARK SMILES IDX 5 1 3 2 2 3 1 4 21 5 19 6 18 7 16 8 15 9 14 10 13 11 6 12
REMARK SMILES IDX 7 13 8 14 9 15 12 16 11 17 10 18 4 20 20 22 17 24
REMARK H PARENT 10 19 4 21 20 23 17 25
REMARK Flexibility Score: inf
ROOT
ATOM      1  C   UNL     1     -31.617  16.671  57.613  1.00  0.00     0.180 A 
ATOM      2  C   UNL     1     -30.958  16.697  56.372  1.00  0.00     0.208 A 
ATOM      3  C   UNL     1     -30.180  17.817  56.037  1.00  0.00     0.238 A 
ATOM      4  O   UNL     1     -29.638  17.859  54.902  1.00  0.00    -0.285 OA
ATOM      5  C   UNL     1     -30.057  18.889  56.953  1.00  0.00     0.111 A 
ATOM      6  C   UNL     1     -29.262  20.055  56.735  1.00  0.00     0.134 A 
ATOM      7  C   UNL     1     -29.319  21.110  57.654  1.00  0.00     0.093 A 
ATOM      8  C   UNL     1     -30.090  21.014  58.815  1.00  0.00     0.123 A 
ATOM      9  C   UNL     1     -30.821  19.857  59.066  1.00  0.00     0.094 A 
ATOM     10  C   UNL     1     -30.814  18.801  58.150  1.00  0.00     0.146 A 
ATOM     11  O   UNL     1     -31.535  17.720  58.423  1.00  0.00    -0.452 OA
ENDROOT
BRANCH   1  12
ATOM     12  C   UNL     1     -32.434  15.515  58.047  1.00  0.00     0.021 A 
ATOM     13  C   UNL     1     -32.274  14.276  57.406  1.00  0.00     0.016 A 
ATOM     14  C   UNL     1     -33.051  13.176  57.785  1.00  0.00     0.047 A 
ATOM     15  C   UNL     1     -34.006  13.305  58.798  1.00  0.00     0.115 A 
ATOM     16  C   UNL     1     -33.410  15.644  59.052  1.00  0.00     0.016 A 
ATOM     17  C   UNL     1     -34.186  14.543  59.429  1.00  0.00     0.047 A 
BRANCH  15  18
ATOM     18  O   UNL     1     -34.772  12.201  59.166  1.00  0.00    -0.508 OA
ATOM     19  H   UNL     1     -35.546  12.288  59.813  1.00  0.00     0.293 HD
ENDBRANCH  15  18
ENDBRANCH   1  12
BRANCH   2  20
ATOM     20  O   UNL     1     -31.111  15.639  55.473  1.00  0.00    -0.502 OA
ATOM     21  H   UNL     1     -30.701  15.648  54.546  1.00  0.00     0.293 HD
ENDBRANCH   2  20
BRANCH   6  22
ATOM     22  O   UNL     1     -28.388  20.213  55.656  1.00  0.00    -0.507 OA
ATOM     23  H   UNL     1     -27.384  20.129  55.713  1.00  0.00     0.293 HD
ENDBRANCH   6  22
BRANCH   8  24
ATOM     24  O   UNL     1     -30.127  22.064  59.731  1.00  0.00    -0.508 OA
ATOM     25  H   UNL     1     -30.761  22.846  59.616  1.00  0.00     0.293 HD
ENDBRANCH   8  24
TORSDOF 5
ENDMDL
