MODEL 1
REMARK VINA RESULT:    -6.156      0.000      0.000
REMARK INTER + INTRA:          -6.156
REMARK INTER:                  -6.156
REMARK INTRA:                   0.000
REMARK UNBOUND:                 0.000
REMARK SMILES C=C1CCC[C@@]2(C)CC(=O)C(=C(C)C)C[C@H]12
REMARK SMILES IDX 13 1 12 2 11 3 15 4 16 5 2 6 1 7 3 8 4 9 5 10 6 11 8 12 9 13
REMARK SMILES IDX 10 14 7 15 14 16
REMARK H PARENT
REMARK Flexibility Score: inf
ROOT
ATOM      1  C   UNL     1      13.122  -9.618  17.190  1.00  0.00     0.039 C 
ATOM      2  C   UNL     1      11.970 -10.213  17.969  1.00  0.00    -0.070 C 
ATOM      3  C   UNL     1      11.456 -11.438  17.649  1.00  0.00    -0.006 C 
ATOM      4  C   UNL     1      12.041 -12.260  16.508  1.00  0.00     0.047 C 
ATOM      5  C   UNL     1      11.862 -13.790  16.695  1.00  0.00     0.025 C 
ATOM      6  C   UNL     1      12.336 -14.638  15.511  1.00  0.00    -0.073 C 
ATOM      7  C   UNL     1      13.005 -14.141  14.453  1.00  0.00     0.008 C 
ATOM      8  C   UNL     1      12.057 -16.124  15.543  1.00  0.00     0.031 C 
ATOM      9  C   UNL     1      11.507 -16.563  16.901  1.00  0.00     0.005 C 
ATOM     10  C   UNL     1      10.270 -15.745  17.312  1.00  0.00     0.008 C 
ATOM     11  C   UNL     1      10.398 -14.191  17.081  1.00  0.00    -0.018 C 
ATOM     12  C   UNL     1      10.025 -13.462  18.396  1.00  0.00     0.088 C 
ATOM     13  C   UNL     1      10.232 -11.980  18.301  1.00  0.00     0.159 C 
ATOM     14  O   UNL     1       9.344 -11.216  18.767  1.00  0.00    -0.295 OA
ATOM     15  C   UNL     1       9.397 -13.778  15.966  1.00  0.00     0.012 C 
ATOM     16  C   UNL     1      11.445  -9.406  19.134  1.00  0.00     0.039 C 
ENDROOT
TORSDOF 0
ENDMDL
MODEL 2
REMARK VINA RESULT:    -5.977      3.505      6.066
REMARK INTER + INTRA:          -5.977
REMARK INTER:                  -5.977
REMARK INTRA:                   0.000
REMARK UNBOUND:                 0.000
REMARK SMILES C=C1CCC[C@@]2(C)CC(=O)C(=C(C)C)C[C@H]12
REMARK SMILES IDX 13 1 12 2 11 3 15 4 16 5 2 6 1 7 3 8 4 9 5 10 6 11 8 12 9 13
REMARK SMILES IDX 10 14 7 15 14 16
REMARK H PARENT
REMARK Flexibility Score: inf
ROOT
ATOM      1  C   UNL     1       9.757 -14.517  10.768  1.00  0.00     0.039 C 
ATOM      2  C   UNL     1      10.571 -15.689  11.268  1.00  0.00    -0.070 C 
ATOM      3  C   UNL     1      10.981 -15.764  12.569  1.00  0.00    -0.006 C 
ATOM      4  C   UNL     1      10.612 -14.678  13.571  1.00  0.00     0.047 C 
ATOM      5  C   UNL     1      10.526 -15.189  15.034  1.00  0.00     0.025 C 
ATOM      6  C   UNL     1      10.271 -14.098  16.078  1.00  0.00    -0.073 C 
ATOM      7  C   UNL     1       9.979 -12.820  15.771  1.00  0.00     0.008 C 
ATOM      8  C   UNL     1      10.328 -14.484  17.539  1.00  0.00     0.031 C 
ATOM      9  C   UNL     1      10.436 -16.000  17.715  1.00  0.00     0.005 C 
ATOM     10  C   UNL     1      11.619 -16.588  16.927  1.00  0.00     0.008 C 
ATOM     11  C   UNL     1      11.768 -16.046  15.455  1.00  0.00    -0.018 C 
ATOM     12  C   UNL     1      11.876 -17.253  14.490  1.00  0.00     0.088 C 
ATOM     13  C   UNL     1      11.904 -16.828  13.052  1.00  0.00     0.159 C 
ATOM     14  O   UNL     1      12.732 -17.378  12.276  1.00  0.00    -0.295 OA
ATOM     15  C   UNL     1      13.074 -15.207  15.372  1.00  0.00     0.012 C 
ATOM     16  C   UNL     1      10.874 -16.785  10.272  1.00  0.00     0.039 C 
ENDROOT
TORSDOF 0
ENDMDL
MODEL 3
REMARK VINA RESULT:    -5.765      1.763      2.298
REMARK INTER + INTRA:          -5.765
REMARK INTER:                  -5.765
REMARK INTRA:                   0.000
REMARK UNBOUND:                 0.000
REMARK SMILES C=C1CCC[C@@]2(C)CC(=O)C(=C(C)C)C[C@H]12
REMARK SMILES IDX 13 1 12 2 11 3 15 4 16 5 2 6 1 7 3 8 4 9 5 10 6 11 8 12 9 13
REMARK SMILES IDX 10 14 7 15 14 16
REMARK H PARENT
REMARK Flexibility Score: inf
ROOT
ATOM      1  C   UNL     1      11.297 -10.979  13.364  1.00  0.00     0.039 C 
ATOM      2  C   UNL     1      11.025 -11.110  14.846  1.00  0.00    -0.070 C 
ATOM      3  C   UNL     1      10.882 -12.335  15.435  1.00  0.00    -0.006 C 
ATOM      4  C   UNL     1      11.015 -13.616  14.623  1.00  0.00     0.047 C 
ATOM      5  C   UNL     1      11.506 -14.829  15.457  1.00  0.00     0.025 C 
ATOM      6  C   UNL     1      11.537 -16.158  14.695  1.00  0.00    -0.073 C 
ATOM      7  C   UNL     1      11.322 -16.268  13.371  1.00  0.00     0.008 C 
ATOM      8  C   UNL     1      11.853 -17.416  15.472  1.00  0.00     0.031 C 
ATOM      9  C   UNL     1      12.300 -17.096  16.900  1.00  0.00     0.005 C 
ATOM     10  C   UNL     1      11.278 -16.215  17.639  1.00  0.00     0.008 C 
ATOM     11  C   UNL     1      10.716 -15.007  16.799  1.00  0.00    -0.018 C 
ATOM     12  C   UNL     1      10.873 -13.709  17.630  1.00  0.00     0.088 C 
ATOM     13  C   UNL     1      10.469 -12.489  16.858  1.00  0.00     0.159 C 
ATOM     14  O   UNL     1       9.764 -11.616  17.433  1.00  0.00    -0.295 OA
ATOM     15  C   UNL     1       9.207 -15.260  16.525  1.00  0.00     0.012 C 
ATOM     16  C   UNL     1      10.958  -9.829  15.644  1.00  0.00     0.039 C 
ENDROOT
TORSDOF 0
ENDMDL
MODEL 4
REMARK VINA RESULT:    -5.589      3.789      5.917
REMARK INTER + INTRA:          -5.589
REMARK INTER:                  -5.589
REMARK INTRA:                   0.000
REMARK UNBOUND:                 0.000
REMARK SMILES C=C1CCC[C@@]2(C)CC(=O)C(=C(C)C)C[C@H]12
REMARK SMILES IDX 13 1 12 2 11 3 15 4 16 5 2 6 1 7 3 8 4 9 5 10 6 11 8 12 9 13
REMARK SMILES IDX 10 14 7 15 14 16
REMARK H PARENT
REMARK Flexibility Score: inf
ROOT
ATOM      1  C   UNL     1      11.122 -16.022  17.005  1.00  0.00     0.039 C 
ATOM      2  C   UNL     1      10.609 -15.250  15.810  1.00  0.00    -0.070 C 
ATOM      3  C   UNL     1      10.882 -15.655  14.534  1.00  0.00    -0.006 C 
ATOM      4  C   UNL     1      11.693 -16.915  14.268  1.00  0.00     0.047 C 
ATOM      5  C   UNL     1      11.349 -17.598  12.918  1.00  0.00     0.025 C 
ATOM      6  C   UNL     1      12.230 -18.802  12.568  1.00  0.00    -0.073 C 
ATOM      7  C   UNL     1      13.125 -19.347  13.413  1.00  0.00     0.008 C 
ATOM      8  C   UNL     1      12.067 -19.430  11.202  1.00  0.00     0.031 C 
ATOM      9  C   UNL     1      10.861 -18.852  10.459  1.00  0.00     0.005 C 
ATOM     10  C   UNL     1      10.920 -17.317  10.374  1.00  0.00     0.008 C 
ATOM     11  C   UNL     1      11.323 -16.595  11.715  1.00  0.00    -0.018 C 
ATOM     12  C   UNL     1      10.274 -15.497  12.022  1.00  0.00     0.088 C 
ATOM     13  C   UNL     1      10.517 -14.835  13.345  1.00  0.00     0.159 C 
ATOM     14  O   UNL     1      10.421 -13.580  13.419  1.00  0.00    -0.295 OA
ATOM     15  C   UNL     1      12.714 -15.931  11.515  1.00  0.00     0.012 C 
ATOM     16  C   UNL     1       9.755 -14.036  16.097  1.00  0.00     0.039 C 
ENDROOT
TORSDOF 0
ENDMDL
MODEL 5
REMARK VINA RESULT:    -5.518      3.093      4.337
REMARK INTER + INTRA:          -5.518
REMARK INTER:                  -5.518
REMARK INTRA:                   0.000
REMARK UNBOUND:                 0.000
REMARK SMILES C=C1CCC[C@@]2(C)CC(=O)C(=C(C)C)C[C@H]12
REMARK SMILES IDX 13 1 12 2 11 3 15 4 16 5 2 6 1 7 3 8 4 9 5 10 6 11 8 12 9 13
REMARK SMILES IDX 10 14 7 15 14 16
REMARK H PARENT
REMARK Flexibility Score: inf
ROOT
ATOM      1  C   UNL     1      10.875  -9.053  13.765  1.00  0.00     0.039 C 
ATOM      2  C   UNL     1      10.925 -10.379  13.040  1.00  0.00    -0.070 C 
ATOM      3  C   UNL     1      10.991 -11.560  13.724  1.00  0.00    -0.006 C 
ATOM      4  C   UNL     1      10.993 -11.585  15.247  1.00  0.00     0.047 C 
ATOM      5  C   UNL     1      10.395 -12.886  15.845  1.00  0.00     0.025 C 
ATOM      6  C   UNL     1      10.490 -12.991  17.370  1.00  0.00    -0.073 C 
ATOM      7  C   UNL     1      10.901 -11.986  18.167  1.00  0.00     0.008 C 
ATOM      8  C   UNL     1      10.074 -14.290  18.022  1.00  0.00     0.031 C 
ATOM      9  C   UNL     1       9.417 -15.237  17.016  1.00  0.00     0.005 C 
ATOM     10  C   UNL     1      10.309 -15.479  15.786  1.00  0.00     0.008 C 
ATOM     11  C   UNL     1      10.978 -14.183  15.188  1.00  0.00    -0.018 C 
ATOM     12  C   UNL     1      10.687 -14.131  13.668  1.00  0.00     0.088 C 
ATOM     13  C   UNL     1      11.190 -12.867  13.038  1.00  0.00     0.159 C 
ATOM     14  O   UNL     1      11.792 -12.941  11.932  1.00  0.00    -0.295 OA
ATOM     15  C   UNL     1      12.513 -14.277  15.412  1.00  0.00     0.012 C 
ATOM     16  C   UNL     1      10.860 -10.335  11.531  1.00  0.00     0.039 C 
ENDROOT
TORSDOF 0
ENDMDL
MODEL 6
REMARK VINA RESULT:    -5.423      2.933      4.784
REMARK INTER + INTRA:          -5.423
REMARK INTER:                  -5.423
REMARK INTRA:                   0.000
REMARK UNBOUND:                 0.000
REMARK SMILES C=C1CCC[C@@]2(C)CC(=O)C(=C(C)C)C[C@H]12
REMARK SMILES IDX 13 1 12 2 11 3 15 4 16 5 2 6 1 7 3 8 4 9 5 10 6 11 8 12 9 13
REMARK SMILES IDX 10 14 7 15 14 16
REMARK H PARENT
REMARK Flexibility Score: inf
ROOT
ATOM      1  C   UNL     1       9.791 -15.657  17.458  1.00  0.00     0.039 C 
ATOM      2  C   UNL     1      10.242 -14.271  17.056  1.00  0.00    -0.070 C 
ATOM      3  C   UNL     1      10.589 -13.984  15.766  1.00  0.00    -0.006 C 
ATOM      4  C   UNL     1      10.510 -15.048  14.678  1.00  0.00     0.047 C 
ATOM      5  C   UNL     1      10.256 -14.466  13.262  1.00  0.00     0.025 C 
ATOM      6  C   UNL     1      10.288 -15.499  12.132  1.00  0.00    -0.073 C 
ATOM      7  C   UNL     1      10.363 -16.828  12.333  1.00  0.00     0.008 C 
ATOM      8  C   UNL     1      10.206 -14.998  10.708  1.00  0.00     0.031 C 
ATOM      9  C   UNL     1       9.891 -13.502  10.656  1.00  0.00     0.005 C 
ATOM     10  C   UNL     1      10.884 -12.676  11.491  1.00  0.00     0.008 C 
ATOM     11  C   UNL     1      11.207 -13.271  12.914  1.00  0.00    -0.018 C 
ATOM     12  C   UNL     1      11.001 -12.161  13.974  1.00  0.00     0.088 C 
ATOM     13  C   UNL     1      11.175 -12.673  15.373  1.00  0.00     0.159 C 
ATOM     14  O   UNL     1      11.837 -11.980  16.192  1.00  0.00    -0.295 OA
ATOM     15  C   UNL     1      12.695 -13.723  12.930  1.00  0.00     0.012 C 
ATOM     16  C   UNL     1      10.255 -13.216  18.138  1.00  0.00     0.039 C 
ENDROOT
TORSDOF 0
ENDMDL
MODEL 7
REMARK VINA RESULT:    -5.408      2.165      4.515
REMARK INTER + INTRA:          -5.408
REMARK INTER:                  -5.408
REMARK INTRA:                   0.000
REMARK UNBOUND:                 0.000
REMARK SMILES C=C1CCC[C@@]2(C)CC(=O)C(=C(C)C)C[C@H]12
REMARK SMILES IDX 13 1 12 2 11 3 15 4 16 5 2 6 1 7 3 8 4 9 5 10 6 11 8 12 9 13
REMARK SMILES IDX 10 14 7 15 14 16
REMARK H PARENT
REMARK Flexibility Score: inf
ROOT
ATOM      1  C   UNL     1      10.842 -16.291  16.524  1.00  0.00     0.039 C 
ATOM      2  C   UNL     1      10.284 -15.033  17.150  1.00  0.00    -0.070 C 
ATOM      3  C   UNL     1      10.596 -13.797  16.657  1.00  0.00    -0.006 C 
ATOM      4  C   UNL     1      11.501 -13.643  15.441  1.00  0.00     0.047 C 
ATOM      5  C   UNL     1      11.219 -12.357  14.621  1.00  0.00     0.025 C 
ATOM      6  C   UNL     1      12.188 -12.115  13.459  1.00  0.00    -0.073 C 
ATOM      7  C   UNL     1      13.114 -13.006  13.057  1.00  0.00     0.008 C 
ATOM      8  C   UNL     1      12.083 -10.809  12.705  1.00  0.00     0.031 C 
ATOM      9  C   UNL     1      10.844 -10.016  13.126  1.00  0.00     0.005 C 
ATOM     10  C   UNL     1      10.790  -9.797  14.648  1.00  0.00     0.008 C 
ATOM     11  C   UNL     1      11.128 -11.072  15.511  1.00  0.00    -0.018 C 
ATOM     12  C   UNL     1       9.999 -11.280  16.551  1.00  0.00     0.088 C 
ATOM     13  C   UNL     1      10.182 -12.541  17.341  1.00  0.00     0.159 C 
ATOM     14  O   UNL     1       9.993 -12.505  18.588  1.00  0.00    -0.295 OA
ATOM     15  C   UNL     1      12.469 -10.817  16.256  1.00  0.00     0.012 C 
ATOM     16  C   UNL     1       9.341 -15.212  18.317  1.00  0.00     0.039 C 
ENDROOT
TORSDOF 0
ENDMDL
MODEL 8
REMARK VINA RESULT:    -5.370     16.469     18.511
REMARK INTER + INTRA:          -5.370
REMARK INTER:                  -5.370
REMARK INTRA:                   0.000
REMARK UNBOUND:                 0.000
REMARK SMILES C=C1CCC[C@@]2(C)CC(=O)C(=C(C)C)C[C@H]12
REMARK SMILES IDX 13 1 12 2 11 3 15 4 16 5 2 6 1 7 3 8 4 9 5 10 6 11 8 12 9 13
REMARK SMILES IDX 10 14 7 15 14 16
REMARK H PARENT
REMARK Flexibility Score: inf
ROOT
ATOM      1  C   UNL     1       1.100 -27.769  10.018  1.00  0.00     0.039 C 
ATOM      2  C   UNL     1       1.490 -26.642  10.947  1.00  0.00    -0.070 C 
ATOM      3  C   UNL     1       0.864 -26.465  12.149  1.00  0.00    -0.006 C 
ATOM      4  C   UNL     1      -0.236 -27.413  12.607  1.00  0.00     0.047 C 
ATOM      5  C   UNL     1      -0.351 -27.527  14.150  1.00  0.00     0.025 C 
ATOM      6  C   UNL     1      -1.523 -28.382  14.643  1.00  0.00    -0.073 C 
ATOM      7  C   UNL     1      -2.305 -29.119  13.832  1.00  0.00     0.008 C 
ATOM      8  C   UNL     1      -1.801 -28.419  16.128  1.00  0.00     0.031 C 
ATOM      9  C   UNL     1      -0.694 -27.727  16.925  1.00  0.00     0.005 C 
ATOM     10  C   UNL     1      -0.441 -26.292  16.431  1.00  0.00     0.008 C 
ATOM     11  C   UNL     1      -0.376 -26.133  14.865  1.00  0.00    -0.018 C 
ATOM     12  C   UNL     1       0.924 -25.375  14.497  1.00  0.00     0.088 C 
ATOM     13  C   UNL     1       1.125 -25.281  13.014  1.00  0.00     0.159 C 
ATOM     14  O   UNL     1       1.500 -24.181  12.524  1.00  0.00    -0.295 OA
ATOM     15  C   UNL     1      -1.603 -25.296  14.406  1.00  0.00     0.012 C 
ATOM     16  C   UNL     1       2.625 -25.750  10.500  1.00  0.00     0.039 C 
ENDROOT
TORSDOF 0
ENDMDL
MODEL 9
REMARK VINA RESULT:    -3.612      1.871      5.382
REMARK INTER + INTRA:          -3.612
REMARK INTER:                  -3.612
REMARK INTRA:                   0.000
REMARK UNBOUND:                 0.000
REMARK SMILES C=C1CCC[C@@]2(C)CC(=O)C(=C(C)C)C[C@H]12
REMARK SMILES IDX 13 1 12 2 11 3 15 4 16 5 2 6 1 7 3 8 4 9 5 10 6 11 8 12 9 13
REMARK SMILES IDX 10 14 7 15 14 16
REMARK H PARENT
REMARK Flexibility Score: inf
ROOT
ATOM      1  C   UNL     1       9.383 -15.615  17.998  1.00  0.00     0.039 C 
ATOM      2  C   UNL     1      10.563 -15.416  17.073  1.00  0.00    -0.070 C 
ATOM      3  C   UNL     1      11.011 -14.165  16.754  1.00  0.00    -0.006 C 
ATOM      4  C   UNL     1      10.350 -12.923  17.337  1.00  0.00     0.047 C 
ATOM      5  C   UNL     1      11.311 -11.712  17.461  1.00  0.00     0.025 C 
ATOM      6  C   UNL     1      10.648 -10.415  17.935  1.00  0.00    -0.073 C 
ATOM      7  C   UNL     1       9.377 -10.340  18.373  1.00  0.00     0.008 C 
ATOM      8  C   UNL     1      11.476  -9.150  17.934  1.00  0.00     0.031 C 
ATOM      9  C   UNL     1      12.948  -9.443  17.638  1.00  0.00     0.005 C 
ATOM     10  C   UNL     1      13.125 -10.237  16.332  1.00  0.00     0.008 C 
ATOM     11  C   UNL     1      12.124 -11.441  16.149  1.00  0.00    -0.018 C 
ATOM     12  C   UNL     1      12.938 -12.715  15.810  1.00  0.00     0.088 C 
ATOM     13  C   UNL     1      12.072 -13.937  15.734  1.00  0.00     0.159 C 
ATOM     14  O   UNL     1      12.253 -14.747  14.785  1.00  0.00    -0.295 OA
ATOM     15  C   UNL     1      11.173 -11.112  14.964  1.00  0.00     0.012 C 
ATOM     16  C   UNL     1      11.242 -16.662  16.554  1.00  0.00     0.039 C 
ENDROOT
TORSDOF 0
ENDMDL
