MODEL 1
REMARK VINA RESULT:    -4.692      0.000      0.000
REMARK INTER + INTRA:          -6.799
REMARK INTER:                  -6.338
REMARK INTRA:                  -0.461
REMARK UNBOUND:                -0.461
REMARK SMILES C[C@@H](O)[C@@H](O)[C@H](O)[C@H](O)C=O
REMARK SMILES IDX 4 1 2 2 1 3 3 4 6 6 8 7 10 8 11 9 9 10 7 12 5 14
REMARK H PARENT 3 5 9 11 7 13 5 15
REMARK Flexibility Score: inf
ROOT
ATOM      1  C   UNL     1      58.583  35.149  81.175  1.00  0.00     0.174 C 
ENDROOT
BRANCH   1   2
ATOM      2  C   UNL     1      57.968  34.086  80.214  1.00  0.00     0.142 C 
ATOM      3  C   UNL     1      59.015  33.463  79.279  1.00  0.00     0.041 C 
BRANCH   2   4
ATOM      4  O   UNL     1      57.287  33.088  80.932  1.00  0.00    -0.391 OA
ATOM      5  H   UNL     1      56.713  32.603  80.282  1.00  0.00     0.211 HD
ENDBRANCH   2   4
ENDBRANCH   1   2
BRANCH   1   6
ATOM      6  C   UNL     1      58.473  36.639  80.727  1.00  0.00     0.181 C 
BRANCH   6   7
ATOM      7  C   UNL     1      58.863  36.870  79.243  1.00  0.00     0.209 C 
BRANCH   7   8
ATOM      8  C   UNL     1      58.402  38.220  78.757  1.00  0.00     0.258 C 
ATOM      9  O   UNL     1      57.266  38.375  78.336  1.00  0.00    -0.300 OA
ENDBRANCH   7   8
BRANCH   7  10
ATOM     10  O   UNL     1      60.257  36.796  79.096  1.00  0.00    -0.383 OA
ATOM     11  H   UNL     1      60.641  36.739  80.011  1.00  0.00     0.211 HD
ENDBRANCH   7  10
ENDBRANCH   6   7
BRANCH   6  12
ATOM     12  O   UNL     1      57.136  37.039  80.924  1.00  0.00    -0.387 OA
ATOM     13  H   UNL     1      56.995  37.877  80.411  1.00  0.00     0.211 HD
ENDBRANCH   6  12
ENDBRANCH   1   6
BRANCH   1  14
ATOM     14  O   UNL     1      59.937  34.837  81.399  1.00  0.00    -0.388 OA
ATOM     15  H   UNL     1      59.986  33.869  81.625  1.00  0.00     0.211 HD
ENDBRANCH   1  14
TORSDOF 8
ENDMDL
MODEL 2
REMARK VINA RESULT:    -4.636      1.399      2.281
REMARK INTER + INTRA:          -6.723
REMARK INTER:                  -6.285
REMARK INTRA:                  -0.438
REMARK UNBOUND:                -0.461
REMARK SMILES C[C@@H](O)[C@@H](O)[C@H](O)[C@H](O)C=O
REMARK SMILES IDX 4 1 2 2 1 3 3 4 6 6 8 7 10 8 11 9 9 10 7 12 5 14
REMARK H PARENT 3 5 9 11 7 13 5 15
REMARK Flexibility Score: inf
ROOT
ATOM      1  C   UNL     1      57.730  34.589  80.038  1.00  0.00     0.174 C 
ENDROOT
BRANCH   1   2
ATOM      2  C   UNL     1      58.014  34.271  78.538  1.00  0.00     0.142 C 
ATOM      3  C   UNL     1      58.046  32.762  78.253  1.00  0.00     0.041 C 
BRANCH   2   4
ATOM      4  O   UNL     1      57.090  34.915  77.700  1.00  0.00    -0.391 OA
ATOM      5  H   UNL     1      56.194  34.542  77.914  1.00  0.00     0.211 HD
ENDBRANCH   2   4
ENDBRANCH   1   2
BRANCH   1   6
ATOM      6  C   UNL     1      58.710  35.581  80.737  1.00  0.00     0.181 C 
BRANCH   6   7
ATOM      7  C   UNL     1      58.209  37.050  80.736  1.00  0.00     0.209 C 
BRANCH   7   8
ATOM      8  C   UNL     1      58.595  37.762  79.464  1.00  0.00     0.258 C 
ATOM      9  O   UNL     1      57.820  37.817  78.523  1.00  0.00    -0.300 OA
ENDBRANCH   7   8
BRANCH   7  10
ATOM     10  O   UNL     1      56.812  37.081  80.858  1.00  0.00    -0.383 OA
ATOM     11  H   UNL     1      56.563  36.376  81.512  1.00  0.00     0.211 HD
ENDBRANCH   7  10
ENDBRANCH   6   7
BRANCH   6  12
ATOM     12  O   UNL     1      58.872  35.145  82.067  1.00  0.00    -0.387 OA
ATOM     13  H   UNL     1      59.841  35.189  82.281  1.00  0.00     0.211 HD
ENDBRANCH   6  12
ENDBRANCH   1   6
BRANCH   1  14
ATOM     14  O   UNL     1      57.701  33.385  80.766  1.00  0.00    -0.388 OA
ATOM     15  H   UNL     1      57.079  33.515  81.531  1.00  0.00     0.211 HD
ENDBRANCH   1  14
TORSDOF 8
ENDMDL
MODEL 3
REMARK VINA RESULT:    -4.353      1.706      3.804
REMARK INTER + INTRA:          -6.340
REMARK INTER:                  -6.041
REMARK INTRA:                  -0.299
REMARK UNBOUND:                -0.461
REMARK SMILES C[C@@H](O)[C@@H](O)[C@H](O)[C@H](O)C=O
REMARK SMILES IDX 4 1 2 2 1 3 3 4 6 6 8 7 10 8 11 9 9 10 7 12 5 14
REMARK H PARENT 3 5 9 11 7 13 5 15
REMARK Flexibility Score: inf
ROOT
ATOM      1  C   UNL     1      58.661  35.559  80.756  1.00  0.00     0.174 C 
ENDROOT
BRANCH   1   2
ATOM      2  C   UNL     1      58.259  37.066  80.781  1.00  0.00     0.142 C 
ATOM      3  C   UNL     1      58.642  37.798  79.487  1.00  0.00     0.041 C 
BRANCH   2   4
ATOM      4  O   UNL     1      56.889  37.221  81.053  1.00  0.00    -0.391 OA
ATOM      5  H   UNL     1      56.805  37.957  81.714  1.00  0.00     0.211 HD
ENDBRANCH   2   4
ENDBRANCH   1   2
BRANCH   1   6
ATOM      6  C   UNL     1      57.725  34.604  79.953  1.00  0.00     0.181 C 
BRANCH   6   7
ATOM      7  C   UNL     1      58.195  34.359  78.495  1.00  0.00     0.209 C 
BRANCH   7   8
ATOM      8  C   UNL     1      58.668  32.941  78.300  1.00  0.00     0.258 C 
ATOM      9  O   UNL     1      57.927  32.099  77.818  1.00  0.00    -0.300 OA
ENDBRANCH   7   8
BRANCH   7  10
ATOM     10  O   UNL     1      57.139  34.602  77.603  1.00  0.00    -0.383 OA
ATOM     11  H   UNL     1      57.439  34.292  76.708  1.00  0.00     0.211 HD
ENDBRANCH   7  10
ENDBRANCH   6   7
BRANCH   6  12
ATOM     12  O   UNL     1      57.687  33.376  80.642  1.00  0.00    -0.387 OA
ATOM     13  H   UNL     1      58.576  33.240  81.064  1.00  0.00     0.211 HD
ENDBRANCH   6  12
ENDBRANCH   1   6
BRANCH   1  14
ATOM     14  O   UNL     1      58.768  35.091  82.079  1.00  0.00    -0.388 OA
ATOM     15  H   UNL     1      59.726  34.883  82.244  1.00  0.00     0.211 HD
ENDBRANCH   1  14
TORSDOF 8
ENDMDL
MODEL 4
REMARK VINA RESULT:    -4.286      1.177      2.369
REMARK INTER + INTRA:          -6.250
REMARK INTER:                  -5.571
REMARK INTRA:                  -0.679
REMARK UNBOUND:                -0.461
REMARK SMILES C[C@@H](O)[C@@H](O)[C@H](O)[C@H](O)C=O
REMARK SMILES IDX 4 1 2 2 1 3 3 4 6 6 8 7 10 8 11 9 9 10 7 12 5 14
REMARK H PARENT 3 5 9 11 7 13 5 15
REMARK Flexibility Score: inf
ROOT
ATOM      1  C   UNL     1      58.060  35.984  80.274  1.00  0.00     0.174 C 
ENDROOT
BRANCH   1   2
ATOM      2  C   UNL     1      58.718  34.655  80.758  1.00  0.00     0.142 C 
ATOM      3  C   UNL     1      59.033  33.699  79.598  1.00  0.00     0.041 C 
BRANCH   2   4
ATOM      4  O   UNL     1      59.872  34.910  81.519  1.00  0.00    -0.391 OA
ATOM      5  H   UNL     1      60.460  34.114  81.430  1.00  0.00     0.211 HD
ENDBRANCH   2   4
ENDBRANCH   1   2
BRANCH   1   6
ATOM      6  C   UNL     1      58.689  36.653  79.014  1.00  0.00     0.181 C 
BRANCH   6   7
ATOM      7  C   UNL     1      58.036  38.011  78.642  1.00  0.00     0.209 C 
BRANCH   7   8
ATOM      8  C   UNL     1      58.254  38.346  77.189  1.00  0.00     0.258 C 
ATOM      9  O   UNL     1      59.111  37.769  76.539  1.00  0.00    -0.300 OA
ENDBRANCH   7   8
BRANCH   7  10
ATOM     10  O   UNL     1      56.655  37.962  78.886  1.00  0.00    -0.383 OA
ATOM     11  H   UNL     1      56.402  38.834  79.289  1.00  0.00     0.211 HD
ENDBRANCH   7  10
ENDBRANCH   6   7
BRANCH   6  12
ATOM     12  O   UNL     1      60.057  36.853  79.284  1.00  0.00    -0.387 OA
ATOM     13  H   UNL     1      60.174  36.842  80.270  1.00  0.00     0.211 HD
ENDBRANCH   6  12
ENDBRANCH   1   6
BRANCH   1  14
ATOM     14  O   UNL     1      58.061  36.909  81.334  1.00  0.00    -0.388 OA
ATOM     15  H   UNL     1      58.239  36.402  82.171  1.00  0.00     0.211 HD
ENDBRANCH   1  14
TORSDOF 8
ENDMDL
MODEL 5
REMARK VINA RESULT:    -4.256      1.463      2.284
REMARK INTER + INTRA:          -6.210
REMARK INTER:                  -5.677
REMARK INTRA:                  -0.533
REMARK UNBOUND:                -0.461
REMARK SMILES C[C@@H](O)[C@@H](O)[C@H](O)[C@H](O)C=O
REMARK SMILES IDX 4 1 2 2 1 3 3 4 6 6 8 7 10 8 11 9 9 10 7 12 5 14
REMARK H PARENT 3 5 9 11 7 13 5 15
REMARK Flexibility Score: inf
ROOT
ATOM      1  C   UNL     1      58.940  36.584  80.241  1.00  0.00     0.174 C 
ENDROOT
BRANCH   1   2
ATOM      2  C   UNL     1      58.541  35.168  80.759  1.00  0.00     0.142 C 
ATOM      3  C   UNL     1      59.137  34.040  79.903  1.00  0.00     0.041 C 
BRANCH   2   4
ATOM      4  O   UNL     1      58.893  35.005  82.109  1.00  0.00    -0.391 OA
ATOM      5  H   UNL     1      58.177  34.463  82.533  1.00  0.00     0.211 HD
ENDBRANCH   2   4
ENDBRANCH   1   2
BRANCH   1   6
ATOM      6  C   UNL     1      57.773  37.505  79.768  1.00  0.00     0.181 C 
BRANCH   6   7
ATOM      7  C   UNL     1      57.656  37.612  78.224  1.00  0.00     0.209 C 
BRANCH   7   8
ATOM      8  C   UNL     1      56.618  36.661  77.684  1.00  0.00     0.258 C 
ATOM      9  O   UNL     1      56.872  35.475  77.550  1.00  0.00    -0.300 OA
ENDBRANCH   7   8
BRANCH   7  10
ATOM     10  O   UNL     1      57.295  38.919  77.860  1.00  0.00    -0.383 OA
ATOM     11  H   UNL     1      56.805  38.853  76.998  1.00  0.00     0.211 HD
ENDBRANCH   7  10
ENDBRANCH   6   7
BRANCH   6  12
ATOM     12  O   UNL     1      56.578  36.971  80.289  1.00  0.00    -0.387 OA
ATOM     13  H   UNL     1      56.793  36.553  81.165  1.00  0.00     0.211 HD
ENDBRANCH   6  12
ENDBRANCH   1   6
BRANCH   1  14
ATOM     14  O   UNL     1      59.868  36.445  79.192  1.00  0.00    -0.388 OA
ATOM     15  H   UNL     1      59.706  37.187  78.551  1.00  0.00     0.211 HD
ENDBRANCH   1  14
TORSDOF 8
ENDMDL
MODEL 6
REMARK VINA RESULT:    -4.223      1.146      3.780
REMARK INTER + INTRA:          -6.165
REMARK INTER:                  -5.613
REMARK INTRA:                  -0.551
REMARK UNBOUND:                -0.461
REMARK SMILES C[C@@H](O)[C@@H](O)[C@H](O)[C@H](O)C=O
REMARK SMILES IDX 4 1 2 2 1 3 3 4 6 6 8 7 10 8 11 9 9 10 7 12 5 14
REMARK H PARENT 3 5 9 11 7 13 5 15
REMARK Flexibility Score: inf
ROOT
ATOM      1  C   UNL     1      58.685  36.465  78.910  1.00  0.00     0.174 C 
ENDROOT
BRANCH   1   2
ATOM      2  C   UNL     1      58.029  37.726  78.270  1.00  0.00     0.142 C 
ATOM      3  C   UNL     1      57.880  37.603  76.746  1.00  0.00     0.041 C 
BRANCH   2   4
ATOM      4  O   UNL     1      56.790  38.011  78.868  1.00  0.00    -0.391 OA
ATOM      5  H   UNL     1      56.974  38.265  79.811  1.00  0.00     0.211 HD
ENDBRANCH   2   4
ENDBRANCH   1   2
BRANCH   1   6
ATOM      6  C   UNL     1      57.926  35.818  80.109  1.00  0.00     0.181 C 
BRANCH   6   7
ATOM      7  C   UNL     1      58.486  34.431  80.522  1.00  0.00     0.209 C 
BRANCH   7   8
ATOM      8  C   UNL     1      58.744  33.561  79.318  1.00  0.00     0.258 C 
ATOM      9  O   UNL     1      57.827  32.978  78.764  1.00  0.00    -0.300 OA
ENDBRANCH   7   8
BRANCH   7  10
ATOM     10  O   UNL     1      59.691  34.590  81.224  1.00  0.00    -0.383 OA
ATOM     11  H   UNL     1      60.203  33.746  81.112  1.00  0.00     0.211 HD
ENDBRANCH   7  10
ENDBRANCH   6   7
BRANCH   6  12
ATOM     12  O   UNL     1      58.028  36.705  81.199  1.00  0.00    -0.387 OA
ATOM     13  H   UNL     1      58.495  36.226  81.933  1.00  0.00     0.211 HD
ENDBRANCH   6  12
ENDBRANCH   1   6
BRANCH   1  14
ATOM     14  O   UNL     1      59.995  36.784  79.315  1.00  0.00    -0.388 OA
ATOM     15  H   UNL     1      59.933  37.198  80.218  1.00  0.00     0.211 HD
ENDBRANCH   1  14
TORSDOF 8
ENDMDL
MODEL 7
REMARK VINA RESULT:    -4.088      1.852      2.903
REMARK INTER + INTRA:          -5.983
REMARK INTER:                  -5.390
REMARK INTRA:                  -0.593
REMARK UNBOUND:                -0.461
REMARK SMILES C[C@@H](O)[C@@H](O)[C@H](O)[C@H](O)C=O
REMARK SMILES IDX 4 1 2 2 1 3 3 4 6 6 8 7 10 8 11 9 9 10 7 12 5 14
REMARK H PARENT 3 5 9 11 7 13 5 15
REMARK Flexibility Score: inf
ROOT
ATOM      1  C   UNL     1      57.970  34.895  78.116  1.00  0.00     0.174 C 
ENDROOT
BRANCH   1   2
ATOM      2  C   UNL     1      58.312  33.553  78.834  1.00  0.00     0.142 C 
ATOM      3  C   UNL     1      58.396  32.370  77.858  1.00  0.00     0.041 C 
BRANCH   2   4
ATOM      4  O   UNL     1      59.496  33.666  79.581  1.00  0.00    -0.391 OA
ATOM      5  H   UNL     1      60.242  33.761  78.931  1.00  0.00     0.211 HD
ENDBRANCH   2   4
ENDBRANCH   1   2
BRANCH   1   6
ATOM      6  C   UNL     1      57.379  36.030  79.009  1.00  0.00     0.181 C 
BRANCH   6   7
ATOM      7  C   UNL     1      58.461  36.892  79.712  1.00  0.00     0.209 C 
BRANCH   7   8
ATOM      8  C   UNL     1      58.466  36.661  81.202  1.00  0.00     0.258 C 
ATOM      9  O   UNL     1      58.946  35.642  81.671  1.00  0.00    -0.300 OA
ENDBRANCH   7   8
BRANCH   7  10
ATOM     10  O   UNL     1      59.732  36.574  79.208  1.00  0.00    -0.383 OA
ATOM     11  H   UNL     1      59.591  36.141  78.325  1.00  0.00     0.211 HD
ENDBRANCH   7  10
ENDBRANCH   6   7
BRANCH   6  12
ATOM     12  O   UNL     1      56.596  36.854  78.177  1.00  0.00    -0.387 OA
ATOM     13  H   UNL     1      55.653  36.551  78.256  1.00  0.00     0.211 HD
ENDBRANCH   6  12
ENDBRANCH   1   6
BRANCH   1  14
ATOM     14  O   UNL     1      57.081  34.636  77.056  1.00  0.00    -0.388 OA
ATOM     15  H   UNL     1      56.513  35.444  76.941  1.00  0.00     0.211 HD
ENDBRANCH   1  14
TORSDOF 8
ENDMDL
MODEL 8
REMARK VINA RESULT:    -4.061      2.099      3.049
REMARK INTER + INTRA:          -5.946
REMARK INTER:                  -5.598
REMARK INTRA:                  -0.348
REMARK UNBOUND:                -0.461
REMARK SMILES C[C@@H](O)[C@@H](O)[C@H](O)[C@H](O)C=O
REMARK SMILES IDX 4 1 2 2 1 3 3 4 6 6 8 7 10 8 11 9 9 10 7 12 5 14
REMARK H PARENT 3 5 9 11 7 13 5 15
REMARK Flexibility Score: inf
ROOT
ATOM      1  C   UNL     1      57.662  33.772  78.536  1.00  0.00     0.174 C 
ENDROOT
BRANCH   1   2
ATOM      2  C   UNL     1      57.673  34.292  77.066  1.00  0.00     0.142 C 
ATOM      3  C   UNL     1      57.795  33.154  76.041  1.00  0.00     0.041 C 
BRANCH   2   4
ATOM      4  O   UNL     1      56.541  35.081  76.799  1.00  0.00    -0.391 OA
ATOM      5  H   UNL     1      56.103  35.264  77.671  1.00  0.00     0.211 HD
ENDBRANCH   2   4
ENDBRANCH   1   2
BRANCH   1   6
ATOM      6  C   UNL     1      58.602  34.508  79.540  1.00  0.00     0.181 C 
BRANCH   6   7
ATOM      7  C   UNL     1      58.695  36.037  79.295  1.00  0.00     0.209 C 
BRANCH   7   8
ATOM      8  C   UNL     1      57.744  36.796  80.186  1.00  0.00     0.258 C 
ATOM      9  O   UNL     1      58.109  37.210  81.275  1.00  0.00    -0.300 OA
ENDBRANCH   7   8
BRANCH   7  10
ATOM     10  O   UNL     1      60.000  36.486  79.552  1.00  0.00    -0.383 OA
ATOM     11  H   UNL     1      59.928  37.438  79.826  1.00  0.00     0.211 HD
ENDBRANCH   7  10
ENDBRANCH   6   7
BRANCH   6  12
ATOM     12  O   UNL     1      58.099  34.274  80.835  1.00  0.00    -0.387 OA
ATOM     13  H   UNL     1      57.155  33.978  80.742  1.00  0.00     0.211 HD
ENDBRANCH   6  12
ENDBRANCH   1   6
BRANCH   1  14
ATOM     14  O   UNL     1      57.971  32.399  78.540  1.00  0.00    -0.388 OA
ATOM     15  H   UNL     1      58.960  32.318  78.596  1.00  0.00     0.211 HD
ENDBRANCH   1  14
TORSDOF 8
ENDMDL
MODEL 9
REMARK VINA RESULT:    -4.044      1.779      3.855
REMARK INTER + INTRA:          -5.923
REMARK INTER:                  -5.094
REMARK INTRA:                  -0.828
REMARK UNBOUND:                -0.461
REMARK SMILES C[C@@H](O)[C@@H](O)[C@H](O)[C@H](O)C=O
REMARK SMILES IDX 4 1 2 2 1 3 3 4 6 6 8 7 10 8 11 9 9 10 7 12 5 14
REMARK H PARENT 3 5 9 11 7 13 5 15
REMARK Flexibility Score: inf
ROOT
ATOM      1  C   UNL     1      58.015  37.431  78.050  1.00  0.00     0.174 C 
ENDROOT
BRANCH   1   2
ATOM      2  C   UNL     1      57.229  36.131  77.699  1.00  0.00     0.142 C 
ATOM      3  C   UNL     1      56.265  36.326  76.520  1.00  0.00     0.041 C 
BRANCH   2   4
ATOM      4  O   UNL     1      58.105  35.060  77.452  1.00  0.00    -0.391 OA
ATOM      5  H   UNL     1      58.824  35.404  76.858  1.00  0.00     0.211 HD
ENDBRANCH   2   4
ENDBRANCH   1   2
BRANCH   1   6
ATOM      6  C   UNL     1      58.846  37.406  79.369  1.00  0.00     0.181 C 
BRANCH   6   7
ATOM      7  C   UNL     1      58.176  36.595  80.509  1.00  0.00     0.209 C 
BRANCH   7   8
ATOM      8  C   UNL     1      59.034  35.432  80.936  1.00  0.00     0.258 C 
ATOM      9  O   UNL     1      59.078  34.413  80.266  1.00  0.00    -0.300 OA
ENDBRANCH   7   8
BRANCH   7  10
ATOM     10  O   UNL     1      57.959  37.421  81.623  1.00  0.00    -0.383 OA
ATOM     11  H   UNL     1      57.474  36.875  82.297  1.00  0.00     0.211 HD
ENDBRANCH   7  10
ENDBRANCH   6   7
BRANCH   6  12
ATOM     12  O   UNL     1      60.098  36.835  79.067  1.00  0.00    -0.387 OA
ATOM     13  H   UNL     1      60.434  37.268  78.238  1.00  0.00     0.211 HD
ENDBRANCH   6  12
ENDBRANCH   1   6
BRANCH   1  14
ATOM     14  O   UNL     1      57.116  38.513  78.094  1.00  0.00    -0.388 OA
ATOM     15  H   UNL     1      56.202  38.136  78.198  1.00  0.00     0.211 HD
ENDBRANCH   1  14
TORSDOF 8
ENDMDL
