MODEL 1
REMARK VINA RESULT:    -7.391      0.000      0.000
REMARK INTER + INTRA:          -8.346
REMARK INTER:                  -8.039
REMARK INTRA:                  -0.307
REMARK UNBOUND:                -0.307
REMARK SMILES C[C@H]1[C@H]2C3=CC[C@H]4[C@@]5(C)CC[C@@H](O)C(C)(C)[C@@H]5CC[C@@]4(C)[C@]3(C)CC[C@@]2(C(=O)[O-])CC[C@@H]1C
REMARK SMILES IDX 26 1 30 2 25 3 3 4 31 5 24 6 4 7 2 8 32 9 22 10 5 11 1 12
REMARK SMILES IDX 33 13 23 14 20 15 6 16 7 17 19 18 21 19 8 20 18 21 17 22
REMARK SMILES IDX 10 23 9 24 14 25 11 26 12 27 15 28 16 29 27 30 28 31 29 32
REMARK SMILES IDX 13 33
REMARK H PARENT 13 34
REMARK Flexibility Score: inf
ROOT
ATOM      1  C   UNL     1      73.217  47.393   7.765  1.00  0.00     0.017 C 
ATOM      2  C   UNL     1      73.240  48.939   7.571  1.00  0.00     0.014 C 
ATOM      3  C   UNL     1      74.050  46.763   6.624  1.00  0.00     0.014 C 
ATOM      4  C   UNL     1      71.732  46.830   7.755  1.00  0.00     0.030 C 
ATOM      5  C   UNL     1      72.131  49.605   8.374  1.00  0.00     0.004 C 
ATOM      6  C   UNL     1      74.092  45.243   6.750  1.00  0.00     0.013 C 
ATOM      7  C   UNL     1      71.574  45.386   7.209  1.00  0.00    -0.063 C 
ATOM      8  C   UNL     1      70.669  47.829   7.155  1.00  0.00    -0.003 C 
ATOM      9  C   UNL     1      70.749  49.266   7.783  1.00  0.00    -0.011 C 
ATOM     10  C   UNL     1      72.697  44.573   6.519  1.00  0.00    -0.006 C 
ATOM     11  C   UNL     1      70.362  44.806   7.320  1.00  0.00    -0.027 C 
ATOM     12  C   UNL     1      70.660  47.880   5.617  1.00  0.00     0.008 C 
ATOM     13  C   UNL     1      69.666  49.473   8.853  1.00  0.00     0.008 C 
ATOM     14  C   UNL     1      72.436  44.655   4.973  1.00  0.00     0.017 C 
ATOM     15  C   UNL     1      72.680  43.032   7.055  1.00  0.00    -0.020 C 
ATOM     16  C   UNL     1      70.085  43.448   6.756  1.00  0.00     0.032 C 
ATOM     17  C   UNL     1      71.173  42.447   7.211  1.00  0.00     0.006 C 
ATOM     18  C   UNL     1      73.620  42.170   6.130  1.00  0.00     0.008 C 
ATOM     19  C   UNL     1      73.305  42.960   8.490  1.00  0.00     0.012 C 
ATOM     20  C   UNL     1      70.895  40.900   6.833  1.00  0.00    -0.025 C 
ATOM     21  C   UNL     1      73.337  40.679   6.136  1.00  0.00     0.005 C 
ATOM     22  C   UNL     1      71.876  40.441   5.700  1.00  0.00     0.003 C 
ATOM     23  C   UNL     1      69.434  40.677   6.317  1.00  0.00     0.010 C 
ATOM     24  C   UNL     1      71.039  40.061   8.146  1.00  0.00     0.012 C 
ATOM     25  C   UNL     1      71.616  39.025   5.031  1.00  0.00    -0.006 C 
ATOM     26  C   UNL     1      69.163  39.260   5.794  1.00  0.00     0.033 C 
ATOM     27  C   UNL     1      70.105  38.892   4.641  1.00  0.00     0.120 C 
ATOM     28  C   UNL     1      72.039  37.821   5.922  1.00  0.00     0.014 C 
ATOM     29  C   UNL     1      72.449  38.910   3.719  1.00  0.00     0.014 C 
ENDROOT
BRANCH   1  30
ATOM     30  C   UNL     1      73.912  47.084   9.100  1.00  0.00     0.048 C 
ATOM     31  O   UNL     1      75.125  47.386   9.266  1.00  0.00    -0.550 OA
ATOM     32  O   UNL     1      73.256  46.404  10.121  1.00  0.00    -0.550 OA
ENDBRANCH   1  30
BRANCH  27  33
ATOM     33  O   UNL     1      69.798  39.722   3.544  1.00  0.00    -0.393 OA
ATOM     34  H   UNL     1      70.452  40.471   3.542  1.00  0.00     0.210 HD
ENDBRANCH  27  33
TORSDOF 2
ENDMDL
MODEL 2
REMARK VINA RESULT:    -6.766      1.669      7.829
REMARK INTER + INTRA:          -7.666
REMARK INTER:                  -7.344
REMARK INTRA:                  -0.323
REMARK UNBOUND:                -0.307
REMARK SMILES C[C@H]1[C@H]2C3=CC[C@H]4[C@@]5(C)CC[C@@H](O)C(C)(C)[C@@H]5CC[C@@]4(C)[C@]3(C)CC[C@@]2(C(=O)[O-])CC[C@@H]1C
REMARK SMILES IDX 26 1 30 2 25 3 3 4 31 5 24 6 4 7 2 8 32 9 22 10 5 11 1 12
REMARK SMILES IDX 33 13 23 14 20 15 6 16 7 17 19 18 21 19 8 20 18 21 17 22
REMARK SMILES IDX 10 23 9 24 14 25 11 26 12 27 15 28 16 29 27 30 28 31 29 32
REMARK SMILES IDX 13 33
REMARK H PARENT 13 34
REMARK Flexibility Score: inf
ROOT
ATOM      1  C   UNL     1      72.764  39.924   6.321  1.00  0.00     0.017 C 
ATOM      2  C   UNL     1      72.457  38.409   6.521  1.00  0.00     0.014 C 
ATOM      3  C   UNL     1      73.481  40.431   7.594  1.00  0.00     0.014 C 
ATOM      4  C   UNL     1      71.436  40.753   6.054  1.00  0.00     0.030 C 
ATOM      5  C   UNL     1      71.405  37.930   5.530  1.00  0.00     0.004 C 
ATOM      6  C   UNL     1      73.833  41.911   7.472  1.00  0.00     0.013 C 
ATOM      7  C   UNL     1      71.459  42.221   6.556  1.00  0.00    -0.063 C 
ATOM      8  C   UNL     1      70.111  39.993   6.451  1.00  0.00    -0.003 C 
ATOM      9  C   UNL     1      70.030  38.543   5.854  1.00  0.00    -0.011 C 
ATOM     10  C   UNL     1      72.572  42.836   7.439  1.00  0.00    -0.006 C 
ATOM     11  C   UNL     1      70.419  43.012   6.221  1.00  0.00    -0.027 C 
ATOM     12  C   UNL     1      69.816  40.004   7.962  1.00  0.00     0.008 C 
ATOM     13  C   UNL     1      69.138  38.500   4.603  1.00  0.00     0.008 C 
ATOM     14  C   UNL     1      72.025  42.865   8.911  1.00  0.00     0.017 C 
ATOM     15  C   UNL     1      72.946  44.332   6.904  1.00  0.00    -0.020 C 
ATOM     16  C   UNL     1      70.308  44.418   6.720  1.00  0.00     0.032 C 
ATOM     17  C   UNL     1      71.630  45.181   6.470  1.00  0.00     0.006 C 
ATOM     18  C   UNL     1      73.849  45.039   7.983  1.00  0.00     0.008 C 
ATOM     19  C   UNL     1      73.822  44.232   5.608  1.00  0.00     0.012 C 
ATOM     20  C   UNL     1      71.587  46.766   6.785  1.00  0.00    -0.025 C 
ATOM     21  C   UNL     1      73.860  46.556   7.920  1.00  0.00     0.005 C 
ATOM     22  C   UNL     1      72.417  47.078   8.077  1.00  0.00     0.003 C 
ATOM     23  C   UNL     1      70.127  47.277   7.021  1.00  0.00     0.010 C 
ATOM     24  C   UNL     1      72.123  47.512   5.518  1.00  0.00     0.012 C 
ATOM     25  C   UNL     1      72.314  48.543   8.682  1.00  0.00    -0.006 C 
ATOM     26  C   UNL     1      70.040  48.739   7.480  1.00  0.00     0.033 C 
ATOM     27  C   UNL     1      70.811  48.969   8.785  1.00  0.00     0.120 C 
ATOM     28  C   UNL     1      73.111  49.611   7.880  1.00  0.00     0.014 C 
ATOM     29  C   UNL     1      72.903  48.551  10.125  1.00  0.00     0.014 C 
ENDROOT
BRANCH   1  30
ATOM     30  C   UNL     1      73.733  40.046   5.136  1.00  0.00     0.048 C 
ATOM     31  O   UNL     1      73.425  40.750   4.136  1.00  0.00    -0.550 OA
ATOM     32  O   UNL     1      74.927  39.332   5.095  1.00  0.00    -0.550 OA
ENDBRANCH   1  30
BRANCH  27  33
ATOM     33  O   UNL     1      70.158  48.253   9.810  1.00  0.00    -0.393 OA
ATOM     34  H   UNL     1      70.713  48.331  10.631  1.00  0.00     0.210 HD
ENDBRANCH  27  33
TORSDOF 2
ENDMDL
MODEL 3
REMARK VINA RESULT:    -6.667      2.302      7.939
REMARK INTER + INTRA:          -7.559
REMARK INTER:                  -7.233
REMARK INTRA:                  -0.326
REMARK UNBOUND:                -0.307
REMARK SMILES C[C@H]1[C@H]2C3=CC[C@H]4[C@@]5(C)CC[C@@H](O)C(C)(C)[C@@H]5CC[C@@]4(C)[C@]3(C)CC[C@@]2(C(=O)[O-])CC[C@@H]1C
REMARK SMILES IDX 26 1 30 2 25 3 3 4 31 5 24 6 4 7 2 8 32 9 22 10 5 11 1 12
REMARK SMILES IDX 33 13 23 14 20 15 6 16 7 17 19 18 21 19 8 20 18 21 17 22
REMARK SMILES IDX 10 23 9 24 14 25 11 26 12 27 15 28 16 29 27 30 28 31 29 32
REMARK SMILES IDX 13 33
REMARK H PARENT 13 34
REMARK Flexibility Score: inf
ROOT
ATOM      1  C   UNL     1      70.695  39.200   7.494  1.00  0.00     0.017 C 
ATOM      2  C   UNL     1      70.168  37.793   7.078  1.00  0.00     0.014 C 
ATOM      3  C   UNL     1      69.482  40.158   7.551  1.00  0.00     0.014 C 
ATOM      4  C   UNL     1      71.788  39.734   6.474  1.00  0.00     0.030 C 
ATOM      5  C   UNL     1      71.308  36.906   6.596  1.00  0.00     0.004 C 
ATOM      6  C   UNL     1      69.911  41.562   7.969  1.00  0.00     0.013 C 
ATOM      7  C   UNL     1      71.844  41.276   6.309  1.00  0.00    -0.063 C 
ATOM      8  C   UNL     1      71.806  38.972   5.092  1.00  0.00    -0.003 C 
ATOM      9  C   UNL     1      71.861  37.411   5.250  1.00  0.00    -0.011 C 
ATOM     10  C   UNL     1      70.812  42.267   6.901  1.00  0.00    -0.006 C 
ATOM     11  C   UNL     1      72.851  41.789   5.574  1.00  0.00    -0.027 C 
ATOM     12  C   UNL     1      70.690  39.408   4.126  1.00  0.00     0.008 C 
ATOM     13  C   UNL     1      73.287  36.875   5.045  1.00  0.00     0.008 C 
ATOM     14  C   UNL     1      69.847  42.675   5.732  1.00  0.00     0.017 C 
ATOM     15  C   UNL     1      71.580  43.561   7.533  1.00  0.00    -0.020 C 
ATOM     16  C   UNL     1      72.950  43.256   5.291  1.00  0.00     0.032 C 
ATOM     17  C   UNL     1      72.812  44.064   6.602  1.00  0.00     0.006 C 
ATOM     18  C   UNL     1      70.510  44.672   7.850  1.00  0.00     0.008 C 
ATOM     19  C   UNL     1      72.226  43.180   8.908  1.00  0.00     0.012 C 
ATOM     20  C   UNL     1      73.092  45.651   6.471  1.00  0.00    -0.025 C 
ATOM     21  C   UNL     1      71.055  46.085   7.941  1.00  0.00     0.005 C 
ATOM     22  C   UNL     1      71.748  46.446   6.611  1.00  0.00     0.003 C 
ATOM     23  C   UNL     1      73.723  46.022   5.087  1.00  0.00     0.010 C 
ATOM     24  C   UNL     1      74.147  46.035   7.561  1.00  0.00     0.012 C 
ATOM     25  C   UNL     1      71.775  48.000   6.287  1.00  0.00    -0.006 C 
ATOM     26  C   UNL     1      73.863  47.532   4.846  1.00  0.00     0.033 C 
ATOM     27  C   UNL     1      72.508  48.245   4.925  1.00  0.00     0.120 C 
ATOM     28  C   UNL     1      72.432  48.863   7.402  1.00  0.00     0.014 C 
ATOM     29  C   UNL     1      70.315  48.523   6.134  1.00  0.00     0.014 C 
ENDROOT
BRANCH   1  30
ATOM     30  C   UNL     1      71.280  39.074   8.909  1.00  0.00     0.048 C 
ATOM     31  O   UNL     1      72.496  39.339   9.116  1.00  0.00    -0.550 OA
ATOM     32  O   UNL     1      70.520  38.597   9.972  1.00  0.00    -0.550 OA
ENDBRANCH   1  30
BRANCH  27  33
ATOM     33  O   UNL     1      71.717  47.801   3.846  1.00  0.00    -0.393 OA
ATOM     34  H   UNL     1      70.832  47.533   4.212  1.00  0.00     0.210 HD
ENDBRANCH  27  33
TORSDOF 2
ENDMDL
MODEL 4
REMARK VINA RESULT:    -6.449      1.889      8.126
REMARK INTER + INTRA:          -7.322
REMARK INTER:                  -7.003
REMARK INTRA:                  -0.319
REMARK UNBOUND:                -0.307
REMARK SMILES C[C@H]1[C@H]2C3=CC[C@H]4[C@@]5(C)CC[C@@H](O)C(C)(C)[C@@H]5CC[C@@]4(C)[C@]3(C)CC[C@@]2(C(=O)[O-])CC[C@@H]1C
REMARK SMILES IDX 26 1 30 2 25 3 3 4 31 5 24 6 4 7 2 8 32 9 22 10 5 11 1 12
REMARK SMILES IDX 33 13 23 14 20 15 6 16 7 17 19 18 21 19 8 20 18 21 17 22
REMARK SMILES IDX 10 23 9 24 14 25 11 26 12 27 15 28 16 29 27 30 28 31 29 32
REMARK SMILES IDX 13 33
REMARK H PARENT 13 34
REMARK Flexibility Score: inf
ROOT
ATOM      1  C   UNL     1      70.534  39.273   6.368  1.00  0.00     0.017 C 
ATOM      2  C   UNL     1      70.523  37.964   5.523  1.00  0.00     0.014 C 
ATOM      3  C   UNL     1      69.638  40.306   5.645  1.00  0.00     0.014 C 
ATOM      4  C   UNL     1      72.009  39.834   6.546  1.00  0.00     0.030 C 
ATOM      5  C   UNL     1      71.679  37.053   5.915  1.00  0.00     0.004 C 
ATOM      6  C   UNL     1      69.581  41.620   6.420  1.00  0.00     0.013 C 
ATOM      7  C   UNL     1      72.120  41.377   6.675  1.00  0.00    -0.063 C 
ATOM      8  C   UNL     1      73.055  39.230   5.532  1.00  0.00    -0.003 C 
ATOM      9  C   UNL     1      73.025  37.661   5.477  1.00  0.00    -0.011 C 
ATOM     10  C   UNL     1      70.954  42.370   6.449  1.00  0.00    -0.006 C 
ATOM     11  C   UNL     1      73.328  41.892   6.981  1.00  0.00    -0.027 C 
ATOM     12  C   UNL     1      72.989  39.850   4.125  1.00  0.00     0.008 C 
ATOM     13  C   UNL     1      74.162  37.047   6.310  1.00  0.00     0.008 C 
ATOM     14  C   UNL     1      71.140  42.974   5.012  1.00  0.00     0.017 C 
ATOM     15  C   UNL     1      70.975  43.527   7.600  1.00  0.00    -0.020 C 
ATOM     16  C   UNL     1      73.558  43.369   7.051  1.00  0.00     0.032 C 
ATOM     17  C   UNL     1      72.480  44.037   7.936  1.00  0.00     0.006 C 
ATOM     18  C   UNL     1      69.980  44.672   7.177  1.00  0.00     0.008 C 
ATOM     19  C   UNL     1      70.420  42.950   8.947  1.00  0.00     0.012 C 
ATOM     20  C   UNL     1      72.718  45.604   8.256  1.00  0.00    -0.025 C 
ATOM     21  C   UNL     1      70.242  46.023   7.818  1.00  0.00     0.005 C 
ATOM     22  C   UNL     1      71.676  46.475   7.474  1.00  0.00     0.003 C 
ATOM     23  C   UNL     1      74.149  46.077   7.833  1.00  0.00     0.010 C 
ATOM     24  C   UNL     1      72.627  45.787   9.808  1.00  0.00     0.012 C 
ATOM     25  C   UNL     1      71.884  48.049   7.476  1.00  0.00    -0.006 C 
ATOM     26  C   UNL     1      74.375  47.589   7.967  1.00  0.00     0.033 C 
ATOM     27  C   UNL     1      73.373  48.388   7.125  1.00  0.00     0.120 C 
ATOM     28  C   UNL     1      71.489  48.733   8.815  1.00  0.00     0.014 C 
ATOM     29  C   UNL     1      70.986  48.692   6.376  1.00  0.00     0.014 C 
ENDROOT
BRANCH   1  30
ATOM     30  C   UNL     1      69.901  38.950   7.730  1.00  0.00     0.048 C 
ATOM     31  O   UNL     1      68.750  38.438   7.787  1.00  0.00    -0.550 OA
ATOM     32  O   UNL     1      70.536  39.278   8.923  1.00  0.00    -0.550 OA
ENDBRANCH   1  30
BRANCH  27  33
ATOM     33  O   UNL     1      73.637  48.125   5.765  1.00  0.00    -0.393 OA
ATOM     34  H   UNL     1      73.211  48.846   5.231  1.00  0.00     0.210 HD
ENDBRANCH  27  33
TORSDOF 2
ENDMDL
MODEL 5
REMARK VINA RESULT:    -6.430      1.916      3.174
REMARK INTER + INTRA:          -7.301
REMARK INTER:                  -6.975
REMARK INTRA:                  -0.326
REMARK UNBOUND:                -0.307
REMARK SMILES C[C@H]1[C@H]2C3=CC[C@H]4[C@@]5(C)CC[C@@H](O)C(C)(C)[C@@H]5CC[C@@]4(C)[C@]3(C)CC[C@@]2(C(=O)[O-])CC[C@@H]1C
REMARK SMILES IDX 26 1 30 2 25 3 3 4 31 5 24 6 4 7 2 8 32 9 22 10 5 11 1 12
REMARK SMILES IDX 33 13 23 14 20 15 6 16 7 17 19 18 21 19 8 20 18 21 17 22
REMARK SMILES IDX 10 23 9 24 14 25 11 26 12 27 15 28 16 29 27 30 28 31 29 32
REMARK SMILES IDX 13 33
REMARK H PARENT 13 34
REMARK Flexibility Score: inf
ROOT
ATOM      1  C   UNL     1      73.067  46.155   7.880  1.00  0.00     0.017 C 
ATOM      2  C   UNL     1      74.121  47.278   7.644  1.00  0.00     0.014 C 
ATOM      3  C   UNL     1      73.727  45.070   8.761  1.00  0.00     0.014 C 
ATOM      4  C   UNL     1      72.564  45.536   6.506  1.00  0.00     0.030 C 
ATOM      5  C   UNL     1      73.721  48.163   6.471  1.00  0.00     0.004 C 
ATOM      6  C   UNL     1      72.751  43.933   9.055  1.00  0.00     0.013 C 
ATOM      7  C   UNL     1      72.148  44.043   6.565  1.00  0.00    -0.063 C 
ATOM      8  C   UNL     1      73.493  45.863   5.274  1.00  0.00    -0.003 C 
ATOM      9  C   UNL     1      73.828  47.391   5.142  1.00  0.00    -0.011 C 
ATOM     10  C   UNL     1      72.375  43.108   7.779  1.00  0.00    -0.006 C 
ATOM     11  C   UNL     1      71.572  43.511   5.468  1.00  0.00    -0.027 C 
ATOM     12  C   UNL     1      74.760  44.994   5.201  1.00  0.00     0.008 C 
ATOM     13  C   UNL     1      72.950  48.071   4.079  1.00  0.00     0.008 C 
ATOM     14  C   UNL     1      73.636  42.231   7.452  1.00  0.00     0.017 C 
ATOM     15  C   UNL     1      71.049  42.191   8.033  1.00  0.00    -0.020 C 
ATOM     16  C   UNL     1      71.206  42.062   5.396  1.00  0.00     0.032 C 
ATOM     17  C   UNL     1      70.396  41.651   6.648  1.00  0.00     0.006 C 
ATOM     18  C   UNL     1      71.413  41.059   9.066  1.00  0.00     0.008 C 
ATOM     19  C   UNL     1      69.929  43.050   8.714  1.00  0.00     0.012 C 
ATOM     20  C   UNL     1      69.771  40.160   6.611  1.00  0.00    -0.025 C 
ATOM     21  C   UNL     1      70.511  39.840   9.030  1.00  0.00     0.005 C 
ATOM     22  C   UNL     1      70.541  39.232   7.612  1.00  0.00     0.003 C 
ATOM     23  C   UNL     1      69.875  39.516   5.188  1.00  0.00     0.010 C 
ATOM     24  C   UNL     1      68.246  40.281   6.938  1.00  0.00     0.012 C 
ATOM     25  C   UNL     1      70.228  37.676   7.562  1.00  0.00    -0.006 C 
ATOM     26  C   UNL     1      69.442  38.045   5.132  1.00  0.00     0.033 C 
ATOM     27  C   UNL     1      70.276  37.173   6.079  1.00  0.00     0.120 C 
ATOM     28  C   UNL     1      68.867  37.287   8.206  1.00  0.00     0.014 C 
ATOM     29  C   UNL     1      71.323  36.900   8.354  1.00  0.00     0.014 C 
ENDROOT
BRANCH   1  30
ATOM     30  C   UNL     1      71.900  46.774   8.663  1.00  0.00     0.048 C 
ATOM     31  O   UNL     1      70.737  46.767   8.175  1.00  0.00    -0.550 OA
ATOM     32  O   UNL     1      72.100  47.420   9.878  1.00  0.00    -0.550 OA
ENDBRANCH   1  30
BRANCH  27  33
ATOM     33  O   UNL     1      71.602  37.155   5.601  1.00  0.00    -0.393 OA
ATOM     34  H   UNL     1      71.672  36.421   4.935  1.00  0.00     0.210 HD
ENDBRANCH  27  33
TORSDOF 2
ENDMDL
MODEL 6
REMARK VINA RESULT:    -6.131      2.616      3.993
REMARK INTER + INTRA:          -6.976
REMARK INTER:                  -6.650
REMARK INTRA:                  -0.326
REMARK UNBOUND:                -0.307
REMARK SMILES C[C@H]1[C@H]2C3=CC[C@H]4[C@@]5(C)CC[C@@H](O)C(C)(C)[C@@H]5CC[C@@]4(C)[C@]3(C)CC[C@@]2(C(=O)[O-])CC[C@@H]1C
REMARK SMILES IDX 26 1 30 2 25 3 3 4 31 5 24 6 4 7 2 8 32 9 22 10 5 11 1 12
REMARK SMILES IDX 33 13 23 14 20 15 6 16 7 17 19 18 21 19 8 20 18 21 17 22
REMARK SMILES IDX 10 23 9 24 14 25 11 26 12 27 15 28 16 29 27 30 28 31 29 32
REMARK SMILES IDX 13 33
REMARK H PARENT 13 34
REMARK Flexibility Score: inf
ROOT
ATOM      1  C   UNL     1      68.909  46.067   8.871  1.00  0.00     0.017 C 
ATOM      2  C   UNL     1      69.108  47.505   9.436  1.00  0.00     0.014 C 
ATOM      3  C   UNL     1      69.436  45.070   9.928  1.00  0.00     0.014 C 
ATOM      4  C   UNL     1      69.670  45.879   7.489  1.00  0.00     0.030 C 
ATOM      5  C   UNL     1      69.014  48.545   8.327  1.00  0.00     0.004 C 
ATOM      6  C   UNL     1      69.263  43.628   9.456  1.00  0.00     0.013 C 
ATOM      7  C   UNL     1      70.177  44.440   7.203  1.00  0.00    -0.063 C 
ATOM      8  C   UNL     1      70.762  46.980   7.200  1.00  0.00    -0.003 C 
ATOM      9  C   UNL     1      70.224  48.444   7.380  1.00  0.00    -0.011 C 
ATOM     10  C   UNL     1      70.164  43.278   8.225  1.00  0.00    -0.006 C 
ATOM     11  C   UNL     1      70.693  44.192   5.982  1.00  0.00    -0.027 C 
ATOM     12  C   UNL     1      72.083  46.761   7.958  1.00  0.00     0.008 C 
ATOM     13  C   UNL     1      69.875  49.085   6.028  1.00  0.00     0.008 C 
ATOM     14  C   UNL     1      71.624  43.147   8.789  1.00  0.00     0.017 C 
ATOM     15  C   UNL     1      69.670  41.902   7.500  1.00  0.00    -0.020 C 
ATOM     16  C   UNL     1      71.280  42.860   5.632  1.00  0.00     0.032 C 
ATOM     17  C   UNL     1      70.300  41.726   6.012  1.00  0.00     0.006 C 
ATOM     18  C   UNL     1      69.950  40.694   8.471  1.00  0.00     0.008 C 
ATOM     19  C   UNL     1      68.117  41.936   7.292  1.00  0.00     0.012 C 
ATOM     20  C   UNL     1      70.723  40.248   5.515  1.00  0.00    -0.025 C 
ATOM     21  C   UNL     1      70.049  39.337   7.800  1.00  0.00     0.005 C 
ATOM     22  C   UNL     1      71.170  39.378   6.741  1.00  0.00     0.003 C 
ATOM     23  C   UNL     1      71.913  40.289   4.500  1.00  0.00     0.010 C 
ATOM     24  C   UNL     1      69.501  39.641   4.748  1.00  0.00     0.012 C 
ATOM     25  C   UNL     1      71.837  37.969   6.439  1.00  0.00    -0.006 C 
ATOM     26  C   UNL     1      72.461  38.907   4.118  1.00  0.00     0.033 C 
ATOM     27  C   UNL     1      72.948  38.131   5.347  1.00  0.00     0.120 C 
ATOM     28  C   UNL     1      70.822  36.875   6.000  1.00  0.00     0.014 C 
ATOM     29  C   UNL     1      72.525  37.433   7.731  1.00  0.00     0.014 C 
ENDROOT
BRANCH   1  30
ATOM     30  C   UNL     1      67.400  45.842   8.700  1.00  0.00     0.048 C 
ATOM     31  O   UNL     1      66.920  45.606   7.558  1.00  0.00    -0.550 OA
ATOM     32  O   UNL     1      66.520  45.967   9.770  1.00  0.00    -0.550 OA
ENDBRANCH   1  30
BRANCH  27  33
ATOM     33  O   UNL     1      74.069  38.806   5.873  1.00  0.00    -0.393 OA
ATOM     34  H   UNL     1      74.770  38.818   5.168  1.00  0.00     0.210 HD
ENDBRANCH  27  33
TORSDOF 2
ENDMDL
MODEL 7
REMARK VINA RESULT:    -5.971      2.343      7.758
REMARK INTER + INTRA:          -6.802
REMARK INTER:                  -6.476
REMARK INTRA:                  -0.326
REMARK UNBOUND:                -0.307
REMARK SMILES C[C@H]1[C@H]2C3=CC[C@H]4[C@@]5(C)CC[C@@H](O)C(C)(C)[C@@H]5CC[C@@]4(C)[C@]3(C)CC[C@@]2(C(=O)[O-])CC[C@@H]1C
REMARK SMILES IDX 26 1 30 2 25 3 3 4 31 5 24 6 4 7 2 8 32 9 22 10 5 11 1 12
REMARK SMILES IDX 33 13 23 14 20 15 6 16 7 17 19 18 21 19 8 20 18 21 17 22
REMARK SMILES IDX 10 23 9 24 14 25 11 26 12 27 15 28 16 29 27 30 28 31 29 32
REMARK SMILES IDX 13 33
REMARK H PARENT 13 34
REMARK Flexibility Score: inf
ROOT
ATOM      1  C   UNL     1      72.784  39.965   7.031  1.00  0.00     0.017 C 
ATOM      2  C   UNL     1      72.447  38.472   6.738  1.00  0.00     0.014 C 
ATOM      3  C   UNL     1      71.754  40.486   8.060  1.00  0.00     0.014 C 
ATOM      4  C   UNL     1      72.747  40.838   5.705  1.00  0.00     0.030 C 
ATOM      5  C   UNL     1      73.123  38.002   5.457  1.00  0.00     0.004 C 
ATOM      6  C   UNL     1      72.025  41.946   8.416  1.00  0.00     0.013 C 
ATOM      7  C   UNL     1      72.331  42.320   5.898  1.00  0.00    -0.063 C 
ATOM      8  C   UNL     1      71.999  40.147   4.500  1.00  0.00    -0.003 C 
ATOM      9  C   UNL     1      72.492  38.681   4.226  1.00  0.00    -0.011 C 
ATOM     10  C   UNL     1      71.782  42.920   7.215  1.00  0.00    -0.006 C 
ATOM     11  C   UNL     1      72.430  43.140   4.833  1.00  0.00    -0.027 C 
ATOM     12  C   UNL     1      70.464  40.222   4.594  1.00  0.00     0.008 C 
ATOM     13  C   UNL     1      73.478  38.631   3.048  1.00  0.00     0.008 C 
ATOM     14  C   UNL     1      70.223  43.022   7.057  1.00  0.00     0.017 C 
ATOM     15  C   UNL     1      72.459  44.380   7.489  1.00  0.00    -0.020 C 
ATOM     16  C   UNL     1      71.981  44.567   4.894  1.00  0.00     0.032 C 
ATOM     17  C   UNL     1      72.587  45.266   6.133  1.00  0.00     0.006 C 
ATOM     18  C   UNL     1      71.671  45.087   8.655  1.00  0.00     0.008 C 
ATOM     19  C   UNL     1      73.926  44.199   8.008  1.00  0.00     0.012 C 
ATOM     20  C   UNL     1      72.341  46.861   6.219  1.00  0.00    -0.025 C 
ATOM     21  C   UNL     1      71.801  46.598   8.697  1.00  0.00     0.005 C 
ATOM     22  C   UNL     1      71.312  47.184   7.357  1.00  0.00     0.003 C 
ATOM     23  C   UNL     1      71.770  47.439   4.881  1.00  0.00     0.010 C 
ATOM     24  C   UNL     1      73.733  47.541   6.442  1.00  0.00     0.012 C 
ATOM     25  C   UNL     1      70.765  48.672   7.453  1.00  0.00    -0.006 C 
ATOM     26  C   UNL     1      71.369  48.918   4.957  1.00  0.00     0.033 C 
ATOM     27  C   UNL     1      70.309  49.163   6.038  1.00  0.00     0.120 C 
ATOM     28  C   UNL     1      71.787  49.678   8.056  1.00  0.00     0.014 C 
ATOM     29  C   UNL     1      69.517  48.706   8.386  1.00  0.00     0.014 C 
ENDROOT
BRANCH   1  30
ATOM     30  C   UNL     1      74.178  40.006   7.675  1.00  0.00     0.048 C 
ATOM     31  O   UNL     1      75.125  40.605   7.096  1.00  0.00    -0.550 OA
ATOM     32  O   UNL     1      74.453  39.329   8.859  1.00  0.00    -0.550 OA
ENDBRANCH   1  30
BRANCH  27  33
ATOM     33  O   UNL     1      69.123  48.510   5.643  1.00  0.00    -0.393 OA
ATOM     34  H   UNL     1      68.934  47.799   6.310  1.00  0.00     0.210 HD
ENDBRANCH  27  33
TORSDOF 2
ENDMDL
MODEL 8
REMARK VINA RESULT:    -5.796      2.335      7.866
REMARK INTER + INTRA:          -6.612
REMARK INTER:                  -6.286
REMARK INTRA:                  -0.325
REMARK UNBOUND:                -0.307
REMARK SMILES C[C@H]1[C@H]2C3=CC[C@H]4[C@@]5(C)CC[C@@H](O)C(C)(C)[C@@H]5CC[C@@]4(C)[C@]3(C)CC[C@@]2(C(=O)[O-])CC[C@@H]1C
REMARK SMILES IDX 26 1 30 2 25 3 3 4 31 5 24 6 4 7 2 8 32 9 22 10 5 11 1 12
REMARK SMILES IDX 33 13 23 14 20 15 6 16 7 17 19 18 21 19 8 20 18 21 17 22
REMARK SMILES IDX 10 23 9 24 14 25 11 26 12 27 15 28 16 29 27 30 28 31 29 32
REMARK SMILES IDX 13 33
REMARK H PARENT 13 34
REMARK Flexibility Score: inf
ROOT
ATOM      1  C   UNL     1      71.271  39.868   8.868  1.00  0.00     0.017 C 
ATOM      2  C   UNL     1      70.495  38.520   8.966  1.00  0.00     0.014 C 
ATOM      3  C   UNL     1      70.874  40.728  10.090  1.00  0.00     0.014 C 
ATOM      4  C   UNL     1      70.942  40.627   7.513  1.00  0.00     0.030 C 
ATOM      5  C   UNL     1      70.492  37.794   7.628  1.00  0.00     0.004 C 
ATOM      6  C   UNL     1      71.607  42.068  10.078  1.00  0.00     0.013 C 
ATOM      7  C   UNL     1      71.006  42.176   7.588  1.00  0.00    -0.063 C 
ATOM      8  C   UNL     1      69.645  40.105   6.781  1.00  0.00    -0.003 C 
ATOM      9  C   UNL     1      69.624  38.546   6.601  1.00  0.00    -0.011 C 
ATOM     10  C   UNL     1      71.168  42.992   8.894  1.00  0.00    -0.006 C 
ATOM     11  C   UNL     1      70.886  42.862   6.434  1.00  0.00    -0.027 C 
ATOM     12  C   UNL     1      68.332  40.626   7.392  1.00  0.00     0.008 C 
ATOM     13  C   UNL     1      70.038  38.138   5.178  1.00  0.00     0.008 C 
ATOM     14  C   UNL     1      69.743  43.528   9.278  1.00  0.00     0.017 C 
ATOM     15  C   UNL     1      72.231  44.209   8.664  1.00  0.00    -0.020 C 
ATOM     16  C   UNL     1      70.857  44.359   6.409  1.00  0.00     0.032 C 
ATOM     17  C   UNL     1      72.041  44.931   7.221  1.00  0.00     0.006 C 
ATOM     18  C   UNL     1      72.148  45.186   9.896  1.00  0.00     0.008 C 
ATOM     19  C   UNL     1      73.694  43.646   8.658  1.00  0.00     0.012 C 
ATOM     20  C   UNL     1      72.244  46.531   7.119  1.00  0.00    -0.025 C 
ATOM     21  C   UNL     1      72.648  46.595   9.636  1.00  0.00     0.005 C 
ATOM     22  C   UNL     1      71.841  47.210   8.474  1.00  0.00     0.003 C 
ATOM     23  C   UNL     1      71.363  47.163   5.990  1.00  0.00     0.010 C 
ATOM     24  C   UNL     1      73.735  46.793   6.723  1.00  0.00     0.012 C 
ATOM     25  C   UNL     1      71.753  48.795   8.506  1.00  0.00    -0.006 C 
ATOM     26  C   UNL     1      71.394  48.697   5.953  1.00  0.00     0.033 C 
ATOM     27  C   UNL     1      70.923  49.305   7.279  1.00  0.00     0.120 C 
ATOM     28  C   UNL     1      73.139  49.500   8.534  1.00  0.00     0.014 C 
ATOM     29  C   UNL     1      71.007  49.248   9.797  1.00  0.00     0.014 C 
ENDROOT
BRANCH   1  30
ATOM     30  C   UNL     1      72.770  39.546   8.966  1.00  0.00     0.048 C 
ATOM     31  O   UNL     1      73.540  39.825   8.007  1.00  0.00    -0.550 OA
ATOM     32  O   UNL     1      73.301  38.878  10.065  1.00  0.00    -0.550 OA
ENDBRANCH   1  30
BRANCH  27  33
ATOM     33  O   UNL     1      69.557  48.998   7.440  1.00  0.00    -0.393 OA
ATOM     34  H   UNL     1      69.044  49.568   6.808  1.00  0.00     0.210 HD
ENDBRANCH  27  33
TORSDOF 2
ENDMDL
MODEL 9
REMARK VINA RESULT:    -5.423      1.850      2.492
REMARK INTER + INTRA:          -6.205
REMARK INTER:                  -5.901
REMARK INTRA:                  -0.305
REMARK UNBOUND:                -0.307
REMARK SMILES C[C@H]1[C@H]2C3=CC[C@H]4[C@@]5(C)CC[C@@H](O)C(C)(C)[C@@H]5CC[C@@]4(C)[C@]3(C)CC[C@@]2(C(=O)[O-])CC[C@@H]1C
REMARK SMILES IDX 26 1 30 2 25 3 3 4 31 5 24 6 4 7 2 8 32 9 22 10 5 11 1 12
REMARK SMILES IDX 33 13 23 14 20 15 6 16 7 17 19 18 21 19 8 20 18 21 17 22
REMARK SMILES IDX 10 23 9 24 14 25 11 26 12 27 15 28 16 29 27 30 28 31 29 32
REMARK SMILES IDX 13 33
REMARK H PARENT 13 34
REMARK Flexibility Score: inf
ROOT
ATOM      1  C   UNL     1      72.307  46.912   6.489  1.00  0.00     0.017 C 
ATOM      2  C   UNL     1      71.422  48.193   6.533  1.00  0.00     0.014 C 
ATOM      3  C   UNL     1      72.251  46.350   5.050  1.00  0.00     0.014 C 
ATOM      4  C   UNL     1      71.808  45.827   7.537  1.00  0.00     0.030 C 
ATOM      5  C   UNL     1      71.080  48.571   7.968  1.00  0.00     0.004 C 
ATOM      6  C   UNL     1      73.111  45.095   4.917  1.00  0.00     0.013 C 
ATOM      7  C   UNL     1      72.056  44.350   7.131  1.00  0.00    -0.063 C 
ATOM      8  C   UNL     1      70.345  46.076   8.073  1.00  0.00    -0.003 C 
ATOM      9  C   UNL     1      70.118  47.541   8.589  1.00  0.00    -0.011 C 
ATOM     10  C   UNL     1      72.556  43.887   5.741  1.00  0.00    -0.006 C 
ATOM     11  C   UNL     1      71.791  43.398   8.048  1.00  0.00    -0.027 C 
ATOM     12  C   UNL     1      69.241  45.639   7.094  1.00  0.00     0.008 C 
ATOM     13  C   UNL     1      70.202  47.616  10.122  1.00  0.00     0.008 C 
ATOM     14  C   UNL     1      71.299  43.373   4.951  1.00  0.00     0.017 C 
ATOM     15  C   UNL     1      73.682  42.718   5.913  1.00  0.00    -0.020 C 
ATOM     16  C   UNL     1      71.922  41.941   7.730  1.00  0.00     0.032 C 
ATOM     17  C   UNL     1      73.297  41.657   7.082  1.00  0.00     0.006 C 
ATOM     18  C   UNL     1      73.947  42.066   4.505  1.00  0.00     0.008 C 
ATOM     19  C   UNL     1      75.044  43.351   6.358  1.00  0.00     0.012 C 
ATOM     20  C   UNL     1      73.651  40.095   6.863  1.00  0.00    -0.025 C 
ATOM     21  C   UNL     1      74.539  40.669   4.543  1.00  0.00     0.005 C 
ATOM     22  C   UNL     1      73.595  39.742   5.337  1.00  0.00     0.003 C 
ATOM     23  C   UNL     1      72.644  39.156   7.607  1.00  0.00     0.010 C 
ATOM     24  C   UNL     1      75.057  39.837   7.499  1.00  0.00     0.012 C 
ATOM     25  C   UNL     1      73.690  38.210   4.932  1.00  0.00    -0.006 C 
ATOM     26  C   UNL     1      72.836  37.664   7.304  1.00  0.00     0.033 C 
ATOM     27  C   UNL     1      72.700  37.368   5.806  1.00  0.00     0.120 C 
ATOM     28  C   UNL     1      75.124  37.618   5.042  1.00  0.00     0.014 C 
ATOM     29  C   UNL     1      73.261  38.039   3.443  1.00  0.00     0.014 C 
ENDROOT
BRANCH   1  30
ATOM     30  C   UNL     1      73.752  47.338   6.789  1.00  0.00     0.048 C 
ATOM     31  O   UNL     1      74.352  48.130   6.011  1.00  0.00    -0.550 OA
ATOM     32  O   UNL     1      74.458  46.813   7.866  1.00  0.00    -0.550 OA
ENDBRANCH   1  30
BRANCH  27  33
ATOM     33  O   UNL     1      71.365  37.620   5.430  1.00  0.00    -0.393 OA
ATOM     34  H   UNL     1      70.971  36.762   5.121  1.00  0.00     0.210 HD
ENDBRANCH  27  33
TORSDOF 2
ENDMDL
