MODEL 1
REMARK VINA RESULT:    -5.308      0.000      0.000
REMARK INTER + INTRA:          -9.777
REMARK INTER:                  -8.722
REMARK INTRA:                  -1.055
REMARK UNBOUND:                -1.055
REMARK SMILES CC[C@@H](CC[C@@H](C)[C@@H]1CC[C@@H]2[C@H]3CC=C4C[C@@H](O[C@@H]5O[C@@H](CO)[C@@H](O)[C@H](O)[C@H]5O)CC[C@]4(C)[C@H]3CC[C@@]21C)C(C)C
REMARK SMILES IDX 8 1 9 2 10 3 11 4 37 5 36 6 35 7 34 8 12 9 13 10 14 11 15 12
REMARK SMILES IDX 32 13 31 14 30 15 17 16 16 17 33 18 38 19 6 20 7 21 5 22
REMARK SMILES IDX 4 23 3 24 2 25 1 26 39 27 40 28 41 29 18 30 19 31 28 32
REMARK SMILES IDX 20 33 26 34 21 35 24 36 29 37 27 39 22 41 23 42 25 44
REMARK H PARENT 29 38 27 40 23 43 25 45
REMARK Flexibility Score: inf
ROOT
ATOM      1  C   UNL     1     -28.494  -1.207  20.001  1.00  0.00    -0.002 C 
ATOM      2  C   UNL     1     -27.064  -1.488  20.439  1.00  0.00     0.005 C 
ATOM      3  C   UNL     1     -26.765  -0.379  21.426  1.00  0.00     0.005 C 
ATOM      4  C   UNL     1     -28.075  -0.129  22.202  1.00  0.00    -0.001 C 
ATOM      5  C   UNL     1     -29.229  -0.672  21.284  1.00  0.00    -0.026 C 
ATOM      6  C   UNL     1     -30.038  -1.769  22.016  1.00  0.00     0.007 C 
ATOM      7  C   UNL     1     -30.519  -1.309  23.385  1.00  0.00     0.005 C 
ATOM      8  C   UNL     1     -29.340  -1.074  24.354  1.00  0.00     0.003 C 
ATOM      9  C   UNL     1     -27.971  -0.737  23.649  1.00  0.00     0.000 C 
ATOM     10  C   UNL     1     -27.028   0.133  24.535  1.00  0.00     0.031 C 
ATOM     11  C   UNL     1     -27.253  -0.061  26.004  1.00  0.00    -0.027 C 
ATOM     12  C   UNL     1     -28.495  -0.120  26.514  1.00  0.00    -0.065 C 
ATOM     13  C   UNL     1     -29.703  -0.154  25.576  1.00  0.00    -0.008 C 
ATOM     14  C   UNL     1     -30.909  -0.772  26.346  1.00  0.00     0.014 C 
ATOM     15  C   UNL     1     -31.213  -0.071  27.680  1.00  0.00     0.033 C 
ATOM     16  C   UNL     1     -29.963   0.240  28.542  1.00  0.00     0.125 C 
ATOM     17  C   UNL     1     -28.673  -0.389  27.991  1.00  0.00     0.063 C 
ATOM     18  C   UNL     1     -30.058   1.290  25.132  1.00  0.00     0.016 C 
ATOM     19  C   UNL     1     -30.176   0.500  20.892  1.00  0.00     0.012 C 
ENDROOT
BRANCH   1  20
ATOM     20  C   UNL     1     -29.122  -2.311  19.074  1.00  0.00    -0.011 C 
ATOM     21  C   UNL     1     -28.842  -3.716  19.637  1.00  0.00     0.008 C 
BRANCH  20  22
ATOM     22  C   UNL     1     -28.777  -2.212  17.556  1.00  0.00     0.004 C 
BRANCH  22  23
ATOM     23  C   UNL     1     -28.536  -3.566  16.847  1.00  0.00     0.004 C 
BRANCH  23  24
ATOM     24  C   UNL     1     -28.041  -3.536  15.367  1.00  0.00    -0.009 C 
BRANCH  24  25
ATOM     25  C   UNL     1     -27.575  -2.118  14.916  1.00  0.00     0.000 C 
ATOM     26  C   UNL     1     -26.392  -2.117  13.946  1.00  0.00     0.004 C 
ENDBRANCH  24  25
BRANCH  24  27
ATOM     27  C   UNL     1     -29.121  -4.145  14.401  1.00  0.00    -0.014 C 
ATOM     28  C   UNL     1     -29.858  -5.343  15.028  1.00  0.00     0.007 C 
ATOM     29  C   UNL     1     -30.161  -3.101  13.958  1.00  0.00     0.007 C 
ENDBRANCH  24  27
ENDBRANCH  23  24
ENDBRANCH  22  23
ENDBRANCH  20  22
ENDBRANCH   1  20
BRANCH  16  30
ATOM     30  O   UNL     1     -29.811   1.649  28.620  1.00  0.00    -0.346 OA
BRANCH  30  31
ATOM     31  C   UNL     1     -29.540   2.075  29.944  1.00  0.00     0.282 C 
ATOM     32  C   UNL     1     -30.857   2.579  30.564  1.00  0.00     0.202 C 
ATOM     33  O   UNL     1     -29.030   0.980  30.695  1.00  0.00    -0.341 OA
ATOM     34  C   UNL     1     -30.636   3.013  32.026  1.00  0.00     0.179 C 
ATOM     35  C   UNL     1     -28.693   1.342  32.029  1.00  0.00     0.178 C 
ATOM     36  C   UNL     1     -29.930   1.879  32.794  1.00  0.00     0.177 C 
BRANCH  32  37
ATOM     37  O   UNL     1     -31.395   3.628  29.793  1.00  0.00    -0.385 OA
ATOM     38  H   UNL     1     -31.194   4.480  30.257  1.00  0.00     0.211 HD
ENDBRANCH  32  37
BRANCH  34  39
ATOM     39  O   UNL     1     -31.872   3.277  32.641  1.00  0.00    -0.387 OA
ATOM     40  H   UNL     1     -32.254   2.400  32.907  1.00  0.00     0.211 HD
ENDBRANCH  34  39
BRANCH  35  41
ATOM     41  C   UNL     1     -27.450   2.257  32.095  1.00  0.00     0.191 C 
BRANCH  41  42
ATOM     42  O   UNL     1     -26.330   1.515  32.498  1.00  0.00    -0.394 OA
ATOM     43  H   UNL     1     -25.568   2.155  32.529  1.00  0.00     0.210 HD
ENDBRANCH  41  42
ENDBRANCH  35  41
BRANCH  36  44
ATOM     44  O   UNL     1     -29.597   2.263  34.108  1.00  0.00    -0.387 OA
ATOM     45  H   UNL     1     -29.126   1.509  34.548  1.00  0.00     0.211 HD
ENDBRANCH  36  44
ENDBRANCH  30  31
ENDBRANCH  16  30
TORSDOF 13
ENDMDL
MODEL 2
REMARK VINA RESULT:    -4.656      1.289      3.275
REMARK INTER + INTRA:          -8.705
REMARK INTER:                  -7.274
REMARK INTRA:                  -1.431
REMARK UNBOUND:                -1.055
REMARK SMILES CC[C@@H](CC[C@@H](C)[C@@H]1CC[C@@H]2[C@H]3CC=C4C[C@@H](O[C@@H]5O[C@@H](CO)[C@@H](O)[C@H](O)[C@H]5O)CC[C@]4(C)[C@H]3CC[C@@]21C)C(C)C
REMARK SMILES IDX 8 1 9 2 10 3 11 4 37 5 36 6 35 7 34 8 12 9 13 10 14 11 15 12
REMARK SMILES IDX 32 13 31 14 30 15 17 16 16 17 33 18 38 19 6 20 7 21 5 22
REMARK SMILES IDX 4 23 3 24 2 25 1 26 39 27 40 28 41 29 18 30 19 31 28 32
REMARK SMILES IDX 20 33 26 34 21 35 24 36 29 37 27 39 22 41 23 42 25 44
REMARK H PARENT 29 38 27 40 23 43 25 45
REMARK Flexibility Score: inf
ROOT
ATOM      1  C   UNL     1     -29.296  -2.354  19.478  1.00  0.00    -0.002 C 
ATOM      2  C   UNL     1     -30.540  -1.491  19.334  1.00  0.00     0.005 C 
ATOM      3  C   UNL     1     -31.262  -1.677  20.654  1.00  0.00     0.005 C 
ATOM      4  C   UNL     1     -30.164  -1.772  21.734  1.00  0.00    -0.001 C 
ATOM      5  C   UNL     1     -28.857  -2.212  20.981  1.00  0.00    -0.026 C 
ATOM      6  C   UNL     1     -27.732  -1.169  21.185  1.00  0.00     0.007 C 
ATOM      7  C   UNL     1     -27.506  -0.851  22.656  1.00  0.00     0.005 C 
ATOM      8  C   UNL     1     -28.726  -0.138  23.279  1.00  0.00     0.003 C 
ATOM      9  C   UNL     1     -30.095  -0.432  22.555  1.00  0.00     0.000 C 
ATOM     10  C   UNL     1     -31.324  -0.318  23.508  1.00  0.00     0.031 C 
ATOM     11  C   UNL     1     -31.101   0.629  24.649  1.00  0.00    -0.027 C 
ATOM     12  C   UNL     1     -29.944   0.631  25.332  1.00  0.00    -0.065 C 
ATOM     13  C   UNL     1     -28.772  -0.224  24.849  1.00  0.00    -0.008 C 
ATOM     14  C   UNL     1     -27.454   0.367  25.435  1.00  0.00     0.014 C 
ATOM     15  C   UNL     1     -27.478   0.530  26.963  1.00  0.00     0.033 C 
ATOM     16  C   UNL     1     -28.788   1.141  27.523  1.00  0.00     0.125 C 
ATOM     17  C   UNL     1     -29.737   1.653  26.428  1.00  0.00     0.063 C 
ATOM     18  C   UNL     1     -28.951  -1.683  25.346  1.00  0.00     0.016 C 
ATOM     19  C   UNL     1     -28.388  -3.596  21.520  1.00  0.00     0.012 C 
ENDROOT
BRANCH   1  20
ATOM     20  C   UNL     1     -28.272  -2.228  18.290  1.00  0.00    -0.011 C 
ATOM     21  C   UNL     1     -28.051  -0.750  17.920  1.00  0.00     0.008 C 
BRANCH  20  22
ATOM     22  C   UNL     1     -28.565  -3.105  17.035  1.00  0.00     0.004 C 
BRANCH  22  23
ATOM     23  C   UNL     1     -28.621  -2.336  15.694  1.00  0.00     0.004 C 
BRANCH  23  24
ATOM     24  C   UNL     1     -28.404  -3.146  14.378  1.00  0.00    -0.009 C 
BRANCH  24  25
ATOM     25  C   UNL     1     -28.857  -4.633  14.504  1.00  0.00     0.000 C 
ATOM     26  C   UNL     1     -30.335  -4.876  14.193  1.00  0.00     0.004 C 
ENDBRANCH  24  25
BRANCH  24  27
ATOM     27  C   UNL     1     -26.920  -3.015  13.875  1.00  0.00    -0.014 C 
ATOM     28  C   UNL     1     -26.294  -1.658  14.247  1.00  0.00     0.007 C 
ATOM     29  C   UNL     1     -26.020  -4.140  14.417  1.00  0.00     0.007 C 
ENDBRANCH  24  27
ENDBRANCH  23  24
ENDBRANCH  22  23
ENDBRANCH  20  22
ENDBRANCH   1  20
BRANCH  16  30
ATOM     30  O   UNL     1     -29.446   0.154  28.302  1.00  0.00    -0.346 OA
BRANCH  30  31
ATOM     31  C   UNL     1     -29.753   0.629  29.602  1.00  0.00     0.282 C 
ATOM     32  C   UNL     1     -28.497   0.464  30.480  1.00  0.00     0.202 C 
ATOM     33  O   UNL     1     -30.124   2.000  29.526  1.00  0.00    -0.341 OA
ATOM     34  C   UNL     1     -28.754   1.010  31.897  1.00  0.00     0.179 C 
ATOM     35  C   UNL     1     -30.488   2.539  30.791  1.00  0.00     0.178 C 
ATOM     36  C   UNL     1     -29.314   2.442  31.800  1.00  0.00     0.177 C 
BRANCH  32  37
ATOM     37  O   UNL     1     -28.094  -0.884  30.514  1.00  0.00    -0.385 OA
ATOM     38  H   UNL     1     -28.203  -1.257  29.602  1.00  0.00     0.211 HD
ENDBRANCH  32  37
BRANCH  34  39
ATOM     39  O   UNL     1     -27.551   1.042  32.625  1.00  0.00    -0.387 OA
ATOM     40  H   UNL     1     -27.310   0.100  32.823  1.00  0.00     0.211 HD
ENDBRANCH  34  39
BRANCH  35  41
ATOM     41  C   UNL     1     -31.829   1.972  31.309  1.00  0.00     0.191 C 
BRANCH  41  42
ATOM     42  O   UNL     1     -32.611   3.007  31.842  1.00  0.00    -0.394 OA
ATOM     43  H   UNL     1     -32.339   3.837  31.363  1.00  0.00     0.210 HD
ENDBRANCH  41  42
ENDBRANCH  35  41
BRANCH  36  44
ATOM     44  O   UNL     1     -29.677   2.950  33.063  1.00  0.00    -0.387 OA
ATOM     45  H   UNL     1     -30.652   2.814  33.191  1.00  0.00     0.211 HD
ENDBRANCH  36  44
ENDBRANCH  30  31
ENDBRANCH  16  30
TORSDOF 13
ENDMDL
MODEL 3
REMARK VINA RESULT:    -4.462      5.388     13.030
REMARK INTER + INTRA:          -8.387
REMARK INTER:                  -6.956
REMARK INTRA:                  -1.431
REMARK UNBOUND:                -1.055
REMARK SMILES CC[C@@H](CC[C@@H](C)[C@@H]1CC[C@@H]2[C@H]3CC=C4C[C@@H](O[C@@H]5O[C@@H](CO)[C@@H](O)[C@H](O)[C@H]5O)CC[C@]4(C)[C@H]3CC[C@@]21C)C(C)C
REMARK SMILES IDX 8 1 9 2 10 3 11 4 37 5 36 6 35 7 34 8 12 9 13 10 14 11 15 12
REMARK SMILES IDX 32 13 31 14 30 15 17 16 16 17 33 18 38 19 6 20 7 21 5 22
REMARK SMILES IDX 4 23 3 24 2 25 1 26 39 27 40 28 41 29 18 30 19 31 28 32
REMARK SMILES IDX 20 33 26 34 21 35 24 36 29 37 27 39 22 41 23 42 25 44
REMARK H PARENT 29 38 27 40 23 43 25 45
REMARK Flexibility Score: inf
ROOT
ATOM      1  C   UNL     1     -30.246   0.800  27.328  1.00  0.00    -0.002 C 
ATOM      2  C   UNL     1     -31.036  -0.496  27.439  1.00  0.00     0.005 C 
ATOM      3  C   UNL     1     -31.693  -0.634  26.081  1.00  0.00     0.005 C 
ATOM      4  C   UNL     1     -30.669  -0.108  25.052  1.00  0.00    -0.001 C 
ATOM      5  C   UNL     1     -29.701   0.836  25.854  1.00  0.00    -0.026 C 
ATOM      6  C   UNL     1     -28.239   0.343  25.739  1.00  0.00     0.007 C 
ATOM      7  C   UNL     1     -27.818   0.131  24.292  1.00  0.00     0.005 C 
ATOM      8  C   UNL     1     -28.603  -1.025  23.633  1.00  0.00     0.003 C 
ATOM      9  C   UNL     1     -30.012  -1.310  24.279  1.00  0.00     0.000 C 
ATOM     10  C   UNL     1     -31.031  -1.927  23.272  1.00  0.00     0.031 C 
ATOM     11  C   UNL     1     -30.375  -2.710  22.175  1.00  0.00    -0.027 C 
ATOM     12  C   UNL     1     -29.280  -2.245  21.549  1.00  0.00    -0.065 C 
ATOM     13  C   UNL     1     -28.589  -0.981  22.061  1.00  0.00    -0.008 C 
ATOM     14  C   UNL     1     -27.113  -0.986  21.560  1.00  0.00     0.014 C 
ATOM     15  C   UNL     1     -26.981  -1.160  20.038  1.00  0.00     0.033 C 
ATOM     16  C   UNL     1     -27.892  -2.258  19.435  1.00  0.00     0.125 C 
ATOM     17  C   UNL     1     -28.611  -3.103  20.499  1.00  0.00     0.063 C 
ATOM     18  C   UNL     1     -29.319   0.272  21.508  1.00  0.00     0.016 C 
ATOM     19  C   UNL     1     -29.808   2.285  25.294  1.00  0.00     0.012 C 
ENDROOT
BRANCH   1  20
ATOM     20  C   UNL     1     -29.331   1.115  28.568  1.00  0.00    -0.011 C 
ATOM     21  C   UNL     1     -28.589  -0.152  29.030  1.00  0.00     0.008 C 
BRANCH  20  22
ATOM     22  C   UNL     1     -30.016   1.855  29.757  1.00  0.00     0.004 C 
BRANCH  22  23
ATOM     23  C   UNL     1     -29.722   1.264  31.156  1.00  0.00     0.004 C 
BRANCH  23  24
ATOM     24  C   UNL     1     -29.890   2.200  32.394  1.00  0.00    -0.009 C 
BRANCH  24  25
ATOM     25  C   UNL     1     -31.232   2.994  32.372  1.00  0.00     0.000 C 
ATOM     26  C   UNL     1     -32.441   2.212  32.887  1.00  0.00     0.004 C 
ENDBRANCH  24  25
BRANCH  24  27
ATOM     27  C   UNL     1     -28.643   3.142  32.560  1.00  0.00    -0.014 C 
ATOM     28  C   UNL     1     -28.572   3.779  33.961  1.00  0.00     0.007 C 
ATOM     29  C   UNL     1     -27.318   2.410  32.283  1.00  0.00     0.007 C 
ENDBRANCH  24  27
ENDBRANCH  23  24
ENDBRANCH  22  23
ENDBRANCH  20  22
ENDBRANCH   1  20
BRANCH  16  30
ATOM     30  O   UNL     1     -28.850  -1.635  18.593  1.00  0.00    -0.346 OA
BRANCH  30  31
ATOM     31  C   UNL     1     -28.829  -2.176  17.283  1.00  0.00     0.282 C 
ATOM     32  C   UNL     1     -27.685  -1.498  16.504  1.00  0.00     0.202 C 
ATOM     33  O   UNL     1     -28.610  -3.579  17.357  1.00  0.00    -0.341 OA
ATOM     34  C   UNL     1     -27.580  -2.081  15.082  1.00  0.00     0.179 C 
ATOM     35  C   UNL     1     -28.618  -4.202  16.079  1.00  0.00     0.178 C 
ATOM     36  C   UNL     1     -27.510  -3.618  15.164  1.00  0.00     0.177 C 
BRANCH  32  37
ATOM     37  O   UNL     1     -27.867  -0.102  16.475  1.00  0.00    -0.385 OA
ATOM     38  H   UNL     1     -28.050   0.161  15.537  1.00  0.00     0.211 HD
ENDBRANCH  32  37
BRANCH  34  39
ATOM     39  O   UNL     1     -26.415  -1.607  14.454  1.00  0.00    -0.387 OA
ATOM     40  H   UNL     1     -25.952  -2.398  14.072  1.00  0.00     0.211 HD
ENDBRANCH  34  39
BRANCH  35  41
ATOM     41  C   UNL     1     -30.027  -4.227  15.444  1.00  0.00     0.191 C 
BRANCH  41  42
ATOM     42  O   UNL     1     -30.111  -5.269  14.509  1.00  0.00    -0.394 OA
ATOM     43  H   UNL     1     -30.794  -5.904  14.860  1.00  0.00     0.210 HD
ENDBRANCH  41  42
ENDBRANCH  35  41
BRANCH  36  44
ATOM     44  O   UNL     1     -27.529  -4.213  13.887  1.00  0.00    -0.387 OA
ATOM     45  H   UNL     1     -27.737  -5.178  13.990  1.00  0.00     0.211 HD
ENDBRANCH  36  44
ENDBRANCH  30  31
ENDBRANCH  16  30
TORSDOF 13
ENDMDL
MODEL 4
REMARK VINA RESULT:    -4.432      1.279      2.896
REMARK INTER + INTRA:          -8.338
REMARK INTER:                  -7.116
REMARK INTRA:                  -1.222
REMARK UNBOUND:                -1.055
REMARK SMILES CC[C@@H](CC[C@@H](C)[C@@H]1CC[C@@H]2[C@H]3CC=C4C[C@@H](O[C@@H]5O[C@@H](CO)[C@@H](O)[C@H](O)[C@H]5O)CC[C@]4(C)[C@H]3CC[C@@]21C)C(C)C
REMARK SMILES IDX 8 1 9 2 10 3 11 4 37 5 36 6 35 7 34 8 12 9 13 10 14 11 15 12
REMARK SMILES IDX 32 13 31 14 30 15 17 16 16 17 33 18 38 19 6 20 7 21 5 22
REMARK SMILES IDX 4 23 3 24 2 25 1 26 39 27 40 28 41 29 18 30 19 31 28 32
REMARK SMILES IDX 20 33 26 34 21 35 24 36 29 37 27 39 22 41 23 42 25 44
REMARK H PARENT 29 38 27 40 23 43 25 45
REMARK Flexibility Score: inf
ROOT
ATOM      1  C   UNL     1     -29.305  -2.267  19.937  1.00  0.00    -0.002 C 
ATOM      2  C   UNL     1     -30.606  -1.486  19.826  1.00  0.00     0.005 C 
ATOM      3  C   UNL     1     -31.281  -1.720  21.162  1.00  0.00     0.005 C 
ATOM      4  C   UNL     1     -30.153  -1.746  22.215  1.00  0.00    -0.001 C 
ATOM      5  C   UNL     1     -28.838  -2.099  21.429  1.00  0.00    -0.026 C 
ATOM      6  C   UNL     1     -27.779  -0.986  21.608  1.00  0.00     0.007 C 
ATOM      7  C   UNL     1     -27.538  -0.656  23.074  1.00  0.00     0.005 C 
ATOM      8  C   UNL     1     -28.786  -0.024  23.729  1.00  0.00     0.003 C 
ATOM      9  C   UNL     1     -30.151  -0.405  23.039  1.00  0.00     0.000 C 
ATOM     10  C   UNL     1     -31.361  -0.373  24.021  1.00  0.00     0.031 C 
ATOM     11  C   UNL     1     -31.171   0.585  25.159  1.00  0.00    -0.027 C 
ATOM     12  C   UNL     1     -30.000   0.660  25.814  1.00  0.00    -0.065 C 
ATOM     13  C   UNL     1     -28.787  -0.116  25.299  1.00  0.00    -0.008 C 
ATOM     14  C   UNL     1     -27.497   0.559  25.855  1.00  0.00     0.014 C 
ATOM     15  C   UNL     1     -27.494   0.718  27.384  1.00  0.00     0.033 C 
ATOM     16  C   UNL     1     -28.825   1.242  27.978  1.00  0.00     0.125 C 
ATOM     17  C   UNL     1     -29.833   1.692  26.907  1.00  0.00     0.063 C 
ATOM     18  C   UNL     1     -28.859  -1.583  25.797  1.00  0.00     0.016 C 
ATOM     19  C   UNL     1     -28.268  -3.450  21.952  1.00  0.00     0.012 C 
ENDROOT
BRANCH   1  20
ATOM     20  C   UNL     1     -28.321  -2.072  18.724  1.00  0.00    -0.011 C 
ATOM     21  C   UNL     1     -28.223  -0.586  18.339  1.00  0.00     0.008 C 
BRANCH  20  22
ATOM     22  C   UNL     1     -28.573  -2.981  17.482  1.00  0.00     0.004 C 
BRANCH  22  23
ATOM     23  C   UNL     1     -28.467  -2.268  16.114  1.00  0.00     0.004 C 
BRANCH  23  24
ATOM     24  C   UNL     1     -27.767  -3.031  14.946  1.00  0.00    -0.009 C 
BRANCH  24  25
ATOM     25  C   UNL     1     -26.635  -2.197  14.273  1.00  0.00     0.000 C 
ATOM     26  C   UNL     1     -25.289  -2.915  14.173  1.00  0.00     0.004 C 
ENDBRANCH  24  25
BRANCH  24  27
ATOM     27  C   UNL     1     -28.822  -3.555  13.904  1.00  0.00    -0.014 C 
ATOM     28  C   UNL     1     -28.902  -5.093  13.875  1.00  0.00     0.007 C 
ATOM     29  C   UNL     1     -30.230  -2.991  14.167  1.00  0.00     0.007 C 
ENDBRANCH  24  27
ENDBRANCH  23  24
ENDBRANCH  22  23
ENDBRANCH  20  22
ENDBRANCH   1  20
BRANCH  16  30
ATOM     30  O   UNL     1     -29.399   0.212  28.769  1.00  0.00    -0.346 OA
BRANCH  30  31
ATOM     31  C   UNL     1     -29.751   0.679  30.061  1.00  0.00     0.282 C 
ATOM     32  C   UNL     1     -28.513   0.548  30.970  1.00  0.00     0.202 C 
ATOM     33  O   UNL     1     -30.158   2.038  29.975  1.00  0.00    -0.341 OA
ATOM     34  C   UNL     1     -28.820   1.086  32.381  1.00  0.00     0.179 C 
ATOM     35  C   UNL     1     -30.568   2.567  31.231  1.00  0.00     0.178 C 
ATOM     36  C   UNL     1     -29.417   2.502  32.269  1.00  0.00     0.177 C 
BRANCH  32  37
ATOM     37  O   UNL     1     -28.073  -0.788  31.014  1.00  0.00    -0.385 OA
ATOM     38  H   UNL     1     -28.791  -1.357  30.635  1.00  0.00     0.211 HD
ENDBRANCH  32  37
BRANCH  34  39
ATOM     39  O   UNL     1     -27.637   1.151  33.137  1.00  0.00    -0.387 OA
ATOM     40  H   UNL     1     -27.889   0.977  34.081  1.00  0.00     0.211 HD
ENDBRANCH  34  39
BRANCH  35  41
ATOM     41  C   UNL     1     -31.905   1.962  31.716  1.00  0.00     0.191 C 
BRANCH  41  42
ATOM     42  O   UNL     1     -32.402   2.706  32.796  1.00  0.00    -0.394 OA
ATOM     43  H   UNL     1     -33.115   3.294  32.425  1.00  0.00     0.210 HD
ENDBRANCH  41  42
ENDBRANCH  35  41
BRANCH  36  44
ATOM     44  O   UNL     1     -29.826   2.999  33.522  1.00  0.00    -0.387 OA
ATOM     45  H   UNL     1     -29.198   3.717  33.798  1.00  0.00     0.211 HD
ENDBRANCH  36  44
ENDBRANCH  30  31
ENDBRANCH  16  30
TORSDOF 13
ENDMDL
MODEL 5
REMARK VINA RESULT:    -3.881      0.845      2.367
REMARK INTER + INTRA:          -7.431
REMARK INTER:                  -7.118
REMARK INTRA:                  -0.313
REMARK UNBOUND:                -1.055
REMARK SMILES CC[C@@H](CC[C@@H](C)[C@@H]1CC[C@@H]2[C@H]3CC=C4C[C@@H](O[C@@H]5O[C@@H](CO)[C@@H](O)[C@H](O)[C@H]5O)CC[C@]4(C)[C@H]3CC[C@@]21C)C(C)C
REMARK SMILES IDX 8 1 9 2 10 3 11 4 37 5 36 6 35 7 34 8 12 9 13 10 14 11 15 12
REMARK SMILES IDX 32 13 31 14 30 15 17 16 16 17 33 18 38 19 6 20 7 21 5 22
REMARK SMILES IDX 4 23 3 24 2 25 1 26 39 27 40 28 41 29 18 30 19 31 28 32
REMARK SMILES IDX 20 33 26 34 21 35 24 36 29 37 27 39 22 41 23 42 25 44
REMARK H PARENT 29 38 27 40 23 43 25 45
REMARK Flexibility Score: inf
ROOT
ATOM      1  C   UNL     1     -28.248  -0.913  20.106  1.00  0.00    -0.002 C 
ATOM      2  C   UNL     1     -26.909  -1.413  20.625  1.00  0.00     0.005 C 
ATOM      3  C   UNL     1     -26.573  -0.448  21.743  1.00  0.00     0.005 C 
ATOM      4  C   UNL     1     -27.910  -0.108  22.434  1.00  0.00    -0.001 C 
ATOM      5  C   UNL     1     -29.031  -0.411  21.374  1.00  0.00    -0.026 C 
ATOM      6  C   UNL     1     -30.029  -1.460  21.920  1.00  0.00     0.007 C 
ATOM      7  C   UNL     1     -30.576  -1.072  23.287  1.00  0.00     0.005 C 
ATOM      8  C   UNL     1     -29.472  -1.082  24.367  1.00  0.00     0.003 C 
ATOM      9  C   UNL     1     -28.013  -0.857  23.813  1.00  0.00     0.000 C 
ATOM     10  C   UNL     1     -27.059  -0.200  24.858  1.00  0.00     0.031 C 
ATOM     11  C   UNL     1     -27.441  -0.501  26.276  1.00  0.00    -0.027 C 
ATOM     12  C   UNL     1     -28.723  -0.448  26.675  1.00  0.00    -0.065 C 
ATOM     13  C   UNL     1     -29.834  -0.241  25.646  1.00  0.00    -0.008 C 
ATOM     14  C   UNL     1     -31.171  -0.770  26.247  1.00  0.00     0.014 C 
ATOM     15  C   UNL     1     -31.512  -0.164  27.618  1.00  0.00     0.033 C 
ATOM     16  C   UNL     1     -30.320  -0.097  28.606  1.00  0.00     0.125 C 
ATOM     17  C   UNL     1     -29.068  -0.830  28.097  1.00  0.00     0.063 C 
ATOM     18  C   UNL     1     -29.973   1.271  25.327  1.00  0.00     0.016 C 
ATOM     19  C   UNL     1     -29.791   0.903  21.032  1.00  0.00     0.012 C 
ENDROOT
BRANCH   1  20
ATOM     20  C   UNL     1     -28.915  -1.837  19.021  1.00  0.00    -0.011 C 
ATOM     21  C   UNL     1     -29.034  -3.281  19.538  1.00  0.00     0.008 C 
BRANCH  20  22
ATOM     22  C   UNL     1     -28.292  -1.778  17.592  1.00  0.00     0.004 C 
BRANCH  22  23
ATOM     23  C   UNL     1     -28.385  -3.092  16.780  1.00  0.00     0.004 C 
BRANCH  23  24
ATOM     24  C   UNL     1     -28.727  -2.988  15.261  1.00  0.00    -0.009 C 
BRANCH  24  25
ATOM     25  C   UNL     1     -29.605  -4.174  14.758  1.00  0.00     0.000 C 
ATOM     26  C   UNL     1     -31.027  -3.785  14.351  1.00  0.00     0.004 C 
ENDBRANCH  24  25
BRANCH  24  27
ATOM     27  C   UNL     1     -27.423  -2.805  14.403  1.00  0.00    -0.014 C 
ATOM     28  C   UNL     1     -27.014  -1.326  14.267  1.00  0.00     0.007 C 
ATOM     29  C   UNL     1     -26.233  -3.596  14.975  1.00  0.00     0.007 C 
ENDBRANCH  24  27
ENDBRANCH  23  24
ENDBRANCH  22  23
ENDBRANCH  20  22
ENDBRANCH   1  20
BRANCH  16  30
ATOM     30  O   UNL     1     -30.009   1.268  28.841  1.00  0.00    -0.346 OA
BRANCH  30  31
ATOM     31  C   UNL     1     -30.206   1.623  30.200  1.00  0.00     0.282 C 
ATOM     32  C   UNL     1     -28.851   1.509  30.925  1.00  0.00     0.202 C 
ATOM     33  O   UNL     1     -30.692   2.958  30.272  1.00  0.00    -0.341 OA
ATOM     34  C   UNL     1     -28.990   1.930  32.400  1.00  0.00     0.179 C 
ATOM     35  C   UNL     1     -30.954   3.373  31.607  1.00  0.00     0.178 C 
ATOM     36  C   UNL     1     -29.671   3.310  32.476  1.00  0.00     0.177 C 
BRANCH  32  37
ATOM     37  O   UNL     1     -28.339   0.202  30.810  1.00  0.00    -0.385 OA
ATOM     38  H   UNL     1     -29.068  -0.431  31.033  1.00  0.00     0.211 HD
ENDBRANCH  32  37
BRANCH  34  39
ATOM     39  O   UNL     1     -27.720   2.017  32.997  1.00  0.00    -0.387 OA
ATOM     40  H   UNL     1     -27.437   2.967  32.933  1.00  0.00     0.211 HD
ENDBRANCH  34  39
BRANCH  35  41
ATOM     41  C   UNL     1     -32.179   2.655  32.217  1.00  0.00     0.191 C 
BRANCH  41  42
ATOM     42  O   UNL     1     -33.295   2.823  31.384  1.00  0.00    -0.394 OA
ATOM     43  H   UNL     1     -33.594   3.765  31.505  1.00  0.00     0.210 HD
ENDBRANCH  41  42
ENDBRANCH  35  41
BRANCH  36  44
ATOM     44  O   UNL     1     -29.930   3.695  33.806  1.00  0.00    -0.387 OA
ATOM     45  H   UNL     1     -29.116   4.125  34.175  1.00  0.00     0.211 HD
ENDBRANCH  36  44
ENDBRANCH  30  31
ENDBRANCH  16  30
TORSDOF 13
ENDMDL
MODEL 6
REMARK VINA RESULT:    -3.552      5.405     12.975
REMARK INTER + INTRA:          -6.892
REMARK INTER:                  -6.271
REMARK INTRA:                  -0.620
REMARK UNBOUND:                -1.055
REMARK SMILES CC[C@@H](CC[C@@H](C)[C@@H]1CC[C@@H]2[C@H]3CC=C4C[C@@H](O[C@@H]5O[C@@H](CO)[C@@H](O)[C@H](O)[C@H]5O)CC[C@]4(C)[C@H]3CC[C@@]21C)C(C)C
REMARK SMILES IDX 8 1 9 2 10 3 11 4 37 5 36 6 35 7 34 8 12 9 13 10 14 11 15 12
REMARK SMILES IDX 32 13 31 14 30 15 17 16 16 17 33 18 38 19 6 20 7 21 5 22
REMARK SMILES IDX 4 23 3 24 2 25 1 26 39 27 40 28 41 29 18 30 19 31 28 32
REMARK SMILES IDX 20 33 26 34 21 35 24 36 29 37 27 39 22 41 23 42 25 44
REMARK H PARENT 29 38 27 40 23 43 25 45
REMARK Flexibility Score: inf
ROOT
ATOM      1  C   UNL     1     -28.409   0.142  27.694  1.00  0.00    -0.002 C 
ATOM      2  C   UNL     1     -27.515   1.269  27.198  1.00  0.00     0.005 C 
ATOM      3  C   UNL     1     -26.740   0.638  26.059  1.00  0.00     0.005 C 
ATOM      4  C   UNL     1     -27.720  -0.319  25.350  1.00  0.00    -0.001 C 
ATOM      5  C   UNL     1     -28.833  -0.656  26.408  1.00  0.00    -0.026 C 
ATOM      6  C   UNL     1     -30.229  -0.250  25.880  1.00  0.00     0.007 C 
ATOM      7  C   UNL     1     -30.510  -0.828  24.499  1.00  0.00     0.005 C 
ATOM      8  C   UNL     1     -29.571  -0.229  23.429  1.00  0.00     0.003 C 
ATOM      9  C   UNL     1     -28.199   0.307  23.989  1.00  0.00     0.000 C 
ATOM     10  C   UNL     1     -27.050   0.256  22.936  1.00  0.00     0.031 C 
ATOM     11  C   UNL     1     -27.540   0.356  21.523  1.00  0.00    -0.027 C 
ATOM     12  C   UNL     1     -28.618  -0.334  21.112  1.00  0.00    -0.065 C 
ATOM     13  C   UNL     1     -29.462  -1.105  22.127  1.00  0.00    -0.008 C 
ATOM     14  C   UNL     1     -30.885  -1.317  21.528  1.00  0.00     0.014 C 
ATOM     15  C   UNL     1     -30.877  -1.977  20.140  1.00  0.00     0.033 C 
ATOM     16  C   UNL     1     -29.823  -1.402  19.161  1.00  0.00     0.125 C 
ATOM     17  C   UNL     1     -29.117  -0.145  19.697  1.00  0.00     0.063 C 
ATOM     18  C   UNL     1     -28.808  -2.484  22.407  1.00  0.00     0.016 C 
ATOM     19  C   UNL     1     -28.815  -2.183  26.712  1.00  0.00     0.012 C 
ENDROOT
BRANCH   1  20
ATOM     20  C   UNL     1     -29.447   0.568  28.796  1.00  0.00    -0.011 C 
ATOM     21  C   UNL     1     -30.358   1.694  28.276  1.00  0.00     0.008 C 
BRANCH  20  22
ATOM     22  C   UNL     1     -28.860   0.897  30.203  1.00  0.00     0.004 C 
BRANCH  22  23
ATOM     23  C   UNL     1     -29.890   1.388  31.247  1.00  0.00     0.004 C 
BRANCH  23  24
ATOM     24  C   UNL     1     -29.504   2.613  32.134  1.00  0.00    -0.009 C 
BRANCH  24  25
ATOM     25  C   UNL     1     -27.981   2.942  32.077  1.00  0.00     0.000 C 
ATOM     26  C   UNL     1     -27.151   2.303  33.191  1.00  0.00     0.004 C 
ENDBRANCH  24  25
BRANCH  24  27
ATOM     27  C   UNL     1     -30.020   2.425  33.607  1.00  0.00    -0.014 C 
ATOM     28  C   UNL     1     -30.817   3.645  34.107  1.00  0.00     0.007 C 
ATOM     29  C   UNL     1     -30.892   1.167  33.764  1.00  0.00     0.007 C 
ENDBRANCH  24  27
ENDBRANCH  23  24
ENDBRANCH  22  23
ENDBRANCH  20  22
ENDBRANCH   1  20
BRANCH  16  30
ATOM     30  O   UNL     1     -28.861  -2.411  18.894  1.00  0.00    -0.346 OA
BRANCH  30  31
ATOM     31  C   UNL     1     -28.851  -2.776  17.524  1.00  0.00     0.282 C 
ATOM     32  C   UNL     1     -27.706  -2.012  16.832  1.00  0.00     0.202 C 
ATOM     33  O   UNL     1     -28.645  -4.179  17.413  1.00  0.00    -0.341 OA
ATOM     34  C   UNL     1     -27.614  -2.405  15.346  1.00  0.00     0.179 C 
ATOM     35  C   UNL     1     -28.665  -4.630  16.064  1.00  0.00     0.178 C 
ATOM     36  C   UNL     1     -27.557  -3.940  15.226  1.00  0.00     0.177 C 
BRANCH  32  37
ATOM     37  O   UNL     1     -27.876  -0.623  16.987  1.00  0.00    -0.385 OA
ATOM     38  H   UNL     1     -27.239  -0.314  17.680  1.00  0.00     0.211 HD
ENDBRANCH  32  37
BRANCH  34  39
ATOM     39  O   UNL     1     -26.448  -1.863  14.777  1.00  0.00    -0.387 OA
ATOM     40  H   UNL     1     -26.685  -0.958  14.442  1.00  0.00     0.211 HD
ENDBRANCH  34  39
BRANCH  35  41
ATOM     41  C   UNL     1     -30.078  -4.561  15.441  1.00  0.00     0.191 C 
BRANCH  41  42
ATOM     42  O   UNL     1     -30.139  -5.382  14.305  1.00  0.00    -0.394 OA
ATOM     43  H   UNL     1     -30.939  -5.085  13.791  1.00  0.00     0.210 HD
ENDBRANCH  41  42
ENDBRANCH  35  41
BRANCH  36  44
ATOM     44  O   UNL     1     -27.589  -4.363  13.883  1.00  0.00    -0.387 OA
ATOM     45  H   UNL     1     -27.554  -5.355  13.862  1.00  0.00     0.211 HD
ENDBRANCH  36  44
ENDBRANCH  30  31
ENDBRANCH  16  30
TORSDOF 13
ENDMDL
MODEL 7
REMARK VINA RESULT:    -3.171      5.276     12.797
REMARK INTER + INTRA:          -6.265
REMARK INTER:                  -4.868
REMARK INTRA:                  -1.396
REMARK UNBOUND:                -1.055
REMARK SMILES CC[C@@H](CC[C@@H](C)[C@@H]1CC[C@@H]2[C@H]3CC=C4C[C@@H](O[C@@H]5O[C@@H](CO)[C@@H](O)[C@H](O)[C@H]5O)CC[C@]4(C)[C@H]3CC[C@@]21C)C(C)C
REMARK SMILES IDX 8 1 9 2 10 3 11 4 37 5 36 6 35 7 34 8 12 9 13 10 14 11 15 12
REMARK SMILES IDX 32 13 31 14 30 15 17 16 16 17 33 18 38 19 6 20 7 21 5 22
REMARK SMILES IDX 4 23 3 24 2 25 1 26 39 27 40 28 41 29 18 30 19 31 28 32
REMARK SMILES IDX 20 33 26 34 21 35 24 36 29 37 27 39 22 41 23 42 25 44
REMARK H PARENT 29 38 27 40 23 43 25 45
REMARK Flexibility Score: inf
ROOT
ATOM      1  C   UNL     1     -28.676   0.425  28.058  1.00  0.00    -0.002 C 
ATOM      2  C   UNL     1     -27.692   1.498  27.617  1.00  0.00     0.005 C 
ATOM      3  C   UNL     1     -26.843   0.801  26.574  1.00  0.00     0.005 C 
ATOM      4  C   UNL     1     -27.794  -0.138  25.803  1.00  0.00    -0.001 C 
ATOM      5  C   UNL     1     -29.014  -0.396  26.760  1.00  0.00    -0.026 C 
ATOM      6  C   UNL     1     -30.336   0.050  26.092  1.00  0.00     0.007 C 
ATOM      7  C   UNL     1     -30.513  -0.560  24.708  1.00  0.00     0.005 C 
ATOM      8  C   UNL     1     -29.453  -0.035  23.714  1.00  0.00     0.003 C 
ATOM      9  C   UNL     1     -28.117   0.463  24.385  1.00  0.00     0.000 C 
ATOM     10  C   UNL     1     -26.878   0.331  23.447  1.00  0.00     0.031 C 
ATOM     11  C   UNL     1     -27.230   0.406  21.992  1.00  0.00    -0.027 C 
ATOM     12  C   UNL     1     -28.294  -0.252  21.501  1.00  0.00    -0.065 C 
ATOM     13  C   UNL     1     -29.261  -0.956  22.454  1.00  0.00    -0.008 C 
ATOM     14  C   UNL     1     -30.631  -1.128  21.730  1.00  0.00     0.014 C 
ATOM     15  C   UNL     1     -30.523  -1.833  20.367  1.00  0.00     0.033 C 
ATOM     16  C   UNL     1     -29.358  -1.332  19.476  1.00  0.00     0.125 C 
ATOM     17  C   UNL     1     -28.652  -0.089  20.041  1.00  0.00     0.063 C 
ATOM     18  C   UNL     1     -28.697  -2.350  22.833  1.00  0.00     0.016 C 
ATOM     19  C   UNL     1     -29.090  -1.912  27.107  1.00  0.00     0.012 C 
ENDROOT
BRANCH   1  20
ATOM     20  C   UNL     1     -29.793   0.929  29.045  1.00  0.00    -0.011 C 
ATOM     21  C   UNL     1     -30.508   2.164  28.470  1.00  0.00     0.008 C 
BRANCH  20  22
ATOM     22  C   UNL     1     -29.354   1.146  30.526  1.00  0.00     0.004 C 
BRANCH  22  23
ATOM     23  C   UNL     1     -29.739   2.517  31.131  1.00  0.00     0.004 C 
BRANCH  23  24
ATOM     24  C   UNL     1     -29.936   2.603  32.677  1.00  0.00    -0.009 C 
BRANCH  24  25
ATOM     25  C   UNL     1     -28.909   1.732  33.465  1.00  0.00     0.000 C 
ATOM     26  C   UNL     1     -27.474   2.258  33.433  1.00  0.00     0.004 C 
ENDBRANCH  24  25
BRANCH  24  27
ATOM     27  C   UNL     1     -31.422   2.278  33.073  1.00  0.00    -0.014 C 
ATOM     28  C   UNL     1     -32.407   2.544  31.919  1.00  0.00     0.007 C 
ATOM     29  C   UNL     1     -31.594   0.822  33.545  1.00  0.00     0.007 C 
ENDBRANCH  24  27
ENDBRANCH  23  24
ENDBRANCH  22  23
ENDBRANCH  20  22
ENDBRANCH   1  20
BRANCH  16  30
ATOM     30  O   UNL     1     -28.420  -2.388  19.329  1.00  0.00    -0.346 OA
BRANCH  30  31
ATOM     31  C   UNL     1     -28.206  -2.712  17.966  1.00  0.00     0.282 C 
ATOM     32  C   UNL     1     -29.202  -3.821  17.575  1.00  0.00     0.202 C 
ATOM     33  O   UNL     1     -28.419  -1.555  17.168  1.00  0.00    -0.341 OA
ATOM     34  C   UNL     1     -29.049  -4.184  16.086  1.00  0.00     0.179 C 
ATOM     35  C   UNL     1     -28.181  -1.792  15.785  1.00  0.00     0.178 C 
ATOM     36  C   UNL     1     -29.117  -2.900  15.238  1.00  0.00     0.177 C 
BRANCH  32  37
ATOM     37  O   UNL     1     -29.031  -4.950  18.400  1.00  0.00    -0.385 OA
ATOM     38  H   UNL     1     -29.837  -5.519  18.306  1.00  0.00     0.211 HD
ENDBRANCH  32  37
BRANCH  34  39
ATOM     39  O   UNL     1     -30.090  -5.043  15.692  1.00  0.00    -0.387 OA
ATOM     40  H   UNL     1     -30.674  -5.171  16.486  1.00  0.00     0.211 HD
ENDBRANCH  34  39
BRANCH  35  41
ATOM     41  C   UNL     1     -26.682  -2.005  15.475  1.00  0.00     0.191 C 
BRANCH  41  42
ATOM     42  O   UNL     1     -26.464  -1.924  14.092  1.00  0.00    -0.394 OA
ATOM     43  H   UNL     1     -27.337  -2.135  13.660  1.00  0.00     0.210 HD
ENDBRANCH  41  42
ENDBRANCH  35  41
BRANCH  36  44
ATOM     44  O   UNL     1     -28.867  -3.158  13.875  1.00  0.00    -0.387 OA
ATOM     45  H   UNL     1     -28.124  -3.813  13.808  1.00  0.00     0.211 HD
ENDBRANCH  36  44
ENDBRANCH  30  31
ENDBRANCH  16  30
TORSDOF 13
ENDMDL
