MODEL 1
REMARK VINA RESULT:    -2.555      0.000      0.000
REMARK INTER + INTRA:          -3.769
REMARK INTER:                  -2.929
REMARK INTRA:                  -0.840
REMARK UNBOUND:                -0.840
REMARK SMILES C=C(C)[C@H]1CC[C@]2(C(=O)[O-])CC[C@]3(C)[C@@H](CC[C@@H]4[C@]5(C)CC[C@@H](O)C(C)(C)[C@H]5CC[C@@]43C)[C@H]12
REMARK SMILES IDX 7 1 6 2 33 3 11 4 5 5 15 6 4 7 12 8 16 9 13 10 17 11 31 12
REMARK SMILES IDX 14 13 18 14 30 15 32 16 19 17 29 18 21 19 20 20 28 21 22 22
REMARK SMILES IDX 25 23 23 24 26 25 27 26 8 27 9 28 10 29 2 30 3 31 1 32 24 33
REMARK H PARENT 24 34
REMARK Flexibility Score: inf
ROOT
ATOM      1  C   UNL     1      45.089  28.943   3.261  1.00  0.00     0.014 C 
ATOM      2  C   UNL     1      44.867  28.452   4.701  1.00  0.00     0.014 C 
ATOM      3  C   UNL     1      44.898  27.644   2.417  1.00  0.00     0.012 C 
ATOM      4  C   UNL     1      44.148  30.123   2.912  1.00  0.00     0.014 C 
ATOM      5  C   UNL     1      45.568  27.106   4.763  1.00  0.00     0.009 C 
ATOM      6  C   UNL     1      43.421  27.392   1.935  1.00  0.00     0.000 C 
ATOM      7  C   UNL     1      45.341  26.483   3.381  1.00  0.00     0.018 C 
ATOM      8  C   UNL     1      42.736  29.758   2.442  1.00  0.00     0.008 C 
ATOM      9  C   UNL     1      43.336  26.205   0.969  1.00  0.00     0.005 C 
ATOM     10  C   UNL     1      42.595  28.607   1.387  1.00  0.00    -0.024 C 
ATOM     11  C   UNL     1      43.831  26.560  -0.421  1.00  0.00     0.005 C 
ATOM     12  C   UNL     1      42.929  29.012  -0.163  1.00  0.00    -0.024 C 
ATOM     13  C   UNL     1      41.079  28.190   1.477  1.00  0.00     0.012 C 
ATOM     14  C   UNL     1      43.045  27.718  -1.108  1.00  0.00     0.002 C 
ATOM     15  C   UNL     1      44.239  29.843  -0.278  1.00  0.00     0.008 C 
ATOM     16  C   UNL     1      41.770  29.939  -0.672  1.00  0.00     0.012 C 
ATOM     17  C   UNL     1      43.585  27.999  -2.604  1.00  0.00    -0.026 C 
ATOM     18  C   UNL     1      44.741  30.121  -1.703  1.00  0.00     0.005 C 
ATOM     19  C   UNL     1      43.909  26.659  -3.358  1.00  0.00     0.010 C 
ATOM     20  C   UNL     1      42.455  28.717  -3.421  1.00  0.00     0.012 C 
ATOM     21  C   UNL     1      44.923  28.831  -2.529  1.00  0.00     0.003 C 
ATOM     22  C   UNL     1      44.579  26.846  -4.727  1.00  0.00     0.033 C 
ATOM     23  C   UNL     1      45.701  29.034  -3.900  1.00  0.00    -0.006 C 
ATOM     24  C   UNL     1      45.889  27.642  -4.593  1.00  0.00     0.120 C 
ATOM     25  C   UNL     1      45.010  30.040  -4.858  1.00  0.00     0.014 C 
ATOM     26  C   UNL     1      47.125  29.589  -3.612  1.00  0.00     0.014 C 
ENDROOT
BRANCH   1  27
ATOM     27  C   UNL     1      46.513  29.479   3.107  1.00  0.00     0.048 C 
ATOM     28  O   UNL     1      47.119  30.008   4.079  1.00  0.00    -0.550 OA
ATOM     29  O   UNL     1      47.124  29.494   1.857  1.00  0.00    -0.550 OA
ENDBRANCH   1  27
BRANCH   7  30
ATOM     30  C   UNL     1      46.533  25.670   2.874  1.00  0.00    -0.077 C 
ATOM     31  C   UNL     1      47.095  24.501   3.640  1.00  0.00     0.039 C 
ATOM     32  C   UNL     1      47.125  26.001   1.714  1.00  0.00     0.008 C 
ENDBRANCH   7  30
BRANCH  24  33
ATOM     33  O   UNL     1      46.535  27.753  -5.840  1.00  0.00    -0.393 OA
ATOM     34  H   UNL     1      45.922  27.412  -6.541  1.00  0.00     0.210 HD
ENDBRANCH  24  33
TORSDOF 3
ENDMDL
