MODEL 1
REMARK VINA RESULT:    38.526      0.000      0.000
REMARK INTER + INTRA:          66.395
REMARK INTER:                  63.300
REMARK INTRA:                   3.095
REMARK UNBOUND:                 3.095
REMARK SMILES COc1ccc([C@H]2CC(=O)c3c(O)cc(O[C@@H]4O[C@@H](CO[C@H]5O[C@H](C)[C@@H](O)[C@H](O)[C@@H]5O)[C@H](O)[C@@H](O)[C@H]4O)cc3O2)cc1O
REMARK SMILES IDX 19 1 32 2 34 3 36 4 17 5 18 6 20 7 21 8 22 9 25 10 24 11
REMARK SMILES IDX 26 12 23 13 28 14 30 15 27 16 29 18 31 20 33 22 35 24 16 26
REMARK SMILES IDX 15 27 14 28 38 29 12 30 39 31 11 32 40 33 9 34 7 35 10 36
REMARK SMILES IDX 8 37 13 38 6 40 41 41 5 42 42 43 4 44 3 45 43 46 2 48 1 49
REMARK SMILES IDX 37 50
REMARK H PARENT 27 17 29 19 31 21 33 23 35 25 13 39 43 47 37 51
REMARK Flexibility Score: inf
ROOT
ATOM      1  C   UNL     1      44.227  61.696  54.955  1.00  0.00     0.180 C 
ATOM      2  C   UNL     1      45.292  60.662  55.413  1.00  0.00     0.177 C 
ATOM      3  C   UNL     1      46.628  61.357  55.785  1.00  0.00     0.180 C 
ATOM      4  C   UNL     1      46.391  62.835  56.130  1.00  0.00     0.214 C 
ATOM      5  C   UNL     1      45.682  63.551  54.945  1.00  0.00     0.339 C 
ATOM      6  O   UNL     1      44.839  62.705  54.173  1.00  0.00    -0.332 OA
ENDROOT
BRANCH   1   7
ATOM      7  C   UNL     1      43.105  61.039  54.137  1.00  0.00     0.198 C 
BRANCH   7   8
ATOM      8  O   UNL     1      42.677  61.919  53.120  1.00  0.00    -0.347 OA
BRANCH   8   9
ATOM      9  C   UNL     1      42.843  63.267  53.525  1.00  0.00     0.281 C 
ATOM     10  C   UNL     1      43.197  64.879  50.235  1.00  0.00     0.041 C 
ATOM     11  C   UNL     1      42.520  64.048  51.327  1.00  0.00     0.150 C 
ATOM     12  C   UNL     1      41.118  64.624  51.660  1.00  0.00     0.174 C 
ATOM     13  O   UNL     1      43.363  64.065  52.470  1.00  0.00    -0.344 OA
ATOM     14  C   UNL     1      40.500  63.877  52.852  1.00  0.00     0.179 C 
ATOM     15  C   UNL     1      41.504  63.833  54.022  1.00  0.00     0.202 C 
BRANCH  12  16
ATOM     16  O   UNL     1      40.264  64.555  50.541  1.00  0.00    -0.388 OA
ATOM     17  H   UNL     1      39.591  63.843  50.717  1.00  0.00     0.211 HD
ENDBRANCH  12  16
BRANCH  14  18
ATOM     18  O   UNL     1      39.315  64.514  53.246  1.00  0.00    -0.387 OA
ATOM     19  H   UNL     1      38.573  63.883  53.056  1.00  0.00     0.211 HD
ENDBRANCH  14  18
BRANCH  15  20
ATOM     20  O   UNL     1      41.714  65.123  54.543  1.00  0.00    -0.385 OA
ATOM     21  H   UNL     1      40.861  65.618  54.435  1.00  0.00     0.211 HD
ENDBRANCH  15  20
ENDBRANCH   8   9
ENDBRANCH   7   8
ENDBRANCH   1   7
BRANCH   2  22
ATOM     22  O   UNL     1      44.799  59.961  56.531  1.00  0.00    -0.387 OA
ATOM     23  H   UNL     1      44.655  59.017  56.250  1.00  0.00     0.211 HD
ENDBRANCH   2  22
BRANCH   3  24
ATOM     24  O   UNL     1      47.537  61.273  54.716  1.00  0.00    -0.387 OA
ATOM     25  H   UNL     1      48.167  60.539  54.934  1.00  0.00     0.211 HD
ENDBRANCH   3  24
BRANCH   5  26
ATOM     26  O   UNL     1      44.925  64.664  55.424  1.00  0.00    -0.462 OA
BRANCH  26  27
ATOM     27  C   UNL     1      44.167  64.654  56.601  1.00  0.00     0.130 A 
ATOM     28  C   UNL     1      44.738  64.369  57.854  1.00  0.00     0.093 A 
ATOM     29  C   UNL     1      42.807  64.957  56.523  1.00  0.00     0.094 A 
ATOM     30  C   UNL     1      43.959  64.366  59.015  1.00  0.00     0.133 A 
ATOM     31  C   UNL     1      42.000  64.896  57.660  1.00  0.00     0.138 A 
ATOM     32  C   UNL     1      42.564  64.586  58.919  1.00  0.00     0.102 A 
ATOM     33  O   UNL     1      40.621  65.121  57.527  1.00  0.00    -0.484 OA
ATOM     34  C   UNL     1      41.632  64.486  60.065  1.00  0.00     0.174 C 
ATOM     35  C   UNL     1      39.672  64.847  58.566  1.00  0.00     0.211 C 
ATOM     36  O   UNL     1      41.942  63.873  61.118  1.00  0.00    -0.294 OA
ATOM     37  C   UNL     1      40.281  65.121  59.951  1.00  0.00     0.131 C 
BRANCH  30  38
ATOM     38  O   UNL     1      44.617  64.181  60.232  1.00  0.00    -0.507 OA
ATOM     39  H   UNL     1      45.147  63.354  60.458  1.00  0.00     0.293 HD
ENDBRANCH  30  38
BRANCH  35  40
ATOM     40  C   UNL     1      39.122  63.436  58.470  1.00  0.00    -0.003 A 
ATOM     41  C   UNL     1      38.187  62.929  59.391  1.00  0.00     0.057 A 
ATOM     42  C   UNL     1      39.522  62.623  57.398  1.00  0.00     0.011 A 
ATOM     43  C   UNL     1      37.679  61.630  59.254  1.00  0.00     0.158 A 
ATOM     44  C   UNL     1      39.022  61.326  57.261  1.00  0.00     0.051 A 
ATOM     45  C   UNL     1      38.094  60.820  58.191  1.00  0.00     0.160 A 
BRANCH  43  46
ATOM     46  O   UNL     1      36.753  61.136  60.174  1.00  0.00    -0.504 OA
ATOM     47  H   UNL     1      36.388  61.714  60.921  1.00  0.00     0.293 HD
ENDBRANCH  43  46
BRANCH  45  48
ATOM     48  O   UNL     1      37.568  59.523  58.091  1.00  0.00    -0.493 OA
ATOM     49  C   UNL     1      36.356  59.198  57.419  1.00  0.00     0.278 C 
ENDBRANCH  45  48
ENDBRANCH  35  40
ENDBRANCH  26  27
ENDBRANCH   5  26
BRANCH   4  50
ATOM     50  O   UNL     1      47.601  63.486  56.425  1.00  0.00    -0.384 OA
ATOM     51  H   UNL     1      48.154  63.462  55.597  1.00  0.00     0.211 HD
ENDBRANCH   4  50
TORSDOF 15
ENDMDL
MODEL 2
REMARK VINA RESULT:    39.748      2.843      8.270
REMARK INTER + INTRA:          68.403
REMARK INTER:                  57.022
REMARK INTRA:                  11.381
REMARK UNBOUND:                 3.095
REMARK SMILES COc1ccc([C@H]2CC(=O)c3c(O)cc(O[C@@H]4O[C@@H](CO[C@H]5O[C@H](C)[C@@H](O)[C@H](O)[C@@H]5O)[C@H](O)[C@@H](O)[C@H]4O)cc3O2)cc1O
REMARK SMILES IDX 19 1 32 2 34 3 36 4 17 5 18 6 20 7 21 8 22 9 25 10 24 11
REMARK SMILES IDX 26 12 23 13 28 14 30 15 27 16 29 18 31 20 33 22 35 24 16 26
REMARK SMILES IDX 15 27 14 28 38 29 12 30 39 31 11 32 40 33 9 34 7 35 10 36
REMARK SMILES IDX 8 37 13 38 6 40 41 41 5 42 42 43 4 44 3 45 43 46 2 48 1 49
REMARK SMILES IDX 37 50
REMARK H PARENT 27 17 29 19 31 21 33 23 35 25 13 39 43 47 37 51
REMARK Flexibility Score: inf
ROOT
ATOM      1  C   UNL     1      38.258  62.108  59.247  1.00  0.00     0.180 C 
ATOM      2  C   UNL     1      37.027  61.682  58.401  1.00  0.00     0.177 C 
ATOM      3  C   UNL     1      36.422  62.890  57.637  1.00  0.00     0.180 C 
ATOM      4  C   UNL     1      37.468  64.004  57.473  1.00  0.00     0.214 C 
ATOM      5  C   UNL     1      38.021  64.423  58.865  1.00  0.00     0.339 C 
ATOM      6  O   UNL     1      38.027  63.377  59.829  1.00  0.00    -0.332 OA
ENDROOT
BRANCH   1   7
ATOM      7  C   UNL     1      38.568  61.095  60.358  1.00  0.00     0.198 C 
BRANCH   7   8
ATOM      8  O   UNL     1      39.813  61.399  60.949  1.00  0.00    -0.347 OA
BRANCH   8   9
ATOM      9  C   UNL     1      40.862  60.726  60.276  1.00  0.00     0.281 C 
ATOM     10  C   UNL     1      40.021  57.241  61.116  1.00  0.00     0.041 C 
ATOM     11  C   UNL     1      39.797  58.642  60.541  1.00  0.00     0.150 C 
ATOM     12  C   UNL     1      39.426  58.559  59.036  1.00  0.00     0.174 C 
ATOM     13  O   UNL     1      40.993  59.385  60.730  1.00  0.00    -0.344 OA
ATOM     14  C   UNL     1      39.341  59.967  58.426  1.00  0.00     0.179 C 
ATOM     15  C   UNL     1      40.620  60.762  58.759  1.00  0.00     0.202 C 
BRANCH  12  16
ATOM     16  O   UNL     1      38.209  57.871  58.853  1.00  0.00    -0.388 OA
ATOM     17  H   UNL     1      37.954  57.956  57.894  1.00  0.00     0.211 HD
ENDBRANCH  12  16
BRANCH  14  18
ATOM     18  O   UNL     1      39.171  59.871  57.038  1.00  0.00    -0.387 OA
ATOM     19  H   UNL     1      39.885  60.422  56.622  1.00  0.00     0.211 HD
ENDBRANCH  14  18
BRANCH  15  20
ATOM     20  O   UNL     1      41.732  60.208  58.102  1.00  0.00    -0.385 OA
ATOM     21  H   UNL     1      42.108  60.921  57.522  1.00  0.00     0.211 HD
ENDBRANCH  15  20
ENDBRANCH   8   9
ENDBRANCH   7   8
ENDBRANCH   1   7
BRANCH   2  22
ATOM     22  O   UNL     1      37.424  60.694  57.479  1.00  0.00    -0.387 OA
ATOM     23  H   UNL     1      38.416  60.733  57.410  1.00  0.00     0.211 HD
ENDBRANCH   2  22
BRANCH   3  24
ATOM     24  O   UNL     1      35.310  63.399  58.331  1.00  0.00    -0.387 OA
ATOM     25  H   UNL     1      34.974  64.168  57.805  1.00  0.00     0.211 HD
ENDBRANCH   3  24
BRANCH   5  26
ATOM     26  O   UNL     1      39.342  64.950  58.731  1.00  0.00    -0.462 OA
BRANCH  26  27
ATOM     27  C   UNL     1      40.361  64.345  57.984  1.00  0.00     0.130 A 
ATOM     28  C   UNL     1      40.199  63.083  57.387  1.00  0.00     0.093 A 
ATOM     29  C   UNL     1      41.564  65.031  57.817  1.00  0.00     0.094 A 
ATOM     30  C   UNL     1      41.231  62.500  56.645  1.00  0.00     0.133 A 
ATOM     31  C   UNL     1      42.630  64.440  57.135  1.00  0.00     0.138 A 
ATOM     32  C   UNL     1      42.480  63.160  56.553  1.00  0.00     0.102 A 
ATOM     33  O   UNL     1      43.852  65.123  57.063  1.00  0.00    -0.484 OA
ATOM     34  C   UNL     1      43.674  62.580  55.897  1.00  0.00     0.174 C 
ATOM     35  C   UNL     1      45.070  64.519  56.608  1.00  0.00     0.211 C 
ATOM     36  O   UNL     1      43.775  61.345  55.680  1.00  0.00    -0.294 OA
ATOM     37  C   UNL     1      44.792  63.492  55.499  1.00  0.00     0.131 C 
BRANCH  30  38
ATOM     38  O   UNL     1      40.958  61.297  55.993  1.00  0.00    -0.507 OA
ATOM     39  H   UNL     1      41.611  60.836  55.380  1.00  0.00     0.293 HD
ENDBRANCH  30  38
BRANCH  35  40
ATOM     40  C   UNL     1      45.854  63.901  57.752  1.00  0.00    -0.003 A 
ATOM     41  C   UNL     1      46.336  62.579  57.707  1.00  0.00     0.057 A 
ATOM     42  C   UNL     1      46.152  64.689  58.875  1.00  0.00     0.011 A 
ATOM     43  C   UNL     1      47.081  62.052  58.770  1.00  0.00     0.158 A 
ATOM     44  C   UNL     1      46.890  64.166  59.939  1.00  0.00     0.051 A 
ATOM     45  C   UNL     1      47.361  62.839  59.893  1.00  0.00     0.160 A 
BRANCH  43  46
ATOM     46  O   UNL     1      47.553  60.740  58.716  1.00  0.00    -0.504 OA
ATOM     47  H   UNL     1      46.926  59.948  58.792  1.00  0.00     0.293 HD
ENDBRANCH  43  46
BRANCH  45  48
ATOM     48  O   UNL     1      48.104  62.274  60.940  1.00  0.00    -0.493 OA
ATOM     49  C   UNL     1      49.504  62.458  61.121  1.00  0.00     0.278 C 
ENDBRANCH  45  48
ENDBRANCH  35  40
ENDBRANCH  26  27
ENDBRANCH   5  26
BRANCH   4  50
ATOM     50  O   UNL     1      36.917  65.121  56.823  1.00  0.00    -0.384 OA
ATOM     51  H   UNL     1      37.496  65.901  57.043  1.00  0.00     0.211 HD
ENDBRANCH   4  50
TORSDOF 15
ENDMDL
