MODEL 1
REMARK VINA RESULT:    -2.818      0.000      0.000
REMARK INTER + INTRA:          -3.395
REMARK INTER:                  -3.313
REMARK INTRA:                  -0.083
REMARK UNBOUND:                -0.083
REMARK SMILES CCCCC(=O)[O-]
REMARK SMILES IDX 4 1 5 2 6 3 7 4 3 5 2 6 1 7
REMARK H PARENT
REMARK Flexibility Score: inf
ROOT
ATOM      1  C   UNL     1      16.795  15.658  16.259  1.00  0.00     0.053 C 
ENDROOT
BRANCH   1   2
ATOM      2  C   UNL     1      17.469  16.992  16.188  1.00  0.00     0.041 C 
ATOM      3  O   UNL     1      17.821  17.466  15.075  1.00  0.00    -0.550 OA
ATOM      4  O   UNL     1      17.664  17.735  17.345  1.00  0.00    -0.550 OA
ENDBRANCH   1   2
BRANCH   1   5
ATOM      5  C   UNL     1      17.717  14.562  15.710  1.00  0.00     0.006 C 
BRANCH   5   6
ATOM      6  C   UNL     1      19.003  14.404  16.536  1.00  0.00    -0.003 C 
ATOM      7  C   UNL     1      19.510  12.962  16.570  1.00  0.00     0.004 C 
ENDBRANCH   5   6
ENDBRANCH   1   5
TORSDOF 3
ENDMDL
MODEL 2
REMARK VINA RESULT:    -2.784      3.255      4.459
REMARK INTER + INTRA:          -3.356
REMARK INTER:                  -3.321
REMARK INTRA:                  -0.034
REMARK UNBOUND:                -0.083
REMARK SMILES CCCCC(=O)[O-]
REMARK SMILES IDX 4 1 5 2 6 3 7 4 3 5 2 6 1 7
REMARK H PARENT
REMARK Flexibility Score: inf
ROOT
ATOM      1  C   UNL     1      19.266  12.974  16.287  1.00  0.00     0.053 C 
ENDROOT
BRANCH   1   2
ATOM      2  C   UNL     1      20.018  12.700  17.550  1.00  0.00     0.041 C 
ATOM      3  O   UNL     1      20.265  13.635  18.357  1.00  0.00    -0.550 OA
ATOM      4  O   UNL     1      20.405  11.403  17.862  1.00  0.00    -0.550 OA
ENDBRANCH   1   2
BRANCH   1   5
ATOM      5  C   UNL     1      19.014  14.479  16.129  1.00  0.00     0.006 C 
BRANCH   5   6
ATOM      6  C   UNL     1      17.626  14.787  15.548  1.00  0.00    -0.003 C 
ATOM      7  C   UNL     1      16.807  15.722  16.439  1.00  0.00     0.004 C 
ENDBRANCH   5   6
ENDBRANCH   1   5
TORSDOF 3
ENDMDL
MODEL 3
REMARK VINA RESULT:    -2.736      0.947      1.094
REMARK INTER + INTRA:          -3.299
REMARK INTER:                  -3.195
REMARK INTRA:                  -0.104
REMARK UNBOUND:                -0.083
REMARK SMILES CCCCC(=O)[O-]
REMARK SMILES IDX 4 1 5 2 6 3 7 4 3 5 2 6 1 7
REMARK H PARENT
REMARK Flexibility Score: inf
ROOT
ATOM      1  C   UNL     1      16.772  15.612  16.280  1.00  0.00     0.053 C 
ENDROOT
BRANCH   1   2
ATOM      2  C   UNL     1      17.450  16.639  17.130  1.00  0.00     0.041 C 
ATOM      3  O   UNL     1      17.737  17.768  16.652  1.00  0.00    -0.550 OA
ATOM      4  O   UNL     1      17.720  16.369  18.465  1.00  0.00    -0.550 OA
ENDBRANCH   1   2
BRANCH   1   5
ATOM      5  C   UNL     1      17.722  15.112  15.184  1.00  0.00     0.006 C 
BRANCH   5   6
ATOM      6  C   UNL     1      19.085  14.673  15.738  1.00  0.00    -0.003 C 
ATOM      7  C   UNL     1      19.074  13.237  16.264  1.00  0.00     0.004 C 
ENDBRANCH   5   6
ENDBRANCH   1   5
TORSDOF 3
ENDMDL
MODEL 4
REMARK VINA RESULT:    -2.704     17.418     18.182
REMARK INTER + INTRA:          -3.261
REMARK INTER:                  -3.236
REMARK INTRA:                  -0.025
REMARK UNBOUND:                -0.083
REMARK SMILES CCCCC(=O)[O-]
REMARK SMILES IDX 4 1 5 2 6 3 7 4 3 5 2 6 1 7
REMARK H PARENT
REMARK Flexibility Score: inf
ROOT
ATOM      1  C   UNL     1      30.084  11.236  28.838  1.00  0.00     0.053 C 
ENDROOT
BRANCH   1   2
ATOM      2  C   UNL     1      29.603  12.203  29.873  1.00  0.00     0.041 C 
ATOM      3  O   UNL     1      30.104  12.196  31.028  1.00  0.00    -0.550 OA
ATOM      4  O   UNL     1      28.635  13.144  29.549  1.00  0.00    -0.550 OA
ENDBRANCH   1   2
BRANCH   1   5
ATOM      5  C   UNL     1      30.083   9.808  29.396  1.00  0.00     0.006 C 
BRANCH   5   6
ATOM      6  C   UNL     1      29.189   8.857  28.586  1.00  0.00    -0.003 C 
ATOM      7  C   UNL     1      29.731   8.591  27.182  1.00  0.00     0.004 C 
ENDBRANCH   5   6
ENDBRANCH   1   5
TORSDOF 3
ENDMDL
MODEL 5
REMARK VINA RESULT:    -2.679      1.646      2.160
REMARK INTER + INTRA:          -3.232
REMARK INTER:                  -3.190
REMARK INTRA:                  -0.042
REMARK UNBOUND:                -0.083
REMARK SMILES CCCCC(=O)[O-]
REMARK SMILES IDX 4 1 5 2 6 3 7 4 3 5 2 6 1 7
REMARK H PARENT
REMARK Flexibility Score: inf
ROOT
ATOM      1  C   UNL     1      18.948  14.862  16.067  1.00  0.00     0.053 C 
ENDROOT
BRANCH   1   2
ATOM      2  C   UNL     1      17.606  15.280  15.555  1.00  0.00     0.041 C 
ATOM      3  O   UNL     1      17.395  15.350  14.315  1.00  0.00    -0.550 OA
ATOM      4  O   UNL     1      16.573  15.543  16.444  1.00  0.00    -0.550 OA
ENDBRANCH   1   2
BRANCH   1   5
ATOM      5  C   UNL     1      19.027  13.335  16.181  1.00  0.00     0.006 C 
BRANCH   5   6
ATOM      6  C   UNL     1      19.984  12.874  17.289  1.00  0.00    -0.003 C 
ATOM      7  C   UNL     1      20.182  13.930  18.377  1.00  0.00     0.004 C 
ENDBRANCH   5   6
ENDBRANCH   1   5
TORSDOF 3
ENDMDL
MODEL 6
REMARK VINA RESULT:    -2.630      2.351      3.341
REMARK INTER + INTRA:          -3.174
REMARK INTER:                  -3.048
REMARK INTRA:                  -0.126
REMARK UNBOUND:                -0.083
REMARK SMILES CCCCC(=O)[O-]
REMARK SMILES IDX 4 1 5 2 6 3 7 4 3 5 2 6 1 7
REMARK H PARENT
REMARK Flexibility Score: inf
ROOT
ATOM      1  C   UNL     1      17.653  15.272  15.065  1.00  0.00     0.053 C 
ENDROOT
BRANCH   1   2
ATOM      2  C   UNL     1      18.880  14.517  15.466  1.00  0.00     0.041 C 
ATOM      3  O   UNL     1      18.785  13.491  16.190  1.00  0.00    -0.550 OA
ATOM      4  O   UNL     1      20.126  14.916  15.000  1.00  0.00    -0.550 OA
ENDBRANCH   1   2
BRANCH   1   5
ATOM      5  C   UNL     1      16.822  15.639  16.301  1.00  0.00     0.006 C 
BRANCH   5   6
ATOM      6  C   UNL     1      17.429  16.805  17.096  1.00  0.00    -0.003 C 
ATOM      7  C   UNL     1      17.773  16.422  18.536  1.00  0.00     0.004 C 
ENDBRANCH   5   6
ENDBRANCH   1   5
TORSDOF 3
ENDMDL
MODEL 7
REMARK VINA RESULT:    -2.522     17.686     18.420
REMARK INTER + INTRA:          -3.047
REMARK INTER:                  -2.994
REMARK INTRA:                  -0.053
REMARK UNBOUND:                -0.083
REMARK SMILES CCCCC(=O)[O-]
REMARK SMILES IDX 4 1 5 2 6 3 7 4 3 5 2 6 1 7
REMARK H PARENT
REMARK Flexibility Score: inf
ROOT
ATOM      1  C   UNL     1      29.147   9.995  28.502  1.00  0.00     0.053 C 
ENDROOT
BRANCH   1   2
ATOM      2  C   UNL     1      29.480   8.742  27.756  1.00  0.00     0.041 C 
ATOM      3  O   UNL     1      28.938   7.651  28.076  1.00  0.00    -0.550 OA
ATOM      4  O   UNL     1      30.351   8.786  26.676  1.00  0.00    -0.550 OA
ENDBRANCH   1   2
BRANCH   1   5
ATOM      5  C   UNL     1      30.260  11.036  28.325  1.00  0.00     0.006 C 
BRANCH   5   6
ATOM      6  C   UNL     1      30.631  11.734  29.641  1.00  0.00    -0.003 C 
ATOM      7  C   UNL     1      30.764  10.758  30.810  1.00  0.00     0.004 C 
ENDBRANCH   5   6
ENDBRANCH   1   5
TORSDOF 3
ENDMDL
MODEL 8
REMARK VINA RESULT:    -2.502     17.330     18.299
REMARK INTER + INTRA:          -3.023
REMARK INTER:                  -3.007
REMARK INTRA:                  -0.016
REMARK UNBOUND:                -0.083
REMARK SMILES CCCCC(=O)[O-]
REMARK SMILES IDX 4 1 5 2 6 3 7 4 3 5 2 6 1 7
REMARK H PARENT
REMARK Flexibility Score: inf
ROOT
ATOM      1  C   UNL     1      29.777  10.590  28.839  1.00  0.00     0.053 C 
ENDROOT
BRANCH   1   2
ATOM      2  C   UNL     1      30.348  11.315  30.015  1.00  0.00     0.041 C 
ATOM      3  O   UNL     1      30.210  12.563  30.119  1.00  0.00    -0.550 OA
ATOM      4  O   UNL     1      30.991  10.609  31.023  1.00  0.00    -0.550 OA
ENDBRANCH   1   2
BRANCH   1   5
ATOM      5  C   UNL     1      30.488  11.017  27.548  1.00  0.00     0.006 C 
BRANCH   5   6
ATOM      6  C   UNL     1      30.066  10.175  26.335  1.00  0.00    -0.003 C 
ATOM      7  C   UNL     1      31.257   9.573  25.590  1.00  0.00     0.004 C 
ENDBRANCH   5   6
ENDBRANCH   1   5
TORSDOF 3
ENDMDL
MODEL 9
REMARK VINA RESULT:    -2.498     17.392     18.006
REMARK INTER + INTRA:          -3.019
REMARK INTER:                  -2.963
REMARK INTRA:                  -0.057
REMARK UNBOUND:                -0.083
REMARK SMILES CCCCC(=O)[O-]
REMARK SMILES IDX 4 1 5 2 6 3 7 4 3 5 2 6 1 7
REMARK H PARENT
REMARK Flexibility Score: inf
ROOT
ATOM      1  C   UNL     1      30.628  11.124  27.192  1.00  0.00     0.053 C 
ENDROOT
BRANCH   1   2
ATOM      2  C   UNL     1      31.355  10.534  26.026  1.00  0.00     0.041 C 
ATOM      3  O   UNL     1      32.038  11.271  25.266  1.00  0.00    -0.550 OA
ATOM      4  O   UNL     1      31.319   9.164  25.805  1.00  0.00    -0.550 OA
ENDBRANCH   1   2
BRANCH   1   5
ATOM      5  C   UNL     1      29.856  10.036  27.949  1.00  0.00     0.006 C 
BRANCH   5   6
ATOM      6  C   UNL     1      30.064  10.113  29.469  1.00  0.00    -0.003 C 
ATOM      7  C   UNL     1      30.690  11.435  29.913  1.00  0.00     0.004 C 
ENDBRANCH   5   6
ENDBRANCH   1   5
TORSDOF 3
ENDMDL
