MODEL 1
REMARK VINA RESULT:    -3.838      0.000      0.000
REMARK INTER + INTRA:          -7.503
REMARK INTER:                  -6.755
REMARK INTRA:                  -0.749
REMARK UNBOUND:                -0.749
REMARK SMILES CCCCCCCCCCCCCCC(=O)[O-]
REMARK SMILES IDX 9 1 10 2 11 3 12 4 13 5 14 6 15 7 16 8 17 9 8 10 7 11 6 12
REMARK SMILES IDX 5 13 4 14 3 15 2 16 1 17
REMARK H PARENT
REMARK Flexibility Score: inf
ROOT
ATOM      1  C   UNL     1      -2.127 -50.685   1.852  1.00  0.00     0.000 C 
ENDROOT
BRANCH   1   2
ATOM      2  C   UNL     1      -2.100 -51.794   2.919  1.00  0.00     0.000 C 
BRANCH   2   3
ATOM      3  C   UNL     1      -3.178 -51.671   4.013  1.00  0.00     0.000 C 
BRANCH   3   4
ATOM      4  C   UNL     1      -2.738 -52.125   5.417  1.00  0.00     0.000 C 
BRANCH   4   5
ATOM      5  C   UNL     1      -2.700 -50.982   6.458  1.00  0.00     0.006 C 
BRANCH   5   6
ATOM      6  C   UNL     1      -2.364 -51.452   7.881  1.00  0.00     0.053 C 
BRANCH   6   7
ATOM      7  C   UNL     1      -3.571 -51.446   8.769  1.00  0.00     0.041 C 
ATOM      8  O   UNL     1      -3.454 -51.680  10.001  1.00  0.00    -0.550 OA
ATOM      9  O   UNL     1      -4.823 -51.162   8.239  1.00  0.00    -0.550 OA
ENDBRANCH   6   7
ENDBRANCH   5   6
ENDBRANCH   4   5
ENDBRANCH   3   4
ENDBRANCH   2   3
ENDBRANCH   1   2
BRANCH   1  10
ATOM     10  C   UNL     1      -2.693 -51.162   0.506  1.00  0.00     0.000 C 
BRANCH  10  11
ATOM     11  C   UNL     1      -4.186 -50.828   0.390  1.00  0.00    -0.000 C 
BRANCH  11  12
ATOM     12  C   UNL     1      -5.039 -52.102   0.419  1.00  0.00    -0.000 C 
BRANCH  12  13
ATOM     13  C   UNL     1      -6.532 -51.766   0.315  1.00  0.00    -0.000 C 
BRANCH  13  14
ATOM     14  C   UNL     1      -7.134 -51.494   1.702  1.00  0.00    -0.000 C 
BRANCH  14  15
ATOM     15  C   UNL     1      -8.584 -50.973   1.617  1.00  0.00    -0.000 C 
BRANCH  15  16
ATOM     16  C   UNL     1      -9.120 -50.425   2.950  1.00  0.00    -0.003 C 
ATOM     17  C   UNL     1      -8.157 -50.636   4.116  1.00  0.00     0.004 C 
ENDBRANCH  15  16
ENDBRANCH  14  15
ENDBRANCH  13  14
ENDBRANCH  12  13
ENDBRANCH  11  12
ENDBRANCH  10  11
ENDBRANCH   1  10
TORSDOF 13
ENDMDL
MODEL 2
REMARK VINA RESULT:    -3.491      2.504      6.260
REMARK INTER + INTRA:          -6.892
REMARK INTER:                  -5.937
REMARK INTRA:                  -0.955
REMARK UNBOUND:                -0.749
REMARK SMILES CCCCCCCCCCCCCCC(=O)[O-]
REMARK SMILES IDX 9 1 10 2 11 3 12 4 13 5 14 6 15 7 16 8 17 9 8 10 7 11 6 12
REMARK SMILES IDX 5 13 4 14 3 15 2 16 1 17
REMARK H PARENT
REMARK Flexibility Score: inf
ROOT
ATOM      1  C   UNL     1      -2.073 -50.701   2.254  1.00  0.00     0.000 C 
ENDROOT
BRANCH   1   2
ATOM      2  C   UNL     1      -2.413 -51.013   0.785  1.00  0.00     0.000 C 
BRANCH   2   3
ATOM      3  C   UNL     1      -3.864 -50.704   0.373  1.00  0.00     0.000 C 
BRANCH   3   4
ATOM      4  C   UNL     1      -4.680 -51.920  -0.105  1.00  0.00     0.000 C 
BRANCH   4   5
ATOM      5  C   UNL     1      -6.151 -51.909   0.373  1.00  0.00     0.006 C 
BRANCH   5   6
ATOM      6  C   UNL     1      -6.307 -51.953   1.900  1.00  0.00     0.053 C 
BRANCH   6   7
ATOM      7  C   UNL     1      -7.679 -51.537   2.333  1.00  0.00     0.041 C 
ATOM      8  O   UNL     1      -8.508 -51.104   1.489  1.00  0.00    -0.550 OA
ATOM      9  O   UNL     1      -8.051 -51.646   3.667  1.00  0.00    -0.550 OA
ENDBRANCH   6   7
ENDBRANCH   5   6
ENDBRANCH   4   5
ENDBRANCH   3   4
ENDBRANCH   2   3
ENDBRANCH   1   2
BRANCH   1  10
ATOM     10  C   UNL     1      -2.402 -51.863   3.203  1.00  0.00     0.000 C 
BRANCH  10  11
ATOM     11  C   UNL     1      -3.326 -51.399   4.337  1.00  0.00    -0.000 C 
BRANCH  11  12
ATOM     12  C   UNL     1      -2.995 -52.124   5.648  1.00  0.00    -0.000 C 
BRANCH  12  13
ATOM     13  C   UNL     1      -2.088 -51.265   6.537  1.00  0.00    -0.000 C 
BRANCH  13  14
ATOM     14  C   UNL     1      -2.828 -50.816   7.808  1.00  0.00    -0.000 C 
BRANCH  14  15
ATOM     15  C   UNL     1      -4.114 -51.632   8.053  1.00  0.00    -0.000 C 
BRANCH  15  16
ATOM     16  C   UNL     1      -4.829 -51.274   9.367  1.00  0.00    -0.003 C 
ATOM     17  C   UNL     1      -6.249 -50.753   9.154  1.00  0.00     0.004 C 
ENDBRANCH  15  16
ENDBRANCH  14  15
ENDBRANCH  13  14
ENDBRANCH  12  13
ENDBRANCH  11  12
ENDBRANCH  10  11
ENDBRANCH   1  10
TORSDOF 13
ENDMDL
MODEL 3
REMARK VINA RESULT:    -3.482      2.453      5.540
REMARK INTER + INTRA:          -6.877
REMARK INTER:                  -5.601
REMARK INTRA:                  -1.276
REMARK UNBOUND:                -0.749
REMARK SMILES CCCCCCCCCCCCCCC(=O)[O-]
REMARK SMILES IDX 9 1 10 2 11 3 12 4 13 5 14 6 15 7 16 8 17 9 8 10 7 11 6 12
REMARK SMILES IDX 5 13 4 14 3 15 2 16 1 17
REMARK H PARENT
REMARK Flexibility Score: inf
ROOT
ATOM      1  C   UNL     1      -3.289 -50.631   0.732  1.00  0.00     0.000 C 
ENDROOT
BRANCH   1   2
ATOM      2  C   UNL     1      -4.592 -50.674  -0.086  1.00  0.00     0.000 C 
BRANCH   2   3
ATOM      3  C   UNL     1      -5.740 -51.472   0.559  1.00  0.00     0.000 C 
BRANCH   3   4
ATOM      4  C   UNL     1      -5.416 -52.086   1.933  1.00  0.00     0.000 C 
BRANCH   4   5
ATOM      5  C   UNL     1      -6.590 -52.018   2.939  1.00  0.00     0.006 C 
BRANCH   5   6
ATOM      6  C   UNL     1      -7.703 -51.043   2.526  1.00  0.00     0.053 C 
BRANCH   6   7
ATOM      7  C   UNL     1      -8.552 -50.640   3.692  1.00  0.00     0.041 C 
ATOM      8  O   UNL     1      -9.038 -49.479   3.753  1.00  0.00    -0.550 OA
ATOM      9  O   UNL     1      -8.824 -51.553   4.703  1.00  0.00    -0.550 OA
ENDBRANCH   6   7
ENDBRANCH   5   6
ENDBRANCH   4   5
ENDBRANCH   3   4
ENDBRANCH   2   3
ENDBRANCH   1   2
BRANCH   1  10
ATOM     10  C   UNL     1      -2.098 -51.260  -0.006  1.00  0.00     0.000 C 
BRANCH  10  11
ATOM     11  C   UNL     1      -1.156 -51.969   0.977  1.00  0.00    -0.000 C 
BRANCH  11  12
ATOM     12  C   UNL     1      -1.813 -52.124   2.354  1.00  0.00    -0.000 C 
BRANCH  12  13
ATOM     13  C   UNL     1      -0.975 -51.443   3.442  1.00  0.00    -0.000 C 
BRANCH  13  14
ATOM     14  C   UNL     1      -1.506 -51.787   4.843  1.00  0.00    -0.000 C 
BRANCH  14  15
ATOM     15  C   UNL     1      -3.020 -52.085   4.836  1.00  0.00    -0.000 C 
BRANCH  15  16
ATOM     16  C   UNL     1      -3.783 -51.420   5.994  1.00  0.00    -0.003 C 
ATOM     17  C   UNL     1      -3.455 -52.027   7.356  1.00  0.00     0.004 C 
ENDBRANCH  15  16
ENDBRANCH  14  15
ENDBRANCH  13  14
ENDBRANCH  12  13
ENDBRANCH  11  12
ENDBRANCH  10  11
ENDBRANCH   1  10
TORSDOF 13
ENDMDL
MODEL 4
REMARK VINA RESULT:    -3.208      3.400      6.767
REMARK INTER + INTRA:          -6.394
REMARK INTER:                  -5.638
REMARK INTRA:                  -0.756
REMARK UNBOUND:                -0.749
REMARK SMILES CCCCCCCCCCCCCCC(=O)[O-]
REMARK SMILES IDX 9 1 10 2 11 3 12 4 13 5 14 6 15 7 16 8 17 9 8 10 7 11 6 12
REMARK SMILES IDX 5 13 4 14 3 15 2 16 1 17
REMARK H PARENT
REMARK Flexibility Score: inf
ROOT
ATOM      1  C   UNL     1      -3.776 -51.159   3.900  1.00  0.00     0.000 C 
ENDROOT
BRANCH   1   2
ATOM      2  C   UNL     1      -4.650 -52.124   3.079  1.00  0.00     0.000 C 
BRANCH   2   3
ATOM      3  C   UNL     1      -5.619 -51.447   2.091  1.00  0.00     0.000 C 
BRANCH   3   4
ATOM      4  C   UNL     1      -5.216 -51.549   0.609  1.00  0.00     0.000 C 
BRANCH   4   5
ATOM      5  C   UNL     1      -3.789 -52.102   0.387  1.00  0.00     0.006 C 
BRANCH   5   6
ATOM      6  C   UNL     1      -2.761 -51.028  -0.001  1.00  0.00     0.053 C 
BRANCH   6   7
ATOM      7  C   UNL     1      -1.403 -51.329   0.557  1.00  0.00     0.041 C 
ATOM      8  O   UNL     1      -1.212 -51.325   1.801  1.00  0.00    -0.550 OA
ATOM      9  O   UNL     1      -0.353 -51.634  -0.299  1.00  0.00    -0.550 OA
ENDBRANCH   6   7
ENDBRANCH   5   6
ENDBRANCH   4   5
ENDBRANCH   3   4
ENDBRANCH   2   3
ENDBRANCH   1   2
BRANCH   1  10
ATOM     10  C   UNL     1      -2.735 -51.883   4.766  1.00  0.00     0.000 C 
BRANCH  10  11
ATOM     11  C   UNL     1      -2.525 -51.152   6.098  1.00  0.00    -0.000 C 
BRANCH  11  12
ATOM     12  C   UNL     1      -2.851 -52.066   7.285  1.00  0.00    -0.000 C 
BRANCH  12  13
ATOM     13  C   UNL     1      -4.237 -51.748   7.859  1.00  0.00    -0.000 C 
BRANCH  13  14
ATOM     14  C   UNL     1      -4.162 -51.494   9.372  1.00  0.00    -0.000 C 
BRANCH  14  15
ATOM     15  C   UNL     1      -5.382 -50.706   9.893  1.00  0.00    -0.000 C 
BRANCH  15  16
ATOM     16  C   UNL     1      -6.674 -50.979   9.104  1.00  0.00    -0.003 C 
ATOM     17  C   UNL     1      -7.712 -49.868   9.251  1.00  0.00     0.004 C 
ENDBRANCH  15  16
ENDBRANCH  14  15
ENDBRANCH  13  14
ENDBRANCH  12  13
ENDBRANCH  11  12
ENDBRANCH  10  11
ENDBRANCH   1  10
TORSDOF 13
ENDMDL
MODEL 5
REMARK VINA RESULT:    -3.178      1.109      1.945
REMARK INTER + INTRA:          -6.342
REMARK INTER:                  -5.925
REMARK INTRA:                  -0.418
REMARK UNBOUND:                -0.749
REMARK SMILES CCCCCCCCCCCCCCC(=O)[O-]
REMARK SMILES IDX 9 1 10 2 11 3 12 4 13 5 14 6 15 7 16 8 17 9 8 10 7 11 6 12
REMARK SMILES IDX 5 13 4 14 3 15 2 16 1 17
REMARK H PARENT
REMARK Flexibility Score: inf
ROOT
ATOM      1  C   UNL     1      -2.756 -51.873   3.166  1.00  0.00     0.000 C 
ENDROOT
BRANCH   1   2
ATOM      2  C   UNL     1      -2.271 -52.125   4.606  1.00  0.00     0.000 C 
BRANCH   2   3
ATOM      3  C   UNL     1      -3.379 -52.123   5.676  1.00  0.00     0.000 C 
BRANCH   3   4
ATOM      4  C   UNL     1      -2.883 -51.984   7.127  1.00  0.00     0.000 C 
BRANCH   4   5
ATOM      5  C   UNL     1      -3.474 -50.765   7.873  1.00  0.00     0.006 C 
BRANCH   5   6
ATOM      6  C   UNL     1      -4.095 -51.113   9.234  1.00  0.00     0.053 C 
BRANCH   6   7
ATOM      7  C   UNL     1      -5.515 -51.572   9.097  1.00  0.00     0.041 C 
ATOM      8  O   UNL     1      -6.159 -51.956  10.109  1.00  0.00    -0.550 OA
ATOM      9  O   UNL     1      -6.134 -51.558   7.854  1.00  0.00    -0.550 OA
ENDBRANCH   6   7
ENDBRANCH   5   6
ENDBRANCH   4   5
ENDBRANCH   3   4
ENDBRANCH   2   3
ENDBRANCH   1   2
BRANCH   1  10
ATOM     10  C   UNL     1      -1.767 -51.039   2.339  1.00  0.00     0.000 C 
BRANCH  10  11
ATOM     11  C   UNL     1      -2.194 -50.983   0.866  1.00  0.00    -0.000 C 
BRANCH  11  12
ATOM     12  C   UNL     1      -3.695 -50.693   0.740  1.00  0.00    -0.000 C 
BRANCH  12  13
ATOM     13  C   UNL     1      -4.464 -51.953   0.324  1.00  0.00    -0.000 C 
BRANCH  13  14
ATOM     14  C   UNL     1      -5.936 -51.626   0.024  1.00  0.00    -0.000 C 
BRANCH  14  15
ATOM     15  C   UNL     1      -6.882 -52.119   1.138  1.00  0.00    -0.000 C 
BRANCH  15  16
ATOM     16  C   UNL     1      -8.051 -51.161   1.422  1.00  0.00    -0.003 C 
ATOM     17  C   UNL     1      -8.226 -50.853   2.908  1.00  0.00     0.004 C 
ENDBRANCH  15  16
ENDBRANCH  14  15
ENDBRANCH  13  14
ENDBRANCH  12  13
ENDBRANCH  11  12
ENDBRANCH  10  11
ENDBRANCH   1  10
TORSDOF 13
ENDMDL
MODEL 6
REMARK VINA RESULT:    -3.089      1.665      3.374
REMARK INTER + INTRA:          -6.186
REMARK INTER:                  -5.763
REMARK INTRA:                  -0.423
REMARK UNBOUND:                -0.749
REMARK SMILES CCCCCCCCCCCCCCC(=O)[O-]
REMARK SMILES IDX 9 1 10 2 11 3 12 4 13 5 14 6 15 7 16 8 17 9 8 10 7 11 6 12
REMARK SMILES IDX 5 13 4 14 3 15 2 16 1 17
REMARK H PARENT
REMARK Flexibility Score: inf
ROOT
ATOM      1  C   UNL     1      -2.893 -52.054   4.983  1.00  0.00     0.000 C 
ENDROOT
BRANCH   1   2
ATOM      2  C   UNL     1      -1.645 -51.269   5.424  1.00  0.00     0.000 C 
BRANCH   2   3
ATOM      3  C   UNL     1      -1.562 -50.971   6.933  1.00  0.00     0.000 C 
BRANCH   3   4
ATOM      4  C   UNL     1      -2.085 -52.092   7.850  1.00  0.00     0.000 C 
BRANCH   4   5
ATOM      5  C   UNL     1      -2.329 -51.641   9.309  1.00  0.00     0.006 C 
BRANCH   5   6
ATOM      6  C   UNL     1      -3.768 -51.872   9.795  1.00  0.00     0.053 C 
BRANCH   6   7
ATOM      7  C   UNL     1      -4.763 -51.118   8.968  1.00  0.00     0.041 C 
ATOM      8  O   UNL     1      -5.337 -50.099   9.436  1.00  0.00    -0.550 OA
ATOM      9  O   UNL     1      -5.043 -51.529   7.671  1.00  0.00    -0.550 OA
ENDBRANCH   6   7
ENDBRANCH   5   6
ENDBRANCH   4   5
ENDBRANCH   3   4
ENDBRANCH   2   3
ENDBRANCH   1   2
BRANCH   1  10
ATOM     10  C   UNL     1      -3.100 -52.044   3.462  1.00  0.00     0.000 C 
BRANCH  10  11
ATOM     11  C   UNL     1      -1.770 -51.827   2.729  1.00  0.00    -0.000 C 
BRANCH  11  12
ATOM     12  C   UNL     1      -1.762 -50.482   1.991  1.00  0.00    -0.000 C 
BRANCH  12  13
ATOM     13  C   UNL     1      -2.751 -50.493   0.819  1.00  0.00    -0.000 C 
BRANCH  13  14
ATOM     14  C   UNL     1      -2.942 -51.916   0.272  1.00  0.00    -0.000 C 
BRANCH  14  15
ATOM     15  C   UNL     1      -4.344 -52.125  -0.337  1.00  0.00    -0.000 C 
BRANCH  15  16
ATOM     16  C   UNL     1      -5.363 -51.053   0.084  1.00  0.00    -0.003 C 
ATOM     17  C   UNL     1      -6.520 -51.615   0.909  1.00  0.00     0.004 C 
ENDBRANCH  15  16
ENDBRANCH  14  15
ENDBRANCH  13  14
ENDBRANCH  12  13
ENDBRANCH  11  12
ENDBRANCH  10  11
ENDBRANCH   1  10
TORSDOF 13
ENDMDL
MODEL 7
REMARK VINA RESULT:    -3.080      2.849      5.418
REMARK INTER + INTRA:          -6.169
REMARK INTER:                  -5.506
REMARK INTRA:                  -0.662
REMARK UNBOUND:                -0.749
REMARK SMILES CCCCCCCCCCCCCCC(=O)[O-]
REMARK SMILES IDX 9 1 10 2 11 3 12 4 13 5 14 6 15 7 16 8 17 9 8 10 7 11 6 12
REMARK SMILES IDX 5 13 4 14 3 15 2 16 1 17
REMARK H PARENT
REMARK Flexibility Score: inf
ROOT
ATOM      1  C   UNL     1      -2.901 -51.206   5.892  1.00  0.00     0.000 C 
ENDROOT
BRANCH   1   2
ATOM      2  C   UNL     1      -4.269 -51.844   5.590  1.00  0.00     0.000 C 
BRANCH   2   3
ATOM      3  C   UNL     1      -4.668 -51.856   4.102  1.00  0.00     0.000 C 
BRANCH   3   4
ATOM      4  C   UNL     1      -6.167 -52.078   3.830  1.00  0.00     0.000 C 
BRANCH   4   5
ATOM      5  C   UNL     1      -7.039 -52.080   5.108  1.00  0.00     0.006 C 
BRANCH   5   6
ATOM      6  C   UNL     1      -8.511 -51.721   4.853  1.00  0.00     0.053 C 
BRANCH   6   7
ATOM      7  C   UNL     1      -8.653 -50.665   3.800  1.00  0.00     0.041 C 
ATOM      8  O   UNL     1      -8.771 -49.454   4.126  1.00  0.00    -0.550 OA
ATOM      9  O   UNL     1      -8.634 -51.016   2.456  1.00  0.00    -0.550 OA
ENDBRANCH   6   7
ENDBRANCH   5   6
ENDBRANCH   4   5
ENDBRANCH   3   4
ENDBRANCH   2   3
ENDBRANCH   1   2
BRANCH   1  10
ATOM     10  C   UNL     1      -1.722 -52.060   5.404  1.00  0.00     0.000 C 
BRANCH  10  11
ATOM     11  C   UNL     1      -0.908 -51.314   4.339  1.00  0.00    -0.000 C 
BRANCH  11  12
ATOM     12  C   UNL     1      -0.981 -52.033   2.987  1.00  0.00    -0.000 C 
BRANCH  12  13
ATOM     13  C   UNL     1      -2.177 -51.538   2.165  1.00  0.00    -0.000 C 
BRANCH  13  14
ATOM     14  C   UNL     1      -1.796 -51.364   0.686  1.00  0.00    -0.000 C 
BRANCH  14  15
ATOM     15  C   UNL     1      -2.995 -50.917  -0.176  1.00  0.00    -0.000 C 
BRANCH  15  16
ATOM     16  C   UNL     1      -4.339 -50.954   0.570  1.00  0.00    -0.003 C 
ATOM     17  C   UNL     1      -5.543 -51.028  -0.367  1.00  0.00     0.004 C 
ENDBRANCH  15  16
ENDBRANCH  14  15
ENDBRANCH  13  14
ENDBRANCH  12  13
ENDBRANCH  11  12
ENDBRANCH  10  11
ENDBRANCH   1  10
TORSDOF 13
ENDMDL
MODEL 8
REMARK VINA RESULT:    -2.860      2.719      6.327
REMARK INTER + INTRA:          -5.783
REMARK INTER:                  -5.000
REMARK INTRA:                  -0.782
REMARK UNBOUND:                -0.749
REMARK SMILES CCCCCCCCCCCCCCC(=O)[O-]
REMARK SMILES IDX 9 1 10 2 11 3 12 4 13 5 14 6 15 7 16 8 17 9 8 10 7 11 6 12
REMARK SMILES IDX 5 13 4 14 3 15 2 16 1 17
REMARK H PARENT
REMARK Flexibility Score: inf
ROOT
ATOM      1  C   UNL     1      -2.906 -50.632   0.928  1.00  0.00     0.000 C 
ENDROOT
BRANCH   1   2
ATOM      2  C   UNL     1      -4.442 -50.553   0.857  1.00  0.00     0.000 C 
BRANCH   2   3
ATOM      3  C   UNL     1      -5.070 -51.195  -0.394  1.00  0.00     0.000 C 
BRANCH   3   4
ATOM      4  C   UNL     1      -6.267 -52.125  -0.119  1.00  0.00     0.000 C 
BRANCH   4   5
ATOM      5  C   UNL     1      -6.795 -52.049   1.333  1.00  0.00     0.006 C 
BRANCH   5   6
ATOM      6  C   UNL     1      -8.325 -52.110   1.439  1.00  0.00     0.053 C 
BRANCH   6   7
ATOM      7  C   UNL     1      -8.858 -51.091   2.400  1.00  0.00     0.041 C 
ATOM      8  O   UNL     1      -9.064 -51.401   3.604  1.00  0.00    -0.550 OA
ATOM      9  O   UNL     1      -9.108 -49.794   1.972  1.00  0.00    -0.550 OA
ENDBRANCH   6   7
ENDBRANCH   5   6
ENDBRANCH   4   5
ENDBRANCH   3   4
ENDBRANCH   2   3
ENDBRANCH   1   2
BRANCH   1  10
ATOM     10  C   UNL     1      -2.391 -52.055   1.184  1.00  0.00     0.000 C 
BRANCH  10  11
ATOM     11  C   UNL     1      -1.561 -52.114   2.473  1.00  0.00    -0.000 C 
BRANCH  11  12
ATOM     12  C   UNL     1      -2.435 -51.846   3.704  1.00  0.00    -0.000 C 
BRANCH  12  13
ATOM     13  C   UNL     1      -1.584 -51.768   4.977  1.00  0.00    -0.000 C 
BRANCH  13  14
ATOM     14  C   UNL     1      -2.416 -52.122   6.219  1.00  0.00    -0.000 C 
BRANCH  14  15
ATOM     15  C   UNL     1      -2.397 -50.998   7.275  1.00  0.00    -0.000 C 
BRANCH  15  16
ATOM     16  C   UNL     1      -3.579 -51.055   8.257  1.00  0.00    -0.003 C 
ATOM     17  C   UNL     1      -4.644 -52.073   7.854  1.00  0.00     0.004 C 
ENDBRANCH  15  16
ENDBRANCH  14  15
ENDBRANCH  13  14
ENDBRANCH  12  13
ENDBRANCH  11  12
ENDBRANCH  10  11
ENDBRANCH   1  10
TORSDOF 13
ENDMDL
