MODEL 1
REMARK VINA RESULT:    -4.092      0.000      0.000
REMARK INTER + INTRA:          -4.762
REMARK INTER:                  -4.690
REMARK INTRA:                  -0.073
REMARK UNBOUND:                -0.073
REMARK SMILES C=Cc1ccc(O)c(OC)c1
REMARK SMILES IDX 8 1 6 2 5 3 4 4 3 5 11 6 9 7 10 8 7 9 2 11 1 12
REMARK H PARENT 7 10
REMARK Flexibility Score: inf
ROOT
ATOM      1  C   UNL     1     104.549 105.906 102.064  1.00  0.00     0.161 A 
ATOM      2  C   UNL     1     105.017 107.226 102.101  1.00  0.00     0.157 A 
ATOM      3  C   UNL     1     106.382 107.481 102.281  1.00  0.00     0.051 A 
ATOM      4  C   UNL     1     107.285 106.426 102.430  1.00  0.00     0.012 A 
ATOM      5  C   UNL     1     106.832 105.093 102.410  1.00  0.00    -0.022 A 
ATOM      6  C   UNL     1     105.462 104.844 102.215  1.00  0.00     0.058 A 
ENDROOT
BRANCH   1   7
ATOM      7  O   UNL     1     103.174 105.691 101.878  1.00  0.00    -0.493 OA
ATOM      8  C   UNL     1     102.502 104.468 102.165  1.00  0.00     0.278 C 
ENDBRANCH   1   7
BRANCH   2   9
ATOM      9  O   UNL     1     104.119 108.281 101.953  1.00  0.00    -0.504 OA
ATOM     10  H   UNL     1     103.619 108.668 102.746  1.00  0.00     0.293 HD
ENDBRANCH   2   9
BRANCH   5  11
ATOM     11  C   UNL     1     107.750 103.935 102.555  1.00  0.00     0.000 C 
ATOM     12  C   UNL     1     107.483 102.706 102.112  1.00  0.00     0.009 C 
ENDBRANCH   5  11
TORSDOF 3
ENDMDL
MODEL 2
REMARK VINA RESULT:    -4.042      1.667      3.416
REMARK INTER + INTRA:          -4.706
REMARK INTER:                  -4.633
REMARK INTRA:                  -0.073
REMARK UNBOUND:                -0.073
REMARK SMILES C=Cc1ccc(O)c(OC)c1
REMARK SMILES IDX 8 1 6 2 5 3 4 4 3 5 11 6 9 7 10 8 7 9 2 11 1 12
REMARK H PARENT 7 10
REMARK Flexibility Score: inf
ROOT
ATOM      1  C   UNL     1     106.144 104.572 102.081  1.00  0.00     0.161 A 
ATOM      2  C   UNL     1     104.823 105.035 102.131  1.00  0.00     0.157 A 
ATOM      3  C   UNL     1     104.563 106.397 102.330  1.00  0.00     0.051 A 
ATOM      4  C   UNL     1     105.616 107.302 102.484  1.00  0.00     0.012 A 
ATOM      5  C   UNL     1     106.950 106.853 102.451  1.00  0.00    -0.022 A 
ATOM      6  C   UNL     1     107.204 105.488 102.237  1.00  0.00     0.058 A 
ENDROOT
BRANCH   1   7
ATOM      7  O   UNL     1     106.363 103.201 101.875  1.00  0.00    -0.493 OA
ATOM      8  C   UNL     1     107.576 102.522 102.187  1.00  0.00     0.278 C 
ENDBRANCH   1   7
BRANCH   2   9
ATOM      9  O   UNL     1     103.770 104.135 101.977  1.00  0.00    -0.504 OA
ATOM     10  H   UNL     1     102.850 104.323 102.359  1.00  0.00     0.293 HD
ENDBRANCH   2   9
BRANCH   5  11
ATOM     11  C   UNL     1     108.106 107.774 102.601  1.00  0.00     0.000 C 
ATOM     12  C   UNL     1     109.335 107.513 102.157  1.00  0.00     0.009 C 
ENDBRANCH   5  11
TORSDOF 3
ENDMDL
MODEL 3
REMARK VINA RESULT:    -4.042      1.666      3.352
REMARK INTER + INTRA:          -4.705
REMARK INTER:                  -4.631
REMARK INTRA:                  -0.073
REMARK UNBOUND:                -0.073
REMARK SMILES C=Cc1ccc(O)c(OC)c1
REMARK SMILES IDX 8 1 6 2 5 3 4 4 3 5 11 6 9 7 10 8 7 9 2 11 1 12
REMARK H PARENT 7 10
REMARK Flexibility Score: inf
ROOT
ATOM      1  C   UNL     1     105.955 107.418 102.126  1.00  0.00     0.161 A 
ATOM      2  C   UNL     1     107.290 107.007 102.248  1.00  0.00     0.157 A 
ATOM      3  C   UNL     1     107.590 105.662 102.493  1.00  0.00     0.051 A 
ATOM      4  C   UNL     1     106.566 104.721 102.622  1.00  0.00     0.012 A 
ATOM      5  C   UNL     1     105.219 105.117 102.517  1.00  0.00    -0.022 A 
ATOM      6  C   UNL     1     104.925 106.466 102.257  1.00  0.00     0.058 A 
ENDROOT
BRANCH   1   7
ATOM      7  O   UNL     1     105.695 108.774 101.875  1.00  0.00    -0.493 OA
ATOM      8  C   UNL     1     104.462 109.426 102.165  1.00  0.00     0.278 C 
ENDBRANCH   1   7
BRANCH   2   9
ATOM      9  O   UNL     1     108.314 107.944 102.120  1.00  0.00    -0.504 OA
ATOM     10  H   UNL     1     109.269 107.663 101.928  1.00  0.00     0.293 HD
ENDBRANCH   2   9
BRANCH   5  11
ATOM     11  C   UNL     1     104.093 104.156 102.637  1.00  0.00     0.000 C 
ATOM     12  C   UNL     1     102.821 104.454 102.372  1.00  0.00     0.009 C 
ENDBRANCH   5  11
TORSDOF 3
ENDMDL
MODEL 4
REMARK VINA RESULT:    -3.907      2.956      3.809
REMARK INTER + INTRA:          -4.550
REMARK INTER:                  -4.478
REMARK INTRA:                  -0.072
REMARK UNBOUND:                -0.073
REMARK SMILES C=Cc1ccc(O)c(OC)c1
REMARK SMILES IDX 8 1 6 2 5 3 4 4 3 5 11 6 9 7 10 8 7 9 2 11 1 12
REMARK H PARENT 7 10
REMARK Flexibility Score: inf
ROOT
ATOM      1  C   UNL     1     105.241 104.541 105.221  1.00  0.00     0.161 A 
ATOM      2  C   UNL     1     103.941 104.899 104.837  1.00  0.00     0.157 A 
ATOM      3  C   UNL     1     103.584 104.894 103.483  1.00  0.00     0.051 A 
ATOM      4  C   UNL     1     104.516 104.536 102.507  1.00  0.00     0.012 A 
ATOM      5  C   UNL     1     105.830 104.186 102.873  1.00  0.00    -0.022 A 
ATOM      6  C   UNL     1     106.179 104.181 104.234  1.00  0.00     0.058 A 
ENDROOT
BRANCH   1   7
ATOM      7  O   UNL     1     105.559 104.555 106.588  1.00  0.00    -0.493 OA
ATOM      8  C   UNL     1     106.781 104.071 107.137  1.00  0.00     0.278 C 
ENDBRANCH   1   7
BRANCH   2   9
ATOM      9  O   UNL     1     103.008 105.257 105.809  1.00  0.00    -0.504 OA
ATOM     10  H   UNL     1     102.086 105.597 105.560  1.00  0.00     0.293 HD
ENDBRANCH   2   9
BRANCH   5  11
ATOM     11  C   UNL     1     106.858 103.790 101.876  1.00  0.00     0.000 C 
ATOM     12  C   UNL     1     107.508 102.626 101.892  1.00  0.00     0.009 C 
ENDBRANCH   5  11
TORSDOF 3
ENDMDL
MODEL 5
REMARK VINA RESULT:    -3.879      2.259      3.144
REMARK INTER + INTRA:          -4.518
REMARK INTER:                  -4.428
REMARK INTRA:                  -0.090
REMARK UNBOUND:                -0.073
REMARK SMILES C=Cc1ccc(O)c(OC)c1
REMARK SMILES IDX 8 1 6 2 5 3 4 4 3 5 11 6 9 7 10 8 7 9 2 11 1 12
REMARK H PARENT 7 10
REMARK Flexibility Score: inf
ROOT
ATOM      1  C   UNL     1     105.244 108.262 104.268  1.00  0.00     0.161 A 
ATOM      2  C   UNL     1     104.665 108.633 103.047  1.00  0.00     0.157 A 
ATOM      3  C   UNL     1     104.998 107.944 101.875  1.00  0.00     0.051 A 
ATOM      4  C   UNL     1     105.911 106.888 101.911  1.00  0.00     0.012 A 
ATOM      5  C   UNL     1     106.514 106.509 103.126  1.00  0.00    -0.022 A 
ATOM      6  C   UNL     1     106.165 107.196 104.301  1.00  0.00     0.058 A 
ENDROOT
BRANCH   1   7
ATOM      7  O   UNL     1     104.881 108.974 105.422  1.00  0.00    -0.493 OA
ATOM      8  C   UNL     1     104.904 108.438 106.742  1.00  0.00     0.278 C 
ENDBRANCH   1   7
BRANCH   2   9
ATOM      9  O   UNL     1     103.754 109.688 103.008  1.00  0.00    -0.504 OA
ATOM     10  H   UNL     1     104.021 110.608 102.678  1.00  0.00     0.293 HD
ENDBRANCH   2   9
BRANCH   5  11
ATOM     11  C   UNL     1     107.483 105.389 103.221  1.00  0.00     0.000 C 
ATOM     12  C   UNL     1     107.407 104.268 102.503  1.00  0.00     0.009 C 
ENDBRANCH   5  11
TORSDOF 3
ENDMDL
MODEL 6
REMARK VINA RESULT:    -3.862      3.114      4.709
REMARK INTER + INTRA:          -4.499
REMARK INTER:                  -4.413
REMARK INTRA:                  -0.086
REMARK UNBOUND:                -0.073
REMARK SMILES C=Cc1ccc(O)c(OC)c1
REMARK SMILES IDX 8 1 6 2 5 3 4 4 3 5 11 6 9 7 10 8 7 9 2 11 1 12
REMARK H PARENT 7 10
REMARK Flexibility Score: inf
ROOT
ATOM      1  C   UNL     1     106.755 103.737 104.268  1.00  0.00     0.161 A 
ATOM      2  C   UNL     1     107.332 103.372 103.044  1.00  0.00     0.157 A 
ATOM      3  C   UNL     1     106.990 104.063 101.875  1.00  0.00     0.051 A 
ATOM      4  C   UNL     1     106.073 105.115 101.918  1.00  0.00     0.012 A 
ATOM      5  C   UNL     1     105.472 105.486 103.136  1.00  0.00    -0.022 A 
ATOM      6  C   UNL     1     105.829 104.798 104.308  1.00  0.00     0.058 A 
ENDROOT
BRANCH   1   7
ATOM      7  O   UNL     1     107.126 103.023 105.419  1.00  0.00    -0.493 OA
ATOM      8  C   UNL     1     107.242 103.593 106.719  1.00  0.00     0.278 C 
ENDBRANCH   1   7
BRANCH   2   9
ATOM      9  O   UNL     1     108.248 102.323 102.999  1.00  0.00    -0.504 OA
ATOM     10  H   UNL     1     107.953 101.357 103.087  1.00  0.00     0.293 HD
ENDBRANCH   2   9
BRANCH   5  11
ATOM     11  C   UNL     1     104.498 106.602 103.237  1.00  0.00     0.000 C 
ATOM     12  C   UNL     1     104.763 107.864 102.899  1.00  0.00     0.009 C 
ENDBRANCH   5  11
TORSDOF 3
ENDMDL
MODEL 7
REMARK VINA RESULT:    -3.798      2.406      4.803
REMARK INTER + INTRA:          -4.426
REMARK INTER:                  -4.353
REMARK INTRA:                  -0.073
REMARK UNBOUND:                -0.073
REMARK SMILES C=Cc1ccc(O)c(OC)c1
REMARK SMILES IDX 8 1 6 2 5 3 4 4 3 5 11 6 9 7 10 8 7 9 2 11 1 12
REMARK H PARENT 7 10
REMARK Flexibility Score: inf
ROOT
ATOM      1  C   UNL     1     107.369 106.173 102.090  1.00  0.00     0.161 A 
ATOM      2  C   UNL     1     106.919 104.846 102.057  1.00  0.00     0.157 A 
ATOM      3  C   UNL     1     105.555 104.565 102.203  1.00  0.00     0.051 A 
ATOM      4  C   UNL     1     104.635 105.600 102.386  1.00  0.00     0.012 A 
ATOM      5  C   UNL     1     105.070 106.938 102.435  1.00  0.00    -0.022 A 
ATOM      6  C   UNL     1     106.439 107.215 102.275  1.00  0.00     0.058 A 
ENDROOT
BRANCH   1   7
ATOM      7  O   UNL     1     108.744 106.414 101.936  1.00  0.00    -0.493 OA
ATOM      8  C   UNL     1     109.388 107.643 102.259  1.00  0.00     0.278 C 
ENDBRANCH   1   7
BRANCH   2   9
ATOM      9  O   UNL     1     107.834 103.811 101.875  1.00  0.00    -0.504 OA
ATOM     10  H   UNL     1     107.980 103.101 102.583  1.00  0.00     0.293 HD
ENDBRANCH   2   9
BRANCH   5  11
ATOM     11  C   UNL     1     104.134 108.076 102.619  1.00  0.00     0.000 C 
ATOM     12  C   UNL     1     104.432 109.345 102.339  1.00  0.00     0.009 C 
ENDBRANCH   5  11
TORSDOF 3
ENDMDL
MODEL 8
REMARK VINA RESULT:    -3.763      2.062      3.688
REMARK INTER + INTRA:          -4.385
REMARK INTER:                  -4.312
REMARK INTRA:                  -0.073
REMARK UNBOUND:                -0.073
REMARK SMILES C=Cc1ccc(O)c(OC)c1
REMARK SMILES IDX 8 1 6 2 5 3 4 4 3 5 11 6 9 7 10 8 7 9 2 11 1 12
REMARK H PARENT 7 10
REMARK Flexibility Score: inf
ROOT
ATOM      1  C   UNL     1     106.795 105.190 102.032  1.00  0.00     0.161 A 
ATOM      2  C   UNL     1     107.073 106.562 101.977  1.00  0.00     0.157 A 
ATOM      3  C   UNL     1     106.024 107.487 101.901  1.00  0.00     0.051 A 
ATOM      4  C   UNL     1     104.698 107.051 101.875  1.00  0.00     0.012 A 
ATOM      5  C   UNL     1     104.400 105.676 101.916  1.00  0.00    -0.022 A 
ATOM      6  C   UNL     1     105.456 104.753 102.006  1.00  0.00     0.058 A 
ENDROOT
BRANCH   1   7
ATOM      7  O   UNL     1     107.874 104.294 102.112  1.00  0.00    -0.493 OA
ATOM      8  C   UNL     1     107.783 102.966 102.618  1.00  0.00     0.278 C 
ENDBRANCH   1   7
BRANCH   2   9
ATOM      9  O   UNL     1     108.396 107.000 102.002  1.00  0.00    -0.504 OA
ATOM     10  H   UNL     1     108.739 107.690 101.344  1.00  0.00     0.293 HD
ENDBRANCH   2   9
BRANCH   5  11
ATOM     11  C   UNL     1     103.007 105.160 101.899  1.00  0.00     0.000 C 
ATOM     12  C   UNL     1     102.580 104.131 102.631  1.00  0.00     0.009 C 
ENDBRANCH   5  11
TORSDOF 3
ENDMDL
MODEL 9
REMARK VINA RESULT:    -2.208      1.768      3.657
REMARK INTER + INTRA:          -2.604
REMARK INTER:                  -2.532
REMARK INTRA:                  -0.072
REMARK UNBOUND:                -0.073
REMARK SMILES C=Cc1ccc(O)c(OC)c1
REMARK SMILES IDX 8 1 6 2 5 3 4 4 3 5 11 6 9 7 10 8 7 9 2 11 1 12
REMARK H PARENT 7 10
REMARK Flexibility Score: inf
ROOT
ATOM      1  C   UNL     1     105.120 105.148 102.350  1.00  0.00     0.161 A 
ATOM      2  C   UNL     1     106.471 104.814 102.180  1.00  0.00     0.157 A 
ATOM      3  C   UNL     1     107.418 105.818 101.946  1.00  0.00     0.051 A 
ATOM      4  C   UNL     1     107.026 107.157 101.875  1.00  0.00     0.012 A 
ATOM      5  C   UNL     1     105.672 107.511 102.029  1.00  0.00    -0.022 A 
ATOM      6  C   UNL     1     104.729 106.499 102.277  1.00  0.00     0.058 A 
ENDROOT
BRANCH   1   7
ATOM      7  O   UNL     1     104.202 104.113 102.587  1.00  0.00    -0.493 OA
ATOM      8  C   UNL     1     102.788 104.282 102.626  1.00  0.00     0.278 C 
ENDBRANCH   1   7
BRANCH   2   9
ATOM      9  O   UNL     1     106.865 103.479 102.250  1.00  0.00    -0.504 OA
ATOM     10  H   UNL     1     107.682 103.193 102.777  1.00  0.00     0.293 HD
ENDBRANCH   2   9
BRANCH   5  11
ATOM     11  C   UNL     1     105.204 108.919 101.971  1.00  0.00     0.000 C 
ATOM     12  C   UNL     1     104.128 109.378 102.610  1.00  0.00     0.009 C 
ENDBRANCH   5  11
TORSDOF 3
ENDMDL
