MODEL 1
REMARK VINA RESULT:    -6.822      0.000      0.000
REMARK INTER + INTRA:          -8.639
REMARK INTER:                  -8.218
REMARK INTRA:                  -0.421
REMARK UNBOUND:                -0.421
REMARK SMILES O=c1c(O)c(-c2ccc(O)cc2O)oc2cc(O)cc(O)c12
REMARK SMILES IDX 5 1 3 2 2 3 1 4 22 5 20 6 19 7 17 8 16 9 15 10 14 11 6 12
REMARK SMILES IDX 8 13 7 14 9 15 11 16 12 17 10 18 13 20 4 22 21 24 18 26
REMARK H PARENT 10 19 13 21 4 23 21 25 18 27
REMARK Flexibility Score: inf
ROOT
ATOM      1  C   UNL     1     128.120 133.085 129.762  1.00  0.00     0.184 A 
ATOM      2  C   UNL     1     127.183 133.326 130.779  1.00  0.00     0.208 A 
ATOM      3  C   UNL     1     126.082 134.153 130.508  1.00  0.00     0.238 A 
ATOM      4  O   UNL     1     125.217 134.322 131.408  1.00  0.00    -0.285 OA
ATOM      5  C   UNL     1     125.941 134.741 129.227  1.00  0.00     0.111 A 
ATOM      6  C   UNL     1     124.886 135.626 128.854  1.00  0.00     0.134 A 
ATOM      7  C   UNL     1     124.775 136.045 127.522  1.00  0.00     0.093 A 
ATOM      8  C   UNL     1     125.718 135.662 126.565  1.00  0.00     0.123 A 
ATOM      9  C   UNL     1     126.784 134.845 126.934  1.00  0.00     0.094 A 
ATOM     10  C   UNL     1     126.902 134.381 128.246  1.00  0.00     0.146 A 
ATOM     11  O   UNL     1     127.928 133.596 128.552  1.00  0.00    -0.451 OA
ENDROOT
BRANCH   1  12
ATOM     12  C   UNL     1     129.310 132.238 129.986  1.00  0.00     0.063 A 
ATOM     13  C   UNL     1     130.268 130.012 130.179  1.00  0.00     0.047 A 
ATOM     14  C   UNL     1     129.163 130.841 129.976  1.00  0.00     0.020 A 
ATOM     15  C   UNL     1     131.538 130.568 130.380  1.00  0.00     0.119 A 
ATOM     16  C   UNL     1     131.697 131.957 130.369  1.00  0.00     0.093 A 
ATOM     17  C   UNL     1     130.593 132.797 130.160  1.00  0.00     0.130 A 
BRANCH  15  18
ATOM     18  O   UNL     1     132.646 129.751 130.588  1.00  0.00    -0.508 OA
ATOM     19  H   UNL     1     133.115 129.711 131.486  1.00  0.00     0.293 HD
ENDBRANCH  15  18
BRANCH  17  20
ATOM     20  O   UNL     1     130.773 134.179 130.103  1.00  0.00    -0.507 OA
ATOM     21  H   UNL     1     130.518 134.714 129.281  1.00  0.00     0.293 HD
ENDBRANCH  17  20
ENDBRANCH   1  12
BRANCH   2  22
ATOM     22  O   UNL     1     127.337 132.718 132.028  1.00  0.00    -0.502 OA
ATOM     23  H   UNL     1     127.411 133.252 132.887  1.00  0.00     0.293 HD
ENDBRANCH   2  22
BRANCH   6  24
ATOM     24  O   UNL     1     123.947 136.143 129.752  1.00  0.00    -0.507 OA
ATOM     25  H   UNL     1     124.171 136.552 130.645  1.00  0.00     0.293 HD
ENDBRANCH   6  24
BRANCH   8  26
ATOM     26  O   UNL     1     125.608 136.096 125.247  1.00  0.00    -0.508 OA
ATOM     27  H   UNL     1     124.748 136.494 124.889  1.00  0.00     0.293 HD
ENDBRANCH   8  26
TORSDOF 6
ENDMDL
MODEL 2
REMARK VINA RESULT:    -6.654      1.612      1.687
REMARK INTER + INTRA:          -8.437
REMARK INTER:                  -8.023
REMARK INTRA:                  -0.414
REMARK UNBOUND:                -0.421
REMARK SMILES O=c1c(O)c(-c2ccc(O)cc2O)oc2cc(O)cc(O)c12
REMARK SMILES IDX 5 1 3 2 2 3 1 4 22 5 20 6 19 7 17 8 16 9 15 10 14 11 6 12
REMARK SMILES IDX 8 13 7 14 9 15 11 16 12 17 10 18 13 20 4 22 21 24 18 26
REMARK H PARENT 10 19 13 21 4 23 21 25 18 27
REMARK Flexibility Score: inf
ROOT
ATOM      1  C   UNL     1     126.843 132.608 130.557  1.00  0.00     0.184 A 
ATOM      2  C   UNL     1     125.607 132.696 131.215  1.00  0.00     0.208 A 
ATOM      3  C   UNL     1     124.640 133.590 130.730  1.00  0.00     0.238 A 
ATOM      4  O   UNL     1     123.514 133.625 131.292  1.00  0.00    -0.285 OA
ATOM      5  C   UNL     1     124.928 134.394 129.601  1.00  0.00     0.111 A 
ATOM      6  C   UNL     1     124.037 135.361 129.047  1.00  0.00     0.134 A 
ATOM      7  C   UNL     1     124.376 136.008 127.851  1.00  0.00     0.093 A 
ATOM      8  C   UNL     1     125.602 135.769 127.226  1.00  0.00     0.123 A 
ATOM      9  C   UNL     1     126.503 134.869 127.791  1.00  0.00     0.094 A 
ATOM     10  C   UNL     1     126.179 134.183 128.963  1.00  0.00     0.146 A 
ATOM     11  O   UNL     1     127.062 133.326 129.462  1.00  0.00    -0.451 OA
ENDROOT
BRANCH   1  12
ATOM     12  C   UNL     1     127.911 131.700 131.026  1.00  0.00     0.063 A 
ATOM     13  C   UNL     1     128.761 129.434 131.251  1.00  0.00     0.047 A 
ATOM     14  C   UNL     1     127.768 130.318 130.825  1.00  0.00     0.020 A 
ATOM     15  C   UNL     1     129.918 129.921 131.871  1.00  0.00     0.119 A 
ATOM     16  C   UNL     1     130.080 131.297 132.056  1.00  0.00     0.093 A 
ATOM     17  C   UNL     1     129.090 132.193 131.625  1.00  0.00     0.130 A 
BRANCH  15  18
ATOM     18  O   UNL     1     130.912 129.048 132.305  1.00  0.00    -0.508 OA
ATOM     19  H   UNL     1     130.955 128.088 131.979  1.00  0.00     0.293 HD
ENDBRANCH  15  18
BRANCH  17  20
ATOM     20  O   UNL     1     129.285 133.566 131.770  1.00  0.00    -0.507 OA
ATOM     21  H   UNL     1     130.209 133.960 131.904  1.00  0.00     0.293 HD
ENDBRANCH  17  20
ENDBRANCH   1  12
BRANCH   2  22
ATOM     22  O   UNL     1     125.342 131.877 132.317  1.00  0.00    -0.502 OA
ATOM     23  H   UNL     1     124.605 132.082 132.981  1.00  0.00     0.293 HD
ENDBRANCH   2  22
BRANCH   6  24
ATOM     24  O   UNL     1     122.831 135.742 129.642  1.00  0.00    -0.507 OA
ATOM     25  H   UNL     1     122.512 135.431 130.546  1.00  0.00     0.293 HD
ENDBRANCH   6  24
BRANCH   8  26
ATOM     26  O   UNL     1     125.938 136.428 126.046  1.00  0.00    -0.508 OA
ATOM     27  H   UNL     1     126.662 136.077 125.430  1.00  0.00     0.293 HD
ENDBRANCH   8  26
TORSDOF 6
ENDMDL
MODEL 3
REMARK VINA RESULT:    -6.654      3.609      9.024
REMARK INTER + INTRA:          -8.436
REMARK INTER:                  -8.019
REMARK INTRA:                  -0.418
REMARK UNBOUND:                -0.421
REMARK SMILES O=c1c(O)c(-c2ccc(O)cc2O)oc2cc(O)cc(O)c12
REMARK SMILES IDX 5 1 3 2 2 3 1 4 22 5 20 6 19 7 17 8 16 9 15 10 14 11 6 12
REMARK SMILES IDX 8 13 7 14 9 15 11 16 12 17 10 18 13 20 4 22 21 24 18 26
REMARK H PARENT 10 19 13 21 4 23 21 25 18 27
REMARK Flexibility Score: inf
ROOT
ATOM      1  C   UNL     1     130.965 128.975 130.495  1.00  0.00     0.184 A 
ATOM      2  C   UNL     1     131.626 129.257 131.701  1.00  0.00     0.208 A 
ATOM      3  C   UNL     1     132.732 128.475 132.069  1.00  0.00     0.238 A 
ATOM      4  O   UNL     1     133.353 128.767 133.125  1.00  0.00    -0.285 OA
ATOM      5  C   UNL     1     133.153 127.412 131.234  1.00  0.00     0.111 A 
ATOM      6  C   UNL     1     134.236 126.531 131.528  1.00  0.00     0.134 A 
ATOM      7  C   UNL     1     134.646 125.597 130.568  1.00  0.00     0.093 A 
ATOM      8  C   UNL     1     133.970 125.468 129.352  1.00  0.00     0.123 A 
ATOM      9  C   UNL     1     132.874 126.285 129.081  1.00  0.00     0.094 A 
ATOM     10  C   UNL     1     132.464 127.251 130.003  1.00  0.00     0.146 A 
ATOM     11  O   UNL     1     131.421 128.015 129.700  1.00  0.00    -0.451 OA
ENDROOT
BRANCH   1  12
ATOM     12  C   UNL     1     129.784 129.748 130.057  1.00  0.00     0.063 A 
ATOM     13  C   UNL     1     128.872 131.587 128.754  1.00  0.00     0.047 A 
ATOM     14  C   UNL     1     129.967 130.839 129.192  1.00  0.00     0.020 A 
ATOM     15  C   UNL     1     127.578 131.245 129.164  1.00  0.00     0.119 A 
ATOM     16  C   UNL     1     127.384 130.146 130.006  1.00  0.00     0.093 A 
ATOM     17  C   UNL     1     128.478 129.386 130.445  1.00  0.00     0.130 A 
BRANCH  15  18
ATOM     18  O   UNL     1     126.479 131.986 128.737  1.00  0.00    -0.508 OA
ATOM     19  H   UNL     1     125.582 131.549 128.555  1.00  0.00     0.293 HD
ENDBRANCH  15  18
BRANCH  17  20
ATOM     20  O   UNL     1     128.266 128.263 131.246  1.00  0.00    -0.507 OA
ATOM     21  H   UNL     1     127.341 128.012 131.574  1.00  0.00     0.293 HD
ENDBRANCH  17  20
ENDBRANCH   1  12
BRANCH   2  22
ATOM     22  O   UNL     1     131.201 130.323 132.497  1.00  0.00    -0.502 OA
ATOM     23  H   UNL     1     131.027 131.248 132.120  1.00  0.00     0.293 HD
ENDBRANCH   2  22
BRANCH   6  24
ATOM     24  O   UNL     1     134.919 126.514 132.748  1.00  0.00    -0.507 OA
ATOM     25  H   UNL     1     135.442 127.288 133.125  1.00  0.00     0.293 HD
ENDBRANCH   6  24
BRANCH   8  26
ATOM     26  O   UNL     1     134.374 124.526 128.411  1.00  0.00    -0.508 OA
ATOM     27  H   UNL     1     134.656 124.797 127.476  1.00  0.00     0.293 HD
ENDBRANCH   8  26
TORSDOF 6
ENDMDL
MODEL 4
REMARK VINA RESULT:    -6.556      1.745      6.321
REMARK INTER + INTRA:          -8.319
REMARK INTER:                  -7.981
REMARK INTRA:                  -0.338
REMARK UNBOUND:                -0.421
REMARK SMILES O=c1c(O)c(-c2ccc(O)cc2O)oc2cc(O)cc(O)c12
REMARK SMILES IDX 5 1 3 2 2 3 1 4 22 5 20 6 19 7 17 8 16 9 15 10 14 11 6 12
REMARK SMILES IDX 8 13 7 14 9 15 11 16 12 17 10 18 13 20 4 22 21 24 18 26
REMARK H PARENT 10 19 13 21 4 23 21 25 18 27
REMARK Flexibility Score: inf
ROOT
ATOM      1  C   UNL     1     126.376 133.891 128.495  1.00  0.00     0.184 A 
ATOM      2  C   UNL     1     125.573 133.486 129.572  1.00  0.00     0.208 A 
ATOM      3  C   UNL     1     126.189 133.011 130.740  1.00  0.00     0.238 A 
ATOM      4  O   UNL     1     125.465 132.700 131.722  1.00  0.00    -0.285 OA
ATOM      5  C   UNL     1     127.601 132.932 130.809  1.00  0.00     0.111 A 
ATOM      6  C   UNL     1     128.331 132.429 131.927  1.00  0.00     0.134 A 
ATOM      7  C   UNL     1     129.729 132.518 131.937  1.00  0.00     0.093 A 
ATOM      8  C   UNL     1     130.425 133.033 130.840  1.00  0.00     0.123 A 
ATOM      9  C   UNL     1     129.724 133.472 129.720  1.00  0.00     0.094 A 
ATOM     10  C   UNL     1     128.328 133.429 129.695  1.00  0.00     0.146 A 
ATOM     11  O   UNL     1     127.699 133.868 128.611  1.00  0.00    -0.451 OA
ENDROOT
BRANCH   1  12
ATOM     12  C   UNL     1     125.792 134.385 127.231  1.00  0.00     0.063 A 
ATOM     13  C   UNL     1     125.260 133.986 124.893  1.00  0.00     0.047 A 
ATOM     14  C   UNL     1     125.809 133.552 126.101  1.00  0.00     0.020 A 
ATOM     15  C   UNL     1     124.673 135.254 124.802  1.00  0.00     0.119 A 
ATOM     16  C   UNL     1     124.631 136.082 125.928  1.00  0.00     0.093 A 
ATOM     17  C   UNL     1     125.174 135.651 127.147  1.00  0.00     0.130 A 
BRANCH  15  18
ATOM     18  O   UNL     1     124.127 135.700 123.601  1.00  0.00    -0.508 OA
ATOM     19  H   UNL     1     124.691 136.176 122.906  1.00  0.00     0.293 HD
ENDBRANCH  15  18
BRANCH  17  20
ATOM     20  O   UNL     1     125.083 136.466 128.275  1.00  0.00    -0.507 OA
ATOM     21  H   UNL     1     125.894 136.939 128.656  1.00  0.00     0.293 HD
ENDBRANCH  17  20
ENDBRANCH   1  12
BRANCH   2  22
ATOM     22  O   UNL     1     124.182 133.592 129.484  1.00  0.00    -0.502 OA
ATOM     23  H   UNL     1     123.558 133.043 130.063  1.00  0.00     0.293 HD
ENDBRANCH   2  22
BRANCH   6  24
ATOM     24  O   UNL     1     127.737 131.811 133.032  1.00  0.00    -0.507 OA
ATOM     25  H   UNL     1     127.415 132.294 133.856  1.00  0.00     0.293 HD
ENDBRANCH   6  24
BRANCH   8  26
ATOM     26  O   UNL     1     131.816 133.103 130.852  1.00  0.00    -0.508 OA
ATOM     27  H   UNL     1     132.388 132.275 130.971  1.00  0.00     0.293 HD
ENDBRANCH   8  26
TORSDOF 6
ENDMDL
MODEL 5
REMARK VINA RESULT:    -6.404      4.287      9.136
REMARK INTER + INTRA:          -8.136
REMARK INTER:                  -7.710
REMARK INTRA:                  -0.426
REMARK UNBOUND:                -0.421
REMARK SMILES O=c1c(O)c(-c2ccc(O)cc2O)oc2cc(O)cc(O)c12
REMARK SMILES IDX 5 1 3 2 2 3 1 4 22 5 20 6 19 7 17 8 16 9 15 10 14 11 6 12
REMARK SMILES IDX 8 13 7 14 9 15 11 16 12 17 10 18 13 20 4 22 21 24 18 26
REMARK H PARENT 10 19 13 21 4 23 21 25 18 27
REMARK Flexibility Score: inf
ROOT
ATOM      1  C   UNL     1     131.397 129.456 130.818  1.00  0.00     0.184 A 
ATOM      2  C   UNL     1     131.095 128.852 129.588  1.00  0.00     0.208 A 
ATOM      3  C   UNL     1     131.810 127.709 129.196  1.00  0.00     0.238 A 
ATOM      4  O   UNL     1     131.497 127.142 128.117  1.00  0.00    -0.285 OA
ATOM      5  C   UNL     1     132.829 127.195 130.034  1.00  0.00     0.111 A 
ATOM      6  C   UNL     1     133.643 126.067 129.719  1.00  0.00     0.134 A 
ATOM      7  C   UNL     1     134.533 125.568 130.679  1.00  0.00     0.093 A 
ATOM      8  C   UNL     1     134.684 126.197 131.918  1.00  0.00     0.123 A 
ATOM      9  C   UNL     1     133.935 127.335 132.211  1.00  0.00     0.094 A 
ATOM     10  C   UNL     1     133.014 127.835 131.288  1.00  0.00     0.146 A 
ATOM     11  O   UNL     1     132.313 128.914 131.613  1.00  0.00    -0.451 OA
ENDROOT
BRANCH   1  12
ATOM     12  C   UNL     1     130.695 130.670 131.282  1.00  0.00     0.063 A 
ATOM     13  C   UNL     1     130.374 133.074 131.119  1.00  0.00     0.047 A 
ATOM     14  C   UNL     1     131.022 131.908 130.707  1.00  0.00     0.020 A 
ATOM     15  C   UNL     1     129.378 133.016 132.101  1.00  0.00     0.119 A 
ATOM     16  C   UNL     1     129.028 131.784 132.664  1.00  0.00     0.093 A 
ATOM     17  C   UNL     1     129.671 130.608 132.251  1.00  0.00     0.130 A 
BRANCH  15  18
ATOM     18  O   UNL     1     128.727 134.173 132.523  1.00  0.00    -0.508 OA
ATOM     19  H   UNL     1     129.078 134.726 133.297  1.00  0.00     0.293 HD
ENDBRANCH  15  18
BRANCH  17  20
ATOM     20  O   UNL     1     129.280 129.379 132.784  1.00  0.00    -0.507 OA
ATOM     21  H   UNL     1     128.437 128.910 132.473  1.00  0.00     0.293 HD
ENDBRANCH  17  20
ENDBRANCH   1  12
BRANCH   2  22
ATOM     22  O   UNL     1     130.071 129.370 128.789  1.00  0.00    -0.502 OA
ATOM     23  H   UNL     1     130.108 130.303 128.395  1.00  0.00     0.293 HD
ENDBRANCH   2  22
BRANCH   6  24
ATOM     24  O   UNL     1     133.638 125.422 128.479  1.00  0.00    -0.507 OA
ATOM     25  H   UNL     1     134.432 125.357 127.862  1.00  0.00     0.293 HD
ENDBRANCH   6  24
BRANCH   8  26
ATOM     26  O   UNL     1     135.583 125.704 132.860  1.00  0.00    -0.508 OA
ATOM     27  H   UNL     1     135.696 126.143 133.766  1.00  0.00     0.293 HD
ENDBRANCH   8  26
TORSDOF 6
ENDMDL
MODEL 6
REMARK VINA RESULT:    -6.311      1.851      3.099
REMARK INTER + INTRA:          -8.023
REMARK INTER:                  -7.595
REMARK INTRA:                  -0.428
REMARK UNBOUND:                -0.421
REMARK SMILES O=c1c(O)c(-c2ccc(O)cc2O)oc2cc(O)cc(O)c12
REMARK SMILES IDX 5 1 3 2 2 3 1 4 22 5 20 6 19 7 17 8 16 9 15 10 14 11 6 12
REMARK SMILES IDX 8 13 7 14 9 15 11 16 12 17 10 18 13 20 4 22 21 24 18 26
REMARK H PARENT 10 19 13 21 4 23 21 25 18 27
REMARK Flexibility Score: inf
ROOT
ATOM      1  C   UNL     1     127.536 132.658 129.291  1.00  0.00     0.184 A 
ATOM      2  C   UNL     1     128.048 132.712 127.985  1.00  0.00     0.208 A 
ATOM      3  C   UNL     1     127.481 133.610 127.068  1.00  0.00     0.238 A 
ATOM      4  O   UNL     1     127.980 133.691 125.915  1.00  0.00    -0.285 OA
ATOM      5  C   UNL     1     126.397 134.431 127.464  1.00  0.00     0.111 A 
ATOM      6  C   UNL     1     125.720 135.348 126.606  1.00  0.00     0.134 A 
ATOM      7  C   UNL     1     124.747 136.203 127.139  1.00  0.00     0.093 A 
ATOM      8  C   UNL     1     124.381 136.127 128.486  1.00  0.00     0.123 A 
ATOM      9  C   UNL     1     124.996 135.194 129.318  1.00  0.00     0.094 A 
ATOM     10  C   UNL     1     125.996 134.353 128.824  1.00  0.00     0.146 A 
ATOM     11  O   UNL     1     126.563 133.486 129.654  1.00  0.00    -0.451 OA
ENDROOT
BRANCH   1  12
ATOM     12  C   UNL     1     128.076 131.724 130.300  1.00  0.00     0.063 A 
ATOM     13  C   UNL     1     128.225 129.456 131.163  1.00  0.00     0.047 A 
ATOM     14  C   UNL     1     127.727 130.366 130.228  1.00  0.00     0.020 A 
ATOM     15  C   UNL     1     129.090 129.890 132.175  1.00  0.00     0.119 A 
ATOM     16  C   UNL     1     129.461 131.236 132.242  1.00  0.00     0.093 A 
ATOM     17  C   UNL     1     128.971 132.155 131.302  1.00  0.00     0.130 A 
BRANCH  15  18
ATOM     18  O   UNL     1     129.588 128.992 133.116  1.00  0.00    -0.508 OA
ATOM     19  H   UNL     1     129.619 129.221 134.103  1.00  0.00     0.293 HD
ENDBRANCH  15  18
BRANCH  17  20
ATOM     20  O   UNL     1     129.387 133.486 131.351  1.00  0.00    -0.507 OA
ATOM     21  H   UNL     1     130.365 133.739 131.274  1.00  0.00     0.293 HD
ENDBRANCH  17  20
ENDBRANCH   1  12
BRANCH   2  22
ATOM     22  O   UNL     1     129.130 131.903 127.626  1.00  0.00    -0.502 OA
ATOM     23  H   UNL     1     129.454 131.139 128.207  1.00  0.00     0.293 HD
ENDBRANCH   2  22
BRANCH   6  24
ATOM     24  O   UNL     1     125.943 135.439 125.229  1.00  0.00    -0.507 OA
ATOM     25  H   UNL     1     126.704 134.994 124.739  1.00  0.00     0.293 HD
ENDBRANCH   6  24
BRANCH   8  26
ATOM     26  O   UNL     1     123.402 136.970 129.004  1.00  0.00    -0.508 OA
ATOM     27  H   UNL     1     122.653 136.617 129.588  1.00  0.00     0.293 HD
ENDBRANCH   8  26
TORSDOF 6
ENDMDL
MODEL 7
REMARK VINA RESULT:    -6.299     11.349     12.983
REMARK INTER + INTRA:          -8.009
REMARK INTER:                  -7.642
REMARK INTRA:                  -0.367
REMARK UNBOUND:                -0.421
REMARK SMILES O=c1c(O)c(-c2ccc(O)cc2O)oc2cc(O)cc(O)c12
REMARK SMILES IDX 5 1 3 2 2 3 1 4 22 5 20 6 19 7 17 8 16 9 15 10 14 11 6 12
REMARK SMILES IDX 8 13 7 14 9 15 11 16 12 17 10 18 13 20 4 22 21 24 18 26
REMARK H PARENT 10 19 13 21 4 23 21 25 18 27
REMARK Flexibility Score: inf
ROOT
ATOM      1  C   UNL     1     130.567 137.050 117.694  1.00  0.00     0.184 A 
ATOM      2  C   UNL     1     130.707 136.874 116.309  1.00  0.00     0.208 A 
ATOM      3  C   UNL     1     129.608 137.135 115.475  1.00  0.00     0.238 A 
ATOM      4  O   UNL     1     129.755 137.026 114.230  1.00  0.00    -0.285 OA
ATOM      5  C   UNL     1     128.379 137.553 116.041  1.00  0.00     0.111 A 
ATOM      6  C   UNL     1     127.189 137.807 115.295  1.00  0.00     0.134 A 
ATOM      7  C   UNL     1     126.069 138.342 115.943  1.00  0.00     0.093 A 
ATOM      8  C   UNL     1     126.074 138.569 117.322  1.00  0.00     0.123 A 
ATOM      9  C   UNL     1     127.212 138.269 118.068  1.00  0.00     0.094 A 
ATOM     10  C   UNL     1     128.358 137.769 117.444  1.00  0.00     0.146 A 
ATOM     11  O   UNL     1     129.423 137.507 118.191  1.00  0.00    -0.451 OA
ENDROOT
BRANCH   1  12
ATOM     12  C   UNL     1     131.679 136.778 118.629  1.00  0.00     0.063 A 
ATOM     13  C   UNL     1     133.236 135.180 119.594  1.00  0.00     0.047 A 
ATOM     14  C   UNL     1     132.183 135.471 118.725  1.00  0.00     0.020 A 
ATOM     15  C   UNL     1     133.810 136.196 120.369  1.00  0.00     0.119 A 
ATOM     16  C   UNL     1     133.330 137.505 120.263  1.00  0.00     0.093 A 
ATOM     17  C   UNL     1     132.276 137.806 119.388  1.00  0.00     0.130 A 
BRANCH  15  18
ATOM     18  O   UNL     1     134.858 135.917 121.243  1.00  0.00    -0.508 OA
ATOM     19  H   UNL     1     134.713 135.378 122.089  1.00  0.00     0.293 HD
ENDBRANCH  15  18
BRANCH  17  20
ATOM     20  O   UNL     1     131.839 139.124 119.256  1.00  0.00    -0.507 OA
ATOM     21  H   UNL     1     131.453 139.637 120.040  1.00  0.00     0.293 HD
ENDBRANCH  17  20
ENDBRANCH   1  12
BRANCH   2  22
ATOM     22  O   UNL     1     131.937 136.478 115.776  1.00  0.00    -0.502 OA
ATOM     23  H   UNL     1     132.584 135.886 116.284  1.00  0.00     0.293 HD
ENDBRANCH   2  22
BRANCH   6  24
ATOM     24  O   UNL     1     127.048 137.528 113.932  1.00  0.00    -0.507 OA
ATOM     25  H   UNL     1     127.034 136.602 113.534  1.00  0.00     0.293 HD
ENDBRANCH   6  24
BRANCH   8  26
ATOM     26  O   UNL     1     124.950 139.086 117.961  1.00  0.00    -0.508 OA
ATOM     27  H   UNL     1     124.845 140.080 118.129  1.00  0.00     0.293 HD
ENDBRANCH   8  26
TORSDOF 6
ENDMDL
MODEL 8
REMARK VINA RESULT:    -6.245     11.217     13.914
REMARK INTER + INTRA:          -7.945
REMARK INTER:                  -7.538
REMARK INTRA:                  -0.406
REMARK UNBOUND:                -0.421
REMARK SMILES O=c1c(O)c(-c2ccc(O)cc2O)oc2cc(O)cc(O)c12
REMARK SMILES IDX 5 1 3 2 2 3 1 4 22 5 20 6 19 7 17 8 16 9 15 10 14 11 6 12
REMARK SMILES IDX 8 13 7 14 9 15 11 16 12 17 10 18 13 20 4 22 21 24 18 26
REMARK H PARENT 10 19 13 21 4 23 21 25 18 27
REMARK Flexibility Score: inf
ROOT
ATOM      1  C   UNL     1     126.380 136.626 116.500  1.00  0.00     0.184 A 
ATOM      2  C   UNL     1     125.730 135.631 115.754  1.00  0.00     0.208 A 
ATOM      3  C   UNL     1     124.584 135.020 116.287  1.00  0.00     0.238 A 
ATOM      4  O   UNL     1     123.975 134.166 115.591  1.00  0.00    -0.285 OA
ATOM      5  C   UNL     1     124.113 135.402 117.567  1.00  0.00     0.111 A 
ATOM      6  C   UNL     1     122.985 134.822 118.221  1.00  0.00     0.134 A 
ATOM      7  C   UNL     1     122.532 135.368 119.429  1.00  0.00     0.093 A 
ATOM      8  C   UNL     1     123.206 136.430 120.038  1.00  0.00     0.123 A 
ATOM      9  C   UNL     1     124.343 136.964 119.435  1.00  0.00     0.094 A 
ATOM     10  C   UNL     1     124.798 136.465 118.212  1.00  0.00     0.146 A 
ATOM     11  O   UNL     1     125.878 137.011 117.668  1.00  0.00    -0.451 OA
ENDROOT
BRANCH   1  12
ATOM     12  C   UNL     1     127.599 137.297 116.004  1.00  0.00     0.063 A 
ATOM     13  C   UNL     1     130.026 137.363 115.874  1.00  0.00     0.047 A 
ATOM     14  C   UNL     1     128.854 136.757 116.331  1.00  0.00     0.020 A 
ATOM     15  C   UNL     1     129.959 138.509 115.073  1.00  0.00     0.119 A 
ATOM     16  C   UNL     1     128.714 139.041 114.724  1.00  0.00     0.093 A 
ATOM     17  C   UNL     1     127.532 138.434 115.173  1.00  0.00     0.130 A 
BRANCH  15  18
ATOM     18  O   UNL     1     131.122 139.125 114.616  1.00  0.00    -0.508 OA
ATOM     19  H   UNL     1     131.269 140.123 114.717  1.00  0.00     0.293 HD
ENDBRANCH  15  18
BRANCH  17  20
ATOM     20  O   UNL     1     126.296 138.946 114.778  1.00  0.00    -0.507 OA
ATOM     21  H   UNL     1     126.178 139.426 113.893  1.00  0.00     0.293 HD
ENDBRANCH  17  20
ENDBRANCH   1  12
BRANCH   2  22
ATOM     22  O   UNL     1     126.205 135.286 114.486  1.00  0.00    -0.502 OA
ATOM     23  H   UNL     1     126.905 135.834 114.000  1.00  0.00     0.293 HD
ENDBRANCH   2  22
BRANCH   6  24
ATOM     24  O   UNL     1     122.298 133.701 117.746  1.00  0.00    -0.507 OA
ATOM     25  H   UNL     1     121.391 133.727 117.308  1.00  0.00     0.293 HD
ENDBRANCH   6  24
BRANCH   8  26
ATOM     26  O   UNL     1     122.757 136.956 121.247  1.00  0.00    -0.508 OA
ATOM     27  H   UNL     1     123.191 136.705 122.128  1.00  0.00     0.293 HD
ENDBRANCH   8  26
TORSDOF 6
ENDMDL
