MODEL 1
REMARK VINA RESULT:    -4.317      0.000      0.000
REMARK INTER + INTRA:          -5.236
REMARK INTER:                  -5.074
REMARK INTRA:                  -0.162
REMARK UNBOUND:                -0.162
REMARK SMILES COc1ccc(C=CC(=O)[O-])cc1
REMARK SMILES IDX 6 1 5 2 12 3 4 4 13 5 3 6 7 7 8 8 9 9 10 10 11 11 2 12 1 13
REMARK H PARENT
REMARK Flexibility Score: inf
ROOT
ATOM      1  C   UNL     1      17.642   8.934   1.960  1.00  0.00    -0.025 A 
ATOM      2  C   UNL     1      17.340   8.961   0.589  1.00  0.00     0.012 A 
ATOM      3  C   UNL     1      18.144   7.743   2.521  1.00  0.00     0.012 A 
ATOM      4  C   UNL     1      17.556   7.835  -0.211  1.00  0.00     0.047 A 
ATOM      5  C   UNL     1      18.359   6.620   1.719  1.00  0.00     0.047 A 
ATOM      6  C   UNL     1      18.072   6.653   0.351  1.00  0.00     0.118 A 
ENDROOT
BRANCH   1   7
ATOM      7  C   UNL     1      17.384  10.152   2.767  1.00  0.00     0.010 C 
ATOM      8  C   UNL     1      18.247  10.647   3.667  1.00  0.00     0.025 C 
BRANCH   8   9
ATOM      9  C   UNL     1      17.962  11.866   4.442  1.00  0.00     0.064 C 
ATOM     10  O   UNL     1      16.862  12.018   5.037  1.00  0.00    -0.545 OA
ATOM     11  O   UNL     1      18.925  12.864   4.522  1.00  0.00    -0.545 OA
ENDBRANCH   8   9
ENDBRANCH   1   7
BRANCH   6  12
ATOM     12  O   UNL     1      18.307   5.498  -0.409  1.00  0.00    -0.497 OA
ATOM     13  C   UNL     1      18.094   4.171   0.059  1.00  0.00     0.278 C 
ENDBRANCH   6  12
TORSDOF 3
ENDMDL
MODEL 2
REMARK VINA RESULT:    -4.304      0.072      1.344
REMARK INTER + INTRA:          -5.221
REMARK INTER:                  -5.054
REMARK INTRA:                  -0.167
REMARK UNBOUND:                -0.162
REMARK SMILES COc1ccc(C=CC(=O)[O-])cc1
REMARK SMILES IDX 6 1 5 2 12 3 4 4 13 5 3 6 7 7 8 8 9 9 10 10 11 11 2 12 1 13
REMARK H PARENT
REMARK Flexibility Score: inf
ROOT
ATOM      1  C   UNL     1      17.601   8.919   1.950  1.00  0.00    -0.025 A 
ATOM      2  C   UNL     1      18.157   7.776   2.546  1.00  0.00     0.012 A 
ATOM      3  C   UNL     1      17.329   8.899   0.568  1.00  0.00     0.012 A 
ATOM      4  C   UNL     1      18.414   6.630   1.789  1.00  0.00     0.047 A 
ATOM      5  C   UNL     1      17.586   7.752  -0.186  1.00  0.00     0.047 A 
ATOM      6  C   UNL     1      18.126   6.609   0.412  1.00  0.00     0.118 A 
ENDROOT
BRANCH   1   7
ATOM      7  C   UNL     1      17.358  10.114   2.795  1.00  0.00     0.010 C 
ATOM      8  C   UNL     1      18.289  10.672   3.584  1.00  0.00     0.025 C 
BRANCH   8   9
ATOM      9  C   UNL     1      18.016  11.866   4.400  1.00  0.00     0.064 C 
ATOM     10  O   UNL     1      16.918  12.006   5.002  1.00  0.00    -0.545 OA
ATOM     11  O   UNL     1      18.986  12.853   4.512  1.00  0.00    -0.545 OA
ENDBRANCH   8   9
ENDBRANCH   1   7
BRANCH   6  12
ATOM     12  O   UNL     1      18.364   5.483  -0.390  1.00  0.00    -0.497 OA
ATOM     13  C   UNL     1      18.066   4.146  -0.007  1.00  0.00     0.278 C 
ENDBRANCH   6  12
TORSDOF 3
ENDMDL
MODEL 3
REMARK VINA RESULT:    -4.122      1.405      6.262
REMARK INTER + INTRA:          -5.007
REMARK INTER:                  -4.843
REMARK INTRA:                  -0.164
REMARK UNBOUND:                -0.162
REMARK SMILES COc1ccc(C=CC(=O)[O-])cc1
REMARK SMILES IDX 6 1 5 2 12 3 4 4 13 5 3 6 7 7 8 8 9 9 10 10 11 11 2 12 1 13
REMARK H PARENT
REMARK Flexibility Score: inf
ROOT
ATOM      1  C   UNL     1      17.424   9.114   1.199  1.00  0.00    -0.025 A 
ATOM      2  C   UNL     1      17.291  10.301   0.460  1.00  0.00     0.012 A 
ATOM      3  C   UNL     1      17.895   9.190   2.525  1.00  0.00     0.012 A 
ATOM      4  C   UNL     1      17.594  11.538   1.036  1.00  0.00     0.047 A 
ATOM      5  C   UNL     1      18.197  10.428   3.098  1.00  0.00     0.047 A 
ATOM      6  C   UNL     1      18.049  11.609   2.365  1.00  0.00     0.118 A 
ENDROOT
BRANCH   1   7
ATOM      7  C   UNL     1      17.100   7.826   0.538  1.00  0.00     0.010 C 
ATOM      8  C   UNL     1      17.954   7.155  -0.249  1.00  0.00     0.025 C 
BRANCH   8   9
ATOM      9  C   UNL     1      17.602   5.872  -0.879  1.00  0.00     0.064 C 
ATOM     10  O   UNL     1      18.099   4.788  -0.472  1.00  0.00    -0.545 OA
ATOM     11  O   UNL     1      16.703   5.856  -1.937  1.00  0.00    -0.545 OA
ENDBRANCH   8   9
ENDBRANCH   1   7
BRANCH   6  12
ATOM     12  O   UNL     1      18.366  12.826   2.989  1.00  0.00    -0.497 OA
ATOM     13  C   UNL     1      18.425  13.015   4.398  1.00  0.00     0.278 C 
ENDBRANCH   6  12
TORSDOF 3
ENDMDL
MODEL 4
REMARK VINA RESULT:    -3.993      1.579      6.164
REMARK INTER + INTRA:          -4.855
REMARK INTER:                  -4.679
REMARK INTRA:                  -0.176
REMARK UNBOUND:                -0.162
REMARK SMILES COc1ccc(C=CC(=O)[O-])cc1
REMARK SMILES IDX 6 1 5 2 12 3 4 4 13 5 3 6 7 7 8 8 9 9 10 10 11 11 2 12 1 13
REMARK H PARENT
REMARK Flexibility Score: inf
ROOT
ATOM      1  C   UNL     1      17.698   9.193   1.791  1.00  0.00    -0.025 A 
ATOM      2  C   UNL     1      17.320  10.008   0.712  1.00  0.00     0.012 A 
ATOM      3  C   UNL     1      18.121   9.804   2.988  1.00  0.00     0.012 A 
ATOM      4  C   UNL     1      17.339  11.401   0.830  1.00  0.00     0.047 A 
ATOM      5  C   UNL     1      18.138  11.196   3.103  1.00  0.00     0.047 A 
ATOM      6  C   UNL     1      17.748  12.006   2.032  1.00  0.00     0.118 A 
ENDROOT
BRANCH   1   7
ATOM      7  C   UNL     1      17.671   7.720   1.612  1.00  0.00     0.010 C 
ATOM      8  C   UNL     1      18.056   7.098   0.487  1.00  0.00     0.025 C 
BRANCH   8   9
ATOM      9  C   UNL     1      18.027   5.633   0.349  1.00  0.00     0.064 C 
ATOM     10  O   UNL     1      17.792   5.088  -0.763  1.00  0.00    -0.545 OA
ATOM     11  O   UNL     1      18.266   4.838   1.462  1.00  0.00    -0.545 OA
ENDBRANCH   8   9
ENDBRANCH   1   7
BRANCH   6  12
ATOM     12  O   UNL     1      17.783  13.398   2.201  1.00  0.00    -0.497 OA
ATOM     13  C   UNL     1      18.522  14.067   3.217  1.00  0.00     0.278 C 
ENDBRANCH   6  12
TORSDOF 3
ENDMDL
MODEL 5
REMARK VINA RESULT:    -3.656      2.261      6.392
REMARK INTER + INTRA:          -4.458
REMARK INTER:                  -4.296
REMARK INTRA:                  -0.162
REMARK UNBOUND:                -0.162
REMARK SMILES COc1ccc(C=CC(=O)[O-])cc1
REMARK SMILES IDX 6 1 5 2 12 3 4 4 13 5 3 6 7 7 8 8 9 9 10 10 11 11 2 12 1 13
REMARK H PARENT
REMARK Flexibility Score: inf
ROOT
ATOM      1  C   UNL     1      17.566  10.927   2.843  1.00  0.00    -0.025 A 
ATOM      2  C   UNL     1      17.298  11.859   1.827  1.00  0.00     0.012 A 
ATOM      3  C   UNL     1      18.303  11.344   3.969  1.00  0.00     0.012 A 
ATOM      4  C   UNL     1      17.733  13.182   1.940  1.00  0.00     0.047 A 
ATOM      5  C   UNL     1      18.736  12.667   4.080  1.00  0.00     0.047 A 
ATOM      6  C   UNL     1      18.456  13.597   3.074  1.00  0.00     0.118 A 
ENDROOT
BRANCH   1   7
ATOM      7  C   UNL     1      17.092   9.532   2.669  1.00  0.00     0.010 C 
ATOM      8  C   UNL     1      17.676   8.641   1.855  1.00  0.00     0.025 C 
BRANCH   8   9
ATOM      9  C   UNL     1      17.185   7.260   1.717  1.00  0.00     0.064 C 
ATOM     10  O   UNL     1      16.341   6.785   2.523  1.00  0.00    -0.545 OA
ATOM     11  O   UNL     1      17.658   6.469   0.679  1.00  0.00    -0.545 OA
ENDBRANCH   8   9
ENDBRANCH   1   7
BRANCH   6  12
ATOM     12  O   UNL     1      18.913  14.914   3.235  1.00  0.00    -0.497 OA
ATOM     13  C   UNL     1      19.520  15.686   2.204  1.00  0.00     0.278 C 
ENDBRANCH   6  12
TORSDOF 3
ENDMDL
MODEL 6
REMARK VINA RESULT:    -3.533      2.128      6.204
REMARK INTER + INTRA:          -4.314
REMARK INTER:                  -4.151
REMARK INTRA:                  -0.163
REMARK UNBOUND:                -0.162
REMARK SMILES COc1ccc(C=CC(=O)[O-])cc1
REMARK SMILES IDX 6 1 5 2 12 3 4 4 13 5 3 6 7 7 8 8 9 9 10 10 11 11 2 12 1 13
REMARK H PARENT
REMARK Flexibility Score: inf
ROOT
ATOM      1  C   UNL     1      17.721   7.542   0.573  1.00  0.00    -0.025 A 
ATOM      2  C   UNL     1      17.456   8.328  -0.560  1.00  0.00     0.012 A 
ATOM      3  C   UNL     1      17.794   8.170   1.832  1.00  0.00     0.012 A 
ATOM      4  C   UNL     1      17.242   9.704  -0.440  1.00  0.00     0.047 A 
ATOM      5  C   UNL     1      17.580   9.546   1.950  1.00  0.00     0.047 A 
ATOM      6  C   UNL     1      17.301  10.323   0.822  1.00  0.00     0.118 A 
ENDROOT
BRANCH   1   7
ATOM      7  C   UNL     1      17.951   6.088   0.390  1.00  0.00     0.010 C 
ATOM      8  C   UNL     1      17.431   5.144   1.188  1.00  0.00     0.025 C 
BRANCH   8   9
ATOM      9  C   UNL     1      17.671   3.708   0.969  1.00  0.00     0.064 C 
ATOM     10  O   UNL     1      18.242   3.003   1.843  1.00  0.00    -0.545 OA
ATOM     11  O   UNL     1      17.258   3.121  -0.219  1.00  0.00    -0.545 OA
ENDBRANCH   8   9
ENDBRANCH   1   7
BRANCH   6  12
ATOM     12  O   UNL     1      17.093  11.700   0.995  1.00  0.00    -0.497 OA
ATOM     13  C   UNL     1      17.526  12.442   2.130  1.00  0.00     0.278 C 
ENDBRANCH   6  12
TORSDOF 3
ENDMDL
MODEL 7
REMARK VINA RESULT:    -3.482      1.866      2.618
REMARK INTER + INTRA:          -4.255
REMARK INTER:                  -4.097
REMARK INTRA:                  -0.158
REMARK UNBOUND:                -0.162
REMARK SMILES COc1ccc(C=CC(=O)[O-])cc1
REMARK SMILES IDX 6 1 5 2 12 3 4 4 13 5 3 6 7 7 8 8 9 9 10 10 11 11 2 12 1 13
REMARK H PARENT
REMARK Flexibility Score: inf
ROOT
ATOM      1  C   UNL     1      17.437   6.930   1.530  1.00  0.00    -0.025 A 
ATOM      2  C   UNL     1      18.183   6.562   0.399  1.00  0.00     0.012 A 
ATOM      3  C   UNL     1      16.358   6.115   1.925  1.00  0.00     0.012 A 
ATOM      4  C   UNL     1      17.879   5.394  -0.308  1.00  0.00     0.047 A 
ATOM      5  C   UNL     1      16.056   4.949   1.218  1.00  0.00     0.047 A 
ATOM      6  C   UNL     1      16.810   4.576   0.101  1.00  0.00     0.118 A 
ENDROOT
BRANCH   1   7
ATOM      7  C   UNL     1      17.793   8.184   2.238  1.00  0.00     0.010 C 
ATOM      8  C   UNL     1      17.524   9.410   1.766  1.00  0.00     0.025 C 
BRANCH   8   9
ATOM      9  C   UNL     1      17.882  10.633   2.503  1.00  0.00     0.064 C 
ATOM     10  O   UNL     1      18.502  11.575   1.940  1.00  0.00    -0.545 OA
ATOM     11  O   UNL     1      17.527  10.753   3.839  1.00  0.00    -0.545 OA
ENDBRANCH   8   9
ENDBRANCH   1   7
BRANCH   6  12
ATOM     12  O   UNL     1      16.465   3.395  -0.573  1.00  0.00    -0.497 OA
ATOM     13  C   UNL     1      15.875   3.352  -1.868  1.00  0.00     0.278 C 
ENDBRANCH   6  12
TORSDOF 3
ENDMDL
MODEL 8
REMARK VINA RESULT:    -3.335      4.992      7.964
REMARK INTER + INTRA:          -4.081
REMARK INTER:                  -3.908
REMARK INTRA:                  -0.173
REMARK UNBOUND:                -0.162
REMARK SMILES COc1ccc(C=CC(=O)[O-])cc1
REMARK SMILES IDX 6 1 5 2 12 3 4 4 13 5 3 6 7 7 8 8 9 9 10 10 11 11 2 12 1 13
REMARK H PARENT
REMARK Flexibility Score: inf
ROOT
ATOM      1  C   UNL     1      18.210  14.659   1.990  1.00  0.00    -0.025 A 
ATOM      2  C   UNL     1      17.073  14.869   1.194  1.00  0.00     0.012 A 
ATOM      3  C   UNL     1      19.262  15.595   1.932  1.00  0.00     0.012 A 
ATOM      4  C   UNL     1      16.974  15.999   0.376  1.00  0.00     0.047 A 
ATOM      5  C   UNL     1      19.160  16.723   1.114  1.00  0.00     0.047 A 
ATOM      6  C   UNL     1      18.021  16.938   0.333  1.00  0.00     0.118 A 
ENDROOT
BRANCH   1   7
ATOM      7  C   UNL     1      18.271  13.439   2.833  1.00  0.00     0.010 C 
ATOM      8  C   UNL     1      18.115  12.195   2.356  1.00  0.00     0.025 C 
BRANCH   8   9
ATOM      9  C   UNL     1      18.194  11.006   3.220  1.00  0.00     0.064 C 
ATOM     10  O   UNL     1      18.010   9.849   2.755  1.00  0.00    -0.545 OA
ATOM     11  O   UNL     1      18.480  11.161   4.570  1.00  0.00    -0.545 OA
ENDBRANCH   8   9
ENDBRANCH   1   7
BRANCH   6  12
ATOM     12  O   UNL     1      17.969  18.087  -0.470  1.00  0.00    -0.497 OA
ATOM     13  C   UNL     1      18.888  19.170  -0.383  1.00  0.00     0.278 C 
ENDBRANCH   6  12
TORSDOF 3
ENDMDL
