MODEL 1
REMARK VINA RESULT:    -4.823      0.000      0.000
REMARK INTER + INTRA:         -15.841
REMARK INTER:                 -12.153
REMARK INTRA:                  -3.688
REMARK UNBOUND:                -3.688
REMARK SMILES CCCCCCCCCCCCCCCCCCCCCCCCCCCC(=O)[O-]
REMARK SMILES IDX 15 1 16 2 17 3 18 4 19 5 20 6 21 7 22 8 23 9 24 10 25 11
REMARK SMILES IDX 26 12 27 13 28 14 29 15 30 16 14 17 13 18 12 19 11 20 10 21
REMARK SMILES IDX 9 22 8 23 7 24 6 25 5 26 4 27 3 28 2 29 1 30
REMARK H PARENT
REMARK Flexibility Score: inf
ROOT
ATOM      1  C   UNL     1      21.970  19.304   4.893  1.00  0.00     0.000 C 
ENDROOT
BRANCH   1   2
ATOM      2  C   UNL     1      22.000  20.581   4.039  1.00  0.00     0.000 C 
BRANCH   2   3
ATOM      3  C   UNL     1      20.622  21.258   3.933  1.00  0.00     0.000 C 
BRANCH   3   4
ATOM      4  C   UNL     1      19.802  21.144   5.236  1.00  0.00     0.000 C 
BRANCH   4   5
ATOM      5  C   UNL     1      19.938  22.363   6.171  1.00  0.00     0.000 C 
BRANCH   5   6
ATOM      6  C   UNL     1      21.228  22.398   7.010  1.00  0.00     0.000 C 
BRANCH   6   7
ATOM      7  C   UNL     1      21.217  23.508   8.073  1.00  0.00     0.000 C 
BRANCH   7   8
ATOM      8  C   UNL     1      21.497  22.932   9.469  1.00  0.00     0.000 C 
BRANCH   8   9
ATOM      9  C   UNL     1      20.321  23.123  10.440  1.00  0.00     0.000 C 
BRANCH   9  10
ATOM     10  C   UNL     1      19.157  22.160  10.160  1.00  0.00     0.000 C 
BRANCH  10  11
ATOM     11  C   UNL     1      17.844  22.927   9.947  1.00  0.00     0.000 C 
BRANCH  11  12
ATOM     12  C   UNL     1      17.962  24.428  10.268  1.00  0.00     0.006 C 
BRANCH  12  13
ATOM     13  C   UNL     1      17.318  25.346   9.215  1.00  0.00     0.053 C 
BRANCH  13  14
ATOM     14  C   UNL     1      18.071  26.627   9.019  1.00  0.00     0.041 C 
ATOM     15  O   UNL     1      17.560  27.576   8.368  1.00  0.00    -0.550 OA
ATOM     16  O   UNL     1      19.336  26.779   9.573  1.00  0.00    -0.550 OA
ENDBRANCH  13  14
ENDBRANCH  12  13
ENDBRANCH  11  12
ENDBRANCH  10  11
ENDBRANCH   9  10
ENDBRANCH   8   9
ENDBRANCH   7   8
ENDBRANCH   6   7
ENDBRANCH   5   6
ENDBRANCH   4   5
ENDBRANCH   3   4
ENDBRANCH   2   3
ENDBRANCH   1   2
BRANCH   1  17
ATOM     17  C   UNL     1      23.280  19.074   5.668  1.00  0.00     0.000 C 
BRANCH  17  18
ATOM     18  C   UNL     1      24.466  18.743   4.749  1.00  0.00     0.000 C 
BRANCH  18  19
ATOM     19  C   UNL     1      25.078  17.362   5.040  1.00  0.00     0.000 C 
BRANCH  19  20
ATOM     20  C   UNL     1      24.600  16.282   4.051  1.00  0.00     0.000 C 
BRANCH  20  21
ATOM     21  C   UNL     1      23.715  15.180   4.666  1.00  0.00     0.000 C 
BRANCH  21  22
ATOM     22  C   UNL     1      22.226  15.547   4.829  1.00  0.00    -0.000 C 
BRANCH  22  23
ATOM     23  C   UNL     1      21.764  15.766   6.284  1.00  0.00    -0.000 C 
BRANCH  23  24
ATOM     24  C   UNL     1      20.297  16.217   6.438  1.00  0.00    -0.000 C 
BRANCH  24  25
ATOM     25  C   UNL     1      19.607  16.627   5.126  1.00  0.00    -0.000 C 
BRANCH  25  26
ATOM     26  C   UNL     1      18.149  17.074   5.334  1.00  0.00    -0.000 C 
BRANCH  26  27
ATOM     27  C   UNL     1      17.488  16.363   6.535  1.00  0.00    -0.000 C 
BRANCH  27  28
ATOM     28  C   UNL     1      16.979  17.331   7.618  1.00  0.00    -0.000 C 
BRANCH  28  29
ATOM     29  C   UNL     1      16.963  18.793   7.152  1.00  0.00    -0.003 C 
ATOM     30  C   UNL     1      17.892  19.652   8.003  1.00  0.00     0.004 C 
ENDBRANCH  28  29
ENDBRANCH  27  28
ENDBRANCH  26  27
ENDBRANCH  25  26
ENDBRANCH  24  25
ENDBRANCH  23  24
ENDBRANCH  22  23
ENDBRANCH  21  22
ENDBRANCH  20  21
ENDBRANCH  19  20
ENDBRANCH  18  19
ENDBRANCH  17  18
ENDBRANCH   1  17
TORSDOF 26
ENDMDL
MODEL 2
REMARK VINA RESULT:    -4.715      2.683      6.323
REMARK INTER + INTRA:         -15.568
REMARK INTER:                 -12.204
REMARK INTRA:                  -3.364
REMARK UNBOUND:                -3.688
REMARK SMILES CCCCCCCCCCCCCCCCCCCCCCCCCCCC(=O)[O-]
REMARK SMILES IDX 15 1 16 2 17 3 18 4 19 5 20 6 21 7 22 8 23 9 24 10 25 11
REMARK SMILES IDX 26 12 27 13 28 14 29 15 30 16 14 17 13 18 12 19 11 20 10 21
REMARK SMILES IDX 9 22 8 23 7 24 6 25 5 26 4 27 3 28 2 29 1 30
REMARK H PARENT
REMARK Flexibility Score: inf
ROOT
ATOM      1  C   UNL     1      17.215  20.466   7.544  1.00  0.00     0.000 C 
ENDROOT
BRANCH   1   2
ATOM      2  C   UNL     1      16.926  20.952   6.116  1.00  0.00     0.000 C 
BRANCH   2   3
ATOM      3  C   UNL     1      18.103  21.733   5.504  1.00  0.00     0.000 C 
BRANCH   3   4
ATOM      4  C   UNL     1      18.273  23.136   6.123  1.00  0.00     0.000 C 
BRANCH   4   5
ATOM      5  C   UNL     1      16.945  23.813   6.519  1.00  0.00     0.000 C 
BRANCH   5   6
ATOM      6  C   UNL     1      16.949  24.501   7.895  1.00  0.00     0.000 C 
BRANCH   6   7
ATOM      7  C   UNL     1      18.319  25.093   8.261  1.00  0.00     0.000 C 
BRANCH   7   8
ATOM      8  C   UNL     1      18.732  24.682   9.681  1.00  0.00     0.000 C 
BRANCH   8   9
ATOM      9  C   UNL     1      18.354  23.230  10.015  1.00  0.00     0.000 C 
BRANCH   9  10
ATOM     10  C   UNL     1      19.581  22.332  10.239  1.00  0.00     0.000 C 
BRANCH  10  11
ATOM     11  C   UNL     1      20.885  23.118  10.037  1.00  0.00     0.000 C 
BRANCH  11  12
ATOM     12  C   UNL     1      21.824  22.474   9.000  1.00  0.00     0.006 C 
BRANCH  12  13
ATOM     13  C   UNL     1      21.370  22.659   7.542  1.00  0.00     0.053 C 
BRANCH  13  14
ATOM     14  C   UNL     1      21.728  21.496   6.667  1.00  0.00     0.041 C 
ATOM     15  O   UNL     1      21.603  21.575   5.417  1.00  0.00    -0.550 OA
ATOM     16  O   UNL     1      22.219  20.327   7.235  1.00  0.00    -0.550 OA
ENDBRANCH  13  14
ENDBRANCH  12  13
ENDBRANCH  11  12
ENDBRANCH  10  11
ENDBRANCH   9  10
ENDBRANCH   8   9
ENDBRANCH   7   8
ENDBRANCH   6   7
ENDBRANCH   5   6
ENDBRANCH   4   5
ENDBRANCH   3   4
ENDBRANCH   2   3
ENDBRANCH   1   2
BRANCH   1  17
ATOM     17  C   UNL     1      18.407  19.494   7.614  1.00  0.00     0.000 C 
BRANCH  17  18
ATOM     18  C   UNL     1      18.047  18.075   7.147  1.00  0.00     0.000 C 
BRANCH  18  19
ATOM     19  C   UNL     1      18.735  17.690   5.826  1.00  0.00     0.000 C 
BRANCH  19  20
ATOM     20  C   UNL     1      20.260  17.904   5.868  1.00  0.00     0.000 C 
BRANCH  20  21
ATOM     21  C   UNL     1      21.064  16.746   6.492  1.00  0.00     0.000 C 
BRANCH  21  22
ATOM     22  C   UNL     1      22.126  16.112   5.572  1.00  0.00    -0.000 C 
BRANCH  22  23
ATOM     23  C   UNL     1      22.911  17.111   4.698  1.00  0.00    -0.000 C 
BRANCH  23  24
ATOM     24  C   UNL     1      24.093  17.805   5.406  1.00  0.00    -0.000 C 
BRANCH  24  25
ATOM     25  C   UNL     1      25.462  17.592   4.736  1.00  0.00    -0.000 C 
BRANCH  25  26
ATOM     26  C   UNL     1      25.709  16.125   4.339  1.00  0.00    -0.000 C 
BRANCH  26  27
ATOM     27  C   UNL     1      27.211  15.768   4.336  1.00  0.00    -0.000 C 
BRANCH  27  28
ATOM     28  C   UNL     1      28.069  16.711   5.198  1.00  0.00    -0.000 C 
BRANCH  28  29
ATOM     29  C   UNL     1      29.487  16.178   5.435  1.00  0.00    -0.003 C 
ATOM     30  C   UNL     1      29.793  14.999   4.518  1.00  0.00     0.004 C 
ENDBRANCH  28  29
ENDBRANCH  27  28
ENDBRANCH  26  27
ENDBRANCH  25  26
ENDBRANCH  24  25
ENDBRANCH  23  24
ENDBRANCH  22  23
ENDBRANCH  21  22
ENDBRANCH  20  21
ENDBRANCH  19  20
ENDBRANCH  18  19
ENDBRANCH  17  18
ENDBRANCH   1  17
TORSDOF 26
ENDMDL
MODEL 3
REMARK VINA RESULT:    -4.683      3.304      7.862
REMARK INTER + INTRA:         -15.489
REMARK INTER:                 -11.033
REMARK INTRA:                  -4.456
REMARK UNBOUND:                -3.688
REMARK SMILES CCCCCCCCCCCCCCCCCCCCCCCCCCCC(=O)[O-]
REMARK SMILES IDX 15 1 16 2 17 3 18 4 19 5 20 6 21 7 22 8 23 9 24 10 25 11
REMARK SMILES IDX 26 12 27 13 28 14 29 15 30 16 14 17 13 18 12 19 11 20 10 21
REMARK SMILES IDX 9 22 8 23 7 24 6 25 5 26 4 27 3 28 2 29 1 30
REMARK H PARENT
REMARK Flexibility Score: inf
ROOT
ATOM      1  C   UNL     1      21.448  22.762   7.589  1.00  0.00     0.000 C 
ENDROOT
BRANCH   1   2
ATOM      2  C   UNL     1      21.299  21.628   8.615  1.00  0.00     0.000 C 
BRANCH   2   3
ATOM      3  C   UNL     1      22.571  20.772   8.744  1.00  0.00     0.000 C 
BRANCH   3   4
ATOM      4  C   UNL     1      23.286  20.559   7.393  1.00  0.00     0.000 C 
BRANCH   4   5
ATOM      5  C   UNL     1      22.603  19.522   6.478  1.00  0.00     0.000 C 
BRANCH   5   6
ATOM      6  C   UNL     1      22.543  19.905   4.989  1.00  0.00     0.000 C 
BRANCH   6   7
ATOM      7  C   UNL     1      23.408  18.994   4.104  1.00  0.00     0.000 C 
BRANCH   7   8
ATOM      8  C   UNL     1      24.347  18.132   4.959  1.00  0.00     0.000 C 
BRANCH   8   9
ATOM      9  C   UNL     1      24.785  16.841   4.248  1.00  0.00     0.000 C 
BRANCH   9  10
ATOM     10  C   UNL     1      23.947  15.622   4.660  1.00  0.00     0.000 C 
BRANCH  10  11
ATOM     11  C   UNL     1      22.460  15.985   4.772  1.00  0.00     0.000 C 
BRANCH  11  12
ATOM     12  C   UNL     1      21.883  15.744   6.179  1.00  0.00     0.006 C 
BRANCH  12  13
ATOM     13  C   UNL     1      20.535  16.440   6.432  1.00  0.00     0.053 C 
BRANCH  13  14
ATOM     14  C   UNL     1      19.593  15.608   7.249  1.00  0.00     0.041 C 
ATOM     15  O   UNL     1      20.025  14.898   8.196  1.00  0.00    -0.550 OA
ATOM     16  O   UNL     1      18.232  15.629   6.974  1.00  0.00    -0.550 OA
ENDBRANCH  13  14
ENDBRANCH  12  13
ENDBRANCH  11  12
ENDBRANCH  10  11
ENDBRANCH   9  10
ENDBRANCH   8   9
ENDBRANCH   7   8
ENDBRANCH   6   7
ENDBRANCH   5   6
ENDBRANCH   4   5
ENDBRANCH   3   4
ENDBRANCH   2   3
ENDBRANCH   1   2
BRANCH   1  17
ATOM     17  C   UNL     1      20.257  23.737   7.599  1.00  0.00     0.000 C 
BRANCH  17  18
ATOM     18  C   UNL     1      19.025  23.180   6.868  1.00  0.00     0.000 C 
BRANCH  18  19
ATOM     19  C   UNL     1      19.396  22.307   5.656  1.00  0.00     0.000 C 
BRANCH  19  20
ATOM     20  C   UNL     1      18.450  21.105   5.480  1.00  0.00     0.000 C 
BRANCH  20  21
ATOM     21  C   UNL     1      18.956  19.782   6.088  1.00  0.00     0.000 C 
BRANCH  21  22
ATOM     22  C   UNL     1      18.434  19.466   7.504  1.00  0.00    -0.000 C 
BRANCH  22  23
ATOM     23  C   UNL     1      17.168  20.243   7.920  1.00  0.00    -0.000 C 
BRANCH  23  24
ATOM     24  C   UNL     1      17.066  20.557   9.426  1.00  0.00    -0.000 C 
BRANCH  24  25
ATOM     25  C   UNL     1      17.021  22.057   9.771  1.00  0.00    -0.000 C 
BRANCH  25  26
ATOM     26  C   UNL     1      18.288  22.539  10.499  1.00  0.00    -0.000 C 
BRANCH  26  27
ATOM     27  C   UNL     1      18.407  24.078  10.505  1.00  0.00    -0.000 C 
BRANCH  27  28
ATOM     28  C   UNL     1      17.103  24.796  10.113  1.00  0.00    -0.000 C 
BRANCH  28  29
ATOM     29  C   UNL     1      17.253  25.660   8.855  1.00  0.00    -0.003 C 
ATOM     30  C   UNL     1      18.312  26.740   9.051  1.00  0.00     0.004 C 
ENDBRANCH  28  29
ENDBRANCH  27  28
ENDBRANCH  26  27
ENDBRANCH  25  26
ENDBRANCH  24  25
ENDBRANCH  23  24
ENDBRANCH  22  23
ENDBRANCH  21  22
ENDBRANCH  20  21
ENDBRANCH  19  20
ENDBRANCH  18  19
ENDBRANCH  17  18
ENDBRANCH   1  17
TORSDOF 26
ENDMDL
MODEL 4
REMARK VINA RESULT:    -4.593      6.115     11.044
REMARK INTER + INTRA:         -15.262
REMARK INTER:                 -12.450
REMARK INTRA:                  -2.812
REMARK UNBOUND:                -3.688
REMARK SMILES CCCCCCCCCCCCCCCCCCCCCCCCCCCC(=O)[O-]
REMARK SMILES IDX 15 1 16 2 17 3 18 4 19 5 20 6 21 7 22 8 23 9 24 10 25 11
REMARK SMILES IDX 26 12 27 13 28 14 29 15 30 16 14 17 13 18 12 19 11 20 10 21
REMARK SMILES IDX 9 22 8 23 7 24 6 25 5 26 4 27 3 28 2 29 1 30
REMARK H PARENT
REMARK Flexibility Score: inf
ROOT
ATOM      1  C   UNL     1      20.778  19.748   6.030  1.00  0.00     0.000 C 
ENDROOT
BRANCH   1   2
ATOM      2  C   UNL     1      21.811  18.715   5.553  1.00  0.00     0.000 C 
BRANCH   2   3
ATOM      3  C   UNL     1      23.223  18.989   6.100  1.00  0.00     0.000 C 
BRANCH   3   4
ATOM      4  C   UNL     1      24.314  18.882   5.013  1.00  0.00     0.000 C 
BRANCH   4   5
ATOM      5  C   UNL     1      25.137  17.579   5.077  1.00  0.00     0.000 C 
BRANCH   5   6
ATOM      6  C   UNL     1      24.546  16.397   4.289  1.00  0.00     0.000 C 
BRANCH   6   7
ATOM      7  C   UNL     1      25.482  15.178   4.254  1.00  0.00     0.000 C 
BRANCH   7   8
ATOM      8  C   UNL     1      26.899  15.562   4.702  1.00  0.00     0.000 C 
BRANCH   8   9
ATOM      9  C   UNL     1      27.764  14.342   5.055  1.00  0.00     0.000 C 
BRANCH   9  10
ATOM     10  C   UNL     1      29.209  14.472   4.550  1.00  0.00     0.000 C 
BRANCH  10  11
ATOM     11  C   UNL     1      30.199  14.550   5.721  1.00  0.00     0.000 C 
BRANCH  11  12
ATOM     12  C   UNL     1      30.696  13.169   6.185  1.00  0.00     0.006 C 
BRANCH  12  13
ATOM     13  C   UNL     1      31.289  13.160   7.605  1.00  0.00     0.053 C 
BRANCH  13  14
ATOM     14  C   UNL     1      32.725  12.731   7.635  1.00  0.00     0.041 C 
ATOM     15  O   UNL     1      33.026  11.513   7.745  1.00  0.00    -0.550 OA
ATOM     16  O   UNL     1      33.734  13.679   7.524  1.00  0.00    -0.550 OA
ENDBRANCH  13  14
ENDBRANCH  12  13
ENDBRANCH  11  12
ENDBRANCH  10  11
ENDBRANCH   9  10
ENDBRANCH   8   9
ENDBRANCH   7   8
ENDBRANCH   6   7
ENDBRANCH   5   6
ENDBRANCH   4   5
ENDBRANCH   3   4
ENDBRANCH   2   3
ENDBRANCH   1   2
BRANCH   1  17
ATOM     17  C   UNL     1      21.423  20.955   6.735  1.00  0.00     0.000 C 
BRANCH  17  18
ATOM     18  C   UNL     1      20.743  22.286   6.380  1.00  0.00     0.000 C 
BRANCH  18  19
ATOM     19  C   UNL     1      19.425  22.095   5.610  1.00  0.00     0.000 C 
BRANCH  19  20
ATOM     20  C   UNL     1      18.313  23.045   6.093  1.00  0.00     0.000 C 
BRANCH  20  21
ATOM     21  C   UNL     1      17.079  22.348   6.703  1.00  0.00     0.000 C 
BRANCH  21  22
ATOM     22  C   UNL     1      17.085  20.809   6.618  1.00  0.00    -0.000 C 
BRANCH  22  23
ATOM     23  C   UNL     1      17.671  20.090   7.851  1.00  0.00    -0.000 C 
BRANCH  23  24
ATOM     24  C   UNL     1      17.711  20.937   9.138  1.00  0.00    -0.000 C 
BRANCH  24  25
ATOM     25  C   UNL     1      19.112  21.425   9.547  1.00  0.00    -0.000 C 
BRANCH  25  26
ATOM     26  C   UNL     1      19.069  22.536  10.612  1.00  0.00    -0.000 C 
BRANCH  26  27
ATOM     27  C   UNL     1      18.278  23.771  10.133  1.00  0.00    -0.000 C 
BRANCH  27  28
ATOM     28  C   UNL     1      19.106  24.730   9.258  1.00  0.00    -0.000 C 
BRANCH  28  29
ATOM     29  C   UNL     1      18.285  25.910   8.723  1.00  0.00    -0.003 C 
ATOM     30  C   UNL     1      19.088  27.205   8.764  1.00  0.00     0.004 C 
ENDBRANCH  28  29
ENDBRANCH  27  28
ENDBRANCH  26  27
ENDBRANCH  25  26
ENDBRANCH  24  25
ENDBRANCH  23  24
ENDBRANCH  22  23
ENDBRANCH  21  22
ENDBRANCH  20  21
ENDBRANCH  19  20
ENDBRANCH  18  19
ENDBRANCH  17  18
ENDBRANCH   1  17
TORSDOF 26
ENDMDL
MODEL 5
REMARK VINA RESULT:    -4.544      3.437      7.882
REMARK INTER + INTRA:         -15.139
REMARK INTER:                 -11.214
REMARK INTRA:                  -3.925
REMARK UNBOUND:                -3.688
REMARK SMILES CCCCCCCCCCCCCCCCCCCCCCCCCCCC(=O)[O-]
REMARK SMILES IDX 15 1 16 2 17 3 18 4 19 5 20 6 21 7 22 8 23 9 24 10 25 11
REMARK SMILES IDX 26 12 27 13 28 14 29 15 30 16 14 17 13 18 12 19 11 20 10 21
REMARK SMILES IDX 9 22 8 23 7 24 6 25 5 26 4 27 3 28 2 29 1 30
REMARK H PARENT
REMARK Flexibility Score: inf
ROOT
ATOM      1  C   UNL     1      21.533  21.351   6.943  1.00  0.00     0.000 C 
ENDROOT
BRANCH   1   2
ATOM      2  C   UNL     1      22.462  20.186   7.318  1.00  0.00     0.000 C 
BRANCH   2   3
ATOM      3  C   UNL     1      22.647  19.179   6.168  1.00  0.00     0.000 C 
BRANCH   3   4
ATOM      4  C   UNL     1      24.121  19.036   5.732  1.00  0.00     0.000 C 
BRANCH   4   5
ATOM      5  C   UNL     1      24.306  18.751   4.228  1.00  0.00     0.000 C 
BRANCH   5   6
ATOM      6  C   UNL     1      25.449  17.779   3.886  1.00  0.00     0.000 C 
BRANCH   6   7
ATOM      7  C   UNL     1      25.419  16.500   4.738  1.00  0.00     0.000 C 
BRANCH   7   8
ATOM      8  C   UNL     1      24.810  15.331   3.951  1.00  0.00     0.000 C 
BRANCH   8   9
ATOM      9  C   UNL     1      23.616  14.685   4.672  1.00  0.00     0.000 C 
BRANCH   9  10
ATOM     10  C   UNL     1      22.450  15.662   4.885  1.00  0.00     0.000 C 
BRANCH  10  11
ATOM     11  C   UNL     1      21.842  15.500   6.286  1.00  0.00     0.000 C 
BRANCH  11  12
ATOM     12  C   UNL     1      20.410  16.054   6.391  1.00  0.00     0.006 C 
BRANCH  12  13
ATOM     13  C   UNL     1      19.614  15.512   7.591  1.00  0.00     0.053 C 
BRANCH  13  14
ATOM     14  C   UNL     1      18.168  15.278   7.274  1.00  0.00     0.041 C 
ATOM     15  O   UNL     1      17.722  15.513   6.120  1.00  0.00    -0.550 OA
ATOM     16  O   UNL     1      17.314  14.784   8.252  1.00  0.00    -0.550 OA
ENDBRANCH  13  14
ENDBRANCH  12  13
ENDBRANCH  11  12
ENDBRANCH  10  11
ENDBRANCH   9  10
ENDBRANCH   8   9
ENDBRANCH   7   8
ENDBRANCH   6   7
ENDBRANCH   5   6
ENDBRANCH   4   5
ENDBRANCH   3   4
ENDBRANCH   2   3
ENDBRANCH   1   2
BRANCH   1  17
ATOM     17  C   UNL     1      21.217  21.402   5.438  1.00  0.00     0.000 C 
BRANCH  17  18
ATOM     18  C   UNL     1      19.714  21.537   5.149  1.00  0.00     0.000 C 
BRANCH  18  19
ATOM     19  C   UNL     1      19.120  20.282   4.485  1.00  0.00     0.000 C 
BRANCH  19  20
ATOM     20  C   UNL     1      18.104  19.559   5.388  1.00  0.00     0.000 C 
BRANCH  20  21
ATOM     21  C   UNL     1      18.602  19.254   6.816  1.00  0.00     0.000 C 
BRANCH  21  22
ATOM     22  C   UNL     1      17.504  18.859   7.824  1.00  0.00    -0.000 C 
BRANCH  22  23
ATOM     23  C   UNL     1      16.990  20.011   8.712  1.00  0.00    -0.000 C 
BRANCH  23  24
ATOM     24  C   UNL     1      18.088  20.801   9.451  1.00  0.00    -0.000 C 
BRANCH  24  25
ATOM     25  C   UNL     1      18.473  22.140   8.795  1.00  0.00    -0.000 C 
BRANCH  25  26
ATOM     26  C   UNL     1      17.369  22.689   7.873  1.00  0.00    -0.000 C 
BRANCH  26  27
ATOM     27  C   UNL     1      17.087  24.185   8.131  1.00  0.00    -0.000 C 
BRANCH  27  28
ATOM     28  C   UNL     1      18.342  25.072   8.041  1.00  0.00    -0.000 C 
BRANCH  28  29
ATOM     29  C   UNL     1      18.673  25.773   9.364  1.00  0.00    -0.003 C 
ATOM     30  C   UNL     1      18.967  27.253   9.145  1.00  0.00     0.004 C 
ENDBRANCH  28  29
ENDBRANCH  27  28
ENDBRANCH  26  27
ENDBRANCH  25  26
ENDBRANCH  24  25
ENDBRANCH  23  24
ENDBRANCH  22  23
ENDBRANCH  21  22
ENDBRANCH  20  21
ENDBRANCH  19  20
ENDBRANCH  18  19
ENDBRANCH  17  18
ENDBRANCH   1  17
TORSDOF 26
ENDMDL
MODEL 6
REMARK VINA RESULT:    -4.523      3.426      7.913
REMARK INTER + INTRA:         -15.085
REMARK INTER:                 -11.286
REMARK INTRA:                  -3.799
REMARK UNBOUND:                -3.688
REMARK SMILES CCCCCCCCCCCCCCCCCCCCCCCCCCCC(=O)[O-]
REMARK SMILES IDX 15 1 16 2 17 3 18 4 19 5 20 6 21 7 22 8 23 9 24 10 25 11
REMARK SMILES IDX 26 12 27 13 28 14 29 15 30 16 14 17 13 18 12 19 11 20 10 21
REMARK SMILES IDX 9 22 8 23 7 24 6 25 5 26 4 27 3 28 2 29 1 30
REMARK H PARENT
REMARK Flexibility Score: inf
ROOT
ATOM      1  C   UNL     1      21.895  21.457   8.887  1.00  0.00     0.000 C 
ENDROOT
BRANCH   1   2
ATOM      2  C   UNL     1      22.136  21.419   7.371  1.00  0.00     0.000 C 
BRANCH   2   3
ATOM      3  C   UNL     1      21.312  20.327   6.665  1.00  0.00     0.000 C 
BRANCH   3   4
ATOM      4  C   UNL     1      20.807  20.767   5.274  1.00  0.00     0.000 C 
BRANCH   4   5
ATOM      5  C   UNL     1      21.410  19.962   4.105  1.00  0.00     0.000 C 
BRANCH   5   6
ATOM      6  C   UNL     1      22.917  20.177   3.875  1.00  0.00     0.000 C 
BRANCH   6   7
ATOM      7  C   UNL     1      23.759  18.953   4.268  1.00  0.00     0.000 C 
BRANCH   7   8
ATOM      8  C   UNL     1      22.887  17.692   4.353  1.00  0.00     0.000 C 
BRANCH   8   9
ATOM      9  C   UNL     1      22.761  17.151   5.786  1.00  0.00     0.000 C 
BRANCH   9  10
ATOM     10  C   UNL     1      21.676  16.071   5.920  1.00  0.00     0.000 C 
BRANCH  10  11
ATOM     11  C   UNL     1      20.415  16.454   5.132  1.00  0.00     0.000 C 
BRANCH  11  12
ATOM     12  C   UNL     1      19.155  16.538   6.013  1.00  0.00     0.006 C 
BRANCH  12  13
ATOM     13  C   UNL     1      19.205  15.647   7.266  1.00  0.00     0.053 C 
BRANCH  13  14
ATOM     14  C   UNL     1      17.844  15.289   7.782  1.00  0.00     0.041 C 
ATOM     15  O   UNL     1      17.512  14.082   7.923  1.00  0.00    -0.550 OA
ATOM     16  O   UNL     1      16.945  16.291   8.122  1.00  0.00    -0.550 OA
ENDBRANCH  13  14
ENDBRANCH  12  13
ENDBRANCH  11  12
ENDBRANCH  10  11
ENDBRANCH   9  10
ENDBRANCH   8   9
ENDBRANCH   7   8
ENDBRANCH   6   7
ENDBRANCH   5   6
ENDBRANCH   4   5
ENDBRANCH   3   4
ENDBRANCH   2   3
ENDBRANCH   1   2
BRANCH   1  17
ATOM     17  C   UNL     1      20.913  22.566   9.308  1.00  0.00     0.000 C 
BRANCH  17  18
ATOM     18  C   UNL     1      21.116  23.871   8.521  1.00  0.00     0.000 C 
BRANCH  18  19
ATOM     19  C   UNL     1      19.836  24.720   8.436  1.00  0.00     0.000 C 
BRANCH  19  20
ATOM     20  C   UNL     1      19.244  25.041   9.821  1.00  0.00     0.000 C 
BRANCH  20  21
ATOM     21  C   UNL     1      17.730  25.334   9.831  1.00  0.00     0.000 C 
BRANCH  21  22
ATOM     22  C   UNL     1      16.876  24.408   8.943  1.00  0.00    -0.000 C 
BRANCH  22  23
ATOM     23  C   UNL     1      17.087  24.582   7.425  1.00  0.00    -0.000 C 
BRANCH  23  24
ATOM     24  C   UNL     1      16.890  23.300   6.591  1.00  0.00    -0.000 C 
BRANCH  24  25
ATOM     25  C   UNL     1      17.968  22.222   6.798  1.00  0.00    -0.000 C 
BRANCH  25  26
ATOM     26  C   UNL     1      17.411  20.938   7.439  1.00  0.00    -0.000 C 
BRANCH  26  27
ATOM     27  C   UNL     1      18.234  20.497   8.669  1.00  0.00    -0.000 C 
BRANCH  27  28
ATOM     28  C   UNL     1      17.382  20.284   9.933  1.00  0.00    -0.000 C 
BRANCH  28  29
ATOM     29  C   UNL     1      17.263  21.549  10.793  1.00  0.00    -0.003 C 
ATOM     30  C   UNL     1      18.485  21.724  11.688  1.00  0.00     0.004 C 
ENDBRANCH  28  29
ENDBRANCH  27  28
ENDBRANCH  26  27
ENDBRANCH  25  26
ENDBRANCH  24  25
ENDBRANCH  23  24
ENDBRANCH  22  23
ENDBRANCH  21  22
ENDBRANCH  20  21
ENDBRANCH  19  20
ENDBRANCH  18  19
ENDBRANCH  17  18
ENDBRANCH   1  17
TORSDOF 26
ENDMDL
MODEL 7
REMARK VINA RESULT:    -4.472      3.171      6.578
REMARK INTER + INTRA:         -14.958
REMARK INTER:                 -12.183
REMARK INTRA:                  -2.775
REMARK UNBOUND:                -3.688
REMARK SMILES CCCCCCCCCCCCCCCCCCCCCCCCCCCC(=O)[O-]
REMARK SMILES IDX 15 1 16 2 17 3 18 4 19 5 20 6 21 7 22 8 23 9 24 10 25 11
REMARK SMILES IDX 26 12 27 13 28 14 29 15 30 16 14 17 13 18 12 19 11 20 10 21
REMARK SMILES IDX 9 22 8 23 7 24 6 25 5 26 4 27 3 28 2 29 1 30
REMARK H PARENT
REMARK Flexibility Score: inf
ROOT
ATOM      1  C   UNL     1      22.888  20.903   8.274  1.00  0.00     0.000 C 
ENDROOT
BRANCH   1   2
ATOM      2  C   UNL     1      21.588  21.720   8.239  1.00  0.00     0.000 C 
BRANCH   2   3
ATOM      3  C   UNL     1      21.383  22.456   6.902  1.00  0.00     0.000 C 
BRANCH   3   4
ATOM      4  C   UNL     1      20.431  21.704   5.948  1.00  0.00     0.000 C 
BRANCH   4   5
ATOM      5  C   UNL     1      19.043  22.360   5.801  1.00  0.00     0.000 C 
BRANCH   5   6
ATOM      6  C   UNL     1      17.977  21.859   6.792  1.00  0.00     0.000 C 
BRANCH   6   7
ATOM      7  C   UNL     1      18.396  20.569   7.515  1.00  0.00     0.000 C 
BRANCH   7   8
ATOM      8  C   UNL     1      17.961  20.601   8.987  1.00  0.00     0.000 C 
BRANCH   8   9
ATOM      9  C   UNL     1      17.693  22.026   9.499  1.00  0.00     0.000 C 
BRANCH   9  10
ATOM     10  C   UNL     1      18.883  22.613  10.273  1.00  0.00     0.000 C 
BRANCH  10  11
ATOM     11  C   UNL     1      18.849  24.148  10.258  1.00  0.00     0.000 C 
BRANCH  11  12
ATOM     12  C   UNL     1      18.982  24.742   8.844  1.00  0.00     0.006 C 
BRANCH  12  13
ATOM     13  C   UNL     1      17.806  25.643   8.429  1.00  0.00     0.053 C 
BRANCH  13  14
ATOM     14  C   UNL     1      17.943  27.049   8.931  1.00  0.00     0.041 C 
ATOM     15  O   UNL     1      16.920  27.748   9.158  1.00  0.00    -0.550 OA
ATOM     16  O   UNL     1      19.203  27.583   9.164  1.00  0.00    -0.550 OA
ENDBRANCH  13  14
ENDBRANCH  12  13
ENDBRANCH  11  12
ENDBRANCH  10  11
ENDBRANCH   9  10
ENDBRANCH   8   9
ENDBRANCH   7   8
ENDBRANCH   6   7
ENDBRANCH   5   6
ENDBRANCH   4   5
ENDBRANCH   3   4
ENDBRANCH   2   3
ENDBRANCH   1   2
BRANCH   1  17
ATOM     17  C   UNL     1      22.745  19.524   7.605  1.00  0.00     0.000 C 
BRANCH  17  18
ATOM     18  C   UNL     1      23.519  19.421   6.281  1.00  0.00     0.000 C 
BRANCH  18  19
ATOM     19  C   UNL     1      22.769  18.603   5.216  1.00  0.00     0.000 C 
BRANCH  19  20
ATOM     20  C   UNL     1      23.525  18.543   3.875  1.00  0.00     0.000 C 
BRANCH  20  21
ATOM     21  C   UNL     1      24.988  18.065   3.972  1.00  0.00     0.000 C 
BRANCH  21  22
ATOM     22  C   UNL     1      25.174  16.600   4.413  1.00  0.00    -0.000 C 
BRANCH  22  23
ATOM     23  C   UNL     1      26.466  15.926   3.910  1.00  0.00    -0.000 C 
BRANCH  23  24
ATOM     24  C   UNL     1      27.736  16.793   4.021  1.00  0.00    -0.000 C 
BRANCH  24  25
ATOM     25  C   UNL     1      28.687  16.404   5.167  1.00  0.00    -0.000 C 
BRANCH  25  26
ATOM     26  C   UNL     1      28.641  14.900   5.493  1.00  0.00    -0.000 C 
BRANCH  26  27
ATOM     27  C   UNL     1      29.924  14.168   5.044  1.00  0.00    -0.000 C 
BRANCH  27  28
ATOM     28  C   UNL     1      31.007  14.100   6.137  1.00  0.00    -0.000 C 
BRANCH  28  29
ATOM     29  C   UNL     1      30.985  12.780   6.917  1.00  0.00    -0.003 C 
ATOM     30  C   UNL     1      32.233  12.630   7.781  1.00  0.00     0.004 C 
ENDBRANCH  28  29
ENDBRANCH  27  28
ENDBRANCH  26  27
ENDBRANCH  25  26
ENDBRANCH  24  25
ENDBRANCH  23  24
ENDBRANCH  22  23
ENDBRANCH  21  22
ENDBRANCH  20  21
ENDBRANCH  19  20
ENDBRANCH  18  19
ENDBRANCH  17  18
ENDBRANCH   1  17
TORSDOF 26
ENDMDL
