MODEL 1
REMARK VINA RESULT:    -7.131      0.000      0.000
REMARK INTER + INTRA:          -7.965
REMARK INTER:                  -7.965
REMARK INTRA:                   0.000
REMARK UNBOUND:                 0.000
REMARK SMILES Oc1cc(O)c2c(c1)CCc1cc(O)c(O)cc1-2
REMARK SMILES IDX 10 1 9 2 7 3 6 4 18 5 17 6 15 7 13 8 12 9 11 10 4 11 3 12
REMARK SMILES IDX 2 13 8 14 14 15 5 17 1 19 16 21
REMARK H PARENT 14 16 5 18 1 20 16 22
REMARK Flexibility Score: inf
ROOT
ATOM      1  C   UNL     1      -2.686 -55.995 -33.750  1.00  0.00     0.041 C 
ATOM      2  C   UNL     1      -1.699 -54.823 -33.671  1.00  0.00     0.041 C 
ATOM      3  C   UNL     1      -0.857 -54.747 -34.923  1.00  0.00    -0.032 A 
ATOM      4  C   UNL     1      -0.500 -55.933 -35.609  1.00  0.00     0.027 A 
ATOM      5  C   UNL     1      -0.872 -57.239 -34.983  1.00  0.00    -0.007 A 
ATOM      6  C   UNL     1      -0.092 -58.399 -35.148  1.00  0.00     0.059 A 
ATOM      7  C   UNL     1      -0.460 -59.602 -34.530  1.00  0.00     0.158 A 
ATOM      8  C   UNL     1      -1.595 -59.645 -33.705  1.00  0.00     0.157 A 
ATOM      9  C   UNL     1      -2.329 -58.480 -33.473  1.00  0.00     0.054 A 
ATOM     10  C   UNL     1      -1.951 -57.271 -34.074  1.00  0.00    -0.036 A 
ATOM     11  C   UNL     1       0.165 -55.820 -36.859  1.00  0.00     0.127 A 
ATOM     12  C   UNL     1       0.636 -54.574 -37.284  1.00  0.00     0.093 A 
ATOM     13  C   UNL     1       0.369 -53.420 -36.546  1.00  0.00     0.119 A 
ATOM     14  C   UNL     1      -0.394 -53.505 -35.377  1.00  0.00     0.050 A 
ENDROOT
BRANCH   8  15
ATOM     15  O   UNL     1      -1.996 -60.832 -33.092  1.00  0.00    -0.504 OA
ATOM     16  H   UNL     1      -2.956 -60.995 -32.811  1.00  0.00     0.293 HD
ENDBRANCH   8  15
BRANCH  11  17
ATOM     17  O   UNL     1       0.320 -56.900 -37.730  1.00  0.00    -0.507 OA
ATOM     18  H   UNL     1      -0.097 -56.925 -38.652  1.00  0.00     0.293 HD
ENDBRANCH  11  17
BRANCH  13  19
ATOM     19  O   UNL     1       0.845 -52.190 -36.995  1.00  0.00    -0.508 OA
ATOM     20  H   UNL     1       1.820 -52.057 -37.239  1.00  0.00     0.293 HD
ENDBRANCH  13  19
BRANCH   7  21
ATOM     21  O   UNL     1       0.304 -60.752 -34.727  1.00  0.00    -0.504 OA
ATOM     22  H   UNL     1       0.889 -61.133 -33.994  1.00  0.00     0.293 HD
ENDBRANCH   7  21
TORSDOF 4
ENDMDL
MODEL 2
REMARK VINA RESULT:    -7.058      9.228      9.643
REMARK INTER + INTRA:          -7.883
REMARK INTER:                  -7.883
REMARK INTRA:                   0.000
REMARK UNBOUND:                 0.000
REMARK SMILES Oc1cc(O)c2c(c1)CCc1cc(O)c(O)cc1-2
REMARK SMILES IDX 10 1 9 2 7 3 6 4 18 5 17 6 15 7 13 8 12 9 11 10 4 11 3 12
REMARK SMILES IDX 2 13 8 14 14 15 5 17 1 19 16 21
REMARK H PARENT 14 16 5 18 1 20 16 22
REMARK Flexibility Score: inf
ROOT
ATOM      1  C   UNL     1       4.638 -55.955 -31.497  1.00  0.00     0.041 C 
ATOM      2  C   UNL     1       5.750 -55.013 -31.977  1.00  0.00     0.041 C 
ATOM      3  C   UNL     1       7.054 -55.327 -31.281  1.00  0.00    -0.032 A 
ATOM      4  C   UNL     1       7.049 -55.800 -29.947  1.00  0.00     0.027 A 
ATOM      5  C   UNL     1       5.738 -55.849 -29.230  1.00  0.00    -0.007 A 
ATOM      6  C   UNL     1       5.637 -55.660 -27.839  1.00  0.00     0.059 A 
ATOM      7  C   UNL     1       4.388 -55.693 -27.202  1.00  0.00     0.158 A 
ATOM      8  C   UNL     1       3.221 -55.875 -27.960  1.00  0.00     0.157 A 
ATOM      9  C   UNL     1       3.306 -55.985 -29.351  1.00  0.00     0.054 A 
ATOM     10  C   UNL     1       4.553 -55.932 -29.992  1.00  0.00    -0.036 A 
ATOM     11  C   UNL     1       8.276 -56.225 -29.373  1.00  0.00     0.127 A 
ATOM     12  C   UNL     1       9.478 -55.977 -30.044  1.00  0.00     0.093 A 
ATOM     13  C   UNL     1       9.481 -55.412 -31.320  1.00  0.00     0.119 A 
ATOM     14  C   UNL     1       8.268 -55.106 -31.945  1.00  0.00     0.050 A 
ENDROOT
BRANCH   8  15
ATOM     15  O   UNL     1       1.967 -55.930 -27.353  1.00  0.00    -0.504 OA
ATOM     16  H   UNL     1       1.230 -55.272 -27.577  1.00  0.00     0.293 HD
ENDBRANCH   8  15
BRANCH  11  17
ATOM     17  O   UNL     1       8.340 -56.946 -28.180  1.00  0.00    -0.507 OA
ATOM     18  H   UNL     1       9.114 -56.867 -27.532  1.00  0.00     0.293 HD
ENDBRANCH  11  17
BRANCH  13  19
ATOM     19  O   UNL     1      10.692 -55.180 -31.967  1.00  0.00    -0.508 OA
ATOM     20  H   UNL     1      10.772 -55.232 -32.976  1.00  0.00     0.293 HD
ENDBRANCH  13  19
BRANCH   7  21
ATOM     21  O   UNL     1       4.303 -55.536 -25.819  1.00  0.00    -0.504 OA
ATOM     22  H   UNL     1       4.921 -54.909 -25.317  1.00  0.00     0.293 HD
ENDBRANCH   7  21
TORSDOF 4
ENDMDL
MODEL 3
REMARK VINA RESULT:    -6.927      1.178      5.612
REMARK INTER + INTRA:          -7.737
REMARK INTER:                  -7.737
REMARK INTRA:                   0.000
REMARK UNBOUND:                 0.000
REMARK SMILES Oc1cc(O)c2c(c1)CCc1cc(O)c(O)cc1-2
REMARK SMILES IDX 10 1 9 2 7 3 6 4 18 5 17 6 15 7 13 8 12 9 11 10 4 11 3 12
REMARK SMILES IDX 2 13 8 14 14 15 5 17 1 19 16 21
REMARK H PARENT 14 16 5 18 1 20 16 22
REMARK Flexibility Score: inf
ROOT
ATOM      1  C   UNL     1      -2.312 -56.159 -32.986  1.00  0.00     0.041 C 
ATOM      2  C   UNL     1      -3.245 -57.375 -33.052  1.00  0.00     0.041 C 
ATOM      3  C   UNL     1      -2.466 -58.630 -33.372  1.00  0.00    -0.032 A 
ATOM      4  C   UNL     1      -1.326 -58.562 -34.208  1.00  0.00     0.027 A 
ATOM      5  C   UNL     1      -1.011 -57.249 -34.851  1.00  0.00    -0.007 A 
ATOM      6  C   UNL     1      -0.390 -57.161 -36.111  1.00  0.00     0.059 A 
ATOM      7  C   UNL     1      -0.127 -55.912 -36.693  1.00  0.00     0.158 A 
ATOM      8  C   UNL     1      -0.521 -54.738 -36.034  1.00  0.00     0.157 A 
ATOM      9  C   UNL     1      -1.208 -54.819 -34.820  1.00  0.00     0.054 A 
ATOM     10  C   UNL     1      -1.490 -56.067 -34.246  1.00  0.00    -0.036 A 
ATOM     11  C   UNL     1      -0.533 -59.728 -34.371  1.00  0.00     0.127 A 
ATOM     12  C   UNL     1      -0.996 -60.955 -33.884  1.00  0.00     0.093 A 
ATOM     13  C   UNL     1      -2.179 -61.031 -33.148  1.00  0.00     0.119 A 
ATOM     14  C   UNL     1      -2.903 -59.866 -32.876  1.00  0.00     0.050 A 
ENDROOT
BRANCH   8  15
ATOM     15  O   UNL     1      -0.257 -53.482 -36.579  1.00  0.00    -0.504 OA
ATOM     16  H   UNL     1      -0.997 -52.839 -36.835  1.00  0.00     0.293 HD
ENDBRANCH   8  15
BRANCH  11  17
ATOM     17  O   UNL     1       0.738 -59.701 -34.947  1.00  0.00    -0.507 OA
ATOM     18  H   UNL     1       1.300 -60.533 -35.076  1.00  0.00     0.293 HD
ENDBRANCH  11  17
BRANCH  13  19
ATOM     19  O   UNL     1      -2.615 -62.265 -32.671  1.00  0.00    -0.508 OA
ATOM     20  H   UNL     1      -3.314 -62.334 -31.940  1.00  0.00     0.293 HD
ENDBRANCH  13  19
BRANCH   7  21
ATOM     21  O   UNL     1       0.517 -55.838 -37.928  1.00  0.00    -0.504 OA
ATOM     22  H   UNL     1       1.439 -55.429 -38.022  1.00  0.00     0.293 HD
ENDBRANCH   7  21
TORSDOF 4
ENDMDL
MODEL 4
REMARK VINA RESULT:    -6.771      9.478      9.790
REMARK INTER + INTRA:          -7.562
REMARK INTER:                  -7.562
REMARK INTRA:                   0.000
REMARK UNBOUND:                 0.000
REMARK SMILES Oc1cc(O)c2c(c1)CCc1cc(O)c(O)cc1-2
REMARK SMILES IDX 10 1 9 2 7 3 6 4 18 5 17 6 15 7 13 8 12 9 11 10 4 11 3 12
REMARK SMILES IDX 2 13 8 14 14 15 5 17 1 19 16 21
REMARK H PARENT 14 16 5 18 1 20 16 22
REMARK Flexibility Score: inf
ROOT
ATOM      1  C   UNL     1       8.515 -55.398 -28.329  1.00  0.00     0.041 C 
ATOM      2  C   UNL     1       9.567 -55.987 -29.277  1.00  0.00     0.041 C 
ATOM      3  C   UNL     1       9.214 -55.692 -30.716  1.00  0.00    -0.032 A 
ATOM      4  C   UNL     1       7.857 -55.625 -31.114  1.00  0.00     0.027 A 
ATOM      5  C   UNL     1       6.816 -55.977 -30.100  1.00  0.00    -0.007 A 
ATOM      6  C   UNL     1       5.590 -56.566 -30.459  1.00  0.00     0.059 A 
ATOM      7  C   UNL     1       4.644 -56.903 -29.480  1.00  0.00     0.158 A 
ATOM      8  C   UNL     1       4.936 -56.688 -28.124  1.00  0.00     0.157 A 
ATOM      9  C   UNL     1       6.182 -56.177 -27.754  1.00  0.00     0.054 A 
ATOM     10  C   UNL     1       7.137 -55.859 -28.731  1.00  0.00    -0.036 A 
ATOM     11  C   UNL     1       7.558 -55.202 -32.436  1.00  0.00     0.127 A 
ATOM     12  C   UNL     1       8.589 -55.068 -33.371  1.00  0.00     0.093 A 
ATOM     13  C   UNL     1       9.921 -55.240 -32.995  1.00  0.00     0.119 A 
ATOM     14  C   UNL     1      10.234 -55.533 -31.664  1.00  0.00     0.050 A 
ENDROOT
BRANCH   8  15
ATOM     15  O   UNL     1       4.008 -56.995 -27.130  1.00  0.00    -0.504 OA
ATOM     16  H   UNL     1       4.239 -57.590 -26.342  1.00  0.00     0.293 HD
ENDBRANCH   8  15
BRANCH  11  17
ATOM     17  O   UNL     1       6.269 -54.848 -32.840  1.00  0.00    -0.507 OA
ATOM     18  H   UNL     1       5.581 -55.529 -33.136  1.00  0.00     0.293 HD
ENDBRANCH  11  17
BRANCH  13  19
ATOM     19  O   UNL     1      10.929 -55.095 -33.946  1.00  0.00    -0.508 OA
ATOM     20  H   UNL     1      11.835 -55.532 -33.829  1.00  0.00     0.293 HD
ENDBRANCH  13  19
BRANCH   7  21
ATOM     21  O   UNL     1       3.419 -57.456 -29.851  1.00  0.00    -0.504 OA
ATOM     22  H   UNL     1       2.584 -57.320 -29.294  1.00  0.00     0.293 HD
ENDBRANCH   7  21
TORSDOF 4
ENDMDL
MODEL 5
REMARK VINA RESULT:    -6.688      9.278     10.491
REMARK INTER + INTRA:          -7.470
REMARK INTER:                  -7.470
REMARK INTRA:                   0.000
REMARK UNBOUND:                 0.000
REMARK SMILES Oc1cc(O)c2c(c1)CCc1cc(O)c(O)cc1-2
REMARK SMILES IDX 10 1 9 2 7 3 6 4 18 5 17 6 15 7 13 8 12 9 11 10 4 11 3 12
REMARK SMILES IDX 2 13 8 14 14 15 5 17 1 19 16 21
REMARK H PARENT 14 16 5 18 1 20 16 22
REMARK Flexibility Score: inf
ROOT
ATOM      1  C   UNL     1       4.819 -55.030 -30.872  1.00  0.00     0.041 C 
ATOM      2  C   UNL     1       4.178 -56.206 -30.124  1.00  0.00     0.041 C 
ATOM      3  C   UNL     1       5.034 -56.626 -28.952  1.00  0.00    -0.032 A 
ATOM      4  C   UNL     1       6.444 -56.516 -29.029  1.00  0.00     0.027 A 
ATOM      5  C   UNL     1       7.039 -56.100 -30.336  1.00  0.00    -0.007 A 
ATOM      6  C   UNL     1       8.305 -56.547 -30.759  1.00  0.00     0.059 A 
ATOM      7  C   UNL     1       8.825 -56.152 -32.001  1.00  0.00     0.158 A 
ATOM      8  C   UNL     1       8.061 -55.336 -32.850  1.00  0.00     0.157 A 
ATOM      9  C   UNL     1       6.772 -54.953 -32.471  1.00  0.00     0.054 A 
ATOM     10  C   UNL     1       6.243 -55.363 -31.239  1.00  0.00    -0.036 A 
ATOM     11  C   UNL     1       7.210 -56.779 -27.864  1.00  0.00     0.127 A 
ATOM     12  C   UNL     1       6.592 -57.337 -26.739  1.00  0.00     0.093 A 
ATOM     13  C   UNL     1       5.212 -57.540 -26.710  1.00  0.00     0.119 A 
ATOM     14  C   UNL     1       4.432 -57.167 -27.808  1.00  0.00     0.050 A 
ENDROOT
BRANCH   8  15
ATOM     15  O   UNL     1       8.559 -54.912 -34.082  1.00  0.00    -0.504 OA
ATOM     16  H   UNL     1       9.371 -55.340 -34.511  1.00  0.00     0.293 HD
ENDBRANCH   8  15
BRANCH  11  17
ATOM     17  O   UNL     1       8.561 -56.445 -27.759  1.00  0.00    -0.507 OA
ATOM     18  H   UNL     1       8.879 -55.550 -27.409  1.00  0.00     0.293 HD
ENDBRANCH  11  17
BRANCH  13  19
ATOM     19  O   UNL     1       4.622 -58.092 -25.575  1.00  0.00    -0.508 OA
ATOM     20  H   UNL     1       4.195 -59.011 -25.594  1.00  0.00     0.293 HD
ENDBRANCH  13  19
BRANCH   7  21
ATOM     21  O   UNL     1      10.093 -56.575 -32.395  1.00  0.00    -0.504 OA
ATOM     22  H   UNL     1      10.925 -56.044 -32.167  1.00  0.00     0.293 HD
ENDBRANCH   7  21
TORSDOF 4
ENDMDL
MODEL 6
REMARK VINA RESULT:    -6.638      9.917     10.942
REMARK INTER + INTRA:          -7.415
REMARK INTER:                  -7.415
REMARK INTRA:                   0.000
REMARK UNBOUND:                 0.000
REMARK SMILES Oc1cc(O)c2c(c1)CCc1cc(O)c(O)cc1-2
REMARK SMILES IDX 10 1 9 2 7 3 6 4 18 5 17 6 15 7 13 8 12 9 11 10 4 11 3 12
REMARK SMILES IDX 2 13 8 14 14 15 5 17 1 19 16 21
REMARK H PARENT 14 16 5 18 1 20 16 22
REMARK Flexibility Score: inf
ROOT
ATOM      1  C   UNL     1       7.640 -53.945 -31.504  1.00  0.00     0.041 C 
ATOM      2  C   UNL     1       6.810 -55.050 -32.172  1.00  0.00     0.041 C 
ATOM      3  C   UNL     1       5.969 -55.778 -31.150  1.00  0.00    -0.032 A 
ATOM      4  C   UNL     1       6.448 -55.949 -29.829  1.00  0.00     0.027 A 
ATOM      5  C   UNL     1       7.844 -55.503 -29.532  1.00  0.00    -0.007 A 
ATOM      6  C   UNL     1       8.646 -56.143 -28.568  1.00  0.00     0.059 A 
ATOM      7  C   UNL     1       9.959 -55.711 -28.328  1.00  0.00     0.158 A 
ATOM      8  C   UNL     1      10.496 -54.657 -29.084  1.00  0.00     0.157 A 
ATOM      9  C   UNL     1       9.733 -54.069 -30.097  1.00  0.00     0.054 A 
ATOM     10  C   UNL     1       8.427 -54.513 -30.351  1.00  0.00    -0.036 A 
ATOM     11  C   UNL     1       5.576 -56.506 -28.857  1.00  0.00     0.127 A 
ATOM     12  C   UNL     1       4.356 -57.061 -29.257  1.00  0.00     0.093 A 
ATOM     13  C   UNL     1       3.937 -56.982 -30.585  1.00  0.00     0.119 A 
ATOM     14  C   UNL     1       4.734 -56.323 -31.527  1.00  0.00     0.050 A 
ENDROOT
BRANCH   8  15
ATOM     15  O   UNL     1      11.791 -54.194 -28.856  1.00  0.00    -0.504 OA
ATOM     16  H   UNL     1      12.536 -54.322 -29.531  1.00  0.00     0.293 HD
ENDBRANCH   8  15
BRANCH  11  17
ATOM     17  O   UNL     1       5.851 -56.470 -27.489  1.00  0.00    -0.507 OA
ATOM     18  H   UNL     1       5.846 -57.298 -26.907  1.00  0.00     0.293 HD
ENDBRANCH  11  17
BRANCH  13  19
ATOM     19  O   UNL     1       2.714 -57.539 -30.955  1.00  0.00    -0.508 OA
ATOM     20  H   UNL     1       1.838 -57.179 -30.596  1.00  0.00     0.293 HD
ENDBRANCH  13  19
BRANCH   7  21
ATOM     21  O   UNL     1      10.732 -56.331 -27.348  1.00  0.00    -0.504 OA
ATOM     22  H   UNL     1      11.543 -55.877 -26.945  1.00  0.00     0.293 HD
ENDBRANCH   7  21
TORSDOF 4
ENDMDL
MODEL 7
REMARK VINA RESULT:    -6.474     10.369     11.413
REMARK INTER + INTRA:          -7.231
REMARK INTER:                  -7.231
REMARK INTRA:                   0.000
REMARK UNBOUND:                 0.000
REMARK SMILES Oc1cc(O)c2c(c1)CCc1cc(O)c(O)cc1-2
REMARK SMILES IDX 10 1 9 2 7 3 6 4 18 5 17 6 15 7 13 8 12 9 11 10 4 11 3 12
REMARK SMILES IDX 2 13 8 14 14 15 5 17 1 19 16 21
REMARK H PARENT 14 16 5 18 1 20 16 22
REMARK Flexibility Score: inf
ROOT
ATOM      1  C   UNL     1       1.111 -54.644 -26.252  1.00  0.00     0.041 C 
ATOM      2  C   UNL     1       2.266 -54.307 -27.204  1.00  0.00     0.041 C 
ATOM      3  C   UNL     1       3.359 -55.345 -27.107  1.00  0.00    -0.032 A 
ATOM      4  C   UNL     1       3.619 -55.987 -25.872  1.00  0.00     0.027 A 
ATOM      5  C   UNL     1       2.871 -55.511 -24.668  1.00  0.00    -0.007 A 
ATOM      6  C   UNL     1       3.427 -55.553 -23.376  1.00  0.00     0.059 A 
ATOM      7  C   UNL     1       2.705 -55.079 -22.271  1.00  0.00     0.158 A 
ATOM      8  C   UNL     1       1.431 -54.519 -22.457  1.00  0.00     0.157 A 
ATOM      9  C   UNL     1       0.906 -54.402 -23.746  1.00  0.00     0.054 A 
ATOM     10  C   UNL     1       1.635 -54.857 -24.855  1.00  0.00    -0.036 A 
ATOM     11  C   UNL     1       4.549 -57.059 -25.848  1.00  0.00     0.127 A 
ATOM     12  C   UNL     1       5.336 -57.321 -26.974  1.00  0.00     0.093 A 
ATOM     13  C   UNL     1       5.145 -56.610 -28.160  1.00  0.00     0.119 A 
ATOM     14  C   UNL     1       4.144 -55.636 -28.231  1.00  0.00     0.050 A 
ENDROOT
BRANCH   8  15
ATOM     15  O   UNL     1       0.682 -54.057 -21.376  1.00  0.00    -0.504 OA
ATOM     16  H   UNL     1       0.041 -54.656 -20.869  1.00  0.00     0.293 HD
ENDBRANCH   8  15
BRANCH  11  17
ATOM     17  O   UNL     1       4.677 -57.921 -24.757  1.00  0.00    -0.507 OA
ATOM     18  H   UNL     1       5.572 -58.166 -24.354  1.00  0.00     0.293 HD
ENDBRANCH  11  17
BRANCH  13  19
ATOM     19  O   UNL     1       5.939 -56.895 -29.268  1.00  0.00    -0.508 OA
ATOM     20  H   UNL     1       6.235 -57.841 -29.479  1.00  0.00     0.293 HD
ENDBRANCH  13  19
BRANCH   7  21
ATOM     21  O   UNL     1       3.253 -55.156 -20.991  1.00  0.00    -0.504 OA
ATOM     22  H   UNL     1       2.795 -55.667 -20.247  1.00  0.00     0.293 HD
ENDBRANCH   7  21
TORSDOF 4
ENDMDL
MODEL 8
REMARK VINA RESULT:    -6.428     10.187     11.299
REMARK INTER + INTRA:          -7.180
REMARK INTER:                  -7.180
REMARK INTRA:                   0.000
REMARK UNBOUND:                 0.000
REMARK SMILES Oc1cc(O)c2c(c1)CCc1cc(O)c(O)cc1-2
REMARK SMILES IDX 10 1 9 2 7 3 6 4 18 5 17 6 15 7 13 8 12 9 11 10 4 11 3 12
REMARK SMILES IDX 2 13 8 14 14 15 5 17 1 19 16 21
REMARK H PARENT 14 16 5 18 1 20 16 22
REMARK Flexibility Score: inf
ROOT
ATOM      1  C   UNL     1       3.887 -55.300 -27.848  1.00  0.00     0.041 C 
ATOM      2  C   UNL     1       2.358 -55.402 -27.773  1.00  0.00     0.041 C 
ATOM      3  C   UNL     1       1.868 -55.077 -26.381  1.00  0.00    -0.032 A 
ATOM      4  C   UNL     1       2.659 -55.411 -25.255  1.00  0.00     0.027 A 
ATOM      5  C   UNL     1       3.909 -56.197 -25.491  1.00  0.00    -0.007 A 
ATOM      6  C   UNL     1       4.411 -57.109 -24.544  1.00  0.00     0.059 A 
ATOM      7  C   UNL     1       5.576 -57.845 -24.807  1.00  0.00     0.158 A 
ATOM      8  C   UNL     1       6.229 -57.702 -26.041  1.00  0.00     0.157 A 
ATOM      9  C   UNL     1       5.693 -56.858 -27.017  1.00  0.00     0.054 A 
ATOM     10  C   UNL     1       4.517 -56.137 -26.763  1.00  0.00    -0.036 A 
ATOM     11  C   UNL     1       2.241 -54.963 -23.975  1.00  0.00     0.127 A 
ATOM     12  C   UNL     1       0.973 -54.394 -23.819  1.00  0.00     0.093 A 
ATOM     13  C   UNL     1       0.153 -54.164 -24.925  1.00  0.00     0.119 A 
ATOM     14  C   UNL     1       0.609 -54.487 -26.207  1.00  0.00     0.050 A 
ENDROOT
BRANCH   8  15
ATOM     15  O   UNL     1       7.399 -58.406 -26.323  1.00  0.00    -0.504 OA
ATOM     16  H   UNL     1       7.428 -59.149 -27.012  1.00  0.00     0.293 HD
ENDBRANCH   8  15
BRANCH  11  17
ATOM     17  O   UNL     1       3.071 -55.005 -22.854  1.00  0.00    -0.507 OA
ATOM     18  H   UNL     1       2.738 -55.265 -21.934  1.00  0.00     0.293 HD
ENDBRANCH  11  17
BRANCH  13  19
ATOM     19  O   UNL     1      -1.104 -53.590 -24.742  1.00  0.00    -0.508 OA
ATOM     20  H   UNL     1      -1.718 -53.400 -25.525  1.00  0.00     0.293 HD
ENDBRANCH  13  19
BRANCH   7  21
ATOM     21  O   UNL     1       6.081 -58.721 -23.847  1.00  0.00    -0.504 OA
ATOM     22  H   UNL     1       5.484 -59.383 -23.366  1.00  0.00     0.293 HD
ENDBRANCH   7  21
TORSDOF 4
ENDMDL
MODEL 9
REMARK VINA RESULT:    -6.273     14.853     15.896
REMARK INTER + INTRA:          -7.006
REMARK INTER:                  -7.006
REMARK INTRA:                   0.000
REMARK UNBOUND:                 0.000
REMARK SMILES Oc1cc(O)c2c(c1)CCc1cc(O)c(O)cc1-2
REMARK SMILES IDX 10 1 9 2 7 3 6 4 18 5 17 6 15 7 13 8 12 9 11 10 4 11 3 12
REMARK SMILES IDX 2 13 8 14 14 15 5 17 1 19 16 21
REMARK H PARENT 14 16 5 18 1 20 16 22
REMARK Flexibility Score: inf
ROOT
ATOM      1  C   UNL     1       1.539 -45.091 -25.411  1.00  0.00     0.041 C 
ATOM      2  C   UNL     1       2.461 -44.887 -24.202  1.00  0.00     0.041 C 
ATOM      3  C   UNL     1       2.631 -46.177 -23.435  1.00  0.00    -0.032 A 
ATOM      4  C   UNL     1       1.566 -47.107 -23.367  1.00  0.00     0.027 A 
ATOM      5  C   UNL     1       0.254 -46.708 -23.963  1.00  0.00    -0.007 A 
ATOM      6  C   UNL     1      -0.973 -47.165 -23.448  1.00  0.00     0.059 A 
ATOM      7  C   UNL     1      -2.186 -46.754 -24.019  1.00  0.00     0.158 A 
ATOM      8  C   UNL     1      -2.182 -45.847 -25.090  1.00  0.00     0.157 A 
ATOM      9  C   UNL     1      -0.972 -45.328 -25.556  1.00  0.00     0.054 A 
ATOM     10  C   UNL     1       0.242 -45.722 -24.972  1.00  0.00    -0.036 A 
ATOM     11  C   UNL     1       1.805 -48.371 -22.766  1.00  0.00     0.127 A 
ATOM     12  C   UNL     1       3.001 -48.594 -22.074  1.00  0.00     0.093 A 
ATOM     13  C   UNL     1       4.007 -47.628 -22.057  1.00  0.00     0.119 A 
ATOM     14  C   UNL     1       3.830 -46.429 -22.753  1.00  0.00     0.050 A 
ENDROOT
BRANCH   8  15
ATOM     15  O   UNL     1      -3.371 -45.435 -25.690  1.00  0.00    -0.504 OA
ATOM     16  H   UNL     1      -4.264 -45.497 -25.215  1.00  0.00     0.293 HD
ENDBRANCH   8  15
BRANCH  11  17
ATOM     17  O   UNL     1       0.918 -49.442 -22.885  1.00  0.00    -0.507 OA
ATOM     18  H   UNL     1       0.841 -50.170 -22.186  1.00  0.00     0.293 HD
ENDBRANCH  11  17
BRANCH  13  19
ATOM     19  O   UNL     1       5.190 -47.879 -21.364  1.00  0.00    -0.508 OA
ATOM     20  H   UNL     1       5.183 -48.213 -20.407  1.00  0.00     0.293 HD
ENDBRANCH  13  19
BRANCH   7  21
ATOM     21  O   UNL     1      -3.394 -47.239 -23.520  1.00  0.00    -0.504 OA
ATOM     22  H   UNL     1      -3.842 -46.820 -22.714  1.00  0.00     0.293 HD
ENDBRANCH   7  21
TORSDOF 4
ENDMDL
