MODEL 1
REMARK VINA RESULT:    -4.950      0.000      0.000
REMARK INTER + INTRA:          -5.769
REMARK INTER:                  -5.529
REMARK INTRA:                  -0.240
REMARK UNBOUND:                -0.240
REMARK SMILES COc1cc(C)ccc1C(C)C
REMARK SMILES IDX 6 1 5 2 4 3 3 4 9 5 8 6 7 7 2 8 1 9 10 10 11 11 12 12
REMARK H PARENT
REMARK Flexibility Score: inf
ROOT
ATOM      1  C   UNL     1       7.128 -18.646 -22.117  1.00  0.00     0.044 C 
ATOM      2  C   UNL     1       8.572 -18.408 -21.787  1.00  0.00    -0.047 A 
ATOM      3  C   UNL     1       9.433 -17.859 -22.745  1.00  0.00     0.050 A 
ATOM      4  C   UNL     1      10.800 -17.664 -22.462  1.00  0.00     0.122 A 
ATOM      5  C   UNL     1      11.308 -18.040 -21.194  1.00  0.00    -0.003 A 
ATOM      6  C   UNL     1      10.432 -18.609 -20.249  1.00  0.00     0.008 A 
ATOM      7  C   UNL     1       9.083 -18.796 -20.545  1.00  0.00     0.004 A 
ENDROOT
BRANCH   4   8
ATOM      8  O   UNL     1      11.668 -17.104 -23.413  1.00  0.00    -0.496 OA
ATOM      9  C   UNL     1      11.384 -15.948 -24.196  1.00  0.00     0.278 C 
ENDBRANCH   4   8
BRANCH   5  10
ATOM     10  C   UNL     1      12.773 -17.860 -20.813  1.00  0.00     0.017 C 
ATOM     11  C   UNL     1      12.939 -17.504 -19.330  1.00  0.00     0.012 C 
ATOM     12  C   UNL     1      13.619 -19.079 -21.200  1.00  0.00     0.012 C 
ENDBRANCH   5  10
TORSDOF 2
ENDMDL
MODEL 2
REMARK VINA RESULT:    -4.788      2.620      4.470
REMARK INTER + INTRA:          -5.588
REMARK INTER:                  -5.309
REMARK INTRA:                  -0.279
REMARK UNBOUND:                -0.240
REMARK SMILES COc1cc(C)ccc1C(C)C
REMARK SMILES IDX 6 1 5 2 4 3 3 4 9 5 8 6 7 7 2 8 1 9 10 10 11 11 12 12
REMARK H PARENT
REMARK Flexibility Score: inf
ROOT
ATOM      1  C   UNL     1      10.123 -18.270 -20.215  1.00  0.00     0.044 C 
ATOM      2  C   UNL     1      11.601 -18.071 -20.380  1.00  0.00    -0.047 A 
ATOM      3  C   UNL     1      12.412 -17.853 -19.259  1.00  0.00     0.050 A 
ATOM      4  C   UNL     1      13.797 -17.628 -19.401  1.00  0.00     0.122 A 
ATOM      5  C   UNL     1      14.369 -17.612 -20.697  1.00  0.00    -0.003 A 
ATOM      6  C   UNL     1      13.536 -17.813 -21.814  1.00  0.00     0.008 A 
ATOM      7  C   UNL     1      12.168 -18.034 -21.656  1.00  0.00     0.004 A 
ENDROOT
BRANCH   4   8
ATOM      8  O   UNL     1      14.619 -17.419 -18.282  1.00  0.00    -0.496 OA
ATOM      9  C   UNL     1      14.942 -18.411 -17.311  1.00  0.00     0.278 C 
ENDBRANCH   4   8
BRANCH   5  10
ATOM     10  C   UNL     1      15.857 -17.376 -20.931  1.00  0.00     0.017 C 
ATOM     11  C   UNL     1      16.646 -18.692 -20.965  1.00  0.00     0.012 C 
ATOM     12  C   UNL     1      16.112 -16.532 -22.186  1.00  0.00     0.012 C 
ENDBRANCH   5  10
TORSDOF 2
ENDMDL
MODEL 3
REMARK VINA RESULT:    -4.727      4.156      5.441
REMARK INTER + INTRA:          -5.520
REMARK INTER:                  -5.286
REMARK INTRA:                  -0.233
REMARK UNBOUND:                -0.240
REMARK SMILES COc1cc(C)ccc1C(C)C
REMARK SMILES IDX 6 1 5 2 4 3 3 4 9 5 8 6 7 7 2 8 1 9 10 10 11 11 12 12
REMARK H PARENT
REMARK Flexibility Score: inf
ROOT
ATOM      1  C   UNL     1      15.538 -22.395 -22.541  1.00  0.00     0.044 C 
ATOM      2  C   UNL     1      15.228 -21.174 -21.725  1.00  0.00    -0.047 A 
ATOM      3  C   UNL     1      16.059 -20.048 -21.798  1.00  0.00     0.050 A 
ATOM      4  C   UNL     1      15.801 -18.907 -21.010  1.00  0.00     0.122 A 
ATOM      5  C   UNL     1      14.693 -18.909 -20.125  1.00  0.00    -0.003 A 
ATOM      6  C   UNL     1      13.881 -20.057 -20.050  1.00  0.00     0.008 A 
ATOM      7  C   UNL     1      14.150 -21.177 -20.836  1.00  0.00     0.004 A 
ENDROOT
BRANCH   4   8
ATOM      8  O   UNL     1      16.621 -17.771 -21.084  1.00  0.00    -0.496 OA
ATOM      9  C   UNL     1      16.476 -16.722 -22.037  1.00  0.00     0.278 C 
ENDBRANCH   4   8
BRANCH   5  10
ATOM     10  C   UNL     1      14.350 -17.715 -19.243  1.00  0.00     0.017 C 
ATOM     11  C   UNL     1      12.835 -17.496 -19.141  1.00  0.00     0.012 C 
ATOM     12  C   UNL     1      15.000 -17.822 -17.858  1.00  0.00     0.012 C 
ENDBRANCH   5  10
TORSDOF 2
ENDMDL
MODEL 4
REMARK VINA RESULT:    -4.629      2.926      5.644
REMARK INTER + INTRA:          -5.410
REMARK INTER:                  -5.195
REMARK INTRA:                  -0.215
REMARK UNBOUND:                -0.240
REMARK SMILES COc1cc(C)ccc1C(C)C
REMARK SMILES IDX 6 1 5 2 4 3 3 4 9 5 8 6 7 7 2 8 1 9 10 10 11 11 12 12
REMARK H PARENT
REMARK Flexibility Score: inf
ROOT
ATOM      1  C   UNL     1      17.884 -17.194 -18.636  1.00  0.00     0.044 C 
ATOM      2  C   UNL     1      16.461 -17.441 -19.041  1.00  0.00    -0.047 A 
ATOM      3  C   UNL     1      16.109 -17.474 -20.397  1.00  0.00     0.050 A 
ATOM      4  C   UNL     1      14.769 -17.669 -20.792  1.00  0.00     0.122 A 
ATOM      5  C   UNL     1      13.768 -17.822 -19.801  1.00  0.00    -0.003 A 
ATOM      6  C   UNL     1      14.136 -17.767 -18.444  1.00  0.00     0.008 A 
ATOM      7  C   UNL     1      15.465 -17.573 -18.070  1.00  0.00     0.004 A 
ENDROOT
BRANCH   4   8
ATOM      8  O   UNL     1      14.409 -17.713 -22.148  1.00  0.00    -0.496 OA
ATOM      9  C   UNL     1      14.278 -16.574 -22.994  1.00  0.00     0.278 C 
ENDBRANCH   4   8
BRANCH   5  10
ATOM     10  C   UNL     1      12.299 -18.038 -20.150  1.00  0.00     0.017 C 
ATOM     11  C   UNL     1      12.010 -19.495 -20.530  1.00  0.00     0.012 C 
ATOM     12  C   UNL     1      11.369 -17.550 -19.033  1.00  0.00     0.012 C 
ENDBRANCH   5  10
TORSDOF 2
ENDMDL
MODEL 5
REMARK VINA RESULT:    -4.610      6.500      9.058
REMARK INTER + INTRA:          -5.390
REMARK INTER:                  -5.129
REMARK INTRA:                  -0.261
REMARK UNBOUND:                -0.240
REMARK SMILES COc1cc(C)ccc1C(C)C
REMARK SMILES IDX 6 1 5 2 4 3 3 4 9 5 8 6 7 7 2 8 1 9 10 10 11 11 12 12
REMARK H PARENT
REMARK Flexibility Score: inf
ROOT
ATOM      1  C   UNL     1      19.136 -26.125 -23.530  1.00  0.00     0.044 C 
ATOM      2  C   UNL     1      18.146 -25.000 -23.588  1.00  0.00    -0.047 A 
ATOM      3  C   UNL     1      18.373 -23.903 -24.430  1.00  0.00     0.050 A 
ATOM      4  C   UNL     1      17.469 -22.821 -24.468  1.00  0.00     0.122 A 
ATOM      5  C   UNL     1      16.323 -22.843 -23.634  1.00  0.00    -0.003 A 
ATOM      6  C   UNL     1      16.121 -23.944 -22.780  1.00  0.00     0.008 A 
ATOM      7  C   UNL     1      17.025 -25.005 -22.754  1.00  0.00     0.004 A 
ENDROOT
BRANCH   4   8
ATOM      8  O   UNL     1      17.684 -21.723 -25.316  1.00  0.00    -0.496 OA
ATOM      9  C   UNL     1      17.301 -21.665 -26.687  1.00  0.00     0.278 C 
ENDBRANCH   4   8
BRANCH   5  10
ATOM     10  C   UNL     1      15.301 -21.712 -23.620  1.00  0.00     0.017 C 
ATOM     11  C   UNL     1      14.189 -21.934 -24.653  1.00  0.00     0.012 C 
ATOM     12  C   UNL     1      14.730 -21.475 -22.217  1.00  0.00     0.012 C 
ENDBRANCH   5  10
TORSDOF 2
ENDMDL
MODEL 6
REMARK VINA RESULT:    -4.592      2.214      4.979
REMARK INTER + INTRA:          -5.369
REMARK INTER:                  -5.137
REMARK INTRA:                  -0.232
REMARK UNBOUND:                -0.240
REMARK SMILES COc1cc(C)ccc1C(C)C
REMARK SMILES IDX 6 1 5 2 4 3 3 4 9 5 8 6 7 7 2 8 1 9 10 10 11 11 12 12
REMARK H PARENT
REMARK Flexibility Score: inf
ROOT
ATOM      1  C   UNL     1      14.707 -18.576 -17.125  1.00  0.00     0.044 C 
ATOM      2  C   UNL     1      14.411 -18.200 -18.546  1.00  0.00    -0.047 A 
ATOM      3  C   UNL     1      13.094 -18.223 -19.022  1.00  0.00     0.050 A 
ATOM      4  C   UNL     1      12.804 -17.907 -20.366  1.00  0.00     0.122 A 
ATOM      5  C   UNL     1      13.865 -17.575 -21.246  1.00  0.00    -0.003 A 
ATOM      6  C   UNL     1      15.184 -17.576 -20.756  1.00  0.00     0.008 A 
ATOM      7  C   UNL     1      15.454 -17.891 -19.424  1.00  0.00     0.004 A 
ENDROOT
BRANCH   4   8
ATOM      8  O   UNL     1      11.486 -17.918 -20.849  1.00  0.00    -0.496 OA
ATOM      9  C   UNL     1      10.339 -18.262 -20.078  1.00  0.00     0.278 C 
ENDBRANCH   4   8
BRANCH   5  10
ATOM     10  C   UNL     1      13.631 -17.222 -22.710  1.00  0.00     0.017 C 
ATOM     11  C   UNL     1      14.617 -16.155 -23.205  1.00  0.00     0.012 C 
ATOM     12  C   UNL     1      13.646 -18.465 -23.607  1.00  0.00     0.012 C 
ENDBRANCH   5  10
TORSDOF 2
ENDMDL
MODEL 7
REMARK VINA RESULT:    -4.568      1.653      3.591
REMARK INTER + INTRA:          -5.343
REMARK INTER:                  -5.107
REMARK INTRA:                  -0.236
REMARK UNBOUND:                -0.240
REMARK SMILES COc1cc(C)ccc1C(C)C
REMARK SMILES IDX 6 1 5 2 4 3 3 4 9 5 8 6 7 7 2 8 1 9 10 10 11 11 12 12
REMARK H PARENT
REMARK Flexibility Score: inf
ROOT
ATOM      1  C   UNL     1      11.363 -16.307 -24.476  1.00  0.00     0.044 C 
ATOM      2  C   UNL     1      11.906 -16.919 -23.218  1.00  0.00    -0.047 A 
ATOM      3  C   UNL     1      11.046 -17.568 -22.322  1.00  0.00     0.050 A 
ATOM      4  C   UNL     1      11.536 -18.116 -21.118  1.00  0.00     0.122 A 
ATOM      5  C   UNL     1      12.914 -17.995 -20.809  1.00  0.00    -0.003 A 
ATOM      6  C   UNL     1      13.759 -17.322 -21.712  1.00  0.00     0.008 A 
ATOM      7  C   UNL     1      13.259 -16.785 -22.898  1.00  0.00     0.004 A 
ENDROOT
BRANCH   4   8
ATOM      8  O   UNL     1      10.684 -18.777 -20.219  1.00  0.00    -0.496 OA
ATOM      9  C   UNL     1       9.261 -18.768 -20.289  1.00  0.00     0.278 C 
ENDBRANCH   4   8
BRANCH   5  10
ATOM     10  C   UNL     1      13.517 -18.561 -19.529  1.00  0.00     0.017 C 
ATOM     11  C   UNL     1      14.148 -19.941 -19.756  1.00  0.00     0.012 C 
ATOM     12  C   UNL     1      14.509 -17.585 -18.885  1.00  0.00     0.012 C 
ENDBRANCH   5  10
TORSDOF 2
ENDMDL
MODEL 8
REMARK VINA RESULT:    -4.542      7.746      9.922
REMARK INTER + INTRA:          -5.313
REMARK INTER:                  -5.058
REMARK INTRA:                  -0.255
REMARK UNBOUND:                -0.240
REMARK SMILES COc1cc(C)ccc1C(C)C
REMARK SMILES IDX 6 1 5 2 4 3 3 4 9 5 8 6 7 7 2 8 1 9 10 10 11 11 12 12
REMARK H PARENT
REMARK Flexibility Score: inf
ROOT
ATOM      1  C   UNL     1      14.923 -22.285 -24.064  1.00  0.00     0.044 C 
ATOM      2  C   UNL     1      16.217 -22.984 -23.768  1.00  0.00    -0.047 A 
ATOM      3  C   UNL     1      17.434 -22.407 -24.154  1.00  0.00     0.050 A 
ATOM      4  C   UNL     1      18.656 -23.069 -23.916  1.00  0.00     0.122 A 
ATOM      5  C   UNL     1      18.648 -24.339 -23.288  1.00  0.00    -0.003 A 
ATOM      6  C   UNL     1      17.414 -24.913 -22.925  1.00  0.00     0.008 A 
ATOM      7  C   UNL     1      16.215 -24.246 -23.168  1.00  0.00     0.004 A 
ENDROOT
BRANCH   4   8
ATOM      8  O   UNL     1      19.881 -22.493 -24.290  1.00  0.00    -0.496 OA
ATOM      9  C   UNL     1      20.488 -22.631 -25.571  1.00  0.00     0.278 C 
ENDBRANCH   4   8
BRANCH   5  10
ATOM     10  C   UNL     1      19.927 -25.116 -22.996  1.00  0.00     0.017 C 
ATOM     11  C   UNL     1      19.888 -25.784 -21.617  1.00  0.00     0.012 C 
ATOM     12  C   UNL     1      20.248 -26.125 -24.105  1.00  0.00     0.012 C 
ENDBRANCH   5  10
TORSDOF 2
ENDMDL
MODEL 9
REMARK VINA RESULT:    -4.532      1.566      4.488
REMARK INTER + INTRA:          -5.302
REMARK INTER:                  -5.053
REMARK INTRA:                  -0.249
REMARK UNBOUND:                -0.240
REMARK SMILES COc1cc(C)ccc1C(C)C
REMARK SMILES IDX 6 1 5 2 4 3 3 4 9 5 8 6 7 7 2 8 1 9 10 10 11 11 12 12
REMARK H PARENT
REMARK Flexibility Score: inf
ROOT
ATOM      1  C   UNL     1      14.059 -18.773 -19.266  1.00  0.00     0.044 C 
ATOM      2  C   UNL     1      13.102 -18.312 -20.325  1.00  0.00    -0.047 A 
ATOM      3  C   UNL     1      11.720 -18.408 -20.116  1.00  0.00     0.050 A 
ATOM      4  C   UNL     1      10.808 -18.013 -21.117  1.00  0.00     0.122 A 
ATOM      5  C   UNL     1      11.301 -17.524 -22.353  1.00  0.00    -0.003 A 
ATOM      6  C   UNL     1      12.693 -17.453 -22.553  1.00  0.00     0.008 A 
ATOM      7  C   UNL     1      13.581 -17.848 -21.553  1.00  0.00     0.004 A 
ENDROOT
BRANCH   4   8
ATOM      8  O   UNL     1       9.421 -18.096 -20.913  1.00  0.00    -0.496 OA
ATOM      9  C   UNL     1       8.749 -19.209 -20.331  1.00  0.00     0.278 C 
ENDBRANCH   4   8
BRANCH   5  10
ATOM     10  C   UNL     1      10.378 -17.077 -23.481  1.00  0.00     0.017 C 
ATOM     11  C   UNL     1      10.948 -15.874 -24.242  1.00  0.00     0.012 C 
ATOM     12  C   UNL     1      10.033 -18.233 -24.428  1.00  0.00     0.012 C 
ENDBRANCH   5  10
TORSDOF 2
ENDMDL
