MODEL 1
REMARK VINA RESULT:    -3.996      0.000      0.000
REMARK INTER + INTRA:          -7.192
REMARK INTER:                  -6.332
REMARK INTRA:                  -0.860
REMARK UNBOUND:                -0.860
REMARK SMILES CCCCCCCCCCCC(=O)[O-]
REMARK SMILES IDX 7 1 8 2 9 3 10 4 11 5 12 6 13 7 14 8 6 9 5 10 4 11 3 12 2 13
REMARK SMILES IDX 1 14
REMARK H PARENT
REMARK Flexibility Score: inf
ROOT
ATOM      1  C   UNL     1     -10.881  -4.882  -6.259  1.00  0.00     0.000 C 
ENDROOT
BRANCH   1   2
ATOM      2  C   UNL     1     -10.793  -5.872  -5.087  1.00  0.00     0.000 C 
BRANCH   2   3
ATOM      3  C   UNL     1     -11.125  -5.218  -3.734  1.00  0.00     0.000 C 
BRANCH   3   4
ATOM      4  C   UNL     1     -10.649  -3.758  -3.653  1.00  0.00     0.006 C 
BRANCH   4   5
ATOM      5  C   UNL     1     -10.387  -3.300  -2.213  1.00  0.00     0.053 C 
BRANCH   5   6
ATOM      6  C   UNL     1      -8.940  -3.468  -1.867  1.00  0.00     0.041 C 
ATOM      7  O   UNL     1      -8.500  -4.595  -1.517  1.00  0.00    -0.550 OA
ATOM      8  O   UNL     1      -8.089  -2.371  -1.883  1.00  0.00    -0.550 OA
ENDBRANCH   5   6
ENDBRANCH   4   5
ENDBRANCH   3   4
ENDBRANCH   2   3
ENDBRANCH   1   2
BRANCH   1   9
ATOM      9  C   UNL     1     -10.724  -5.564  -7.627  1.00  0.00     0.000 C 
BRANCH   9  10
ATOM     10  C   UNL     1      -9.352  -5.256  -8.239  1.00  0.00    -0.000 C 
BRANCH  10  11
ATOM     11  C   UNL     1      -8.309  -6.298  -7.806  1.00  0.00    -0.000 C 
BRANCH  11  12
ATOM     12  C   UNL     1      -6.994  -5.658  -7.333  1.00  0.00    -0.000 C 
BRANCH  12  13
ATOM     13  C   UNL     1      -6.592  -6.107  -5.920  1.00  0.00    -0.003 C 
ATOM     14  C   UNL     1      -7.445  -7.283  -5.455  1.00  0.00     0.004 C 
ENDBRANCH  12  13
ENDBRANCH  11  12
ENDBRANCH  10  11
ENDBRANCH   9  10
ENDBRANCH   1   9
TORSDOF 10
ENDMDL
MODEL 2
REMARK VINA RESULT:    -3.981      1.278      2.040
REMARK INTER + INTRA:          -7.167
REMARK INTER:                  -6.274
REMARK INTRA:                  -0.894
REMARK UNBOUND:                -0.860
REMARK SMILES CCCCCCCCCCCC(=O)[O-]
REMARK SMILES IDX 7 1 8 2 9 3 10 4 11 5 12 6 13 7 14 8 6 9 5 10 4 11 3 12 2 13
REMARK SMILES IDX 1 14
REMARK H PARENT
REMARK Flexibility Score: inf
ROOT
ATOM      1  C   UNL     1      -9.913  -5.716  -5.107  1.00  0.00     0.000 C 
ENDROOT
BRANCH   1   2
ATOM      2  C   UNL     1     -10.766  -4.526  -5.576  1.00  0.00     0.000 C 
BRANCH   2   3
ATOM      3  C   UNL     1     -11.022  -3.505  -4.454  1.00  0.00     0.000 C 
BRANCH   3   4
ATOM      4  C   UNL     1     -11.070  -4.157  -3.063  1.00  0.00     0.006 C 
BRANCH   4   5
ATOM      5  C   UNL     1     -10.450  -3.273  -1.973  1.00  0.00     0.053 C 
BRANCH   5   6
ATOM      6  C   UNL     1      -8.977  -3.517  -1.879  1.00  0.00     0.041 C 
ATOM      7  O   UNL     1      -8.541  -4.671  -1.623  1.00  0.00    -0.550 OA
ATOM      8  O   UNL     1      -8.086  -2.462  -2.024  1.00  0.00    -0.550 OA
ENDBRANCH   5   6
ENDBRANCH   4   5
ENDBRANCH   3   4
ENDBRANCH   2   3
ENDBRANCH   1   2
BRANCH   1   9
ATOM      9  C   UNL     1      -9.793  -6.818  -6.172  1.00  0.00     0.000 C 
BRANCH   9  10
ATOM     10  C   UNL     1     -10.989  -6.788  -7.131  1.00  0.00    -0.000 C 
BRANCH  10  11
ATOM     11  C   UNL     1     -10.532  -6.519  -8.573  1.00  0.00    -0.000 C 
BRANCH  11  12
ATOM     12  C   UNL     1      -9.045  -6.843  -8.793  1.00  0.00    -0.000 C 
BRANCH  12  13
ATOM     13  C   UNL     1      -8.220  -5.605  -9.173  1.00  0.00    -0.003 C 
ATOM     14  C   UNL     1      -7.014  -5.446  -8.251  1.00  0.00     0.004 C 
ENDBRANCH  12  13
ENDBRANCH  11  12
ENDBRANCH  10  11
ENDBRANCH   9  10
ENDBRANCH   1   9
TORSDOF 10
ENDMDL
MODEL 3
REMARK VINA RESULT:    -3.936      1.236      2.651
REMARK INTER + INTRA:          -7.097
REMARK INTER:                  -6.051
REMARK INTRA:                  -1.046
REMARK UNBOUND:                -0.860
REMARK SMILES CCCCCCCCCCCC(=O)[O-]
REMARK SMILES IDX 7 1 8 2 9 3 10 4 11 5 12 6 13 7 14 8 6 9 5 10 4 11 3 12 2 13
REMARK SMILES IDX 1 14
REMARK H PARENT
REMARK Flexibility Score: inf
ROOT
ATOM      1  C   UNL     1     -10.513  -6.673  -5.324  1.00  0.00     0.000 C 
ENDROOT
BRANCH   1   2
ATOM      2  C   UNL     1     -11.077  -5.654  -4.321  1.00  0.00     0.000 C 
BRANCH   2   3
ATOM      3  C   UNL     1     -10.959  -4.204  -4.821  1.00  0.00     0.000 C 
BRANCH   3   4
ATOM      4  C   UNL     1     -10.814  -3.194  -3.671  1.00  0.00     0.006 C 
BRANCH   4   5
ATOM      5  C   UNL     1     -10.553  -3.869  -2.319  1.00  0.00     0.053 C 
BRANCH   5   6
ATOM      6  C   UNL     1      -9.115  -3.719  -1.930  1.00  0.00     0.041 C 
ATOM      7  O   UNL     1      -8.567  -2.585  -1.958  1.00  0.00    -0.550 OA
ATOM      8  O   UNL     1      -8.367  -4.836  -1.586  1.00  0.00    -0.550 OA
ENDBRANCH   5   6
ENDBRANCH   4   5
ENDBRANCH   3   4
ENDBRANCH   2   3
ENDBRANCH   1   2
BRANCH   1   9
ATOM      9  C   UNL     1      -8.995  -6.535  -5.520  1.00  0.00     0.000 C 
BRANCH   9  10
ATOM     10  C   UNL     1      -8.625  -6.598  -7.007  1.00  0.00    -0.000 C 
BRANCH  10  11
ATOM     11  C   UNL     1      -9.881  -6.732  -7.882  1.00  0.00    -0.000 C 
BRANCH  11  12
ATOM     12  C   UNL     1      -9.750  -5.990  -9.222  1.00  0.00    -0.000 C 
BRANCH  12  13
ATOM     13  C   UNL     1      -9.543  -4.479  -9.045  1.00  0.00    -0.003 C 
ATOM     14  C   UNL     1     -10.804  -3.812  -8.502  1.00  0.00     0.004 C 
ENDBRANCH  12  13
ENDBRANCH  11  12
ENDBRANCH  10  11
ENDBRANCH   9  10
ENDBRANCH   1   9
TORSDOF 10
ENDMDL
MODEL 4
REMARK VINA RESULT:    -3.849      1.920      2.955
REMARK INTER + INTRA:          -6.959
REMARK INTER:                  -6.516
REMARK INTRA:                  -0.443
REMARK UNBOUND:                -0.860
REMARK SMILES CCCCCCCCCCCC(=O)[O-]
REMARK SMILES IDX 7 1 8 2 9 3 10 4 11 5 12 6 13 7 14 8 6 9 5 10 4 11 3 12 2 13
REMARK SMILES IDX 1 14
REMARK H PARENT
REMARK Flexibility Score: inf
ROOT
ATOM      1  C   UNL     1      -8.837  -6.500  -5.754  1.00  0.00     0.000 C 
ENDROOT
BRANCH   1   2
ATOM      2  C   UNL     1      -9.903  -5.402  -5.608  1.00  0.00     0.000 C 
BRANCH   2   3
ATOM      3  C   UNL     1     -10.550  -5.389  -4.212  1.00  0.00     0.000 C 
BRANCH   3   4
ATOM      4  C   UNL     1     -10.861  -3.965  -3.721  1.00  0.00     0.006 C 
BRANCH   4   5
ATOM      5  C   UNL     1     -10.570  -3.778  -2.226  1.00  0.00     0.053 C 
BRANCH   5   6
ATOM      6  C   UNL     1      -9.095  -3.703  -1.988  1.00  0.00     0.041 C 
ATOM      7  O   UNL     1      -8.456  -2.662  -2.296  1.00  0.00    -0.550 OA
ATOM      8  O   UNL     1      -8.416  -4.799  -1.472  1.00  0.00    -0.550 OA
ENDBRANCH   5   6
ENDBRANCH   4   5
ENDBRANCH   3   4
ENDBRANCH   2   3
ENDBRANCH   1   2
BRANCH   1   9
ATOM      9  C   UNL     1      -7.595  -6.025  -6.524  1.00  0.00     0.000 C 
BRANCH   9  10
ATOM     10  C   UNL     1      -6.322  -6.235  -5.696  1.00  0.00    -0.000 C 
BRANCH  10  11
ATOM     11  C   UNL     1      -5.243  -5.208  -6.075  1.00  0.00    -0.000 C 
BRANCH  11  12
ATOM     12  C   UNL     1      -3.824  -5.684  -5.729  1.00  0.00    -0.000 C 
BRANCH  12  13
ATOM     13  C   UNL     1      -2.864  -4.522  -5.438  1.00  0.00    -0.003 C 
ATOM     14  C   UNL     1      -3.587  -3.181  -5.512  1.00  0.00     0.004 C 
ENDBRANCH  12  13
ENDBRANCH  11  12
ENDBRANCH  10  11
ENDBRANCH   9  10
ENDBRANCH   1   9
TORSDOF 10
ENDMDL
MODEL 5
REMARK VINA RESULT:    -3.844      2.827      5.669
REMARK INTER + INTRA:          -6.952
REMARK INTER:                  -6.256
REMARK INTRA:                  -0.696
REMARK UNBOUND:                -0.860
REMARK SMILES CCCCCCCCCCCC(=O)[O-]
REMARK SMILES IDX 7 1 8 2 9 3 10 4 11 5 12 6 13 7 14 8 6 9 5 10 4 11 3 12 2 13
REMARK SMILES IDX 1 14
REMARK H PARENT
REMARK Flexibility Score: inf
ROOT
ATOM      1  C   UNL     1     -10.092  -6.439  -5.391  1.00  0.00     0.000 C 
ENDROOT
BRANCH   1   2
ATOM      2  C   UNL     1     -10.767  -6.798  -6.725  1.00  0.00     0.000 C 
BRANCH   2   3
ATOM      3  C   UNL     1     -10.785  -5.619  -7.714  1.00  0.00     0.000 C 
BRANCH   3   4
ATOM      4  C   UNL     1      -9.972  -5.906  -8.987  1.00  0.00     0.006 C 
BRANCH   4   5
ATOM      5  C   UNL     1      -8.660  -6.646  -8.698  1.00  0.00     0.053 C 
BRANCH   5   6
ATOM      6  C   UNL     1      -7.579  -5.673  -8.343  1.00  0.00     0.041 C 
ATOM      7  O   UNL     1      -6.847  -5.878  -7.339  1.00  0.00    -0.550 OA
ATOM      8  O   UNL     1      -7.414  -4.515  -9.091  1.00  0.00    -0.550 OA
ENDBRANCH   5   6
ENDBRANCH   4   5
ENDBRANCH   3   4
ENDBRANCH   2   3
ENDBRANCH   1   2
BRANCH   1   9
ATOM      9  C   UNL     1     -11.090  -5.939  -4.335  1.00  0.00     0.000 C 
BRANCH   9  10
ATOM     10  C   UNL     1     -10.777  -4.495  -3.924  1.00  0.00    -0.000 C 
BRANCH  10  11
ATOM     11  C   UNL     1      -9.354  -4.381  -3.353  1.00  0.00    -0.000 C 
BRANCH  11  12
ATOM     12  C   UNL     1      -9.325  -3.733  -1.960  1.00  0.00    -0.000 C 
BRANCH  12  13
ATOM     13  C   UNL     1     -10.725  -3.363  -1.449  1.00  0.00    -0.003 C 
ATOM     14  C   UNL     1     -10.942  -3.872  -0.027  1.00  0.00     0.004 C 
ENDBRANCH  12  13
ENDBRANCH  11  12
ENDBRANCH  10  11
ENDBRANCH   9  10
ENDBRANCH   1   9
TORSDOF 10
ENDMDL
MODEL 6
REMARK VINA RESULT:    -3.794      2.150      4.869
REMARK INTER + INTRA:          -6.873
REMARK INTER:                  -5.965
REMARK INTRA:                  -0.908
REMARK UNBOUND:                -0.860
REMARK SMILES CCCCCCCCCCCC(=O)[O-]
REMARK SMILES IDX 7 1 8 2 9 3 10 4 11 5 12 6 13 7 14 8 6 9 5 10 4 11 3 12 2 13
REMARK SMILES IDX 1 14
REMARK H PARENT
REMARK Flexibility Score: inf
ROOT
ATOM      1  C   UNL     1     -10.873  -4.196  -7.474  1.00  0.00     0.000 C 
ENDROOT
BRANCH   1   2
ATOM      2  C   UNL     1     -10.104  -5.016  -8.522  1.00  0.00     0.000 C 
BRANCH   2   3
ATOM      3  C   UNL     1      -9.839  -6.461  -8.064  1.00  0.00     0.000 C 
BRANCH   3   4
ATOM      4  C   UNL     1      -8.338  -6.775  -7.943  1.00  0.00     0.006 C 
BRANCH   4   5
ATOM      5  C   UNL     1      -7.677  -6.059  -6.759  1.00  0.00     0.053 C 
BRANCH   5   6
ATOM      6  C   UNL     1      -7.518  -6.998  -5.605  1.00  0.00     0.041 C 
ATOM      7  O   UNL     1      -6.377  -7.435  -5.295  1.00  0.00    -0.550 OA
ATOM      8  O   UNL     1      -8.634  -7.432  -4.902  1.00  0.00    -0.550 OA
ENDBRANCH   5   6
ENDBRANCH   4   5
ENDBRANCH   3   4
ENDBRANCH   2   3
ENDBRANCH   1   2
BRANCH   1   9
ATOM      9  C   UNL     1     -11.125  -4.977  -6.176  1.00  0.00     0.000 C 
BRANCH   9  10
ATOM     10  C   UNL     1     -11.107  -4.043  -4.959  1.00  0.00    -0.000 C 
BRANCH  10  11
ATOM     11  C   UNL     1     -10.520  -4.752  -3.729  1.00  0.00    -0.000 C 
BRANCH  11  12
ATOM     12  C   UNL     1      -9.187  -4.138  -3.272  1.00  0.00    -0.000 C 
BRANCH  12  13
ATOM     13  C   UNL     1      -9.193  -3.751  -1.786  1.00  0.00    -0.003 C 
ATOM     14  C   UNL     1     -10.618  -3.570  -1.271  1.00  0.00     0.004 C 
ENDBRANCH  12  13
ENDBRANCH  11  12
ENDBRANCH  10  11
ENDBRANCH   9  10
ENDBRANCH   1   9
TORSDOF 10
ENDMDL
MODEL 7
REMARK VINA RESULT:    -3.705      3.077      5.849
REMARK INTER + INTRA:          -6.731
REMARK INTER:                  -6.080
REMARK INTRA:                  -0.651
REMARK UNBOUND:                -0.860
REMARK SMILES CCCCCCCCCCCC(=O)[O-]
REMARK SMILES IDX 7 1 8 2 9 3 10 4 11 5 12 6 13 7 14 8 6 9 5 10 4 11 3 12 2 13
REMARK SMILES IDX 1 14
REMARK H PARENT
REMARK Flexibility Score: inf
ROOT
ATOM      1  C   UNL     1      -9.832  -6.656  -5.574  1.00  0.00     0.000 C 
ENDROOT
BRANCH   1   2
ATOM      2  C   UNL     1     -10.371  -6.796  -7.007  1.00  0.00     0.000 C 
BRANCH   2   3
ATOM      3  C   UNL     1     -10.552  -5.437  -7.706  1.00  0.00     0.000 C 
BRANCH   3   4
ATOM      4  C   UNL     1      -9.863  -5.385  -9.080  1.00  0.00     0.006 C 
BRANCH   4   5
ATOM      5  C   UNL     1      -8.507  -4.668  -9.036  1.00  0.00     0.053 C 
BRANCH   5   6
ATOM      6  C   UNL     1      -7.402  -5.657  -8.837  1.00  0.00     0.041 C 
ATOM      7  O   UNL     1      -7.406  -6.748  -9.468  1.00  0.00    -0.550 OA
ATOM      8  O   UNL     1      -6.393  -5.398  -7.918  1.00  0.00    -0.550 OA
ENDBRANCH   5   6
ENDBRANCH   4   5
ENDBRANCH   3   4
ENDBRANCH   2   3
ENDBRANCH   1   2
BRANCH   1   9
ATOM      9  C   UNL     1     -10.688  -5.722  -4.705  1.00  0.00     0.000 C 
BRANCH   9  10
ATOM     10  C   UNL     1      -9.812  -4.701  -3.968  1.00  0.00    -0.000 C 
BRANCH  10  11
ATOM     11  C   UNL     1     -10.500  -3.329  -3.904  1.00  0.00    -0.000 C 
BRANCH  11  12
ATOM     12  C   UNL     1     -10.978  -2.971  -2.487  1.00  0.00    -0.000 C 
BRANCH  12  13
ATOM     13  C   UNL     1     -10.177  -3.692  -1.393  1.00  0.00    -0.003 C 
ATOM     14  C   UNL     1     -10.975  -3.778  -0.096  1.00  0.00     0.004 C 
ENDBRANCH  12  13
ENDBRANCH  11  12
ENDBRANCH  10  11
ENDBRANCH   9  10
ENDBRANCH   1   9
TORSDOF 10
ENDMDL
MODEL 8
REMARK VINA RESULT:    -3.646      1.395      2.122
REMARK INTER + INTRA:          -6.637
REMARK INTER:                  -5.783
REMARK INTRA:                  -0.853
REMARK UNBOUND:                -0.860
REMARK SMILES CCCCCCCCCCCC(=O)[O-]
REMARK SMILES IDX 7 1 8 2 9 3 10 4 11 5 12 6 13 7 14 8 6 9 5 10 4 11 3 12 2 13
REMARK SMILES IDX 1 14
REMARK H PARENT
REMARK Flexibility Score: inf
ROOT
ATOM      1  C   UNL     1     -10.142  -5.180  -6.360  1.00  0.00     0.000 C 
ENDROOT
BRANCH   1   2
ATOM      2  C   UNL     1     -10.318  -6.347  -5.375  1.00  0.00     0.000 C 
BRANCH   2   3
ATOM      3  C   UNL     1     -11.124  -5.950  -4.126  1.00  0.00     0.000 C 
BRANCH   3   4
ATOM      4  C   UNL     1     -11.120  -4.433  -3.880  1.00  0.00     0.006 C 
BRANCH   4   5
ATOM      5  C   UNL     1     -10.747  -4.068  -2.437  1.00  0.00     0.053 C 
BRANCH   5   6
ATOM      6  C   UNL     1      -9.267  -3.887  -2.310  1.00  0.00     0.041 C 
ATOM      7  O   UNL     1      -8.684  -2.972  -2.950  1.00  0.00    -0.550 OA
ATOM      8  O   UNL     1      -8.523  -4.759  -1.527  1.00  0.00    -0.550 OA
ENDBRANCH   5   6
ENDBRANCH   4   5
ENDBRANCH   3   4
ENDBRANCH   2   3
ENDBRANCH   1   2
BRANCH   1   9
ATOM      9  C   UNL     1     -10.939  -5.372  -7.659  1.00  0.00     0.000 C 
BRANCH   9  10
ATOM     10  C   UNL     1     -10.769  -4.167  -8.592  1.00  0.00    -0.000 C 
BRANCH  10  11
ATOM     11  C   UNL     1      -9.446  -4.254  -9.368  1.00  0.00    -0.000 C 
BRANCH  11  12
ATOM     12  C   UNL     1      -9.088  -5.694  -9.769  1.00  0.00    -0.000 C 
BRANCH  12  13
ATOM     13  C   UNL     1      -7.581  -5.976  -9.676  1.00  0.00    -0.003 C 
ATOM     14  C   UNL     1      -7.015  -5.502  -8.341  1.00  0.00     0.004 C 
ENDBRANCH  12  13
ENDBRANCH  11  12
ENDBRANCH  10  11
ENDBRANCH   9  10
ENDBRANCH   1   9
TORSDOF 10
ENDMDL
MODEL 9
REMARK VINA RESULT:    -3.173      3.465      6.092
REMARK INTER + INTRA:          -5.888
REMARK INTER:                  -4.955
REMARK INTRA:                  -0.932
REMARK UNBOUND:                -0.860
REMARK SMILES CCCCCCCCCCCC(=O)[O-]
REMARK SMILES IDX 7 1 8 2 9 3 10 4 11 5 12 6 13 7 14 8 6 9 5 10 4 11 3 12 2 13
REMARK SMILES IDX 1 14
REMARK H PARENT
REMARK Flexibility Score: inf
ROOT
ATOM      1  C   UNL     1      -8.300  -6.025  -5.307  1.00  0.00     0.000 C 
ENDROOT
BRANCH   1   2
ATOM      2  C   UNL     1      -7.253  -6.560  -6.297  1.00  0.00     0.000 C 
BRANCH   2   3
ATOM      3  C   UNL     1      -6.863  -5.521  -7.363  1.00  0.00     0.000 C 
BRANCH   3   4
ATOM      4  C   UNL     1      -7.969  -5.308  -8.410  1.00  0.00     0.006 C 
BRANCH   4   5
ATOM      5  C   UNL     1      -7.832  -6.245  -9.616  1.00  0.00     0.053 C 
BRANCH   5   6
ATOM      6  C   UNL     1      -8.762  -7.410  -9.479  1.00  0.00     0.041 C 
ATOM      7  O   UNL     1      -8.339  -8.583  -9.662  1.00  0.00    -0.550 OA
ATOM      8  O   UNL     1     -10.105  -7.200  -9.199  1.00  0.00    -0.550 OA
ENDBRANCH   5   6
ENDBRANCH   4   5
ENDBRANCH   3   4
ENDBRANCH   2   3
ENDBRANCH   1   2
BRANCH   1   9
ATOM      9  C   UNL     1      -9.665  -6.716  -5.455  1.00  0.00     0.000 C 
BRANCH   9  10
ATOM     10  C   UNL     1     -10.768  -5.907  -4.762  1.00  0.00    -0.000 C 
BRANCH  10  11
ATOM     11  C   UNL     1     -10.669  -4.417  -5.126  1.00  0.00    -0.000 C 
BRANCH  11  12
ATOM     12  C   UNL     1     -10.964  -3.495  -3.931  1.00  0.00    -0.000 C 
BRANCH  12  13
ATOM     13  C   UNL     1     -10.499  -4.092  -2.595  1.00  0.00    -0.003 C 
ATOM     14  C   UNL     1      -9.056  -3.700  -2.291  1.00  0.00     0.004 C 
ENDBRANCH  12  13
ENDBRANCH  11  12
ENDBRANCH  10  11
ENDBRANCH   9  10
ENDBRANCH   1   9
TORSDOF 10
ENDMDL
