MODEL 1
REMARK VINA RESULT:    -4.809      0.000      0.000
REMARK INTER + INTRA:          -5.880
REMARK INTER:                  -5.652
REMARK INTRA:                  -0.228
REMARK UNBOUND:                -0.228
REMARK SMILES O=C([O-])C=Cc1ccc(O)c(O)c1
REMARK SMILES IDX 6 1 13 2 7 3 11 4 8 5 9 6 5 7 4 8 2 9 1 10 3 11 12 12 10 14
REMARK H PARENT 12 13 10 15
REMARK Flexibility Score: inf
ROOT
ATOM      1  C   UNL     1       9.958 -18.558   7.338  1.00  0.00    -0.022 A 
ATOM      2  C   UNL     1      10.470 -17.278   7.095  1.00  0.00     0.058 A 
ATOM      3  C   UNL     1      10.571 -19.371   8.304  1.00  0.00     0.012 A 
ATOM      4  C   UNL     1      11.614 -16.822   7.764  1.00  0.00     0.157 A 
ATOM      5  C   UNL     1      11.712 -18.927   8.975  1.00  0.00     0.051 A 
ATOM      6  C   UNL     1      12.246 -17.660   8.713  1.00  0.00     0.157 A 
ENDROOT
BRANCH   1   7
ATOM      7  C   UNL     1       8.720 -18.985   6.653  1.00  0.00     0.010 C 
ATOM      8  C   UNL     1       7.474 -18.824   7.125  1.00  0.00     0.025 C 
BRANCH   8   9
ATOM      9  C   UNL     1       7.118 -18.360   8.480  1.00  0.00     0.064 C 
ATOM     10  O   UNL     1       6.607 -19.136   9.330  1.00  0.00    -0.545 OA
ATOM     11  O   UNL     1       7.287 -17.020   8.803  1.00  0.00    -0.545 OA
ENDBRANCH   8   9
ENDBRANCH   1   7
BRANCH   4  12
ATOM     12  O   UNL     1      12.080 -15.541   7.461  1.00  0.00    -0.504 OA
ATOM     13  H   UNL     1      13.058 -15.297   7.395  1.00  0.00     0.293 HD
ENDBRANCH   4  12
BRANCH   6  14
ATOM     14  O   UNL     1      13.392 -17.279   9.413  1.00  0.00    -0.504 OA
ATOM     15  H   UNL     1      13.693 -17.704  10.278  1.00  0.00     0.293 HD
ENDBRANCH   6  14
TORSDOF 4
ENDMDL
MODEL 2
REMARK VINA RESULT:    -4.446      1.005      1.985
REMARK INTER + INTRA:          -5.453
REMARK INTER:                  -5.201
REMARK INTRA:                  -0.252
REMARK UNBOUND:                -0.228
REMARK SMILES O=C([O-])C=Cc1ccc(O)c(O)c1
REMARK SMILES IDX 6 1 13 2 7 3 11 4 8 5 9 6 5 7 4 8 2 9 1 10 3 11 12 12 10 14
REMARK H PARENT 12 13 10 15
REMARK Flexibility Score: inf
ROOT
ATOM      1  C   UNL     1       9.534 -18.834   7.322  1.00  0.00    -0.022 A 
ATOM      2  C   UNL     1      10.408 -19.685   8.010  1.00  0.00     0.058 A 
ATOM      3  C   UNL     1       9.892 -17.490   7.134  1.00  0.00     0.012 A 
ATOM      4  C   UNL     1      11.604 -19.201   8.555  1.00  0.00     0.157 A 
ATOM      5  C   UNL     1      11.081 -16.997   7.675  1.00  0.00     0.051 A 
ATOM      6  C   UNL     1      11.942 -17.837   8.390  1.00  0.00     0.157 A 
ENDROOT
BRANCH   1   7
ATOM      7  C   UNL     1       8.307 -19.391   6.715  1.00  0.00     0.010 C 
ATOM      8  C   UNL     1       7.081 -19.349   7.261  1.00  0.00     0.025 C 
BRANCH   8   9
ATOM      9  C   UNL     1       6.762 -18.906   8.632  1.00  0.00     0.064 C 
ATOM     10  O   UNL     1       6.403 -19.722   9.522  1.00  0.00    -0.545 OA
ATOM     11  O   UNL     1       6.791 -17.550   8.929  1.00  0.00    -0.545 OA
ENDBRANCH   8   9
ENDBRANCH   1   7
BRANCH   4  12
ATOM     12  O   UNL     1      12.419 -20.102   9.243  1.00  0.00    -0.504 OA
ATOM     13  H   UNL     1      12.994 -19.853  10.035  1.00  0.00     0.293 HD
ENDBRANCH   4  12
BRANCH   6  14
ATOM     14  O   UNL     1      13.112 -17.281   8.910  1.00  0.00    -0.504 OA
ATOM     15  H   UNL     1      13.136 -16.451   9.486  1.00  0.00     0.293 HD
ENDBRANCH   6  14
TORSDOF 4
ENDMDL
MODEL 3
REMARK VINA RESULT:    -3.813      1.153      2.254
REMARK INTER + INTRA:          -4.709
REMARK INTER:                  -4.982
REMARK INTRA:                   0.273
REMARK UNBOUND:                -0.228
REMARK SMILES O=C([O-])C=Cc1ccc(O)c(O)c1
REMARK SMILES IDX 6 1 13 2 7 3 11 4 8 5 9 6 5 7 4 8 2 9 1 10 3 11 12 12 10 14
REMARK H PARENT 12 13 10 15
REMARK Flexibility Score: inf
ROOT
ATOM      1  C   UNL     1      10.777 -18.476   8.286  1.00  0.00    -0.022 A 
ATOM      2  C   UNL     1      11.817 -18.434   9.223  1.00  0.00     0.058 A 
ATOM      3  C   UNL     1      10.760 -17.545   7.237  1.00  0.00     0.012 A 
ATOM      4  C   UNL     1      12.807 -17.445   9.155  1.00  0.00     0.157 A 
ATOM      5  C   UNL     1      11.741 -16.554   7.162  1.00  0.00     0.051 A 
ATOM      6  C   UNL     1      12.765 -16.489   8.113  1.00  0.00     0.157 A 
ENDROOT
BRANCH   1   7
ATOM      7  C   UNL     1       9.780 -19.565   8.359  1.00  0.00     0.010 C 
ATOM      8  C   UNL     1       8.482 -19.455   8.033  1.00  0.00     0.025 C 
BRANCH   8   9
ATOM      9  C   UNL     1       7.776 -18.198   7.718  1.00  0.00     0.064 C 
ATOM     10  O   UNL     1       7.631 -17.803   6.530  1.00  0.00    -0.545 OA
ATOM     11  O   UNL     1       7.321 -17.398   8.757  1.00  0.00    -0.545 OA
ENDBRANCH   8   9
ENDBRANCH   1   7
BRANCH   4  12
ATOM     12  O   UNL     1      13.805 -17.453  10.131  1.00  0.00    -0.504 OA
ATOM     13  H   UNL     1      14.287 -18.285  10.440  1.00  0.00     0.293 HD
ENDBRANCH   4  12
BRANCH   6  14
ATOM     14  O   UNL     1      13.712 -15.471   7.984  1.00  0.00    -0.504 OA
ATOM     15  H   UNL     1      13.912 -14.792   8.704  1.00  0.00     0.293 HD
ENDBRANCH   6  14
TORSDOF 4
ENDMDL
MODEL 4
REMARK VINA RESULT:    -3.763      1.546      4.903
REMARK INTER + INTRA:          -4.651
REMARK INTER:                  -4.882
REMARK INTRA:                   0.231
REMARK UNBOUND:                -0.228
REMARK SMILES O=C([O-])C=Cc1ccc(O)c(O)c1
REMARK SMILES IDX 6 1 13 2 7 3 11 4 8 5 9 6 5 7 4 8 2 9 1 10 3 11 12 12 10 14
REMARK H PARENT 12 13 10 15
REMARK Flexibility Score: inf
ROOT
ATOM      1  C   UNL     1      11.231 -18.221   8.500  1.00  0.00    -0.022 A 
ATOM      2  C   UNL     1      10.023 -17.550   8.727  1.00  0.00     0.058 A 
ATOM      3  C   UNL     1      11.295 -19.196   7.492  1.00  0.00     0.012 A 
ATOM      4  C   UNL     1       8.870 -17.875   7.999  1.00  0.00     0.157 A 
ATOM      5  C   UNL     1      10.152 -19.529   6.763  1.00  0.00     0.051 A 
ATOM      6  C   UNL     1       8.935 -18.883   7.007  1.00  0.00     0.157 A 
ENDROOT
BRANCH   1   7
ATOM      7  C   UNL     1      12.438 -17.815   9.249  1.00  0.00     0.010 C 
ATOM      8  C   UNL     1      13.229 -16.774   8.945  1.00  0.00     0.025 C 
BRANCH   8   9
ATOM      9  C   UNL     1      13.148 -15.959   7.718  1.00  0.00     0.064 C 
ATOM     10  O   UNL     1      12.041 -15.650   7.203  1.00  0.00    -0.545 OA
ATOM     11  O   UNL     1      14.321 -15.583   7.077  1.00  0.00    -0.545 OA
ENDBRANCH   8   9
ENDBRANCH   1   7
BRANCH   4  12
ATOM     12  O   UNL     1       7.697 -17.177   8.289  1.00  0.00    -0.504 OA
ATOM     13  H   UNL     1       7.673 -16.213   8.589  1.00  0.00     0.293 HD
ENDBRANCH   4  12
BRANCH   6  14
ATOM     14  O   UNL     1       7.828 -19.266   6.247  1.00  0.00    -0.504 OA
ATOM     15  H   UNL     1       7.869 -19.927   5.484  1.00  0.00     0.293 HD
ENDBRANCH   6  14
TORSDOF 4
ENDMDL
MODEL 5
REMARK VINA RESULT:    -3.541      2.103      5.102
REMARK INTER + INTRA:          -4.390
REMARK INTER:                  -4.417
REMARK INTRA:                   0.027
REMARK UNBOUND:                -0.228
REMARK SMILES O=C([O-])C=Cc1ccc(O)c(O)c1
REMARK SMILES IDX 6 1 13 2 7 3 11 4 8 5 9 6 5 7 4 8 2 9 1 10 3 11 12 12 10 14
REMARK H PARENT 12 13 10 15
REMARK Flexibility Score: inf
ROOT
ATOM      1  C   UNL     1      11.268 -17.935   8.509  1.00  0.00    -0.022 A 
ATOM      2  C   UNL     1      11.246 -18.892   7.487  1.00  0.00     0.058 A 
ATOM      3  C   UNL     1      10.075 -17.287   8.868  1.00  0.00     0.012 A 
ATOM      4  C   UNL     1      10.065 -19.171   6.787  1.00  0.00     0.157 A 
ATOM      5  C   UNL     1       8.893 -17.556   8.175  1.00  0.00     0.051 A 
ATOM      6  C   UNL     1       8.873 -18.489   7.133  1.00  0.00     0.157 A 
ENDROOT
BRANCH   1   7
ATOM      7  C   UNL     1      12.519 -17.705   9.260  1.00  0.00     0.010 C 
ATOM      8  C   UNL     1      13.412 -16.736   9.006  1.00  0.00     0.025 C 
BRANCH   8   9
ATOM      9  C   UNL     1      13.404 -15.842   7.832  1.00  0.00     0.064 C 
ATOM     10  O   UNL     1      12.351 -15.268   7.447  1.00  0.00    -0.545 OA
ATOM     11  O   UNL     1      14.569 -15.683   7.094  1.00  0.00    -0.545 OA
ENDBRANCH   8   9
ENDBRANCH   1   7
BRANCH   4  12
ATOM     12  O   UNL     1      10.119 -20.125   5.769  1.00  0.00    -0.504 OA
ATOM     13  H   UNL     1      10.474 -21.062   5.892  1.00  0.00     0.293 HD
ENDBRANCH   4  12
BRANCH   6  14
ATOM     14  O   UNL     1       7.661 -18.709   6.476  1.00  0.00    -0.504 OA
ATOM     15  H   UNL     1       7.401 -19.586   6.048  1.00  0.00     0.293 HD
ENDBRANCH   6  14
TORSDOF 4
ENDMDL
MODEL 6
REMARK VINA RESULT:    -3.484      1.793      2.793
REMARK INTER + INTRA:          -4.323
REMARK INTER:                  -4.293
REMARK INTRA:                  -0.030
REMARK UNBOUND:                -0.228
REMARK SMILES O=C([O-])C=Cc1ccc(O)c(O)c1
REMARK SMILES IDX 6 1 13 2 7 3 11 4 8 5 9 6 5 7 4 8 2 9 1 10 3 11 12 12 10 14
REMARK H PARENT 12 13 10 15
REMARK Flexibility Score: inf
ROOT
ATOM      1  C   UNL     1       8.165 -17.987   7.925  1.00  0.00    -0.022 A 
ATOM      2  C   UNL     1       9.369 -17.709   8.585  1.00  0.00     0.058 A 
ATOM      3  C   UNL     1       8.142 -18.971   6.925  1.00  0.00     0.012 A 
ATOM      4  C   UNL     1      10.555 -18.362   8.225  1.00  0.00     0.157 A 
ATOM      5  C   UNL     1       9.319 -19.627   6.557  1.00  0.00     0.051 A 
ATOM      6  C   UNL     1      10.530 -19.331   7.193  1.00  0.00     0.157 A 
ENDROOT
BRANCH   1   7
ATOM      7  C   UNL     1       6.924 -17.317   8.367  1.00  0.00     0.010 C 
ATOM      8  C   UNL     1       5.847 -17.933   8.879  1.00  0.00     0.025 C 
BRANCH   8   9
ATOM      9  C   UNL     1       5.630 -19.391   8.928  1.00  0.00     0.064 C 
ATOM     10  O   UNL     1       4.904 -19.979   8.084  1.00  0.00    -0.545 OA
ATOM     11  O   UNL     1       6.183 -20.123   9.971  1.00  0.00    -0.545 OA
ENDBRANCH   8   9
ENDBRANCH   1   7
BRANCH   4  12
ATOM     12  O   UNL     1      11.721 -18.024   8.914  1.00  0.00    -0.504 OA
ATOM     13  H   UNL     1      11.842 -18.139   9.910  1.00  0.00     0.293 HD
ENDBRANCH   4  12
BRANCH   6  14
ATOM     14  O   UNL     1      11.672 -20.017   6.774  1.00  0.00    -0.504 OA
ATOM     15  H   UNL     1      11.672 -20.728   6.058  1.00  0.00     0.293 HD
ENDBRANCH   6  14
TORSDOF 4
ENDMDL
MODEL 7
REMARK VINA RESULT:    -3.138      1.508      4.907
REMARK INTER + INTRA:          -3.917
REMARK INTER:                  -3.788
REMARK INTRA:                  -0.129
REMARK UNBOUND:                -0.228
REMARK SMILES O=C([O-])C=Cc1ccc(O)c(O)c1
REMARK SMILES IDX 6 1 13 2 7 3 11 4 8 5 9 6 5 7 4 8 2 9 1 10 3 11 12 12 10 14
REMARK H PARENT 12 13 10 15
REMARK Flexibility Score: inf
ROOT
ATOM      1  C   UNL     1       9.444 -17.474   7.444  1.00  0.00    -0.022 A 
ATOM      2  C   UNL     1       8.920 -18.490   6.636  1.00  0.00     0.058 A 
ATOM      3  C   UNL     1       8.782 -17.132   8.633  1.00  0.00     0.012 A 
ATOM      4  C   UNL     1       7.720 -19.131   6.973  1.00  0.00     0.157 A 
ATOM      5  C   UNL     1       7.585 -17.764   8.978  1.00  0.00     0.051 A 
ATOM      6  C   UNL     1       7.042 -18.759   8.158  1.00  0.00     0.157 A 
ENDROOT
BRANCH   1   7
ATOM      7  C   UNL     1      10.738 -16.857   7.084  1.00  0.00     0.010 C 
ATOM      8  C   UNL     1      11.932 -17.200   7.592  1.00  0.00     0.025 C 
BRANCH   8   9
ATOM      9  C   UNL     1      12.155 -18.121   8.723  1.00  0.00     0.064 C 
ATOM     10  O   UNL     1      12.733 -17.744   9.777  1.00  0.00    -0.545 OA
ATOM     11  O   UNL     1      11.781 -19.452   8.596  1.00  0.00    -0.545 OA
ENDBRANCH   8   9
ENDBRANCH   1   7
BRANCH   4  12
ATOM     12  O   UNL     1       7.247 -20.125   6.114  1.00  0.00    -0.504 OA
ATOM     13  H   UNL     1       7.678 -21.031   6.007  1.00  0.00     0.293 HD
ENDBRANCH   4  12
BRANCH   6  14
ATOM     14  O   UNL     1       5.839 -19.347   8.556  1.00  0.00    -0.504 OA
ATOM     15  H   UNL     1       5.219 -19.842   7.931  1.00  0.00     0.293 HD
ENDBRANCH   6  14
TORSDOF 4
ENDMDL
MODEL 8
REMARK VINA RESULT:    -3.102      1.313      4.607
REMARK INTER + INTRA:          -3.874
REMARK INTER:                  -4.168
REMARK INTRA:                   0.293
REMARK UNBOUND:                -0.228
REMARK SMILES O=C([O-])C=Cc1ccc(O)c(O)c1
REMARK SMILES IDX 6 1 13 2 7 3 11 4 8 5 9 6 5 7 4 8 2 9 1 10 3 11 12 12 10 14
REMARK H PARENT 12 13 10 15
REMARK Flexibility Score: inf
ROOT
ATOM      1  C   UNL     1       9.052 -18.930   7.364  1.00  0.00    -0.022 A 
ATOM      2  C   UNL     1       8.448 -17.707   7.682  1.00  0.00     0.058 A 
ATOM      3  C   UNL     1       8.375 -20.125   7.655  1.00  0.00     0.012 A 
ATOM      4  C   UNL     1       7.207 -17.663   8.329  1.00  0.00     0.157 A 
ATOM      5  C   UNL     1       7.138 -20.092   8.302  1.00  0.00     0.051 A 
ATOM      6  C   UNL     1       6.545 -18.873   8.648  1.00  0.00     0.157 A 
ENDROOT
BRANCH   1   7
ATOM      7  C   UNL     1      10.337 -18.937   6.635  1.00  0.00     0.010 C 
ATOM      8  C   UNL     1      11.491 -18.423   7.088  1.00  0.00     0.025 C 
BRANCH   8   9
ATOM      9  C   UNL     1      11.652 -17.606   8.305  1.00  0.00     0.064 C 
ATOM     10  O   UNL     1      11.206 -17.987   9.420  1.00  0.00    -0.545 OA
ATOM     11  O   UNL     1      12.249 -16.356   8.207  1.00  0.00    -0.545 OA
ENDBRANCH   8   9
ENDBRANCH   1   7
BRANCH   4  12
ATOM     12  O   UNL     1       6.671 -16.409   8.630  1.00  0.00    -0.504 OA
ATOM     13  H   UNL     1       7.067 -15.774   9.307  1.00  0.00     0.293 HD
ENDBRANCH   4  12
BRANCH   6  14
ATOM     14  O   UNL     1       5.310 -18.910   9.299  1.00  0.00    -0.504 OA
ATOM     15  H   UNL     1       4.453 -19.221   8.866  1.00  0.00     0.293 HD
ENDBRANCH   6  14
TORSDOF 4
ENDMDL
MODEL 9
REMARK VINA RESULT:    -3.074      1.338      4.734
REMARK INTER + INTRA:          -3.841
REMARK INTER:                  -4.183
REMARK INTRA:                   0.342
REMARK UNBOUND:                -0.228
REMARK SMILES O=C([O-])C=Cc1ccc(O)c(O)c1
REMARK SMILES IDX 6 1 13 2 7 3 11 4 8 5 9 6 5 7 4 8 2 9 1 10 3 11 12 12 10 14
REMARK H PARENT 12 13 10 15
REMARK Flexibility Score: inf
ROOT
ATOM      1  C   UNL     1       9.810 -17.629   7.341  1.00  0.00    -0.022 A 
ATOM      2  C   UNL     1       8.700 -17.148   8.048  1.00  0.00     0.058 A 
ATOM      3  C   UNL     1       9.764 -18.916   6.784  1.00  0.00     0.012 A 
ATOM      4  C   UNL     1       7.571 -17.954   8.248  1.00  0.00     0.157 A 
ATOM      5  C   UNL     1       8.644 -19.727   6.979  1.00  0.00     0.051 A 
ATOM      6  C   UNL     1       7.545 -19.262   7.710  1.00  0.00     0.157 A 
ENDROOT
BRANCH   1   7
ATOM      7  C   UNL     1      10.962 -16.733   7.105  1.00  0.00     0.010 C 
ATOM      8  C   UNL     1      12.106 -16.737   7.807  1.00  0.00     0.025 C 
BRANCH   8   9
ATOM      9  C   UNL     1      12.358 -17.501   9.044  1.00  0.00     0.064 C 
ATOM     10  O   UNL     1      11.452 -18.182   9.593  1.00  0.00    -0.545 OA
ATOM     11  O   UNL     1      13.601 -17.410   9.654  1.00  0.00    -0.545 OA
ENDBRANCH   8   9
ENDBRANCH   1   7
BRANCH   4  12
ATOM     12  O   UNL     1       6.507 -17.416   8.976  1.00  0.00    -0.504 OA
ATOM     13  H   UNL     1       5.587 -17.830   9.020  1.00  0.00     0.293 HD
ENDBRANCH   4  12
BRANCH   6  14
ATOM     14  O   UNL     1       6.459 -20.125   7.874  1.00  0.00    -0.504 OA
ATOM     15  H   UNL     1       5.495 -19.842   7.781  1.00  0.00     0.293 HD
ENDBRANCH   6  14
TORSDOF 4
ENDMDL
