MODEL 1
REMARK VINA RESULT:    -4.757      0.000      0.000
REMARK INTER + INTRA:         -10.718
REMARK INTER:                  -8.651
REMARK INTRA:                  -2.066
REMARK UNBOUND:                -2.066
REMARK SMILES CCCCCCCCCCCCCCCC(=O)[O-]
REMARK SMILES IDX 9 1 10 2 11 3 12 4 13 5 14 6 15 7 16 8 17 9 18 10 8 11 7 12
REMARK SMILES IDX 6 13 5 14 4 15 3 16 2 17 1 18
REMARK H PARENT
REMARK Flexibility Score: inf
ROOT
ATOM      1  C   UNL     1     -48.326  25.533 -14.557  1.00  0.00     0.000 C 
ENDROOT
BRANCH   1   2
ATOM      2  C   UNL     1     -46.989  25.350 -13.819  1.00  0.00     0.000 C 
BRANCH   2   3
ATOM      3  C   UNL     1     -46.382  26.682 -13.345  1.00  0.00     0.000 C 
BRANCH   3   4
ATOM      4  C   UNL     1     -45.738  27.541 -14.453  1.00  0.00     0.000 C 
BRANCH   4   5
ATOM      5  C   UNL     1     -44.955  26.757 -15.523  1.00  0.00     0.000 C 
BRANCH   5   6
ATOM      6  C   UNL     1     -44.732  27.504 -16.853  1.00  0.00     0.006 C 
BRANCH   6   7
ATOM      7  C   UNL     1     -44.440  26.577 -18.048  1.00  0.00     0.053 C 
BRANCH   7   8
ATOM      8  C   UNL     1     -43.718  27.277 -19.160  1.00  0.00     0.041 C 
ATOM      9  O   UNL     1     -43.747  26.810 -20.328  1.00  0.00    -0.550 OA
ATOM     10  O   UNL     1     -43.044  28.466 -18.912  1.00  0.00    -0.550 OA
ENDBRANCH   7   8
ENDBRANCH   6   7
ENDBRANCH   5   6
ENDBRANCH   4   5
ENDBRANCH   3   4
ENDBRANCH   2   3
ENDBRANCH   1   2
BRANCH   1  11
ATOM     11  C   UNL     1     -48.465  24.593 -15.765  1.00  0.00     0.000 C 
BRANCH  11  12
ATOM     12  C   UNL     1     -48.117  25.286 -17.094  1.00  0.00    -0.000 C 
BRANCH  12  13
ATOM     13  C   UNL     1     -48.369  26.804 -17.058  1.00  0.00    -0.000 C 
BRANCH  13  14
ATOM     14  C   UNL     1     -49.662  27.269 -17.758  1.00  0.00    -0.000 C 
BRANCH  14  15
ATOM     15  C   UNL     1     -50.747  27.840 -16.824  1.00  0.00    -0.000 C 
BRANCH  15  16
ATOM     16  C   UNL     1     -51.880  26.859 -16.469  1.00  0.00    -0.000 C 
BRANCH  16  17
ATOM     17  C   UNL     1     -51.923  26.518 -14.972  1.00  0.00    -0.003 C 
ATOM     18  C   UNL     1     -52.101  25.017 -14.757  1.00  0.00     0.004 C 
ENDBRANCH  16  17
ENDBRANCH  15  16
ENDBRANCH  14  15
ENDBRANCH  13  14
ENDBRANCH  12  13
ENDBRANCH  11  12
ENDBRANCH   1  11
TORSDOF 14
ENDMDL
MODEL 2
REMARK VINA RESULT:    -4.703      3.635      6.893
REMARK INTER + INTRA:         -10.619
REMARK INTER:                  -8.683
REMARK INTRA:                  -1.935
REMARK UNBOUND:                -2.066
REMARK SMILES CCCCCCCCCCCCCCCC(=O)[O-]
REMARK SMILES IDX 9 1 10 2 11 3 12 4 13 5 14 6 15 7 16 8 17 9 18 10 8 11 7 12
REMARK SMILES IDX 6 13 5 14 4 15 3 16 2 17 1 18
REMARK H PARENT
REMARK Flexibility Score: inf
ROOT
ATOM      1  C   UNL     1     -48.387  24.755 -15.978  1.00  0.00     0.000 C 
ENDROOT
BRANCH   1   2
ATOM      2  C   UNL     1     -48.490  26.028 -16.835  1.00  0.00     0.000 C 
BRANCH   2   3
ATOM      3  C   UNL     1     -49.370  27.113 -16.189  1.00  0.00     0.000 C 
BRANCH   3   4
ATOM      4  C   UNL     1     -50.747  27.321 -16.853  1.00  0.00     0.000 C 
BRANCH   4   5
ATOM      5  C   UNL     1     -51.963  27.013 -15.959  1.00  0.00     0.000 C 
BRANCH   5   6
ATOM      6  C   UNL     1     -51.694  26.043 -14.793  1.00  0.00     0.006 C 
BRANCH   6   7
ATOM      7  C   UNL     1     -52.571  24.777 -14.817  1.00  0.00     0.053 C 
BRANCH   7   8
ATOM      8  C   UNL     1     -51.845  23.562 -14.325  1.00  0.00     0.041 C 
ATOM      9  O   UNL     1     -51.884  23.249 -13.106  1.00  0.00    -0.550 OA
ATOM     10  O   UNL     1     -51.156  22.752 -15.219  1.00  0.00    -0.550 OA
ENDBRANCH   7   8
ENDBRANCH   6   7
ENDBRANCH   5   6
ENDBRANCH   4   5
ENDBRANCH   3   4
ENDBRANCH   2   3
ENDBRANCH   1   2
BRANCH   1  11
ATOM     11  C   UNL     1     -48.352  25.061 -14.471  1.00  0.00     0.000 C 
BRANCH  11  12
ATOM     12  C   UNL     1     -46.928  25.335 -13.958  1.00  0.00    -0.000 C 
BRANCH  12  13
ATOM     13  C   UNL     1     -46.739  26.785 -13.475  1.00  0.00    -0.000 C 
BRANCH  13  14
ATOM     14  C   UNL     1     -45.792  27.643 -14.339  1.00  0.00    -0.000 C 
BRANCH  14  15
ATOM     15  C   UNL     1     -44.961  26.862 -15.377  1.00  0.00    -0.000 C 
BRANCH  15  16
ATOM     16  C   UNL     1     -45.218  27.256 -16.843  1.00  0.00    -0.000 C 
BRANCH  16  17
ATOM     17  C   UNL     1     -44.483  26.348 -17.840  1.00  0.00    -0.003 C 
ATOM     18  C   UNL     1     -45.444  25.799 -18.892  1.00  0.00     0.004 C 
ENDBRANCH  16  17
ENDBRANCH  15  16
ENDBRANCH  14  15
ENDBRANCH  13  14
ENDBRANCH  12  13
ENDBRANCH  11  12
ENDBRANCH   1  11
TORSDOF 14
ENDMDL
MODEL 3
REMARK VINA RESULT:    -4.680      1.109      1.543
REMARK INTER + INTRA:         -10.576
REMARK INTER:                  -8.334
REMARK INTRA:                  -2.243
REMARK UNBOUND:                -2.066
REMARK SMILES CCCCCCCCCCCCCCCC(=O)[O-]
REMARK SMILES IDX 9 1 10 2 11 3 12 4 13 5 14 6 15 7 16 8 17 9 18 10 8 11 7 12
REMARK SMILES IDX 6 13 5 14 4 15 3 16 2 17 1 18
REMARK H PARENT
REMARK Flexibility Score: inf
ROOT
ATOM      1  C   UNL     1     -48.082  26.101 -14.754  1.00  0.00     0.000 C 
ENDROOT
BRANCH   1   2
ATOM      2  C   UNL     1     -46.887  25.567 -13.948  1.00  0.00     0.000 C 
BRANCH   2   3
ATOM      3  C   UNL     1     -45.838  26.651 -13.645  1.00  0.00     0.000 C 
BRANCH   3   4
ATOM      4  C   UNL     1     -46.022  27.975 -14.416  1.00  0.00     0.000 C 
BRANCH   4   5
ATOM      5  C   UNL     1     -44.917  28.302 -15.437  1.00  0.00     0.000 C 
BRANCH   5   6
ATOM      6  C   UNL     1     -45.212  27.868 -16.887  1.00  0.00     0.006 C 
BRANCH   6   7
ATOM      7  C   UNL     1     -44.785  26.423 -17.206  1.00  0.00     0.053 C 
BRANCH   7   8
ATOM      8  C   UNL     1     -45.064  26.038 -18.627  1.00  0.00     0.041 C 
ATOM      9  O   UNL     1     -45.608  24.933 -18.890  1.00  0.00    -0.550 OA
ATOM     10  O   UNL     1     -44.759  26.916 -19.659  1.00  0.00    -0.550 OA
ENDBRANCH   7   8
ENDBRANCH   6   7
ENDBRANCH   5   6
ENDBRANCH   4   5
ENDBRANCH   3   4
ENDBRANCH   2   3
ENDBRANCH   1   2
BRANCH   1  11
ATOM     11  C   UNL     1     -48.109  25.563 -16.195  1.00  0.00     0.000 C 
BRANCH  11  12
ATOM     12  C   UNL     1     -48.885  26.483 -17.153  1.00  0.00    -0.000 C 
BRANCH  12  13
ATOM     13  C   UNL     1     -49.348  27.788 -16.481  1.00  0.00    -0.000 C 
BRANCH  13  14
ATOM     14  C   UNL     1     -50.862  28.067 -16.568  1.00  0.00    -0.000 C 
BRANCH  14  15
ATOM     15  C   UNL     1     -51.770  26.843 -16.337  1.00  0.00    -0.000 C 
BRANCH  15  16
ATOM     16  C   UNL     1     -51.747  26.280 -14.904  1.00  0.00    -0.000 C 
BRANCH  16  17
ATOM     17  C   UNL     1     -52.249  24.831 -14.826  1.00  0.00    -0.003 C 
ATOM     18  C   UNL     1     -51.082  23.848 -14.775  1.00  0.00     0.004 C 
ENDBRANCH  16  17
ENDBRANCH  15  16
ENDBRANCH  14  15
ENDBRANCH  13  14
ENDBRANCH  12  13
ENDBRANCH  11  12
ENDBRANCH   1  11
TORSDOF 14
ENDMDL
MODEL 4
REMARK VINA RESULT:    -4.592      3.728      7.026
REMARK INTER + INTRA:         -10.416
REMARK INTER:                  -8.490
REMARK INTRA:                  -1.926
REMARK UNBOUND:                -2.066
REMARK SMILES CCCCCCCCCCCCCCCC(=O)[O-]
REMARK SMILES IDX 9 1 10 2 11 3 12 4 13 5 14 6 15 7 16 8 17 9 18 10 8 11 7 12
REMARK SMILES IDX 6 13 5 14 4 15 3 16 2 17 1 18
REMARK H PARENT
REMARK Flexibility Score: inf
ROOT
ATOM      1  C   UNL     1     -48.705  26.445 -17.226  1.00  0.00     0.000 C 
ENDROOT
BRANCH   1   2
ATOM      2  C   UNL     1     -49.097  27.929 -17.128  1.00  0.00     0.000 C 
BRANCH   2   3
ATOM      3  C   UNL     1     -50.601  28.133 -16.872  1.00  0.00     0.000 C 
BRANCH   3   4
ATOM      4  C   UNL     1     -51.009  28.205 -15.386  1.00  0.00     0.000 C 
BRANCH   4   5
ATOM      5  C   UNL     1     -52.075  27.185 -14.945  1.00  0.00     0.000 C 
BRANCH   5   6
ATOM      6  C   UNL     1     -51.767  25.717 -15.300  1.00  0.00     0.006 C 
BRANCH   6   7
ATOM      7  C   UNL     1     -52.588  24.693 -14.493  1.00  0.00     0.053 C 
BRANCH   7   8
ATOM      8  C   UNL     1     -51.798  23.470 -14.139  1.00  0.00     0.041 C 
ATOM      9  O   UNL     1     -51.655  23.133 -12.934  1.00  0.00    -0.550 OA
ATOM     10  O   UNL     1     -51.251  22.679 -15.142  1.00  0.00    -0.550 OA
ENDBRANCH   7   8
ENDBRANCH   6   7
ENDBRANCH   5   6
ENDBRANCH   4   5
ENDBRANCH   3   4
ENDBRANCH   2   3
ENDBRANCH   1   2
BRANCH   1  11
ATOM     11  C   UNL     1     -48.079  25.915 -15.925  1.00  0.00     0.000 C 
BRANCH  11  12
ATOM     12  C   UNL     1     -47.499  27.039 -15.049  1.00  0.00    -0.000 C 
BRANCH  12  13
ATOM     13  C   UNL     1     -46.133  26.675 -14.440  1.00  0.00    -0.000 C 
BRANCH  13  14
ATOM     14  C   UNL     1     -44.927  26.858 -15.384  1.00  0.00    -0.000 C 
BRANCH  14  15
ATOM     15  C   UNL     1     -45.020  28.063 -16.342  1.00  0.00    -0.000 C 
BRANCH  15  16
ATOM     16  C   UNL     1     -45.184  27.699 -17.829  1.00  0.00    -0.000 C 
BRANCH  16  17
ATOM     17  C   UNL     1     -44.466  26.395 -18.204  1.00  0.00    -0.003 C 
ATOM     18  C   UNL     1     -45.434  25.398 -18.837  1.00  0.00     0.004 C 
ENDBRANCH  16  17
ENDBRANCH  15  16
ENDBRANCH  14  15
ENDBRANCH  13  14
ENDBRANCH  12  13
ENDBRANCH  11  12
ENDBRANCH   1  11
TORSDOF 14
ENDMDL
MODEL 5
REMARK VINA RESULT:    -4.511      1.611      2.649
REMARK INTER + INTRA:         -10.270
REMARK INTER:                  -8.943
REMARK INTRA:                  -1.326
REMARK UNBOUND:                -2.066
REMARK SMILES CCCCCCCCCCCCCCCC(=O)[O-]
REMARK SMILES IDX 9 1 10 2 11 3 12 4 13 5 14 6 15 7 16 8 17 9 18 10 8 11 7 12
REMARK SMILES IDX 6 13 5 14 4 15 3 16 2 17 1 18
REMARK H PARENT
REMARK Flexibility Score: inf
ROOT
ATOM      1  C   UNL     1     -47.804  25.380 -14.733  1.00  0.00     0.000 C 
ENDROOT
BRANCH   1   2
ATOM      2  C   UNL     1     -46.793  25.435 -13.576  1.00  0.00     0.000 C 
BRANCH   2   3
ATOM      3  C   UNL     1     -45.805  26.608 -13.701  1.00  0.00     0.000 C 
BRANCH   3   4
ATOM      4  C   UNL     1     -45.019  26.665 -15.027  1.00  0.00     0.000 C 
BRANCH   4   5
ATOM      5  C   UNL     1     -45.083  28.010 -15.775  1.00  0.00     0.000 C 
BRANCH   5   6
ATOM      6  C   UNL     1     -45.353  27.908 -17.289  1.00  0.00     0.006 C 
BRANCH   6   7
ATOM      7  C   UNL     1     -45.908  26.542 -17.734  1.00  0.00     0.053 C 
BRANCH   7   8
ATOM      8  C   UNL     1     -45.029  25.862 -18.740  1.00  0.00     0.041 C 
ATOM      9  O   UNL     1     -45.283  24.686 -19.113  1.00  0.00    -0.550 OA
ATOM     10  O   UNL     1     -43.951  26.539 -19.294  1.00  0.00    -0.550 OA
ENDBRANCH   7   8
ENDBRANCH   6   7
ENDBRANCH   5   6
ENDBRANCH   4   5
ENDBRANCH   3   4
ENDBRANCH   2   3
ENDBRANCH   1   2
BRANCH   1  11
ATOM     11  C   UNL     1     -48.658  26.655 -14.829  1.00  0.00     0.000 C 
BRANCH  11  12
ATOM     12  C   UNL     1     -49.824  26.510 -15.823  1.00  0.00    -0.000 C 
BRANCH  12  13
ATOM     13  C   UNL     1     -51.190  26.828 -15.189  1.00  0.00    -0.000 C 
BRANCH  13  14
ATOM     14  C   UNL     1     -52.124  25.614 -15.006  1.00  0.00    -0.000 C 
BRANCH  14  15
ATOM     15  C   UNL     1     -51.412  24.268 -14.769  1.00  0.00    -0.000 C 
BRANCH  15  16
ATOM     16  C   UNL     1     -52.095  23.343 -13.745  1.00  0.00    -0.000 C 
BRANCH  16  17
ATOM     17  C   UNL     1     -53.450  23.884 -13.267  1.00  0.00    -0.003 C 
ATOM     18  C   UNL     1     -53.767  23.400 -11.854  1.00  0.00     0.004 C 
ENDBRANCH  16  17
ENDBRANCH  15  16
ENDBRANCH  14  15
ENDBRANCH  13  14
ENDBRANCH  12  13
ENDBRANCH  11  12
ENDBRANCH   1  11
TORSDOF 14
ENDMDL
MODEL 6
REMARK VINA RESULT:    -4.482      3.468      6.394
REMARK INTER + INTRA:         -10.217
REMARK INTER:                  -7.833
REMARK INTRA:                  -2.385
REMARK UNBOUND:                -2.066
REMARK SMILES CCCCCCCCCCCCCCCC(=O)[O-]
REMARK SMILES IDX 9 1 10 2 11 3 12 4 13 5 14 6 15 7 16 8 17 9 18 10 8 11 7 12
REMARK SMILES IDX 6 13 5 14 4 15 3 16 2 17 1 18
REMARK H PARENT
REMARK Flexibility Score: inf
ROOT
ATOM      1  C   UNL     1     -48.658  24.773 -15.914  1.00  0.00     0.000 C 
ENDROOT
BRANCH   1   2
ATOM      2  C   UNL     1     -47.966  25.333 -17.168  1.00  0.00     0.000 C 
BRANCH   2   3
ATOM      3  C   UNL     1     -48.780  26.445 -17.852  1.00  0.00     0.000 C 
BRANCH   3   4
ATOM      4  C   UNL     1     -48.152  27.853 -17.785  1.00  0.00     0.000 C 
BRANCH   4   5
ATOM      5  C   UNL     1     -48.546  28.693 -16.555  1.00  0.00     0.000 C 
BRANCH   5   6
ATOM      6  C   UNL     1     -50.050  29.003 -16.426  1.00  0.00     0.006 C 
BRANCH   6   7
ATOM      7  C   UNL     1     -50.672  28.538 -15.096  1.00  0.00     0.053 C 
BRANCH   7   8
ATOM      8  C   UNL     1     -51.880  27.672 -15.295  1.00  0.00     0.041 C 
ATOM      9  O   UNL     1     -53.005  28.047 -14.873  1.00  0.00    -0.550 OA
ATOM     10  O   UNL     1     -51.769  26.468 -15.978  1.00  0.00    -0.550 OA
ENDBRANCH   7   8
ENDBRANCH   6   7
ENDBRANCH   5   6
ENDBRANCH   4   5
ENDBRANCH   3   4
ENDBRANCH   2   3
ENDBRANCH   1   2
BRANCH   1  11
ATOM     11  C   UNL     1     -48.419  25.645 -14.670  1.00  0.00     0.000 C 
BRANCH  11  12
ATOM     12  C   UNL     1     -47.070  25.346 -13.992  1.00  0.00    -0.000 C 
BRANCH  12  13
ATOM     13  C   UNL     1     -46.128  26.564 -13.979  1.00  0.00    -0.000 C 
BRANCH  13  14
ATOM     14  C   UNL     1     -45.057  26.572 -15.089  1.00  0.00    -0.000 C 
BRANCH  14  15
ATOM     15  C   UNL     1     -44.840  27.932 -15.782  1.00  0.00    -0.000 C 
BRANCH  15  16
ATOM     16  C   UNL     1     -44.582  27.854 -17.298  1.00  0.00    -0.000 C 
BRANCH  16  17
ATOM     17  C   UNL     1     -44.660  26.420 -17.841  1.00  0.00    -0.003 C 
ATOM     18  C   UNL     1     -44.388  26.387 -19.343  1.00  0.00     0.004 C 
ENDBRANCH  16  17
ENDBRANCH  15  16
ENDBRANCH  14  15
ENDBRANCH  13  14
ENDBRANCH  12  13
ENDBRANCH  11  12
ENDBRANCH   1  11
TORSDOF 14
ENDMDL
MODEL 7
REMARK VINA RESULT:    -4.450      1.441      4.510
REMARK INTER + INTRA:         -10.159
REMARK INTER:                  -7.998
REMARK INTRA:                  -2.161
REMARK UNBOUND:                -2.066
REMARK SMILES CCCCCCCCCCCCCCCC(=O)[O-]
REMARK SMILES IDX 9 1 10 2 11 3 12 4 13 5 14 6 15 7 16 8 17 9 18 10 8 11 7 12
REMARK SMILES IDX 6 13 5 14 4 15 3 16 2 17 1 18
REMARK H PARENT
REMARK Flexibility Score: inf
ROOT
ATOM      1  C   UNL     1     -51.986  26.216 -14.796  1.00  0.00     0.000 C 
ENDROOT
BRANCH   1   2
ATOM      2  C   UNL     1     -51.915  27.035 -16.095  1.00  0.00     0.000 C 
BRANCH   2   3
ATOM      3  C   UNL     1     -51.263  28.415 -15.896  1.00  0.00     0.000 C 
BRANCH   3   4
ATOM      4  C   UNL     1     -49.971  28.653 -16.705  1.00  0.00     0.000 C 
BRANCH   4   5
ATOM      5  C   UNL     1     -49.560  27.503 -17.644  1.00  0.00     0.000 C 
BRANCH   5   6
ATOM      6  C   UNL     1     -48.113  27.570 -18.172  1.00  0.00     0.006 C 
BRANCH   6   7
ATOM      7  C   UNL     1     -47.332  26.251 -18.023  1.00  0.00     0.053 C 
BRANCH   7   8
ATOM      8  C   UNL     1     -45.915  26.361 -18.498  1.00  0.00     0.041 C 
ATOM      9  O   UNL     1     -45.347  27.484 -18.544  1.00  0.00    -0.550 OA
ATOM     10  O   UNL     1     -45.209  25.220 -18.856  1.00  0.00    -0.550 OA
ENDBRANCH   7   8
ENDBRANCH   6   7
ENDBRANCH   5   6
ENDBRANCH   4   5
ENDBRANCH   3   4
ENDBRANCH   2   3
ENDBRANCH   1   2
BRANCH   1  11
ATOM     11  C   UNL     1     -51.960  24.700 -15.053  1.00  0.00     0.000 C 
BRANCH  11  12
ATOM     12  C   UNL     1     -50.663  24.040 -14.552  1.00  0.00    -0.000 C 
BRANCH  12  13
ATOM     13  C   UNL     1     -49.466  24.297 -15.485  1.00  0.00    -0.000 C 
BRANCH  13  14
ATOM     14  C   UNL     1     -48.243  24.953 -14.813  1.00  0.00    -0.000 C 
BRANCH  14  15
ATOM     15  C   UNL     1     -48.453  26.406 -14.341  1.00  0.00    -0.000 C 
BRANCH  15  16
ATOM     16  C   UNL     1     -47.160  27.179 -14.025  1.00  0.00    -0.000 C 
BRANCH  16  17
ATOM     17  C   UNL     1     -45.916  26.280 -14.020  1.00  0.00    -0.003 C 
ATOM     18  C   UNL     1     -44.910  26.730 -15.078  1.00  0.00     0.004 C 
ENDBRANCH  16  17
ENDBRANCH  15  16
ENDBRANCH  14  15
ENDBRANCH  13  14
ENDBRANCH  12  13
ENDBRANCH  11  12
ENDBRANCH   1  11
TORSDOF 14
ENDMDL
MODEL 8
REMARK VINA RESULT:    -4.432      3.710      6.649
REMARK INTER + INTRA:         -10.125
REMARK INTER:                  -7.626
REMARK INTRA:                  -2.500
REMARK UNBOUND:                -2.066
REMARK SMILES CCCCCCCCCCCCCCCC(=O)[O-]
REMARK SMILES IDX 9 1 10 2 11 3 12 4 13 5 14 6 15 7 16 8 17 9 18 10 8 11 7 12
REMARK SMILES IDX 6 13 5 14 4 15 3 16 2 17 1 18
REMARK H PARENT
REMARK Flexibility Score: inf
ROOT
ATOM      1  C   UNL     1     -47.976  28.715 -15.865  1.00  0.00     0.000 C 
ENDROOT
BRANCH   1   2
ATOM      2  C   UNL     1     -49.040  28.570 -16.967  1.00  0.00     0.000 C 
BRANCH   2   3
ATOM      3  C   UNL     1     -48.874  27.281 -17.791  1.00  0.00     0.000 C 
BRANCH   3   4
ATOM      4  C   UNL     1     -47.876  26.257 -17.213  1.00  0.00     0.000 C 
BRANCH   4   5
ATOM      5  C   UNL     1     -48.502  24.959 -16.671  1.00  0.00     0.000 C 
BRANCH   5   6
ATOM      6  C   UNL     1     -49.029  25.037 -15.224  1.00  0.00     0.006 C 
BRANCH   6   7
ATOM      7  C   UNL     1     -50.523  25.398 -15.122  1.00  0.00     0.053 C 
BRANCH   7   8
ATOM      8  C   UNL     1     -51.391  24.202 -14.872  1.00  0.00     0.041 C 
ATOM      9  O   UNL     1     -50.945  23.041 -15.072  1.00  0.00    -0.550 OA
ATOM     10  O   UNL     1     -52.679  24.367 -14.381  1.00  0.00    -0.550 OA
ENDBRANCH   7   8
ENDBRANCH   6   7
ENDBRANCH   5   6
ENDBRANCH   4   5
ENDBRANCH   3   4
ENDBRANCH   2   3
ENDBRANCH   1   2
BRANCH   1  11
ATOM     11  C   UNL     1     -48.596  28.894 -14.470  1.00  0.00     0.000 C 
BRANCH  11  12
ATOM     12  C   UNL     1     -47.944  27.984 -13.414  1.00  0.00    -0.000 C 
BRANCH  12  13
ATOM     13  C   UNL     1     -46.411  27.924 -13.545  1.00  0.00    -0.000 C 
BRANCH  13  14
ATOM     14  C   UNL     1     -45.843  26.549 -13.951  1.00  0.00    -0.000 C 
BRANCH  14  15
ATOM     15  C   UNL     1     -44.876  26.566 -15.151  1.00  0.00    -0.000 C 
BRANCH  15  16
ATOM     16  C   UNL     1     -44.492  27.969 -15.656  1.00  0.00    -0.000 C 
BRANCH  16  17
ATOM     17  C   UNL     1     -44.486  28.069 -17.188  1.00  0.00    -0.003 C 
ATOM     18  C   UNL     1     -44.413  26.685 -17.827  1.00  0.00     0.004 C 
ENDBRANCH  16  17
ENDBRANCH  15  16
ENDBRANCH  14  15
ENDBRANCH  13  14
ENDBRANCH  12  13
ENDBRANCH  11  12
ENDBRANCH   1  11
TORSDOF 14
ENDMDL
MODEL 9
REMARK VINA RESULT:    -4.384      3.806      6.601
REMARK INTER + INTRA:         -10.039
REMARK INTER:                  -8.271
REMARK INTRA:                  -1.768
REMARK UNBOUND:                -2.066
REMARK SMILES CCCCCCCCCCCCCCCC(=O)[O-]
REMARK SMILES IDX 9 1 10 2 11 3 12 4 13 5 14 6 15 7 16 8 17 9 18 10 8 11 7 12
REMARK SMILES IDX 6 13 5 14 4 15 3 16 2 17 1 18
REMARK H PARENT
REMARK Flexibility Score: inf
ROOT
ATOM      1  C   UNL     1     -48.104  26.282 -17.188  1.00  0.00     0.000 C 
ENDROOT
BRANCH   1   2
ATOM      2  C   UNL     1     -49.105  27.028 -18.086  1.00  0.00     0.000 C 
BRANCH   2   3
ATOM      3  C   UNL     1     -50.207  27.743 -17.285  1.00  0.00     0.000 C 
BRANCH   3   4
ATOM      4  C   UNL     1     -49.899  27.954 -15.789  1.00  0.00     0.000 C 
BRANCH   4   5
ATOM      5  C   UNL     1     -50.790  27.162 -14.814  1.00  0.00     0.000 C 
BRANCH   5   6
ATOM      6  C   UNL     1     -50.772  25.633 -15.001  1.00  0.00     0.006 C 
BRANCH   6   7
ATOM      7  C   UNL     1     -52.130  24.955 -14.740  1.00  0.00     0.053 C 
BRANCH   7   8
ATOM      8  C   UNL     1     -51.995  23.503 -14.394  1.00  0.00     0.041 C 
ATOM      9  O   UNL     1     -51.359  22.726 -15.154  1.00  0.00    -0.550 OA
ATOM     10  O   UNL     1     -52.539  23.015 -13.213  1.00  0.00    -0.550 OA
ENDBRANCH   7   8
ENDBRANCH   6   7
ENDBRANCH   5   6
ENDBRANCH   4   5
ENDBRANCH   3   4
ENDBRANCH   2   3
ENDBRANCH   1   2
BRANCH   1  11
ATOM     11  C   UNL     1     -46.853  25.823 -17.955  1.00  0.00     0.000 C 
BRANCH  11  12
ATOM     12  C   UNL     1     -45.968  27.001 -18.398  1.00  0.00    -0.000 C 
BRANCH  12  13
ATOM     13  C   UNL     1     -44.625  27.051 -17.647  1.00  0.00    -0.000 C 
BRANCH  13  14
ATOM     14  C   UNL     1     -44.629  27.896 -16.357  1.00  0.00    -0.000 C 
BRANCH  14  15
ATOM     15  C   UNL     1     -45.083  27.153 -15.085  1.00  0.00    -0.000 C 
BRANCH  15  16
ATOM     16  C   UNL     1     -46.185  27.862 -14.277  1.00  0.00    -0.000 C 
BRANCH  16  17
ATOM     17  C   UNL     1     -47.135  26.879 -13.579  1.00  0.00    -0.003 C 
ATOM     18  C   UNL     1     -46.600  25.451 -13.653  1.00  0.00     0.004 C 
ENDBRANCH  16  17
ENDBRANCH  15  16
ENDBRANCH  14  15
ENDBRANCH  13  14
ENDBRANCH  12  13
ENDBRANCH  11  12
ENDBRANCH   1  11
TORSDOF 14
ENDMDL
