MODEL 1
REMARK VINA RESULT:    -7.075      0.000      0.000
REMARK INTER + INTRA:          -8.407
REMARK INTER:                  -8.523
REMARK INTRA:                   0.115
REMARK UNBOUND:                 0.115
REMARK SMILES O=c1c(O)c(-c2ccc(O)c(O)c2)oc2cc(O)cc(O)c12
REMARK SMILES IDX 5 1 3 2 2 3 1 4 22 5 20 6 19 7 17 8 16 9 15 10 14 11 6 12
REMARK SMILES IDX 7 13 8 14 9 15 13 16 11 17 10 18 12 20 4 22 21 24 18 26
REMARK H PARENT 10 19 12 21 4 23 21 25 18 27
REMARK Flexibility Score: inf
ROOT
ATOM      1  C   UNL     1      87.436  97.956  89.494  1.00  0.00     0.180 A 
ATOM      2  C   UNL     1      88.084  98.372  88.315  1.00  0.00     0.208 A 
ATOM      3  C   UNL     1      87.315  98.914  87.273  1.00  0.00     0.238 A 
ATOM      4  O   UNL     1      87.886  99.301  86.217  1.00  0.00    -0.285 OA
ATOM      5  C   UNL     1      85.916  99.011  87.418  1.00  0.00     0.111 A 
ATOM      6  C   UNL     1      85.069  99.541  86.414  1.00  0.00     0.134 A 
ATOM      7  C   UNL     1      83.684  99.595  86.630  1.00  0.00     0.093 A 
ATOM      8  C   UNL     1      83.131  99.130  87.826  1.00  0.00     0.123 A 
ATOM      9  C   UNL     1      83.962  98.607  88.821  1.00  0.00     0.094 A 
ATOM     10  C   UNL     1      85.346  98.545  88.625  1.00  0.00     0.146 A 
ATOM     11  O   UNL     1      86.113  98.048  89.588  1.00  0.00    -0.452 OA
ENDROOT
BRANCH   1  12
ATOM     12  C   UNL     1      88.180  97.392  90.643  1.00  0.00     0.025 A 
ATOM     13  C   UNL     1      89.422  97.917  91.041  1.00  0.00     0.016 A 
ATOM     14  C   UNL     1      90.094  97.385  92.143  1.00  0.00     0.051 A 
ATOM     15  C   UNL     1      89.530  96.330  92.874  1.00  0.00     0.157 A 
ATOM     16  C   UNL     1      87.610  96.348  91.391  1.00  0.00     0.062 A 
ATOM     17  C   UNL     1      88.284  95.813  92.498  1.00  0.00     0.158 A 
BRANCH  15  18
ATOM     18  O   UNL     1      90.198  95.796  93.974  1.00  0.00    -0.504 OA
ATOM     19  H   UNL     1      90.932  96.308  94.448  1.00  0.00     0.293 HD
ENDBRANCH  15  18
BRANCH  17  20
ATOM     20  O   UNL     1      87.721  94.768  93.229  1.00  0.00    -0.504 OA
ATOM     21  H   UNL     1      88.063  94.522  94.150  1.00  0.00     0.293 HD
ENDBRANCH  17  20
ENDBRANCH   1  12
BRANCH   2  22
ATOM     22  O   UNL     1      89.467  98.220  88.178  1.00  0.00    -0.502 OA
ATOM     23  H   UNL     1      90.055  97.902  88.939  1.00  0.00     0.293 HD
ENDBRANCH   2  22
BRANCH   6  24
ATOM     24  O   UNL     1      85.590 100.011  85.209  1.00  0.00    -0.507 OA
ATOM     25  H   UNL     1      86.280 100.753  85.179  1.00  0.00     0.293 HD
ENDBRANCH   6  24
BRANCH   8  26
ATOM     26  O   UNL     1      81.752  99.194  88.015  1.00  0.00    -0.508 OA
ATOM     27  H   UNL     1      81.327  99.933  88.564  1.00  0.00     0.293 HD
ENDBRANCH   8  26
TORSDOF 6
ENDMDL
MODEL 2
REMARK VINA RESULT:    -6.974      8.827      9.915
REMARK INTER + INTRA:          -8.285
REMARK INTER:                  -8.307
REMARK INTRA:                   0.021
REMARK UNBOUND:                 0.115
REMARK SMILES O=c1c(O)c(-c2ccc(O)c(O)c2)oc2cc(O)cc(O)c12
REMARK SMILES IDX 5 1 3 2 2 3 1 4 22 5 20 6 19 7 17 8 16 9 15 10 14 11 6 12
REMARK SMILES IDX 7 13 8 14 9 15 13 16 11 17 10 18 12 20 4 22 21 24 18 26
REMARK H PARENT 10 19 12 21 4 23 21 25 18 27
REMARK Flexibility Score: inf
ROOT
ATOM      1  C   UNL     1      82.508  90.349  89.798  1.00  0.00     0.180 A 
ATOM      2  C   UNL     1      82.252  91.107  88.639  1.00  0.00     0.208 A 
ATOM      3  C   UNL     1      81.523  90.519  87.592  1.00  0.00     0.238 A 
ATOM      4  O   UNL     1      81.278  91.192  86.554  1.00  0.00    -0.285 OA
ATOM      5  C   UNL     1      81.083  89.186  87.713  1.00  0.00     0.111 A 
ATOM      6  C   UNL     1      80.346  88.519  86.703  1.00  0.00     0.134 A 
ATOM      7  C   UNL     1      79.952  87.187  86.895  1.00  0.00     0.093 A 
ATOM      8  C   UNL     1      80.279  86.509  88.072  1.00  0.00     0.123 A 
ATOM      9  C   UNL     1      81.004  87.162  89.073  1.00  0.00     0.094 A 
ATOM     10  C   UNL     1      81.406  88.491  88.902  1.00  0.00     0.146 A 
ATOM     11  O   UNL     1      82.090  89.089  89.870  1.00  0.00    -0.452 OA
ENDROOT
BRANCH   1  12
ATOM     12  C   UNL     1      83.252  90.904  90.952  1.00  0.00     0.025 A 
ATOM     13  C   UNL     1      82.954  92.175  91.473  1.00  0.00     0.016 A 
ATOM     14  C   UNL     1      83.654  92.668  92.577  1.00  0.00     0.051 A 
ATOM     15  C   UNL     1      84.651  91.893  93.185  1.00  0.00     0.157 A 
ATOM     16  C   UNL     1      84.239  90.124  91.577  1.00  0.00     0.062 A 
ATOM     17  C   UNL     1      84.942  90.617  92.685  1.00  0.00     0.158 A 
BRANCH  15  18
ATOM     18  O   UNL     1      85.352  92.382  94.286  1.00  0.00    -0.504 OA
ATOM     19  H   UNL     1      84.939  92.401  95.211  1.00  0.00     0.293 HD
ENDBRANCH  15  18
BRANCH  17  20
ATOM     20  O   UNL     1      85.930  89.846  93.295  1.00  0.00    -0.504 OA
ATOM     21  H   UNL     1      86.389  89.089  92.804  1.00  0.00     0.293 HD
ENDBRANCH  17  20
ENDBRANCH   1  12
BRANCH   2  22
ATOM     22  O   UNL     1      82.741  92.411  88.525  1.00  0.00    -0.502 OA
ATOM     23  H   UNL     1      83.002  92.816  87.633  1.00  0.00     0.293 HD
ENDBRANCH   2  22
BRANCH   6  24
ATOM     24  O   UNL     1      80.006  89.168  85.515  1.00  0.00    -0.507 OA
ATOM     25  H   UNL     1      80.236  90.141  85.355  1.00  0.00     0.293 HD
ENDBRANCH   6  24
BRANCH   8  26
ATOM     26  O   UNL     1      79.875  85.186  88.237  1.00  0.00    -0.508 OA
ATOM     27  H   UNL     1      79.253  84.736  87.575  1.00  0.00     0.293 HD
ENDBRANCH   8  26
TORSDOF 6
ENDMDL
MODEL 3
REMARK VINA RESULT:    -6.876      1.764      2.177
REMARK INTER + INTRA:          -8.168
REMARK INTER:                  -7.841
REMARK INTRA:                  -0.327
REMARK UNBOUND:                 0.115
REMARK SMILES O=c1c(O)c(-c2ccc(O)c(O)c2)oc2cc(O)cc(O)c12
REMARK SMILES IDX 5 1 3 2 2 3 1 4 22 5 20 6 19 7 17 8 16 9 15 10 14 11 6 12
REMARK SMILES IDX 7 13 8 14 9 15 13 16 11 17 10 18 12 20 4 22 21 24 18 26
REMARK H PARENT 10 19 12 21 4 23 21 25 18 27
REMARK Flexibility Score: inf
ROOT
ATOM      1  C   UNL     1      85.898  96.924  89.278  1.00  0.00     0.180 A 
ATOM      2  C   UNL     1      86.825  97.320  88.295  1.00  0.00     0.208 A 
ATOM      3  C   UNL     1      86.409  98.206  87.289  1.00  0.00     0.238 A 
ATOM      4  O   UNL     1      87.235  98.577  86.410  1.00  0.00    -0.285 OA
ATOM      5  C   UNL     1      85.076  98.662  87.270  1.00  0.00     0.111 A 
ATOM      6  C   UNL     1      84.577  99.553  86.288  1.00  0.00     0.134 A 
ATOM      7  C   UNL     1      83.233  99.954  86.332  1.00  0.00     0.093 A 
ATOM      8  C   UNL     1      82.381  99.483  87.334  1.00  0.00     0.123 A 
ATOM      9  C   UNL     1      82.868  98.605  88.306  1.00  0.00     0.094 A 
ATOM     10  C   UNL     1      84.206  98.194  88.281  1.00  0.00     0.146 A 
ATOM     11  O   UNL     1      84.644  97.363  89.219  1.00  0.00    -0.452 OA
ENDROOT
BRANCH   1  12
ATOM     12  C   UNL     1      86.265  96.007  90.382  1.00  0.00     0.025 A 
ATOM     13  C   UNL     1      86.876  96.482  91.556  1.00  0.00     0.016 A 
ATOM     14  C   UNL     1      87.191  95.602  92.594  1.00  0.00     0.051 A 
ATOM     15  C   UNL     1      86.888  94.239  92.481  1.00  0.00     0.157 A 
ATOM     16  C   UNL     1      85.945  94.643  90.282  1.00  0.00     0.062 A 
ATOM     17  C   UNL     1      86.261  93.759  91.324  1.00  0.00     0.158 A 
BRANCH  15  18
ATOM     18  O   UNL     1      87.202  93.357  93.514  1.00  0.00    -0.504 OA
ATOM     19  H   UNL     1      87.391  92.378  93.336  1.00  0.00     0.293 HD
ENDBRANCH  15  18
BRANCH  17  20
ATOM     20  O   UNL     1      85.955  92.403  91.216  1.00  0.00    -0.504 OA
ATOM     21  H   UNL     1      85.733  91.844  92.031  1.00  0.00     0.293 HD
ENDBRANCH  17  20
ENDBRANCH   1  12
BRANCH   2  22
ATOM     22  O   UNL     1      88.128  96.815  88.309  1.00  0.00    -0.502 OA
ATOM     23  H   UNL     1      88.470  96.177  87.600  1.00  0.00     0.293 HD
ENDBRANCH   2  22
BRANCH   6  24
ATOM     24  O   UNL     1      85.402 100.040  85.273  1.00  0.00    -0.507 OA
ATOM     25  H   UNL     1      86.036 100.815  85.428  1.00  0.00     0.293 HD
ENDBRANCH   6  24
BRANCH   8  26
ATOM     26  O   UNL     1      81.051  99.897  87.354  1.00  0.00    -0.508 OA
ATOM     27  H   UNL     1      80.387  99.514  88.018  1.00  0.00     0.293 HD
ENDBRANCH   8  26
TORSDOF 6
ENDMDL
MODEL 4
REMARK VINA RESULT:    -6.748      1.813      6.536
REMARK INTER + INTRA:          -8.013
REMARK INTER:                  -8.322
REMARK INTRA:                   0.309
REMARK UNBOUND:                 0.115
REMARK SMILES O=c1c(O)c(-c2ccc(O)c(O)c2)oc2cc(O)cc(O)c12
REMARK SMILES IDX 5 1 3 2 2 3 1 4 22 5 20 6 19 7 17 8 16 9 15 10 14 11 6 12
REMARK SMILES IDX 7 13 8 14 9 15 13 16 11 17 10 18 12 20 4 22 21 24 18 26
REMARK H PARENT 10 19 12 21 4 23 21 25 18 27
REMARK Flexibility Score: inf
ROOT
ATOM      1  C   UNL     1      86.251  98.564  87.428  1.00  0.00     0.180 A 
ATOM      2  C   UNL     1      87.050  98.345  86.290  1.00  0.00     0.208 A 
ATOM      3  C   UNL     1      88.383  97.944  86.464  1.00  0.00     0.238 A 
ATOM      4  O   UNL     1      89.104  97.733  85.451  1.00  0.00    -0.285 OA
ATOM      5  C   UNL     1      88.900  97.790  87.766  1.00  0.00     0.111 A 
ATOM      6  C   UNL     1      90.234  97.393  88.028  1.00  0.00     0.134 A 
ATOM      7  C   UNL     1      90.676  97.271  89.354  1.00  0.00     0.093 A 
ATOM      8  C   UNL     1      89.814  97.539  90.420  1.00  0.00     0.123 A 
ATOM      9  C   UNL     1      88.496  97.930  90.168  1.00  0.00     0.094 A 
ATOM     10  C   UNL     1      88.035  98.056  88.853  1.00  0.00     0.146 A 
ATOM     11  O   UNL     1      86.777  98.424  88.641  1.00  0.00    -0.452 OA
ENDROOT
BRANCH   1  12
ATOM     12  C   UNL     1      84.830  98.970  87.327  1.00  0.00     0.025 A 
ATOM     13  C   UNL     1      84.347  99.673  86.209  1.00  0.00     0.016 A 
ATOM     14  C   UNL     1      82.998 100.024  86.124  1.00  0.00     0.051 A 
ATOM     15  C   UNL     1      82.109  99.666  87.147  1.00  0.00     0.157 A 
ATOM     16  C   UNL     1      83.931  98.597  88.339  1.00  0.00     0.062 A 
ATOM     17  C   UNL     1      82.576  98.949  88.255  1.00  0.00     0.158 A 
BRANCH  15  18
ATOM     18  O   UNL     1      80.762 100.016  87.066  1.00  0.00    -0.504 OA
ATOM     19  H   UNL     1      80.237 100.292  87.887  1.00  0.00     0.293 HD
ENDBRANCH  15  18
BRANCH  17  20
ATOM     20  O   UNL     1      81.689  98.589  89.268  1.00  0.00    -0.504 OA
ATOM     21  H   UNL     1      81.684  99.064  90.162  1.00  0.00     0.293 HD
ENDBRANCH  17  20
ENDBRANCH   1  12
BRANCH   2  22
ATOM     22  O   UNL     1      86.527  98.551  85.010  1.00  0.00    -0.502 OA
ATOM     23  H   UNL     1      86.059  97.818  84.490  1.00  0.00     0.293 HD
ENDBRANCH   2  22
BRANCH   6  24
ATOM     24  O   UNL     1      91.120  97.120  86.985  1.00  0.00    -0.507 OA
ATOM     25  H   UNL     1      92.024  96.693  87.151  1.00  0.00     0.293 HD
ENDBRANCH   6  24
BRANCH   8  26
ATOM     26  O   UNL     1      90.279  97.411  91.727  1.00  0.00    -0.508 OA
ATOM     27  H   UNL     1      89.707  96.997  92.454  1.00  0.00     0.293 HD
ENDBRANCH   8  26
TORSDOF 6
ENDMDL
MODEL 5
REMARK VINA RESULT:    -6.704      2.716      6.724
REMARK INTER + INTRA:          -7.960
REMARK INTER:                  -8.253
REMARK INTRA:                   0.292
REMARK UNBOUND:                 0.115
REMARK SMILES O=c1c(O)c(-c2ccc(O)c(O)c2)oc2cc(O)cc(O)c12
REMARK SMILES IDX 5 1 3 2 2 3 1 4 22 5 20 6 19 7 17 8 16 9 15 10 14 11 6 12
REMARK SMILES IDX 7 13 8 14 9 15 13 16 11 17 10 18 12 20 4 22 21 24 18 26
REMARK H PARENT 10 19 12 21 4 23 21 25 18 27
REMARK Flexibility Score: inf
ROOT
ATOM      1  C   UNL     1      86.217  98.537  87.230  1.00  0.00     0.180 A 
ATOM      2  C   UNL     1      86.937  98.390  88.431  1.00  0.00     0.208 A 
ATOM      3  C   UNL     1      88.286  98.007  88.370  1.00  0.00     0.238 A 
ATOM      4  O   UNL     1      88.944  97.884  89.439  1.00  0.00    -0.285 OA
ATOM      5  C   UNL     1      88.884  97.758  87.118  1.00  0.00     0.111 A 
ATOM      6  C   UNL     1      90.236  97.364  86.970  1.00  0.00     0.134 A 
ATOM      7  C   UNL     1      90.756  97.125  85.689  1.00  0.00     0.093 A 
ATOM      8  C   UNL     1      89.951  97.271  84.556  1.00  0.00     0.123 A 
ATOM      9  C   UNL     1      88.616  97.660  84.695  1.00  0.00     0.094 A 
ATOM     10  C   UNL     1      88.080  97.905  85.964  1.00  0.00     0.146 A 
ATOM     11  O   UNL     1      86.810  98.278  86.068  1.00  0.00    -0.452 OA
ENDROOT
BRANCH   1  12
ATOM     12  C   UNL     1      84.797  98.956  87.210  1.00  0.00     0.025 A 
ATOM     13  C   UNL     1      84.265  99.695  86.139  1.00  0.00     0.016 A 
ATOM     14  C   UNL     1      82.917 100.059  86.131  1.00  0.00     0.051 A 
ATOM     15  C   UNL     1      82.076  99.678  87.186  1.00  0.00     0.157 A 
ATOM     16  C   UNL     1      83.945  98.559  88.255  1.00  0.00     0.062 A 
ATOM     17  C   UNL     1      82.591  98.924  88.248  1.00  0.00     0.158 A 
BRANCH  15  18
ATOM     18  O   UNL     1      80.730 100.040  87.182  1.00  0.00    -0.504 OA
ATOM     19  H   UNL     1      80.425 100.939  86.829  1.00  0.00     0.293 HD
ENDBRANCH  15  18
BRANCH  17  20
ATOM     20  O   UNL     1      81.752  98.540  89.293  1.00  0.00    -0.504 OA
ATOM     21  H   UNL     1      82.083  98.492  90.248  1.00  0.00     0.293 HD
ENDBRANCH  17  20
ENDBRANCH   1  12
BRANCH   2  22
ATOM     22  O   UNL     1      86.308  98.596  89.661  1.00  0.00    -0.502 OA
ATOM     23  H   UNL     1      86.016  99.515  89.974  1.00  0.00     0.293 HD
ENDBRANCH   2  22
BRANCH   6  24
ATOM     24  O   UNL     1      91.065  97.207  88.082  1.00  0.00    -0.507 OA
ATOM     25  H   UNL     1      91.228  96.300  88.502  1.00  0.00     0.293 HD
ENDBRANCH   6  24
BRANCH   8  26
ATOM     26  O   UNL     1      90.491  97.027  83.295  1.00  0.00    -0.508 OA
ATOM     27  H   UNL     1      90.706  96.087  82.983  1.00  0.00     0.293 HD
ENDBRANCH   8  26
TORSDOF 6
ENDMDL
MODEL 6
REMARK VINA RESULT:    -6.516      1.322      6.620
REMARK INTER + INTRA:          -7.734
REMARK INTER:                  -7.724
REMARK INTRA:                  -0.011
REMARK UNBOUND:                 0.115
REMARK SMILES O=c1c(O)c(-c2ccc(O)c(O)c2)oc2cc(O)cc(O)c12
REMARK SMILES IDX 5 1 3 2 2 3 1 4 22 5 20 6 19 7 17 8 16 9 15 10 14 11 6 12
REMARK SMILES IDX 7 13 8 14 9 15 13 16 11 17 10 18 12 20 4 22 21 24 18 26
REMARK H PARENT 10 19 12 21 4 23 21 25 18 27
REMARK Flexibility Score: inf
ROOT
ATOM      1  C   UNL     1      86.587  98.255  88.829  1.00  0.00     0.180 A 
ATOM      2  C   UNL     1      87.914  98.657  88.585  1.00  0.00     0.208 A 
ATOM      3  C   UNL     1      88.941  98.123  89.379  1.00  0.00     0.238 A 
ATOM      4  O   UNL     1      90.135  98.467  89.162  1.00  0.00    -0.285 OA
ATOM      5  C   UNL     1      88.624  97.218  90.412  1.00  0.00     0.111 A 
ATOM      6  C   UNL     1      89.599  96.638  91.260  1.00  0.00     0.134 A 
ATOM      7  C   UNL     1      89.203  95.752  92.272  1.00  0.00     0.093 A 
ATOM      8  C   UNL     1      87.854  95.436  92.454  1.00  0.00     0.123 A 
ATOM      9  C   UNL     1      86.887  96.004  91.620  1.00  0.00     0.094 A 
ATOM     10  C   UNL     1      87.262  96.889  90.603  1.00  0.00     0.146 A 
ATOM     11  O   UNL     1      86.324  97.411  89.822  1.00  0.00    -0.452 OA
ENDROOT
BRANCH   1  12
ATOM     12  C   UNL     1      85.452  98.758  88.022  1.00  0.00     0.025 A 
ATOM     13  C   UNL     1      85.488  98.744  86.616  1.00  0.00     0.016 A 
ATOM     14  C   UNL     1      84.396  99.201  85.876  1.00  0.00     0.051 A 
ATOM     15  C   UNL     1      83.245  99.666  86.528  1.00  0.00     0.157 A 
ATOM     16  C   UNL     1      84.289  99.206  88.670  1.00  0.00     0.062 A 
ATOM     17  C   UNL     1      83.191  99.666  87.928  1.00  0.00     0.158 A 
BRANCH  15  18
ATOM     18  O   UNL     1      82.154 100.125  85.793  1.00  0.00    -0.504 OA
ATOM     19  H   UNL     1      81.407  99.502  85.509  1.00  0.00     0.293 HD
ENDBRANCH  15  18
BRANCH  17  20
ATOM     20  O   UNL     1      82.044 100.123  88.574  1.00  0.00    -0.504 OA
ATOM     21  H   UNL     1      81.637  99.618  89.352  1.00  0.00     0.293 HD
ENDBRANCH  17  20
ENDBRANCH   1  12
BRANCH   2  22
ATOM     22  O   UNL     1      88.196  99.593  87.586  1.00  0.00    -0.502 OA
ATOM     23  H   UNL     1      88.459 100.548  87.797  1.00  0.00     0.293 HD
ENDBRANCH   2  22
BRANCH   6  24
ATOM     24  O   UNL     1      90.954  96.936  91.105  1.00  0.00    -0.507 OA
ATOM     25  H   UNL     1      91.279  97.598  90.410  1.00  0.00     0.293 HD
ENDBRANCH   6  24
BRANCH   8  26
ATOM     26  O   UNL     1      87.487  94.554  93.468  1.00  0.00    -0.508 OA
ATOM     27  H   UNL     1      87.923  94.586  94.382  1.00  0.00     0.293 HD
ENDBRANCH   8  26
TORSDOF 6
ENDMDL
MODEL 7
REMARK VINA RESULT:    -6.458      9.950     10.850
REMARK INTER + INTRA:          -7.664
REMARK INTER:                  -7.365
REMARK INTRA:                  -0.299
REMARK UNBOUND:                 0.115
REMARK SMILES O=c1c(O)c(-c2ccc(O)c(O)c2)oc2cc(O)cc(O)c12
REMARK SMILES IDX 5 1 3 2 2 3 1 4 22 5 20 6 19 7 17 8 16 9 15 10 14 11 6 12
REMARK SMILES IDX 7 13 8 14 9 15 13 16 11 17 10 18 12 20 4 22 21 24 18 26
REMARK H PARENT 10 19 12 21 4 23 21 25 18 27
REMARK Flexibility Score: inf
ROOT
ATOM      1  C   UNL     1      96.804  94.185  90.061  1.00  0.00     0.180 A 
ATOM      2  C   UNL     1      97.357  93.841  88.813  1.00  0.00     0.208 A 
ATOM      3  C   UNL     1      97.625  94.861  87.886  1.00  0.00     0.238 A 
ATOM      4  O   UNL     1      98.131  94.566  86.769  1.00  0.00    -0.285 OA
ATOM      5  C   UNL     1      97.317  96.197  88.212  1.00  0.00     0.111 A 
ATOM      6  C   UNL     1      97.551  97.283  87.333  1.00  0.00     0.134 A 
ATOM      7  C   UNL     1      97.208  98.584  87.727  1.00  0.00     0.093 A 
ATOM      8  C   UNL     1      96.636  98.822  88.979  1.00  0.00     0.123 A 
ATOM      9  C   UNL     1      96.403  97.755  89.852  1.00  0.00     0.094 A 
ATOM     10  C   UNL     1      96.740  96.449  89.478  1.00  0.00     0.146 A 
ATOM     11  O   UNL     1      96.512  95.455  90.327  1.00  0.00    -0.452 OA
ENDROOT
BRANCH   1  12
ATOM     12  C   UNL     1      96.511  93.169  91.098  1.00  0.00     0.025 A 
ATOM     13  C   UNL     1      97.369  92.973  92.194  1.00  0.00     0.016 A 
ATOM     14  C   UNL     1      97.061  92.026  93.173  1.00  0.00     0.051 A 
ATOM     15  C   UNL     1      95.883  91.271  93.080  1.00  0.00     0.157 A 
ATOM     16  C   UNL     1      95.323  92.425  91.020  1.00  0.00     0.062 A 
ATOM     17  C   UNL     1      95.011  91.473  92.002  1.00  0.00     0.158 A 
BRANCH  15  18
ATOM     18  O   UNL     1      95.572  90.324  94.054  1.00  0.00    -0.504 OA
ATOM     19  H   UNL     1      96.209  89.569  94.280  1.00  0.00     0.293 HD
ENDBRANCH  15  18
BRANCH  17  20
ATOM     20  O   UNL     1      93.838  90.726  91.914  1.00  0.00    -0.504 OA
ATOM     21  H   UNL     1      93.051  90.901  92.527  1.00  0.00     0.293 HD
ENDBRANCH  17  20
ENDBRANCH   1  12
BRANCH   2  22
ATOM     22  O   UNL     1      97.608  92.503  88.496  1.00  0.00    -0.502 OA
ATOM     23  H   UNL     1      96.871  91.810  88.449  1.00  0.00     0.293 HD
ENDBRANCH   2  22
BRANCH   6  24
ATOM     24  O   UNL     1      98.119  97.078  86.074  1.00  0.00    -0.507 OA
ATOM     25  H   UNL     1      98.343  97.851  85.458  1.00  0.00     0.293 HD
ENDBRANCH   6  24
BRANCH   8  26
ATOM     26  O   UNL     1      96.304 100.124  89.346  1.00  0.00    -0.508 OA
ATOM     27  H   UNL     1      96.538 100.916  88.758  1.00  0.00     0.293 HD
ENDBRANCH   8  26
TORSDOF 6
ENDMDL
MODEL 8
REMARK VINA RESULT:    -6.421     10.586     12.542
REMARK INTER + INTRA:          -7.620
REMARK INTER:                  -7.474
REMARK INTRA:                  -0.146
REMARK UNBOUND:                 0.115
REMARK SMILES O=c1c(O)c(-c2ccc(O)c(O)c2)oc2cc(O)cc(O)c12
REMARK SMILES IDX 5 1 3 2 2 3 1 4 22 5 20 6 19 7 17 8 16 9 15 10 14 11 6 12
REMARK SMILES IDX 7 13 8 14 9 15 13 16 11 17 10 18 12 20 4 22 21 24 18 26
REMARK H PARENT 10 19 12 21 4 23 21 25 18 27
REMARK Flexibility Score: inf
ROOT
ATOM      1  C   UNL     1      88.170  92.435  99.256  1.00  0.00     0.180 A 
ATOM      2  C   UNL     1      87.260  92.762  98.232  1.00  0.00     0.208 A 
ATOM      3  C   UNL     1      86.219  91.867  97.938  1.00  0.00     0.238 A 
ATOM      4  O   UNL     1      85.392  92.155  97.031  1.00  0.00    -0.285 OA
ATOM      5  C   UNL     1      86.118  90.657  98.654  1.00  0.00     0.111 A 
ATOM      6  C   UNL     1      85.102  89.700  98.416  1.00  0.00     0.134 A 
ATOM      7  C   UNL     1      85.074  88.514  99.165  1.00  0.00     0.093 A 
ATOM      8  C   UNL     1      86.040  88.267 100.144  1.00  0.00     0.123 A 
ATOM      9  C   UNL     1      87.045  89.208 100.384  1.00  0.00     0.094 A 
ATOM     10  C   UNL     1      87.089  90.398  99.648  1.00  0.00     0.146 A 
ATOM     11  O   UNL     1      88.052  91.277  99.899  1.00  0.00    -0.452 OA
ENDROOT
BRANCH   1  12
ATOM     12  C   UNL     1      89.282  93.336  99.638  1.00  0.00     0.025 A 
ATOM     13  C   UNL     1      90.624  92.967  99.441  1.00  0.00     0.016 A 
ATOM     14  C   UNL     1      91.656  93.842  99.786  1.00  0.00     0.051 A 
ATOM     15  C   UNL     1      91.362  95.105 100.320  1.00  0.00     0.157 A 
ATOM     16  C   UNL     1      88.993  94.610 100.154  1.00  0.00     0.062 A 
ATOM     17  C   UNL     1      90.028  95.490 100.501  1.00  0.00     0.158 A 
BRANCH  15  18
ATOM     18  O   UNL     1      92.389  95.981 100.667  1.00  0.00    -0.504 OA
ATOM     19  H   UNL     1      93.191  95.671 101.203  1.00  0.00     0.293 HD
ENDBRANCH  15  18
BRANCH  17  20
ATOM     20  O   UNL     1      89.738  96.748 101.026  1.00  0.00    -0.504 OA
ATOM     21  H   UNL     1      90.471  97.381 101.322  1.00  0.00     0.293 HD
ENDBRANCH  17  20
ENDBRANCH   1  12
BRANCH   2  22
ATOM     22  O   UNL     1      87.412  93.946  97.504  1.00  0.00    -0.502 OA
ATOM     23  H   UNL     1      86.712  94.679  97.510  1.00  0.00     0.293 HD
ENDBRANCH   2  22
BRANCH   6  24
ATOM     24  O   UNL     1      84.124  89.916  97.445  1.00  0.00    -0.507 OA
ATOM     25  H   UNL     1      83.539  89.164  97.099  1.00  0.00     0.293 HD
ENDBRANCH   6  24
BRANCH   8  26
ATOM     26  O   UNL     1      85.991  87.081 100.873  1.00  0.00    -0.508 OA
ATOM     27  H   UNL     1      86.434  86.998 101.780  1.00  0.00     0.293 HD
ENDBRANCH   8  26
TORSDOF 6
ENDMDL
MODEL 9
REMARK VINA RESULT:    -6.356      9.869     10.651
REMARK INTER + INTRA:          -7.541
REMARK INTER:                  -7.345
REMARK INTRA:                  -0.196
REMARK UNBOUND:                 0.115
REMARK SMILES O=c1c(O)c(-c2ccc(O)c(O)c2)oc2cc(O)cc(O)c12
REMARK SMILES IDX 5 1 3 2 2 3 1 4 22 5 20 6 19 7 17 8 16 9 15 10 14 11 6 12
REMARK SMILES IDX 7 13 8 14 9 15 13 16 11 17 10 18 12 20 4 22 21 24 18 26
REMARK H PARENT 10 19 12 21 4 23 21 25 18 27
REMARK Flexibility Score: inf
ROOT
ATOM      1  C   UNL     1      96.570  94.476  90.165  1.00  0.00     0.180 A 
ATOM      2  C   UNL     1      96.732  93.784  88.949  1.00  0.00     0.208 A 
ATOM      3  C   UNL     1      96.993  94.519  87.781  1.00  0.00     0.238 A 
ATOM      4  O   UNL     1      97.152  93.909  86.689  1.00  0.00    -0.285 OA
ATOM      5  C   UNL     1      97.066  95.925  87.844  1.00  0.00     0.111 A 
ATOM      6  C   UNL     1      97.321  96.738  86.713  1.00  0.00     0.134 A 
ATOM      7  C   UNL     1      97.369  98.133  86.856  1.00  0.00     0.093 A 
ATOM      8  C   UNL     1      97.166  98.729  88.103  1.00  0.00     0.123 A 
ATOM      9  C   UNL     1      96.915  97.931  89.224  1.00  0.00     0.094 A 
ATOM     10  C   UNL     1      96.865  96.538  89.102  1.00  0.00     0.146 A 
ATOM     11  O   UNL     1      96.630  95.804  90.183  1.00  0.00    -0.452 OA
ENDROOT
BRANCH   1  12
ATOM     12  C   UNL     1      96.311  93.771  91.442  1.00  0.00     0.025 A 
ATOM     13  C   UNL     1      97.269  92.916  92.014  1.00  0.00     0.016 A 
ATOM     14  C   UNL     1      97.013  92.281  93.231  1.00  0.00     0.051 A 
ATOM     15  C   UNL     1      95.802  92.502  93.902  1.00  0.00     0.157 A 
ATOM     16  C   UNL     1      95.108  94.005  92.128  1.00  0.00     0.062 A 
ATOM     17  C   UNL     1      94.850  93.368  93.351  1.00  0.00     0.158 A 
BRANCH  15  18
ATOM     18  O   UNL     1      95.542  91.869  95.117  1.00  0.00    -0.504 OA
ATOM     19  H   UNL     1      95.087  90.965  95.156  1.00  0.00     0.293 HD
ENDBRANCH  15  18
BRANCH  17  20
ATOM     20  O   UNL     1      93.649  93.591  94.023  1.00  0.00    -0.504 OA
ATOM     21  H   UNL     1      93.436  94.487  94.445  1.00  0.00     0.293 HD
ENDBRANCH  17  20
ENDBRANCH   1  12
BRANCH   2  22
ATOM     22  O   UNL     1      96.607  92.393  88.905  1.00  0.00    -0.502 OA
ATOM     23  H   UNL     1      97.155  91.781  89.497  1.00  0.00     0.293 HD
ENDBRANCH   2  22
BRANCH   6  24
ATOM     24  O   UNL     1      97.525  96.174  85.453  1.00  0.00    -0.507 OA
ATOM     25  H   UNL     1      97.474  96.728  84.606  1.00  0.00     0.293 HD
ENDBRANCH   6  24
BRANCH   8  26
ATOM     26  O   UNL     1      97.218 100.116  88.217  1.00  0.00    -0.508 OA
ATOM     27  H   UNL     1      97.604 100.694  87.480  1.00  0.00     0.293 HD
ENDBRANCH   8  26
TORSDOF 6
ENDMDL
