MODEL 1
REMARK VINA RESULT:    -3.135      0.000      0.000
REMARK INTER + INTRA:          -5.075
REMARK INTER:                  -4.418
REMARK INTRA:                  -0.657
REMARK UNBOUND:                -0.657
REMARK SMILES CCCCCCCCC(=O)[O-]
REMARK SMILES IDX 6 1 7 2 8 3 9 4 10 5 11 6 5 7 4 8 3 9 2 10 1 11
REMARK H PARENT
REMARK Flexibility Score: inf
ROOT
ATOM      1  C   UNL     1      -1.603  -6.296  30.855  1.00  0.00     0.000 C 
ENDROOT
BRANCH   1   2
ATOM      2  C   UNL     1      -2.415  -7.549  31.215  1.00  0.00     0.006 C 
BRANCH   2   3
ATOM      3  C   UNL     1      -3.578  -7.799  30.244  1.00  0.00     0.053 C 
BRANCH   3   4
ATOM      4  C   UNL     1      -4.118  -9.183  30.423  1.00  0.00     0.041 C 
ATOM      5  O   UNL     1      -3.566  -9.979  31.227  1.00  0.00    -0.550 OA
ATOM      6  O   UNL     1      -5.260  -9.578  29.738  1.00  0.00    -0.550 OA
ENDBRANCH   3   4
ENDBRANCH   2   3
ENDBRANCH   1   2
BRANCH   1   7
ATOM      7  C   UNL     1      -1.111  -5.533  32.094  1.00  0.00     0.000 C 
BRANCH   7   8
ATOM      8  C   UNL     1      -2.253  -5.318  33.097  1.00  0.00    -0.000 C 
BRANCH   8   9
ATOM      9  C   UNL     1      -2.879  -3.914  33.003  1.00  0.00    -0.000 C 
BRANCH   9  10
ATOM     10  C   UNL     1      -4.146  -3.827  32.134  1.00  0.00    -0.003 C 
ATOM     11  C   UNL     1      -5.079  -5.025  32.315  1.00  0.00     0.004 C 
ENDBRANCH   9  10
ENDBRANCH   8   9
ENDBRANCH   7   8
ENDBRANCH   1   7
TORSDOF 7
ENDMDL
MODEL 2
REMARK VINA RESULT:    -3.025     13.908     14.651
REMARK INTER + INTRA:          -4.920
REMARK INTER:                  -4.389
REMARK INTRA:                  -0.532
REMARK UNBOUND:                -0.657
REMARK SMILES CCCCCCCCC(=O)[O-]
REMARK SMILES IDX 6 1 7 2 8 3 9 4 10 5 11 6 5 7 4 8 3 9 2 10 1 11
REMARK H PARENT
REMARK Flexibility Score: inf
ROOT
ATOM      1  C   UNL     1     -10.256   5.417  34.978  1.00  0.00     0.000 C 
ENDROOT
BRANCH   1   2
ATOM      2  C   UNL     1     -11.238   4.529  34.198  1.00  0.00     0.006 C 
BRANCH   2   3
ATOM      3  C   UNL     1     -11.404   4.973  32.738  1.00  0.00     0.053 C 
BRANCH   3   4
ATOM      4  C   UNL     1     -12.803   4.720  32.273  1.00  0.00     0.041 C 
ATOM      5  O   UNL     1     -13.662   4.257  33.068  1.00  0.00    -0.550 OA
ATOM      6  O   UNL     1     -13.173   5.041  30.973  1.00  0.00    -0.550 OA
ENDBRANCH   3   4
ENDBRANCH   2   3
ENDBRANCH   1   2
BRANCH   1   7
ATOM      7  C   UNL     1     -10.161   5.033  36.462  1.00  0.00     0.000 C 
BRANCH   7   8
ATOM      8  C   UNL     1     -10.145   3.508  36.636  1.00  0.00    -0.000 C 
BRANCH   8   9
ATOM      9  C   UNL     1     -11.119   3.017  37.722  1.00  0.00    -0.000 C 
BRANCH   9  10
ATOM     10  C   UNL     1     -12.537   3.611  37.637  1.00  0.00    -0.003 C 
ATOM     11  C   UNL     1     -13.487   2.771  36.784  1.00  0.00     0.004 C 
ENDBRANCH   9  10
ENDBRANCH   8   9
ENDBRANCH   7   8
ENDBRANCH   1   7
TORSDOF 7
ENDMDL
MODEL 3
REMARK VINA RESULT:    -3.008     14.904     16.014
REMARK INTER + INTRA:          -4.896
REMARK INTER:                  -4.405
REMARK INTRA:                  -0.491
REMARK UNBOUND:                -0.657
REMARK SMILES CCCCCCCCC(=O)[O-]
REMARK SMILES IDX 6 1 7 2 8 3 9 4 10 5 11 6 5 7 4 8 3 9 2 10 1 11
REMARK H PARENT
REMARK Flexibility Score: inf
ROOT
ATOM      1  C   UNL     1     -12.144   5.591  28.659  1.00  0.00     0.000 C 
ENDROOT
BRANCH   1   2
ATOM      2  C   UNL     1     -12.959   5.164  29.889  1.00  0.00     0.006 C 
BRANCH   2   3
ATOM      3  C   UNL     1     -12.549   5.920  31.161  1.00  0.00     0.053 C 
BRANCH   3   4
ATOM      4  C   UNL     1     -12.392   4.969  32.305  1.00  0.00     0.041 C 
ATOM      5  O   UNL     1     -11.257   4.768  32.811  1.00  0.00    -0.550 OA
ATOM      6  O   UNL     1     -13.507   4.341  32.845  1.00  0.00    -0.550 OA
ENDBRANCH   3   4
ENDBRANCH   2   3
ENDBRANCH   1   2
BRANCH   1   7
ATOM      7  C   UNL     1     -12.909   6.564  27.750  1.00  0.00     0.000 C 
BRANCH   7   8
ATOM      8  C   UNL     1     -12.122   7.867  27.553  1.00  0.00    -0.000 C 
BRANCH   8   9
ATOM      9  C   UNL     1     -11.009   8.060  28.599  1.00  0.00    -0.000 C 
BRANCH   9  10
ATOM     10  C   UNL     1      -9.583   8.125  28.024  1.00  0.00    -0.003 C 
ATOM     11  C   UNL     1      -8.660   7.045  28.589  1.00  0.00     0.004 C 
ENDBRANCH   9  10
ENDBRANCH   8   9
ENDBRANCH   7   8
ENDBRANCH   1   7
TORSDOF 7
ENDMDL
MODEL 4
REMARK VINA RESULT:    -2.941      4.144      5.665
REMARK INTER + INTRA:          -4.802
REMARK INTER:                  -4.471
REMARK INTRA:                  -0.331
REMARK UNBOUND:                -0.657
REMARK SMILES CCCCCCCCC(=O)[O-]
REMARK SMILES IDX 6 1 7 2 8 3 9 4 10 5 11 6 5 7 4 8 3 9 2 10 1 11
REMARK H PARENT
REMARK Flexibility Score: inf
ROOT
ATOM      1  C   UNL     1      -4.389  -2.089  33.177  1.00  0.00     0.000 C 
ENDROOT
BRANCH   1   2
ATOM      2  C   UNL     1      -3.070  -2.873  33.104  1.00  0.00     0.006 C 
BRANCH   2   3
ATOM      3  C   UNL     1      -3.276  -4.343  32.712  1.00  0.00     0.053 C 
BRANCH   3   4
ATOM      4  C   UNL     1      -1.957  -5.027  32.543  1.00  0.00     0.041 C 
ATOM      5  O   UNL     1      -1.287  -5.371  33.552  1.00  0.00    -0.550 OA
ATOM      6  O   UNL     1      -1.488  -5.330  31.271  1.00  0.00    -0.550 OA
ENDBRANCH   3   4
ENDBRANCH   2   3
ENDBRANCH   1   2
BRANCH   1   7
ATOM      7  C   UNL     1      -4.251  -0.768  33.948  1.00  0.00     0.000 C 
BRANCH   7   8
ATOM      8  C   UNL     1      -2.777  -0.448  34.232  1.00  0.00    -0.000 C 
BRANCH   8   9
ATOM      9  C   UNL     1      -2.571   0.311  35.555  1.00  0.00    -0.000 C 
BRANCH   9  10
ATOM     10  C   UNL     1      -3.822   0.408  36.447  1.00  0.00    -0.003 C 
ATOM     11  C   UNL     1      -3.499   0.341  37.940  1.00  0.00     0.004 C 
ENDBRANCH   9  10
ENDBRANCH   8   9
ENDBRANCH   7   8
ENDBRANCH   1   7
TORSDOF 7
ENDMDL
MODEL 5
REMARK VINA RESULT:    -2.903     14.256     15.576
REMARK INTER + INTRA:          -4.749
REMARK INTER:                  -4.012
REMARK INTRA:                  -0.736
REMARK UNBOUND:                -0.657
REMARK SMILES CCCCCCCCC(=O)[O-]
REMARK SMILES IDX 6 1 7 2 8 3 9 4 10 5 11 6 5 7 4 8 3 9 2 10 1 11
REMARK H PARENT
REMARK Flexibility Score: inf
ROOT
ATOM      1  C   UNL     1     -11.215   4.353  29.436  1.00  0.00     0.000 C 
ENDROOT
BRANCH   1   2
ATOM      2  C   UNL     1     -12.578   4.645  30.080  1.00  0.00     0.006 C 
BRANCH   2   3
ATOM      3  C   UNL     1     -12.491   5.695  31.197  1.00  0.00     0.053 C 
BRANCH   3   4
ATOM      4  C   UNL     1     -12.405   5.028  32.534  1.00  0.00     0.041 C 
ATOM      5  O   UNL     1     -11.377   5.167  33.247  1.00  0.00    -0.550 OA
ATOM      6  O   UNL     1     -13.481   4.292  33.014  1.00  0.00    -0.550 OA
ENDBRANCH   3   4
ENDBRANCH   2   3
ENDBRANCH   1   2
BRANCH   1   7
ATOM      7  C   UNL     1     -10.223   5.516  29.594  1.00  0.00     0.000 C 
BRANCH   7   8
ATOM      8  C   UNL     1     -10.191   6.386  28.329  1.00  0.00    -0.000 C 
BRANCH   8   9
ATOM      9  C   UNL     1     -10.900   7.740  28.512  1.00  0.00    -0.000 C 
BRANCH   9  10
ATOM     10  C   UNL     1     -12.006   8.035  27.484  1.00  0.00    -0.003 C 
ATOM     11  C   UNL     1     -12.787   6.788  27.069  1.00  0.00     0.004 C 
ENDBRANCH   9  10
ENDBRANCH   8   9
ENDBRANCH   7   8
ENDBRANCH   1   7
TORSDOF 7
ENDMDL
MODEL 6
REMARK VINA RESULT:    -2.891     14.651     16.106
REMARK INTER + INTRA:          -4.731
REMARK INTER:                  -4.100
REMARK INTRA:                  -0.631
REMARK UNBOUND:                -0.657
REMARK SMILES CCCCCCCCC(=O)[O-]
REMARK SMILES IDX 6 1 7 2 8 3 9 4 10 5 11 6 5 7 4 8 3 9 2 10 1 11
REMARK H PARENT
REMARK Flexibility Score: inf
ROOT
ATOM      1  C   UNL     1     -11.241   6.309  29.327  1.00  0.00     0.000 C 
ENDROOT
BRANCH   1   2
ATOM      2  C   UNL     1     -12.603   5.995  29.962  1.00  0.00     0.006 C 
BRANCH   2   3
ATOM      3  C   UNL     1     -13.153   4.627  29.535  1.00  0.00     0.053 C 
BRANCH   3   4
ATOM      4  C   UNL     1     -13.306   3.732  30.725  1.00  0.00     0.041 C 
ATOM      5  O   UNL     1     -12.838   4.077  31.841  1.00  0.00    -0.550 OA
ATOM      6  O   UNL     1     -14.006   2.538  30.612  1.00  0.00    -0.550 OA
ENDBRANCH   3   4
ENDBRANCH   2   3
ENDBRANCH   1   2
BRANCH   1   7
ATOM      7  C   UNL     1     -11.147   7.752  28.809  1.00  0.00     0.000 C 
BRANCH   7   8
ATOM      8  C   UNL     1     -12.273   8.052  27.809  1.00  0.00    -0.000 C 
BRANCH   8   9
ATOM      9  C   UNL     1     -11.785   8.094  26.350  1.00  0.00    -0.000 C 
BRANCH   9  10
ATOM     10  C   UNL     1     -12.006   6.794  25.555  1.00  0.00    -0.003 C 
ATOM     11  C   UNL     1     -13.148   5.942  26.108  1.00  0.00     0.004 C 
ENDBRANCH   9  10
ENDBRANCH   8   9
ENDBRANCH   7   8
ENDBRANCH   1   7
TORSDOF 7
ENDMDL
MODEL 7
REMARK VINA RESULT:    -2.876      1.752      2.399
REMARK INTER + INTRA:          -4.710
REMARK INTER:                  -4.258
REMARK INTRA:                  -0.452
REMARK UNBOUND:                -0.657
REMARK SMILES CCCCCCCCC(=O)[O-]
REMARK SMILES IDX 6 1 7 2 8 3 9 4 10 5 11 6 5 7 4 8 3 9 2 10 1 11
REMARK H PARENT
REMARK Flexibility Score: inf
ROOT
ATOM      1  C   UNL     1      -1.956  -4.750  31.035  1.00  0.00     0.000 C 
ENDROOT
BRANCH   1   2
ATOM      2  C   UNL     1      -1.591  -6.143  30.501  1.00  0.00     0.006 C 
BRANCH   2   3
ATOM      3  C   UNL     1      -2.324  -7.271  31.241  1.00  0.00     0.053 C 
BRANCH   3   4
ATOM      4  C   UNL     1      -3.638  -7.556  30.586  1.00  0.00     0.041 C 
ATOM      5  O   UNL     1      -4.674  -6.937  30.948  1.00  0.00    -0.550 OA
ATOM      6  O   UNL     1      -3.712  -8.469  29.542  1.00  0.00    -0.550 OA
ENDBRANCH   3   4
ENDBRANCH   2   3
ENDBRANCH   1   2
BRANCH   1   7
ATOM      7  C   UNL     1      -2.031  -4.704  32.569  1.00  0.00     0.000 C 
BRANCH   7   8
ATOM      8  C   UNL     1      -3.215  -3.845  33.035  1.00  0.00    -0.000 C 
BRANCH   8   9
ATOM      9  C   UNL     1      -3.546  -2.699  32.061  1.00  0.00    -0.000 C 
BRANCH   9  10
ATOM     10  C   UNL     1      -3.944  -1.373  32.733  1.00  0.00    -0.003 C 
ATOM     11  C   UNL     1      -2.954  -0.927  33.810  1.00  0.00     0.004 C 
ENDBRANCH   9  10
ENDBRANCH   8   9
ENDBRANCH   7   8
ENDBRANCH   1   7
TORSDOF 7
ENDMDL
MODEL 8
REMARK VINA RESULT:    -2.867     13.781     14.399
REMARK INTER + INTRA:          -4.698
REMARK INTER:                  -4.038
REMARK INTRA:                  -0.660
REMARK UNBOUND:                -0.657
REMARK SMILES CCCCCCCCC(=O)[O-]
REMARK SMILES IDX 6 1 7 2 8 3 9 4 10 5 11 6 5 7 4 8 3 9 2 10 1 11
REMARK H PARENT
REMARK Flexibility Score: inf
ROOT
ATOM      1  C   UNL     1     -10.822   3.599  36.463  1.00  0.00     0.000 C 
ENDROOT
BRANCH   1   2
ATOM      2  C   UNL     1     -11.972   3.503  37.477  1.00  0.00     0.006 C 
BRANCH   2   3
ATOM      3  C   UNL     1     -13.325   3.217  36.811  1.00  0.00     0.053 C 
BRANCH   3   4
ATOM      4  C   UNL     1     -13.558   1.742  36.717  1.00  0.00     0.041 C 
ATOM      5  O   UNL     1     -13.616   1.042  37.762  1.00  0.00    -0.550 OA
ATOM      6  O   UNL     1     -13.760   1.147  35.479  1.00  0.00    -0.550 OA
ENDBRANCH   3   4
ENDBRANCH   2   3
ENDBRANCH   1   2
BRANCH   1   7
ATOM      7  C   UNL     1     -10.244   5.018  36.353  1.00  0.00     0.000 C 
BRANCH   7   8
ATOM      8  C   UNL     1     -10.288   5.518  34.902  1.00  0.00    -0.000 C 
BRANCH   8   9
ATOM      9  C   UNL     1     -10.802   4.454  33.915  1.00  0.00    -0.000 C 
BRANCH   9  10
ATOM     10  C   UNL     1     -11.952   4.918  33.004  1.00  0.00    -0.003 C 
ATOM     11  C   UNL     1     -13.236   4.112  33.204  1.00  0.00     0.004 C 
ENDBRANCH   9  10
ENDBRANCH   8   9
ENDBRANCH   7   8
ENDBRANCH   1   7
TORSDOF 7
ENDMDL
MODEL 9
REMARK VINA RESULT:    -2.862      1.376      2.022
REMARK INTER + INTRA:          -4.691
REMARK INTER:                  -4.178
REMARK INTRA:                  -0.513
REMARK UNBOUND:                -0.657
REMARK SMILES CCCCCCCCC(=O)[O-]
REMARK SMILES IDX 6 1 7 2 8 3 9 4 10 5 11 6 5 7 4 8 3 9 2 10 1 11
REMARK H PARENT
REMARK Flexibility Score: inf
ROOT
ATOM      1  C   UNL     1      -3.128  -7.088  29.876  1.00  0.00     0.000 C 
ENDROOT
BRANCH   1   2
ATOM      2  C   UNL     1      -3.337  -8.086  31.024  1.00  0.00     0.006 C 
BRANCH   2   3
ATOM      3  C   UNL     1      -3.837  -9.453  30.537  1.00  0.00     0.053 C 
BRANCH   3   4
ATOM      4  C   UNL     1      -5.251  -9.350  30.060  1.00  0.00     0.041 C 
ATOM      5  O   UNL     1      -6.119  -8.774  30.767  1.00  0.00    -0.550 OA
ATOM      6  O   UNL     1      -5.602  -9.848  28.811  1.00  0.00    -0.550 OA
ENDBRANCH   3   4
ENDBRANCH   2   3
ENDBRANCH   1   2
BRANCH   1   7
ATOM      7  C   UNL     1      -2.040  -6.049  30.184  1.00  0.00     0.000 C 
BRANCH   7   8
ATOM      8  C   UNL     1      -1.229  -6.453  31.423  1.00  0.00    -0.000 C 
BRANCH   8   9
ATOM      9  C   UNL     1      -1.274  -5.396  32.541  1.00  0.00    -0.000 C 
BRANCH   9  10
ATOM     10  C   UNL     1      -2.688  -5.002  33.003  1.00  0.00    -0.003 C 
ATOM     11  C   UNL     1      -2.957  -3.501  32.894  1.00  0.00     0.004 C 
ENDBRANCH   9  10
ENDBRANCH   8   9
ENDBRANCH   7   8
ENDBRANCH   1   7
TORSDOF 7
ENDMDL
