MODEL 1
REMARK VINA RESULT:    -4.696      0.000      0.000
REMARK INTER + INTRA:          -7.895
REMARK INTER:                  -6.617
REMARK INTRA:                  -1.278
REMARK UNBOUND:                -1.278
REMARK SMILES COc1c(O[C@H]2O[C@@H](C(=O)[O-])[C@H](O)[C@H](O)[C@H]2O)cc(O)c2c(=O)cc(-c3ccccc3)oc12
REMARK SMILES IDX 5 1 6 2 8 3 12 4 7 5 14 6 16 7 9 8 10 9 11 10 13 11 15 13
REMARK SMILES IDX 17 15 4 17 3 18 18 19 33 20 19 21 21 22 32 23 22 24 25 25
REMARK SMILES IDX 24 26 23 27 2 28 1 29 20 30 26 32 27 33 31 34 28 35 30 36
REMARK SMILES IDX 29 37
REMARK H PARENT 13 12 15 14 17 16 20 31
REMARK Flexibility Score: inf
ROOT
ATOM      1  O   UNL     1      39.852  24.506   8.451  1.00  0.00    -0.458 OA
ENDROOT
BRANCH   1   2
ATOM      2  C   UNL     1      39.167  23.642   7.539  1.00  0.00     0.339 C 
ATOM      3  C   UNL     1      38.646  25.322   5.931  1.00  0.00     0.199 C 
ATOM      4  C   UNL     1      39.673  24.756   4.916  1.00  0.00     0.180 C 
ATOM      5  O   UNL     1      38.147  24.338   6.830  1.00  0.00    -0.328 OA
ATOM      6  C   UNL     1      40.789  23.978   5.633  1.00  0.00     0.181 C 
ATOM      7  C   UNL     1      40.161  22.951   6.588  1.00  0.00     0.214 C 
BRANCH   3   8
ATOM      8  C   UNL     1      39.100  26.569   6.654  1.00  0.00     0.073 C 
ATOM      9  O   UNL     1      38.326  27.124   7.477  1.00  0.00    -0.547 OA
ATOM     10  O   UNL     1      40.351  27.125   6.419  1.00  0.00    -0.547 OA
ENDBRANCH   3   8
BRANCH   4  11
ATOM     11  O   UNL     1      38.995  23.909   4.019  1.00  0.00    -0.387 OA
ATOM     12  H   UNL     1      38.353  24.473   3.513  1.00  0.00     0.211 HD
ENDBRANCH   4  11
BRANCH   6  13
ATOM     13  O   UNL     1      41.597  23.329   4.685  1.00  0.00    -0.387 OA
ATOM     14  H   UNL     1      41.388  22.359   4.741  1.00  0.00     0.211 HD
ENDBRANCH   6  13
BRANCH   7  15
ATOM     15  O   UNL     1      41.144  22.249   7.311  1.00  0.00    -0.384 OA
ATOM     16  H   UNL     1      40.709  21.840   8.104  1.00  0.00     0.211 HD
ENDBRANCH   7  15
ENDBRANCH   1   2
BRANCH   1  17
ATOM     17  C   UNL     1      39.984  24.294   9.834  1.00  0.00     0.172 A 
ATOM     18  C   UNL     1      41.257  23.991  10.333  1.00  0.00     0.205 A 
ATOM     19  C   UNL     1      38.887  24.370  10.708  1.00  0.00     0.097 A 
ATOM     20  C   UNL     1      41.435  23.784  11.724  1.00  0.00     0.188 A 
ATOM     21  C   UNL     1      39.042  24.142  12.078  1.00  0.00     0.134 A 
ATOM     22  C   UNL     1      40.321  23.849  12.601  1.00  0.00     0.111 A 
ATOM     23  O   UNL     1      42.646  23.527  12.216  1.00  0.00    -0.452 OA
ATOM     24  C   UNL     1      40.545  23.618  13.974  1.00  0.00     0.197 A 
ATOM     25  C   UNL     1      42.888  23.302  13.505  1.00  0.00     0.138 A 
ATOM     26  C   UNL     1      41.834  23.344  14.425  1.00  0.00     0.100 A 
ATOM     27  O   UNL     1      39.601  23.652  14.811  1.00  0.00    -0.289 OA
BRANCH  18  28
ATOM     28  O   UNL     1      42.298  23.895   9.388  1.00  0.00    -0.490 OA
ATOM     29  C   UNL     1      42.902  24.977   8.684  1.00  0.00     0.278 C 
ENDBRANCH  18  28
BRANCH  21  30
ATOM     30  O   UNL     1      37.923  24.208  12.912  1.00  0.00    -0.507 OA
ATOM     31  H   UNL     1      37.401  23.380  13.172  1.00  0.00     0.293 HD
ENDBRANCH  21  30
BRANCH  25  32
ATOM     32  C   UNL     1      44.278  23.015  13.936  1.00  0.00     0.017 A 
ATOM     33  C   UNL     1      44.994  21.968  13.328  1.00  0.00     0.012 A 
ATOM     34  C   UNL     1      44.892  23.749  14.969  1.00  0.00     0.012 A 
ATOM     35  C   UNL     1      46.296  21.669  13.736  1.00  0.00     0.001 A 
ATOM     36  C   UNL     1      46.195  23.445  15.376  1.00  0.00     0.001 A 
ATOM     37  C   UNL     1      46.897  22.406  14.760  1.00  0.00     0.000 A 
ENDBRANCH  25  32
ENDBRANCH   1  17
TORSDOF 9
ENDMDL
MODEL 2
REMARK VINA RESULT:    -4.517      3.653      4.513
REMARK INTER + INTRA:          -7.643
REMARK INTER:                  -6.664
REMARK INTRA:                  -0.979
REMARK UNBOUND:                -1.278
REMARK SMILES COc1c(O[C@H]2O[C@@H](C(=O)[O-])[C@H](O)[C@H](O)[C@H]2O)cc(O)c2c(=O)cc(-c3ccccc3)oc12
REMARK SMILES IDX 5 1 6 2 8 3 12 4 7 5 14 6 16 7 9 8 10 9 11 10 13 11 15 13
REMARK SMILES IDX 17 15 4 17 3 18 18 19 33 20 19 21 21 22 32 23 22 24 25 25
REMARK SMILES IDX 24 26 23 27 2 28 1 29 20 30 26 32 27 33 31 34 28 35 30 36
REMARK SMILES IDX 29 37
REMARK H PARENT 13 12 15 14 17 16 20 31
REMARK Flexibility Score: inf
ROOT
ATOM      1  O   UNL     1      40.319  23.814   7.867  1.00  0.00    -0.458 OA
ENDROOT
BRANCH   1   2
ATOM      2  C   UNL     1      39.556  24.333   6.773  1.00  0.00     0.339 C 
ATOM      3  C   UNL     1      41.326  25.601   5.801  1.00  0.00     0.199 C 
ATOM      4  C   UNL     1      41.449  24.625   4.602  1.00  0.00     0.180 C 
ATOM      5  O   UNL     1      40.024  25.618   6.376  1.00  0.00    -0.328 OA
ATOM      6  C   UNL     1      40.940  23.223   4.974  1.00  0.00     0.181 C 
ATOM      7  C   UNL     1      39.540  23.339   5.597  1.00  0.00     0.214 C 
BRANCH   3   8
ATOM      8  C   UNL     1      42.404  25.448   6.848  1.00  0.00     0.073 C 
ATOM      9  O   UNL     1      42.352  26.142   7.897  1.00  0.00    -0.547 OA
ATOM     10  O   UNL     1      43.462  24.565   6.672  1.00  0.00    -0.547 OA
ENDBRANCH   3   8
BRANCH   4  11
ATOM     11  O   UNL     1      40.700  25.140   3.527  1.00  0.00    -0.387 OA
ATOM     12  H   UNL     1      41.320  25.230   2.755  1.00  0.00     0.211 HD
ENDBRANCH   4  11
BRANCH   6  13
ATOM     13  O   UNL     1      40.895  22.415   3.825  1.00  0.00    -0.387 OA
ATOM     14  H   UNL     1      40.795  21.476   4.134  1.00  0.00     0.211 HD
ENDBRANCH   6  13
BRANCH   7  15
ATOM     15  O   UNL     1      39.050  22.083   6.007  1.00  0.00    -0.384 OA
ATOM     16  H   UNL     1      38.069  22.072   5.857  1.00  0.00     0.211 HD
ENDBRANCH   7  15
ENDBRANCH   1   2
BRANCH   1  17
ATOM     17  C   UNL     1      39.787  23.247   9.037  1.00  0.00     0.172 A 
ATOM     18  C   UNL     1      39.631  24.076  10.155  1.00  0.00     0.205 A 
ATOM     19  C   UNL     1      39.422  21.893   9.110  1.00  0.00     0.097 A 
ATOM     20  C   UNL     1      39.084  23.546  11.351  1.00  0.00     0.188 A 
ATOM     21  C   UNL     1      38.906  21.350  10.290  1.00  0.00     0.134 A 
ATOM     22  C   UNL     1      38.729  22.175  11.423  1.00  0.00     0.111 A 
ATOM     23  O   UNL     1      38.900  24.331  12.412  1.00  0.00    -0.452 OA
ATOM     24  C   UNL     1      38.206  21.689  12.640  1.00  0.00     0.197 A 
ATOM     25  C   UNL     1      38.413  23.903  13.573  1.00  0.00     0.138 A 
ATOM     26  C   UNL     1      38.047  22.559  13.717  1.00  0.00     0.100 A 
ATOM     27  O   UNL     1      37.875  20.480  12.781  1.00  0.00    -0.289 OA
BRANCH  18  28
ATOM     28  O   UNL     1      40.057  25.412  10.014  1.00  0.00    -0.490 OA
ATOM     29  C   UNL     1      39.232  26.532   9.703  1.00  0.00     0.278 C 
ENDBRANCH  18  28
BRANCH  21  30
ATOM     30  O   UNL     1      38.572  19.994  10.329  1.00  0.00    -0.507 OA
ATOM     31  H   UNL     1      37.652  19.679  10.613  1.00  0.00     0.293 HD
ENDBRANCH  21  30
BRANCH  25  32
ATOM     32  C   UNL     1      38.263  24.867  14.690  1.00  0.00     0.017 A 
ATOM     33  C   UNL     1      38.313  24.408  16.018  1.00  0.00     0.012 A 
ATOM     34  C   UNL     1      38.038  26.237  14.451  1.00  0.00     0.012 A 
ATOM     35  C   UNL     1      38.151  25.299  17.083  1.00  0.00     0.001 A 
ATOM     36  C   UNL     1      37.876  27.124  15.519  1.00  0.00     0.001 A 
ATOM     37  C   UNL     1      37.933  26.656  16.834  1.00  0.00     0.000 A 
ENDBRANCH  25  32
ENDBRANCH   1  17
TORSDOF 9
ENDMDL
MODEL 3
REMARK VINA RESULT:    -4.225      1.615      2.280
REMARK INTER + INTRA:          -7.232
REMARK INTER:                  -6.251
REMARK INTRA:                  -0.981
REMARK UNBOUND:                -1.278
REMARK SMILES COc1c(O[C@H]2O[C@@H](C(=O)[O-])[C@H](O)[C@H](O)[C@H]2O)cc(O)c2c(=O)cc(-c3ccccc3)oc12
REMARK SMILES IDX 5 1 6 2 8 3 12 4 7 5 14 6 16 7 9 8 10 9 11 10 13 11 15 13
REMARK SMILES IDX 17 15 4 17 3 18 18 19 33 20 19 21 21 22 32 23 22 24 25 25
REMARK SMILES IDX 24 26 23 27 2 28 1 29 20 30 26 32 27 33 31 34 28 35 30 36
REMARK SMILES IDX 29 37
REMARK H PARENT 13 12 15 14 17 16 20 31
REMARK Flexibility Score: inf
ROOT
ATOM      1  O   UNL     1      39.963  25.415   7.896  1.00  0.00    -0.458 OA
ENDROOT
BRANCH   1   2
ATOM      2  C   UNL     1      38.762  25.429   7.117  1.00  0.00     0.339 C 
ATOM      3  C   UNL     1      39.832  25.328   4.989  1.00  0.00     0.199 C 
ATOM      4  C   UNL     1      39.372  23.866   4.759  1.00  0.00     0.180 C 
ATOM      5  O   UNL     1      38.969  26.056   5.856  1.00  0.00    -0.328 OA
ATOM      6  C   UNL     1      39.119  23.147   6.095  1.00  0.00     0.181 C 
ATOM      7  C   UNL     1      38.191  24.008   6.967  1.00  0.00     0.214 C 
BRANCH   3   8
ATOM      8  C   UNL     1      41.283  25.475   5.385  1.00  0.00     0.073 C 
ATOM      9  O   UNL     1      41.996  24.446   5.521  1.00  0.00    -0.547 OA
ATOM     10  O   UNL     1      41.845  26.724   5.617  1.00  0.00    -0.547 OA
ENDBRANCH   3   8
BRANCH   4  11
ATOM     11  O   UNL     1      38.193  23.884   3.990  1.00  0.00    -0.387 OA
ATOM     12  H   UNL     1      38.067  22.967   3.627  1.00  0.00     0.211 HD
ENDBRANCH   4  11
BRANCH   6  13
ATOM     13  O   UNL     1      38.534  21.893   5.854  1.00  0.00    -0.387 OA
ATOM     14  H   UNL     1      38.904  21.559   4.994  1.00  0.00     0.211 HD
ENDBRANCH   6  13
BRANCH   7  15
ATOM     15  O   UNL     1      37.972  23.417   8.227  1.00  0.00    -0.384 OA
ATOM     16  H   UNL     1      38.846  23.355   8.693  1.00  0.00     0.211 HD
ENDBRANCH   7  15
ENDBRANCH   1   2
BRANCH   1  17
ATOM     17  C   UNL     1      40.025  25.410   9.300  1.00  0.00     0.172 A 
ATOM     18  C   UNL     1      40.891  24.498   9.915  1.00  0.00     0.205 A 
ATOM     19  C   UNL     1      39.247  26.278  10.083  1.00  0.00     0.097 A 
ATOM     20  C   UNL     1      40.994  24.471  11.329  1.00  0.00     0.188 A 
ATOM     21  C   UNL     1      39.317  26.244  11.479  1.00  0.00     0.134 A 
ATOM     22  C   UNL     1      40.196  25.341  12.116  1.00  0.00     0.111 A 
ATOM     23  O   UNL     1      41.838  23.631  11.926  1.00  0.00    -0.452 OA
ATOM     24  C   UNL     1      40.319  25.264  13.519  1.00  0.00     0.197 A 
ATOM     25  C   UNL     1      41.975  23.533  13.246  1.00  0.00     0.138 A 
ATOM     26  C   UNL     1      41.214  24.357  14.083  1.00  0.00     0.100 A 
ATOM     27  O   UNL     1      39.637  26.001  14.283  1.00  0.00    -0.289 OA
BRANCH  18  28
ATOM     28  O   UNL     1      41.609  23.635   9.062  1.00  0.00    -0.490 OA
ATOM     29  C   UNL     1      41.227  22.316   8.680  1.00  0.00     0.278 C 
ENDBRANCH  18  28
BRANCH  21  30
ATOM     30  O   UNL     1      38.514  27.111  12.223  1.00  0.00    -0.507 OA
ATOM     31  H   UNL     1      38.893  27.683  12.969  1.00  0.00     0.293 HD
ENDBRANCH  21  30
BRANCH  25  32
ATOM     32  C   UNL     1      42.940  22.552  13.798  1.00  0.00     0.017 A 
ATOM     33  C   UNL     1      44.280  22.928  13.995  1.00  0.00     0.012 A 
ATOM     34  C   UNL     1      42.551  21.233  14.103  1.00  0.00     0.012 A 
ATOM     35  C   UNL     1      45.209  22.010  14.493  1.00  0.00     0.001 A 
ATOM     36  C   UNL     1      43.484  20.317  14.601  1.00  0.00     0.001 A 
ATOM     37  C   UNL     1      44.812  20.705  14.796  1.00  0.00     0.000 A 
ENDBRANCH  25  32
ENDBRANCH   1  17
TORSDOF 9
ENDMDL
MODEL 4
REMARK VINA RESULT:    -4.129      2.728      7.708
REMARK INTER + INTRA:          -7.097
REMARK INTER:                  -5.734
REMARK INTRA:                  -1.363
REMARK UNBOUND:                -1.278
REMARK SMILES COc1c(O[C@H]2O[C@@H](C(=O)[O-])[C@H](O)[C@H](O)[C@H]2O)cc(O)c2c(=O)cc(-c3ccccc3)oc12
REMARK SMILES IDX 5 1 6 2 8 3 12 4 7 5 14 6 16 7 9 8 10 9 11 10 13 11 15 13
REMARK SMILES IDX 17 15 4 17 3 18 18 19 33 20 19 21 21 22 32 23 22 24 25 25
REMARK SMILES IDX 24 26 23 27 2 28 1 29 20 30 26 32 27 33 31 34 28 35 30 36
REMARK SMILES IDX 29 37
REMARK H PARENT 13 12 15 14 17 16 20 31
REMARK Flexibility Score: inf
ROOT
ATOM      1  O   UNL     1      40.560  25.047  10.545  1.00  0.00    -0.458 OA
ENDROOT
BRANCH   1   2
ATOM      2  C   UNL     1      41.449  25.766  11.405  1.00  0.00     0.339 C 
ATOM      3  C   UNL     1      39.774  26.563  12.902  1.00  0.00     0.199 C 
ATOM      4  C   UNL     1      40.246  25.615  14.034  1.00  0.00     0.180 C 
ATOM      5  O   UNL     1      40.809  26.898  11.984  1.00  0.00    -0.328 OA
ATOM      6  C   UNL     1      40.960  24.380  13.459  1.00  0.00     0.181 C 
ATOM      7  C   UNL     1      42.049  24.834  12.474  1.00  0.00     0.214 C 
BRANCH   3   8
ATOM      8  C   UNL     1      38.515  26.119  12.194  1.00  0.00     0.073 C 
ATOM      9  O   UNL     1      38.023  26.845  11.291  1.00  0.00    -0.547 OA
ATOM     10  O   UNL     1      37.879  24.930  12.530  1.00  0.00    -0.547 OA
ENDBRANCH   3   8
BRANCH   4  11
ATOM     11  O   UNL     1      41.117  26.326  14.880  1.00  0.00    -0.387 OA
ATOM     12  H   UNL     1      40.895  26.068  15.813  1.00  0.00     0.211 HD
ENDBRANCH   4  11
BRANCH   6  13
ATOM     13  O   UNL     1      41.532  23.635  14.505  1.00  0.00    -0.387 OA
ATOM     14  H   UNL     1      42.484  23.481  14.265  1.00  0.00     0.211 HD
ENDBRANCH   6  13
BRANCH   7  15
ATOM     15  O   UNL     1      42.698  23.736  11.878  1.00  0.00    -0.384 OA
ATOM     16  H   UNL     1      42.117  23.395  11.148  1.00  0.00     0.211 HD
ENDBRANCH   7  15
ENDBRANCH   1   2
BRANCH   1  17
ATOM     17  C   UNL     1      40.707  24.904   9.155  1.00  0.00     0.172 A 
ATOM     18  C   UNL     1      41.064  23.644   8.659  1.00  0.00     0.205 A 
ATOM     19  C   UNL     1      40.515  25.978   8.271  1.00  0.00     0.097 A 
ATOM     20  C   UNL     1      41.209  23.454   7.262  1.00  0.00     0.188 A 
ATOM     21  C   UNL     1      40.681  25.813   6.893  1.00  0.00     0.134 A 
ATOM     22  C   UNL     1      41.026  24.545   6.374  1.00  0.00     0.111 A 
ATOM     23  O   UNL     1      41.516  22.253   6.774  1.00  0.00    -0.452 OA
ATOM     24  C   UNL     1      41.199  24.312   4.993  1.00  0.00     0.197 A 
ATOM     25  C   UNL     1      41.689  22.002   5.479  1.00  0.00     0.138 A 
ATOM     26  C   UNL     1      41.530  23.035   4.547  1.00  0.00     0.100 A 
ATOM     27  O   UNL     1      41.061  25.237   4.145  1.00  0.00    -0.289 OA
BRANCH  18  28
ATOM     28  O   UNL     1      41.276  22.628   9.613  1.00  0.00    -0.490 OA
ATOM     29  C   UNL     1      40.268  21.882  10.290  1.00  0.00     0.278 C 
ENDBRANCH  18  28
BRANCH  21  30
ATOM     30  O   UNL     1      40.499  26.910   6.047  1.00  0.00    -0.507 OA
ATOM     31  H   UNL     1      40.647  27.861   6.366  1.00  0.00     0.293 HD
ENDBRANCH  21  30
BRANCH  25  32
ATOM     32  C   UNL     1      42.041  20.626   5.054  1.00  0.00     0.017 A 
ATOM     33  C   UNL     1      43.132  19.970   5.651  1.00  0.00     0.012 A 
ATOM     34  C   UNL     1      41.324  19.967   4.036  1.00  0.00     0.012 A 
ATOM     35  C   UNL     1      43.492  18.681   5.247  1.00  0.00     0.001 A 
ATOM     36  C   UNL     1      41.689  18.678   3.634  1.00  0.00     0.001 A 
ATOM     37  C   UNL     1      42.772  18.035   4.239  1.00  0.00     0.000 A 
ENDBRANCH  25  32
ENDBRANCH   1  17
TORSDOF 9
ENDMDL
MODEL 5
REMARK VINA RESULT:    -4.052      2.684      7.515
REMARK INTER + INTRA:          -6.988
REMARK INTER:                  -6.012
REMARK INTRA:                  -0.976
REMARK UNBOUND:                -1.278
REMARK SMILES COc1c(O[C@H]2O[C@@H](C(=O)[O-])[C@H](O)[C@H](O)[C@H]2O)cc(O)c2c(=O)cc(-c3ccccc3)oc12
REMARK SMILES IDX 5 1 6 2 8 3 12 4 7 5 14 6 16 7 9 8 10 9 11 10 13 11 15 13
REMARK SMILES IDX 17 15 4 17 3 18 18 19 33 20 19 21 21 22 32 23 22 24 25 25
REMARK SMILES IDX 24 26 23 27 2 28 1 29 20 30 26 32 27 33 31 34 28 35 30 36
REMARK SMILES IDX 29 37
REMARK H PARENT 13 12 15 14 17 16 20 31
REMARK Flexibility Score: inf
ROOT
ATOM      1  O   UNL     1      39.252  24.924  11.109  1.00  0.00    -0.458 OA
ENDROOT
BRANCH   1   2
ATOM      2  C   UNL     1      39.259  26.072  11.965  1.00  0.00     0.339 C 
ATOM      3  C   UNL     1      39.312  24.864  14.019  1.00  0.00     0.199 C 
ATOM      4  C   UNL     1      40.783  25.271  14.292  1.00  0.00     0.180 C 
ATOM      5  O   UNL     1      38.614  25.800  13.204  1.00  0.00    -0.328 OA
ATOM      6  C   UNL     1      41.521  25.592  12.981  1.00  0.00     0.181 C 
ATOM      7  C   UNL     1      40.693  26.596  12.164  1.00  0.00     0.214 C 
BRANCH   3   8
ATOM      8  C   UNL     1      39.134  23.446  13.528  1.00  0.00     0.073 C 
ATOM      9  O   UNL     1      37.972  22.984  13.377  1.00  0.00    -0.547 OA
ATOM     10  O   UNL     1      40.227  22.634  13.254  1.00  0.00    -0.547 OA
ENDBRANCH   3   8
BRANCH   4  11
ATOM     11  O   UNL     1      40.786  26.398  15.136  1.00  0.00    -0.387 OA
ATOM     12  H   UNL     1      40.246  27.101  14.687  1.00  0.00     0.211 HD
ENDBRANCH   4  11
BRANCH   6  13
ATOM     13  O   UNL     1      42.787  26.129  13.271  1.00  0.00    -0.387 OA
ATOM     14  H   UNL     1      42.739  26.510  14.187  1.00  0.00     0.211 HD
ENDBRANCH   6  13
BRANCH   7  15
ATOM     15  O   UNL     1      41.301  26.882  10.927  1.00  0.00    -0.384 OA
ATOM     16  H   UNL     1      40.614  26.784  10.217  1.00  0.00     0.211 HD
ENDBRANCH   7  15
ENDBRANCH   1   2
BRANCH   1  17
ATOM     17  C   UNL     1      39.361  24.950   9.709  1.00  0.00     0.172 A 
ATOM     18  C   UNL     1      40.275  24.077   9.105  1.00  0.00     0.205 A 
ATOM     19  C   UNL     1      38.593  25.820   8.917  1.00  0.00     0.097 A 
ATOM     20  C   UNL     1      40.404  24.062   7.694  1.00  0.00     0.188 A 
ATOM     21  C   UNL     1      38.730  25.835   7.527  1.00  0.00     0.134 A 
ATOM     22  C   UNL     1      39.636  24.952   6.900  1.00  0.00     0.111 A 
ATOM     23  O   UNL     1      41.246  23.214   7.105  1.00  0.00    -0.452 OA
ATOM     24  C   UNL     1      39.813  24.913   5.501  1.00  0.00     0.197 A 
ATOM     25  C   UNL     1      41.438  23.155   5.790  1.00  0.00     0.138 A 
ATOM     26  C   UNL     1      40.717  24.009   4.947  1.00  0.00     0.100 A 
ATOM     27  O   UNL     1      39.170  25.679   4.733  1.00  0.00    -0.289 OA
BRANCH  18  28
ATOM     28  O   UNL     1      41.035  23.263   9.970  1.00  0.00    -0.490 OA
ATOM     29  C   UNL     1      42.363  23.518  10.419  1.00  0.00     0.278 C 
ENDBRANCH  18  28
BRANCH  21  30
ATOM     30  O   UNL     1      37.962  26.728   6.776  1.00  0.00    -0.507 OA
ATOM     31  H   UNL     1      37.102  27.128   7.135  1.00  0.00     0.293 HD
ENDBRANCH  21  30
BRANCH  25  32
ATOM     32  C   UNL     1      42.411  22.176   5.247  1.00  0.00     0.017 A 
ATOM     33  C   UNL     1      42.044  20.824   5.125  1.00  0.00     0.012 A 
ATOM     34  C   UNL     1      43.714  22.564   4.880  1.00  0.00     0.012 A 
ATOM     35  C   UNL     1      42.956  19.884   4.637  1.00  0.00     0.001 A 
ATOM     36  C   UNL     1      44.623  21.619   4.393  1.00  0.00     0.001 A 
ATOM     37  C   UNL     1      44.245  20.280   4.272  1.00  0.00     0.000 A 
ENDBRANCH  25  32
ENDBRANCH   1  17
TORSDOF 9
ENDMDL
MODEL 6
REMARK VINA RESULT:    -3.896      0.847      1.077
REMARK INTER + INTRA:          -6.769
REMARK INTER:                  -5.886
REMARK INTRA:                  -0.883
REMARK UNBOUND:                -1.278
REMARK SMILES COc1c(O[C@H]2O[C@@H](C(=O)[O-])[C@H](O)[C@H](O)[C@H]2O)cc(O)c2c(=O)cc(-c3ccccc3)oc12
REMARK SMILES IDX 5 1 6 2 8 3 12 4 7 5 14 6 16 7 9 8 10 9 11 10 13 11 15 13
REMARK SMILES IDX 17 15 4 17 3 18 18 19 33 20 19 21 21 22 32 23 22 24 25 25
REMARK SMILES IDX 24 26 23 27 2 28 1 29 20 30 26 32 27 33 31 34 28 35 30 36
REMARK SMILES IDX 29 37
REMARK H PARENT 13 12 15 14 17 16 20 31
REMARK Flexibility Score: inf
ROOT
ATOM      1  O   UNL     1      39.778  24.636   8.528  1.00  0.00    -0.458 OA
ENDROOT
BRANCH   1   2
ATOM      2  C   UNL     1      38.665  24.194   7.744  1.00  0.00     0.339 C 
ATOM      3  C   UNL     1      39.366  25.207   5.703  1.00  0.00     0.199 C 
ATOM      4  C   UNL     1      39.716  23.836   5.071  1.00  0.00     0.180 C 
ATOM      5  O   UNL     1      38.360  25.120   6.707  1.00  0.00    -0.328 OA
ATOM      6  C   UNL     1      40.039  22.793   6.154  1.00  0.00     0.181 C 
ATOM      7  C   UNL     1      38.910  22.776   7.197  1.00  0.00     0.214 C 
BRANCH   3   8
ATOM      8  C   UNL     1      40.560  26.007   6.170  1.00  0.00     0.073 C 
ATOM      9  O   UNL     1      41.718  25.648   5.829  1.00  0.00    -0.547 OA
ATOM     10  O   UNL     1      40.408  27.125   6.981  1.00  0.00    -0.547 OA
ENDBRANCH   3   8
BRANCH   4  11
ATOM     11  O   UNL     1      38.621  23.406   4.299  1.00  0.00    -0.387 OA
ATOM     12  H   UNL     1      37.802  23.774   4.723  1.00  0.00     0.211 HD
ENDBRANCH   4  11
BRANCH   6  13
ATOM     13  O   UNL     1      40.174  21.525   5.565  1.00  0.00    -0.387 OA
ATOM     14  H   UNL     1      41.075  21.492   5.147  1.00  0.00     0.211 HD
ENDBRANCH   6  13
BRANCH   7  15
ATOM     15  O   UNL     1      39.185  21.874   8.242  1.00  0.00    -0.384 OA
ATOM     16  H   UNL     1      38.326  21.649   8.687  1.00  0.00     0.211 HD
ENDBRANCH   7  15
ENDBRANCH   1   2
BRANCH   1  17
ATOM     17  C   UNL     1      39.932  24.441   9.911  1.00  0.00     0.172 A 
ATOM     18  C   UNL     1      41.200  24.085  10.387  1.00  0.00     0.205 A 
ATOM     19  C   UNL     1      38.860  24.585  10.807  1.00  0.00     0.097 A 
ATOM     20  C   UNL     1      41.400  23.892  11.777  1.00  0.00     0.188 A 
ATOM     21  C   UNL     1      39.036  24.372  12.177  1.00  0.00     0.134 A 
ATOM     22  C   UNL     1      40.311  24.026  12.676  1.00  0.00     0.111 A 
ATOM     23  O   UNL     1      42.608  23.585  12.246  1.00  0.00    -0.452 OA
ATOM     24  C   UNL     1      40.555  23.807  14.048  1.00  0.00     0.197 A 
ATOM     25  C   UNL     1      42.869  23.370  13.533  1.00  0.00     0.138 A 
ATOM     26  C   UNL     1      41.840  23.479  14.475  1.00  0.00     0.100 A 
ATOM     27  O   UNL     1      39.634  23.901  14.906  1.00  0.00    -0.289 OA
BRANCH  18  28
ATOM     28  O   UNL     1      42.213  23.922   9.420  1.00  0.00    -0.490 OA
ATOM     29  C   UNL     1      42.991  24.960   8.831  1.00  0.00     0.278 C 
ENDBRANCH  18  28
BRANCH  21  30
ATOM     30  O   UNL     1      37.941  24.506  13.034  1.00  0.00    -0.507 OA
ATOM     31  H   UNL     1      37.598  25.415  13.324  1.00  0.00     0.293 HD
ENDBRANCH  21  30
BRANCH  25  32
ATOM     32  C   UNL     1      44.253  23.023  13.938  1.00  0.00     0.017 A 
ATOM     33  C   UNL     1      44.889  21.909  13.360  1.00  0.00     0.012 A 
ATOM     34  C   UNL     1      44.939  23.767  14.917  1.00  0.00     0.012 A 
ATOM     35  C   UNL     1      46.185  21.554  13.746  1.00  0.00     0.001 A 
ATOM     36  C   UNL     1      46.235  23.407  15.301  1.00  0.00     0.001 A 
ATOM     37  C   UNL     1      46.858  22.302  14.716  1.00  0.00     0.000 A 
ENDBRANCH  25  32
ENDBRANCH   1  17
TORSDOF 9
ENDMDL
MODEL 7
REMARK VINA RESULT:    -3.764      2.875      8.710
REMARK INTER + INTRA:          -6.582
REMARK INTER:                  -6.085
REMARK INTRA:                  -0.498
REMARK UNBOUND:                -1.278
REMARK SMILES COc1c(O[C@H]2O[C@@H](C(=O)[O-])[C@H](O)[C@H](O)[C@H]2O)cc(O)c2c(=O)cc(-c3ccccc3)oc12
REMARK SMILES IDX 5 1 6 2 8 3 12 4 7 5 14 6 16 7 9 8 10 9 11 10 13 11 15 13
REMARK SMILES IDX 17 15 4 17 3 18 18 19 33 20 19 21 21 22 32 23 22 24 25 25
REMARK SMILES IDX 24 26 23 27 2 28 1 29 20 30 26 32 27 33 31 34 28 35 30 36
REMARK SMILES IDX 29 37
REMARK H PARENT 13 12 15 14 17 16 20 31
REMARK Flexibility Score: inf
ROOT
ATOM      1  O   UNL     1      40.563  24.785  11.310  1.00  0.00    -0.458 OA
ENDROOT
BRANCH   1   2
ATOM      2  C   UNL     1      40.074  25.579  12.396  1.00  0.00     0.339 C 
ATOM      3  C   UNL     1      38.770  23.860  13.408  1.00  0.00     0.199 C 
ATOM      4  C   UNL     1      39.753  23.731  14.600  1.00  0.00     0.180 C 
ATOM      5  O   UNL     1      38.782  25.152  12.811  1.00  0.00    -0.328 OA
ATOM      6  C   UNL     1      41.165  24.197  14.207  1.00  0.00     0.181 C 
ATOM      7  C   UNL     1      41.080  25.589  13.562  1.00  0.00     0.214 C 
BRANCH   3   8
ATOM      8  C   UNL     1      38.885  22.761  12.378  1.00  0.00     0.073 C 
ATOM      9  O   UNL     1      38.332  22.904  11.255  1.00  0.00    -0.547 OA
ATOM     10  O   UNL     1      39.577  21.587  12.647  1.00  0.00    -0.547 OA
ENDBRANCH   3   8
BRANCH   4  11
ATOM     11  O   UNL     1      39.268  24.510  15.667  1.00  0.00    -0.387 OA
ATOM     12  H   UNL     1      38.687  25.214  15.275  1.00  0.00     0.211 HD
ENDBRANCH   4  11
BRANCH   6  13
ATOM     13  O   UNL     1      41.985  24.240  15.347  1.00  0.00    -0.387 OA
ATOM     14  H   UNL     1      41.533  23.701  16.050  1.00  0.00     0.211 HD
ENDBRANCH   6  13
BRANCH   7  15
ATOM     15  O   UNL     1      42.344  26.038  13.133  1.00  0.00    -0.384 OA
ATOM     16  H   UNL     1      42.401  25.903  12.151  1.00  0.00     0.211 HD
ENDBRANCH   7  15
ENDBRANCH   1   2
BRANCH   1  17
ATOM     17  C   UNL     1      41.206  25.279  10.162  1.00  0.00     0.172 A 
ATOM     18  C   UNL     1      40.478  25.314   8.966  1.00  0.00     0.205 A 
ATOM     19  C   UNL     1      42.539  25.721  10.187  1.00  0.00     0.097 A 
ATOM     20  C   UNL     1      41.086  25.819   7.789  1.00  0.00     0.188 A 
ATOM     21  C   UNL     1      43.160  26.195   9.029  1.00  0.00     0.134 A 
ATOM     22  C   UNL     1      42.437  26.252   7.817  1.00  0.00     0.111 A 
ATOM     23  O   UNL     1      40.395  25.889   6.653  1.00  0.00    -0.452 OA
ATOM     24  C   UNL     1      43.004  26.729   6.616  1.00  0.00     0.197 A 
ATOM     25  C   UNL     1      40.902  26.331   5.504  1.00  0.00     0.138 A 
ATOM     26  C   UNL     1      42.231  26.768   5.458  1.00  0.00     0.100 A 
ATOM     27  O   UNL     1      44.201  27.123   6.563  1.00  0.00    -0.289 OA
BRANCH  18  28
ATOM     28  O   UNL     1      39.160  24.818   9.015  1.00  0.00    -0.490 OA
ATOM     29  C   UNL     1      37.968  25.562   8.781  1.00  0.00     0.278 C 
ENDBRANCH  18  28
BRANCH  21  30
ATOM     30  O   UNL     1      44.493  26.608   9.089  1.00  0.00    -0.507 OA
ATOM     31  H   UNL     1      44.899  27.209   8.381  1.00  0.00     0.293 HD
ENDBRANCH  21  30
BRANCH  25  32
ATOM     32  C   UNL     1      40.039  26.353   4.298  1.00  0.00     0.017 A 
ATOM     33  C   UNL     1      38.698  25.942   4.394  1.00  0.00     0.012 A 
ATOM     34  C   UNL     1      40.542  26.748   3.044  1.00  0.00     0.012 A 
ATOM     35  C   UNL     1      37.876  25.935   3.264  1.00  0.00     0.001 A 
ATOM     36  C   UNL     1      39.717  26.738   1.915  1.00  0.00     0.001 A 
ATOM     37  C   UNL     1      38.384  26.332   2.025  1.00  0.00     0.000 A 
ENDBRANCH  25  32
ENDBRANCH   1  17
TORSDOF 9
ENDMDL
MODEL 8
REMARK VINA RESULT:    -3.209      1.058      2.152
REMARK INTER + INTRA:          -5.800
REMARK INTER:                  -6.267
REMARK INTRA:                   0.468
REMARK UNBOUND:                -1.278
REMARK SMILES COc1c(O[C@H]2O[C@@H](C(=O)[O-])[C@H](O)[C@H](O)[C@H]2O)cc(O)c2c(=O)cc(-c3ccccc3)oc12
REMARK SMILES IDX 5 1 6 2 8 3 12 4 7 5 14 6 16 7 9 8 10 9 11 10 13 11 15 13
REMARK SMILES IDX 17 15 4 17 3 18 18 19 33 20 19 21 21 22 32 23 22 24 25 25
REMARK SMILES IDX 24 26 23 27 2 28 1 29 20 30 26 32 27 33 31 34 28 35 30 36
REMARK SMILES IDX 29 37
REMARK H PARENT 13 12 15 14 17 16 20 31
REMARK Flexibility Score: inf
ROOT
ATOM      1  O   UNL     1      40.426  24.781   8.043  1.00  0.00    -0.458 OA
ENDROOT
BRANCH   1   2
ATOM      2  C   UNL     1      41.337  24.274   7.063  1.00  0.00     0.339 C 
ATOM      3  C   UNL     1      39.782  22.814   5.997  1.00  0.00     0.199 C 
ATOM      4  C   UNL     1      39.708  23.714   4.736  1.00  0.00     0.180 C 
ATOM      5  O   UNL     1      41.015  22.936   6.699  1.00  0.00    -0.328 OA
ATOM      6  C   UNL     1      40.064  25.171   5.074  1.00  0.00     0.181 C 
ATOM      7  C   UNL     1      41.397  25.205   5.838  1.00  0.00     0.214 C 
BRANCH   3   8
ATOM      8  C   UNL     1      38.593  22.929   6.921  1.00  0.00     0.073 C 
ATOM      9  O   UNL     1      37.875  23.963   6.883  1.00  0.00    -0.547 OA
ATOM     10  O   UNL     1      38.282  21.921   7.826  1.00  0.00    -0.547 OA
ENDBRANCH   3   8
BRANCH   4  11
ATOM     11  O   UNL     1      40.602  23.210   3.773  1.00  0.00    -0.387 OA
ATOM     12  H   UNL     1      40.929  22.334   4.108  1.00  0.00     0.211 HD
ENDBRANCH   4  11
BRANCH   6  13
ATOM     13  O   UNL     1      40.164  25.921   3.890  1.00  0.00    -0.387 OA
ATOM     14  H   UNL     1      39.247  25.998   3.516  1.00  0.00     0.211 HD
ENDBRANCH   6  13
BRANCH   7  15
ATOM     15  O   UNL     1      41.741  26.516   6.220  1.00  0.00    -0.384 OA
ATOM     16  H   UNL     1      41.508  27.125   5.471  1.00  0.00     0.211 HD
ENDBRANCH   7  15
ENDBRANCH   1   2
BRANCH   1  17
ATOM     17  C   UNL     1      40.400  24.415   9.400  1.00  0.00     0.172 A 
ATOM     18  C   UNL     1      41.623  24.161  10.034  1.00  0.00     0.205 A 
ATOM     19  C   UNL     1      39.198  24.293  10.116  1.00  0.00     0.097 A 
ATOM     20  C   UNL     1      41.641  23.803  11.406  1.00  0.00     0.188 A 
ATOM     21  C   UNL     1      39.199  23.914  11.461  1.00  0.00     0.134 A 
ATOM     22  C   UNL     1      40.423  23.668  12.121  1.00  0.00     0.111 A 
ATOM     23  O   UNL     1      42.798  23.590  12.030  1.00  0.00    -0.452 OA
ATOM     24  C   UNL     1      40.491  23.292  13.479  1.00  0.00     0.197 A 
ATOM     25  C   UNL     1      42.895  23.231  13.307  1.00  0.00     0.138 A 
ATOM     26  C   UNL     1      41.733  23.074  14.072  1.00  0.00     0.100 A 
ATOM     27  O   UNL     1      39.450  23.146  14.176  1.00  0.00    -0.289 OA
BRANCH  18  28
ATOM     28  O   UNL     1      42.781  24.267   9.238  1.00  0.00    -0.490 OA
ATOM     29  C   UNL     1      43.499  25.463   8.948  1.00  0.00     0.278 C 
ENDBRANCH  18  28
BRANCH  21  30
ATOM     30  O   UNL     1      37.982  23.786  12.135  1.00  0.00    -0.507 OA
ATOM     31  H   UNL     1      37.130  23.523  11.653  1.00  0.00     0.293 HD
ENDBRANCH  21  30
BRANCH  25  32
ATOM     32  C   UNL     1      44.240  23.011  13.893  1.00  0.00     0.017 A 
ATOM     33  C   UNL     1      44.650  23.773  15.002  1.00  0.00     0.012 A 
ATOM     34  C   UNL     1      45.135  22.073  13.342  1.00  0.00     0.012 A 
ATOM     35  C   UNL     1      45.922  23.595  15.552  1.00  0.00     0.001 A 
ATOM     36  C   UNL     1      46.407  21.900  13.896  1.00  0.00     0.001 A 
ATOM     37  C   UNL     1      46.801  22.659  15.001  1.00  0.00     0.000 A 
ENDBRANCH  25  32
ENDBRANCH   1  17
TORSDOF 9
ENDMDL
MODEL 9
REMARK VINA RESULT:    -3.208      2.839      8.565
REMARK INTER + INTRA:          -5.798
REMARK INTER:                  -4.817
REMARK INTRA:                  -0.981
REMARK UNBOUND:                -1.278
REMARK SMILES COc1c(O[C@H]2O[C@@H](C(=O)[O-])[C@H](O)[C@H](O)[C@H]2O)cc(O)c2c(=O)cc(-c3ccccc3)oc12
REMARK SMILES IDX 5 1 6 2 8 3 12 4 7 5 14 6 16 7 9 8 10 9 11 10 13 11 15 13
REMARK SMILES IDX 17 15 4 17 3 18 18 19 33 20 19 21 21 22 32 23 22 24 25 25
REMARK SMILES IDX 24 26 23 27 2 28 1 29 20 30 26 32 27 33 31 34 28 35 30 36
REMARK SMILES IDX 29 37
REMARK H PARENT 13 12 15 14 17 16 20 31
REMARK Flexibility Score: inf
ROOT
ATOM      1  O   UNL     1      40.438  23.885  10.906  1.00  0.00    -0.458 OA
ENDROOT
BRANCH   1   2
ATOM      2  C   UNL     1      41.125  23.247  11.988  1.00  0.00     0.339 C 
ATOM      3  C   UNL     1      40.539  24.853  13.649  1.00  0.00     0.199 C 
ATOM      4  C   UNL     1      39.564  23.869  14.346  1.00  0.00     0.180 C 
ATOM      5  O   UNL     1      41.586  24.197  12.942  1.00  0.00    -0.328 OA
ATOM      6  C   UNL     1      39.048  22.809  13.358  1.00  0.00     0.181 C 
ATOM      7  C   UNL     1      40.241  22.165  12.634  1.00  0.00     0.214 C 
BRANCH   3   8
ATOM      8  C   UNL     1      39.867  25.913  12.807  1.00  0.00     0.073 C 
ATOM      9  O   UNL     1      40.561  26.832  12.298  1.00  0.00    -0.547 OA
ATOM     10  O   UNL     1      38.494  25.902  12.594  1.00  0.00    -0.547 OA
ENDBRANCH   3   8
BRANCH   4  11
ATOM     11  O   UNL     1      40.242  23.246  15.410  1.00  0.00    -0.387 OA
ATOM     12  H   UNL     1      40.279  22.275  15.206  1.00  0.00     0.211 HD
ENDBRANCH   4  11
BRANCH   6  13
ATOM     13  O   UNL     1      38.316  21.831  14.052  1.00  0.00    -0.387 OA
ATOM     14  H   UNL     1      38.546  20.953  13.647  1.00  0.00     0.211 HD
ENDBRANCH   6  13
BRANCH   7  15
ATOM     15  O   UNL     1      39.818  21.223  11.676  1.00  0.00    -0.384 OA
ATOM     16  H   UNL     1      40.260  21.441  10.815  1.00  0.00     0.211 HD
ENDBRANCH   7  15
ENDBRANCH   1   2
BRANCH   1  17
ATOM     17  C   UNL     1      41.050  24.548   9.829  1.00  0.00     0.172 A 
ATOM     18  C   UNL     1      40.325  24.670   8.636  1.00  0.00     0.205 A 
ATOM     19  C   UNL     1      42.350  25.072   9.917  1.00  0.00     0.097 A 
ATOM     20  C   UNL     1      40.901  25.344   7.530  1.00  0.00     0.188 A 
ATOM     21  C   UNL     1      42.941  25.715   8.826  1.00  0.00     0.134 A 
ATOM     22  C   UNL     1      42.219  25.860   7.621  1.00  0.00     0.111 A 
ATOM     23  O   UNL     1      40.210  25.496   6.401  1.00  0.00    -0.452 OA
ATOM     24  C   UNL     1      42.757  26.506   6.488  1.00  0.00     0.197 A 
ATOM     25  C   UNL     1      40.690  26.097   5.316  1.00  0.00     0.138 A 
ATOM     26  C   UNL     1      41.987  26.625   5.333  1.00  0.00     0.100 A 
ATOM     27  O   UNL     1      43.925  26.984   6.492  1.00  0.00    -0.289 OA
BRANCH  18  28
ATOM     28  O   UNL     1      39.043  24.084   8.615  1.00  0.00    -0.490 OA
ATOM     29  C   UNL     1      38.719  22.780   8.140  1.00  0.00     0.278 C 
ENDBRANCH  18  28
BRANCH  21  30
ATOM     30  O   UNL     1      44.243  26.207   8.948  1.00  0.00    -0.507 OA
ATOM     31  H   UNL     1      45.029  25.597   9.139  1.00  0.00     0.293 HD
ENDBRANCH  21  30
BRANCH  25  32
ATOM     32  C   UNL     1      39.831  26.198   4.111  1.00  0.00     0.017 A 
ATOM     33  C   UNL     1      38.684  25.392   4.004  1.00  0.00     0.012 A 
ATOM     34  C   UNL     1      40.157  27.064   3.049  1.00  0.00     0.012 A 
ATOM     35  C   UNL     1      37.875  25.458   2.866  1.00  0.00     0.001 A 
ATOM     36  C   UNL     1      39.345  27.125   1.911  1.00  0.00     0.001 A 
ATOM     37  C   UNL     1      38.205  26.323   1.820  1.00  0.00     0.000 A 
ENDBRANCH  25  32
ENDBRANCH   1  17
TORSDOF 9
ENDMDL
