MODEL 1
REMARK VINA RESULT:    -3.707      0.000      0.000
REMARK INTER + INTRA:          -4.694
REMARK INTER:                  -4.574
REMARK INTRA:                  -0.120
REMARK UNBOUND:                -0.120
REMARK SMILES CCCCCC(=O)[O-]
REMARK SMILES IDX 4 1 5 2 6 3 7 4 8 5 3 6 2 7 1 8
REMARK H PARENT
REMARK Flexibility Score: inf
ROOT
ATOM      1  C   UNL     1       2.913 -37.205  16.744  1.00  0.00     0.006 C 
ENDROOT
BRANCH   1   2
ATOM      2  C   UNL     1       3.634 -36.772  18.031  1.00  0.00     0.053 C 
BRANCH   2   3
ATOM      3  C   UNL     1       2.984 -37.341  19.255  1.00  0.00     0.041 C 
ATOM      4  O   UNL     1       1.819 -37.815  19.193  1.00  0.00    -0.550 OA
ATOM      5  O   UNL     1       3.679 -37.377  20.457  1.00  0.00    -0.550 OA
ENDBRANCH   2   3
ENDBRANCH   1   2
BRANCH   1   6
ATOM      6  C   UNL     1       2.598 -36.050  15.776  1.00  0.00     0.000 C 
BRANCH   6   7
ATOM      7  C   UNL     1       3.009 -36.359  14.329  1.00  0.00    -0.003 C 
ATOM      8  C   UNL     1       4.088 -37.437  14.283  1.00  0.00     0.004 C 
ENDBRANCH   6   7
ENDBRANCH   1   6
TORSDOF 4
ENDMDL
MODEL 2
REMARK VINA RESULT:    -3.678      1.465      1.642
REMARK INTER + INTRA:          -4.658
REMARK INTER:                  -4.574
REMARK INTRA:                  -0.084
REMARK UNBOUND:                -0.120
REMARK SMILES CCCCCC(=O)[O-]
REMARK SMILES IDX 4 1 5 2 6 3 7 4 8 5 3 6 2 7 1 8
REMARK H PARENT
REMARK Flexibility Score: inf
ROOT
ATOM      1  C   UNL     1       3.464 -36.284  17.173  1.00  0.00     0.006 C 
ENDROOT
BRANCH   1   2
ATOM      2  C   UNL     1       3.441 -37.167  18.431  1.00  0.00     0.053 C 
BRANCH   2   3
ATOM      3  C   UNL     1       4.504 -36.775  19.410  1.00  0.00     0.041 C 
ATOM      4  O   UNL     1       4.819 -35.564  19.553  1.00  0.00    -0.550 OA
ATOM      5  O   UNL     1       5.125 -37.744  20.189  1.00  0.00    -0.550 OA
ENDBRANCH   2   3
ENDBRANCH   1   2
BRANCH   1   6
ATOM      6  C   UNL     1       2.402 -36.652  16.122  1.00  0.00     0.000 C 
BRANCH   6   7
ATOM      7  C   UNL     1       2.847 -36.328  14.688  1.00  0.00    -0.003 C 
ATOM      8  C   UNL     1       3.967 -37.262  14.238  1.00  0.00     0.004 C 
ENDBRANCH   6   7
ENDBRANCH   1   6
TORSDOF 4
ENDMDL
MODEL 3
REMARK VINA RESULT:    -3.641      2.579      4.821
REMARK INTER + INTRA:          -4.612
REMARK INTER:                  -4.568
REMARK INTRA:                  -0.044
REMARK UNBOUND:                -0.120
REMARK SMILES CCCCCC(=O)[O-]
REMARK SMILES IDX 4 1 5 2 6 3 7 4 8 5 3 6 2 7 1 8
REMARK H PARENT
REMARK Flexibility Score: inf
ROOT
ATOM      1  C   UNL     1       3.927 -37.078  18.724  1.00  0.00     0.006 C 
ENDROOT
BRANCH   1   2
ATOM      2  C   UNL     1       2.548 -37.307  18.085  1.00  0.00     0.053 C 
BRANCH   2   3
ATOM      3  C   UNL     1       2.537 -36.944  16.632  1.00  0.00     0.041 C 
ATOM      4  O   UNL     1       3.330 -37.507  15.831  1.00  0.00    -0.550 OA
ATOM      5  O   UNL     1       1.629 -36.006  16.156  1.00  0.00    -0.550 OA
ENDBRANCH   2   3
ENDBRANCH   1   2
BRANCH   1   6
ATOM      6  C   UNL     1       3.895 -36.909  20.254  1.00  0.00     0.000 C 
BRANCH   6   7
ATOM      7  C   UNL     1       4.656 -35.662  20.729  1.00  0.00    -0.003 C 
ATOM      8  C   UNL     1       4.599 -35.531  22.248  1.00  0.00     0.004 C 
ENDBRANCH   6   7
ENDBRANCH   1   6
TORSDOF 4
ENDMDL
MODEL 4
REMARK VINA RESULT:    -3.626      1.425      1.922
REMARK INTER + INTRA:          -4.593
REMARK INTER:                  -4.504
REMARK INTRA:                  -0.089
REMARK UNBOUND:                -0.120
REMARK SMILES CCCCCC(=O)[O-]
REMARK SMILES IDX 4 1 5 2 6 3 7 4 8 5 3 6 2 7 1 8
REMARK H PARENT
REMARK Flexibility Score: inf
ROOT
ATOM      1  C   UNL     1       2.458 -37.382  18.530  1.00  0.00     0.006 C 
ENDROOT
BRANCH   1   2
ATOM      2  C   UNL     1       3.926 -37.103  18.895  1.00  0.00     0.053 C 
BRANCH   2   3
ATOM      3  C   UNL     1       4.095 -36.815  20.355  1.00  0.00     0.041 C 
ATOM      4  O   UNL     1       4.062 -37.752  21.195  1.00  0.00    -0.550 OA
ATOM      5  O   UNL     1       4.321 -35.513  20.784  1.00  0.00    -0.550 OA
ENDBRANCH   2   3
ENDBRANCH   1   2
BRANCH   1   6
ATOM      6  C   UNL     1       2.072 -36.965  17.100  1.00  0.00     0.000 C 
BRANCH   6   7
ATOM      7  C   UNL     1       3.211 -37.175  16.091  1.00  0.00    -0.003 C 
ATOM      8  C   UNL     1       3.007 -36.316  14.847  1.00  0.00     0.004 C 
ENDBRANCH   6   7
ENDBRANCH   1   6
TORSDOF 4
ENDMDL
MODEL 5
REMARK VINA RESULT:    -3.448      2.169      3.079
REMARK INTER + INTRA:          -4.374
REMARK INTER:                  -4.323
REMARK INTRA:                  -0.051
REMARK UNBOUND:                -0.120
REMARK SMILES CCCCCC(=O)[O-]
REMARK SMILES IDX 4 1 5 2 6 3 7 4 8 5 3 6 2 7 1 8
REMARK H PARENT
REMARK Flexibility Score: inf
ROOT
ATOM      1  C   UNL     1       3.524 -37.092  19.466  1.00  0.00     0.006 C 
ENDROOT
BRANCH   1   2
ATOM      2  C   UNL     1       4.665 -36.264  20.079  1.00  0.00     0.053 C 
BRANCH   2   3
ATOM      3  C   UNL     1       4.693 -36.369  21.572  1.00  0.00     0.041 C 
ATOM      4  O   UNL     1       4.791 -37.494  22.127  1.00  0.00    -0.550 OA
ATOM      5  O   UNL     1       4.644 -35.219  22.351  1.00  0.00    -0.550 OA
ENDBRANCH   2   3
ENDBRANCH   1   2
BRANCH   1   6
ATOM      6  C   UNL     1       3.473 -37.059  17.928  1.00  0.00     0.000 C 
BRANCH   6   7
ATOM      7  C   UNL     1       2.039 -37.095  17.379  1.00  0.00    -0.003 C 
ATOM      8  C   UNL     1       1.919 -36.266  16.104  1.00  0.00     0.004 C 
ENDBRANCH   6   7
ENDBRANCH   1   6
TORSDOF 4
ENDMDL
MODEL 6
REMARK VINA RESULT:    -2.919      3.422      4.917
REMARK INTER + INTRA:          -3.721
REMARK INTER:                  -3.660
REMARK INTRA:                  -0.061
REMARK UNBOUND:                -0.120
REMARK SMILES CCCCCC(=O)[O-]
REMARK SMILES IDX 4 1 5 2 6 3 7 4 8 5 3 6 2 7 1 8
REMARK H PARENT
REMARK Flexibility Score: inf
ROOT
ATOM      1  C   UNL     1       4.432 -37.617  21.375  1.00  0.00     0.006 C 
ENDROOT
BRANCH   1   2
ATOM      2  C   UNL     1       5.118 -37.167  22.675  1.00  0.00     0.053 C 
BRANCH   2   3
ATOM      3  C   UNL     1       5.100 -38.241  23.719  1.00  0.00     0.041 C 
ATOM      4  O   UNL     1       5.125 -39.454  23.381  1.00  0.00    -0.550 OA
ATOM      5  O   UNL     1       5.087 -37.901  25.066  1.00  0.00    -0.550 OA
ENDBRANCH   2   3
ENDBRANCH   1   2
BRANCH   1   6
ATOM      6  C   UNL     1       5.036 -37.006  20.097  1.00  0.00     0.000 C 
BRANCH   6   7
ATOM      7  C   UNL     1       3.978 -36.360  19.191  1.00  0.00    -0.003 C 
ATOM      8  C   UNL     1       3.437 -37.364  18.177  1.00  0.00     0.004 C 
ENDBRANCH   6   7
ENDBRANCH   1   6
TORSDOF 4
ENDMDL
MODEL 7
REMARK VINA RESULT:    -2.910      3.966      6.698
REMARK INTER + INTRA:          -3.711
REMARK INTER:                  -3.661
REMARK INTRA:                  -0.050
REMARK UNBOUND:                -0.120
REMARK SMILES CCCCCC(=O)[O-]
REMARK SMILES IDX 4 1 5 2 6 3 7 4 8 5 3 6 2 7 1 8
REMARK H PARENT
REMARK Flexibility Score: inf
ROOT
ATOM      1  C   UNL     1       4.507 -37.794  22.042  1.00  0.00     0.006 C 
ENDROOT
BRANCH   1   2
ATOM      2  C   UNL     1       5.005 -37.121  20.752  1.00  0.00     0.053 C 
BRANCH   2   3
ATOM      3  C   UNL     1       3.947 -37.089  19.693  1.00  0.00     0.041 C 
ATOM      4  O   UNL     1       2.789 -37.515  19.939  1.00  0.00    -0.550 OA
ATOM      5  O   UNL     1       4.233 -36.557  18.441  1.00  0.00    -0.550 OA
ENDBRANCH   2   3
ENDBRANCH   1   2
BRANCH   1   6
ATOM      6  C   UNL     1       5.125 -37.225  23.331  1.00  0.00     0.000 C 
BRANCH   6   7
ATOM      7  C   UNL     1       5.062 -38.213  24.506  1.00  0.00    -0.003 C 
ATOM      8  C   UNL     1       5.124 -37.479  25.843  1.00  0.00     0.004 C 
ENDBRANCH   6   7
ENDBRANCH   1   6
TORSDOF 4
ENDMDL
MODEL 8
REMARK VINA RESULT:    -2.667      2.562      4.371
REMARK INTER + INTRA:          -3.410
REMARK INTER:                  -3.395
REMARK INTRA:                  -0.015
REMARK UNBOUND:                -0.120
REMARK SMILES CCCCCC(=O)[O-]
REMARK SMILES IDX 4 1 5 2 6 3 7 4 8 5 3 6 2 7 1 8
REMARK H PARENT
REMARK Flexibility Score: inf
ROOT
ATOM      1  C   UNL     1       3.475 -36.265  17.618  1.00  0.00     0.006 C 
ENDROOT
BRANCH   1   2
ATOM      2  C   UNL     1       3.396 -36.965  16.251  1.00  0.00     0.053 C 
BRANCH   2   3
ATOM      3  C   UNL     1       2.374 -36.333  15.357  1.00  0.00     0.041 C 
ATOM      4  O   UNL     1       1.383 -35.733  15.851  1.00  0.00    -0.550 OA
ATOM      5  O   UNL     1       2.532 -36.381  13.977  1.00  0.00    -0.550 OA
ENDBRANCH   2   3
ENDBRANCH   1   2
BRANCH   1   6
ATOM      6  C   UNL     1       3.923 -37.180  18.772  1.00  0.00     0.000 C 
BRANCH   6   7
ATOM      7  C   UNL     1       2.768 -37.562  19.710  1.00  0.00    -0.003 C 
ATOM      8  C   UNL     1       1.468 -37.744  18.933  1.00  0.00     0.004 C 
ENDBRANCH   6   7
ENDBRANCH   1   6
TORSDOF 4
ENDMDL
