MODEL 1
REMARK VINA RESULT:    -2.961      0.000      0.000
REMARK INTER + INTRA:          -4.005
REMARK INTER:                  -3.394
REMARK INTRA:                  -0.611
REMARK UNBOUND:                -0.611
REMARK SMILES C=C(C)[C@H]1CC[C@]2(C(=O)[O-])CC[C@]3(C)[C@@H](CC[C@H]4[C@]5(C)CC[C@H](O)C(C)(C)[C@@H]5CC[C@@]43C)[C@H]12
REMARK SMILES IDX 7 1 6 2 33 3 11 4 5 5 15 6 4 7 12 8 16 9 13 10 17 11 31 12
REMARK SMILES IDX 14 13 18 14 30 15 32 16 19 17 29 18 21 19 20 20 28 21 22 22
REMARK SMILES IDX 25 23 23 24 26 25 27 26 8 27 9 28 10 29 2 30 3 31 1 32 24 33
REMARK H PARENT 24 34
REMARK Flexibility Score: inf
ROOT
ATOM      1  C   UNL     1      41.537  18.777  -4.832  1.00  0.00     0.014 C 
ATOM      2  C   UNL     1      40.239  19.555  -4.550  1.00  0.00     0.014 C 
ATOM      3  C   UNL     1      41.743  17.938  -3.532  1.00  0.00     0.012 C 
ATOM      4  C   UNL     1      41.387  17.932  -6.122  1.00  0.00     0.014 C 
ATOM      5  C   UNL     1      40.247  19.878  -3.067  1.00  0.00     0.009 C 
ATOM      6  C   UNL     1      41.001  16.540  -3.566  1.00  0.00     0.000 C 
ATOM      7  C   UNL     1      41.231  18.892  -2.400  1.00  0.00     0.018 C 
ATOM      8  C   UNL     1      41.978  16.537  -5.968  1.00  0.00     0.008 C 
ATOM      9  C   UNL     1      41.223  15.737  -2.244  1.00  0.00     0.005 C 
ATOM     10  C   UNL     1      41.264  15.653  -4.889  1.00  0.00    -0.024 C 
ATOM     11  C   UNL     1      42.556  14.962  -2.142  1.00  0.00     0.005 C 
ATOM     12  C   UNL     1      42.147  14.314  -4.592  1.00  0.00    -0.024 C 
ATOM     13  C   UNL     1      39.875  15.256  -5.489  1.00  0.00     0.012 C 
ATOM     14  C   UNL     1      43.222  14.698  -3.509  1.00  0.00     0.002 C 
ATOM     15  C   UNL     1      42.855  13.719  -5.874  1.00  0.00     0.008 C 
ATOM     16  C   UNL     1      41.215  13.144  -4.093  1.00  0.00     0.012 C 
ATOM     17  C   UNL     1      44.562  13.852  -3.503  1.00  0.00    -0.026 C 
ATOM     18  C   UNL     1      44.325  14.113  -6.123  1.00  0.00     0.005 C 
ATOM     19  C   UNL     1      45.490  14.198  -2.284  1.00  0.00     0.010 C 
ATOM     20  C   UNL     1      44.286  12.327  -3.317  1.00  0.00     0.012 C 
ATOM     21  C   UNL     1      45.304  14.093  -4.892  1.00  0.00     0.003 C 
ATOM     22  C   UNL     1      46.291  15.475  -2.439  1.00  0.00     0.033 C 
ATOM     23  C   UNL     1      46.395  15.271  -4.968  1.00  0.00    -0.006 C 
ATOM     24  C   UNL     1      47.217  15.333  -3.645  1.00  0.00     0.120 C 
ATOM     25  C   UNL     1      45.826  16.693  -5.273  1.00  0.00     0.014 C 
ATOM     26  C   UNL     1      47.379  14.938  -6.120  1.00  0.00     0.014 C 
ENDROOT
BRANCH   1  27
ATOM     27  C   UNL     1      42.699  19.748  -5.033  1.00  0.00     0.048 C 
ATOM     28  O   UNL     1      43.822  19.335  -5.421  1.00  0.00    -0.550 OA
ATOM     29  O   UNL     1      42.499  21.121  -4.924  1.00  0.00    -0.550 OA
ENDBRANCH   1  27
BRANCH   7  30
ATOM     30  C   UNL     1      42.399  19.544  -1.644  1.00  0.00    -0.077 C 
ATOM     31  C   UNL     1      42.207  20.628  -0.605  1.00  0.00     0.039 C 
ATOM     32  C   UNL     1      43.643  19.078  -1.849  1.00  0.00     0.008 C 
ENDBRANCH   7  30
BRANCH  24  33
ATOM     33  O   UNL     1      48.123  16.411  -3.641  1.00  0.00    -0.393 OA
ATOM     34  H   UNL     1      48.096  16.829  -4.541  1.00  0.00     0.210 HD
ENDBRANCH  24  33
TORSDOF 3
ENDMDL
MODEL 2
REMARK VINA RESULT:    -2.865      2.934      6.648
REMARK INTER + INTRA:          -3.894
REMARK INTER:                  -3.599
REMARK INTRA:                  -0.295
REMARK UNBOUND:                -0.611
REMARK SMILES C=C(C)[C@H]1CC[C@]2(C(=O)[O-])CC[C@]3(C)[C@@H](CC[C@H]4[C@]5(C)CC[C@H](O)C(C)(C)[C@@H]5CC[C@@]43C)[C@H]12
REMARK SMILES IDX 7 1 6 2 33 3 11 4 5 5 15 6 4 7 12 8 16 9 13 10 17 11 31 12
REMARK SMILES IDX 14 13 18 14 30 15 32 16 19 17 29 18 21 19 20 20 28 21 22 22
REMARK SMILES IDX 25 23 23 24 26 25 27 26 8 27 9 28 10 29 2 30 3 31 1 32 24 33
REMARK H PARENT 24 34
REMARK Flexibility Score: inf
ROOT
ATOM      1  C   UNL     1      46.912  13.531  -4.836  1.00  0.00     0.014 C 
ATOM      2  C   UNL     1      48.422  13.627  -4.555  1.00  0.00     0.014 C 
ATOM      3  C   UNL     1      46.266  14.102  -3.535  1.00  0.00     0.012 C 
ATOM      4  C   UNL     1      46.556  14.314  -6.125  1.00  0.00     0.014 C 
ATOM      5  C   UNL     1      48.600  13.353  -3.072  1.00  0.00     0.009 C 
ATOM      6  C   UNL     1      46.084  15.674  -3.566  1.00  0.00     0.000 C 
ATOM      7  C   UNL     1      47.230  13.605  -2.405  1.00  0.00     0.018 C 
ATOM      8  C   UNL     1      45.277  15.127  -5.969  1.00  0.00     0.008 C 
ATOM      9  C   UNL     1      45.447  16.207  -2.242  1.00  0.00     0.005 C 
ATOM     10  C   UNL     1      45.364  16.258  -4.887  1.00  0.00    -0.024 C 
ATOM     11  C   UNL     1      43.910  16.088  -2.140  1.00  0.00     0.005 C 
ATOM     12  C   UNL     1      43.877  16.859  -4.589  1.00  0.00    -0.024 C 
ATOM     13  C   UNL     1      46.282  17.375  -5.486  1.00  0.00     0.012 C 
ATOM     14  C   UNL     1      43.210  15.931  -3.507  1.00  0.00     0.002 C 
ATOM     15  C   UNL     1      42.956  16.950  -5.871  1.00  0.00     0.008 C 
ATOM     16  C   UNL     1      43.981  18.350  -4.087  1.00  0.00     0.012 C 
ATOM     17  C   UNL     1      41.627  15.867  -3.501  1.00  0.00    -0.026 C 
ATOM     18  C   UNL     1      41.969  15.791  -6.121  1.00  0.00     0.005 C 
ATOM     19  C   UNL     1      41.060  15.053  -2.283  1.00  0.00     0.010 C 
ATOM     20  C   UNL     1      40.989  17.279  -3.312  1.00  0.00     0.012 C 
ATOM     21  C   UNL     1      41.153  15.250  -4.891  1.00  0.00     0.003 C 
ATOM     22  C   UNL     1      41.125  13.548  -2.442  1.00  0.00     0.033 C 
ATOM     23  C   UNL     1      40.922  13.661  -4.970  1.00  0.00    -0.006 C 
ATOM     24  C   UNL     1      40.282  13.141  -3.648  1.00  0.00     0.120 C 
ATOM     25  C   UNL     1      42.198  12.814  -5.277  1.00  0.00     0.014 C 
ATOM     26  C   UNL     1      39.923  13.379  -6.122  1.00  0.00     0.014 C 
ENDROOT
BRANCH   1  27
ATOM     27  C   UNL     1      46.507  12.072  -5.040  1.00  0.00     0.048 C 
ATOM     28  O   UNL     1      45.339  11.775  -5.404  1.00  0.00    -0.550 OA
ATOM     29  O   UNL     1      47.456  11.058  -4.962  1.00  0.00    -0.550 OA
ENDBRANCH   1  27
BRANCH   7  30
ATOM     30  C   UNL     1      46.639  12.404  -1.651  1.00  0.00    -0.077 C 
ATOM     31  C   UNL     1      45.375  11.695  -2.091  1.00  0.00     0.039 C 
ATOM     32  C   UNL     1      47.312  11.903  -0.602  1.00  0.00     0.008 C 
ENDBRANCH   7  30
BRANCH  24  33
ATOM     33  O   UNL     1      40.147  11.739  -3.647  1.00  0.00    -0.393 OA
ATOM     34  H   UNL     1      39.177  11.532  -3.685  1.00  0.00     0.210 HD
ENDBRANCH  24  33
TORSDOF 3
ENDMDL
MODEL 3
REMARK VINA RESULT:    -0.999      1.709      6.488
REMARK INTER + INTRA:          -1.755
REMARK INTER:                  -0.807
REMARK INTRA:                  -0.949
REMARK UNBOUND:                -0.611
REMARK SMILES C=C(C)[C@H]1CC[C@]2(C(=O)[O-])CC[C@]3(C)[C@@H](CC[C@H]4[C@]5(C)CC[C@H](O)C(C)(C)[C@@H]5CC[C@@]43C)[C@H]12
REMARK SMILES IDX 7 1 6 2 33 3 11 4 5 5 15 6 4 7 12 8 16 9 13 10 17 11 31 12
REMARK SMILES IDX 14 13 18 14 30 15 32 16 19 17 29 18 21 19 20 20 28 21 22 22
REMARK SMILES IDX 25 23 23 24 26 25 27 26 8 27 9 28 10 29 2 30 3 31 1 32 24 33
REMARK H PARENT 24 34
REMARK Flexibility Score: inf
ROOT
ATOM      1  C   UNL     1      46.419  12.660  -3.053  1.00  0.00     0.014 C 
ATOM      2  C   UNL     1      47.280  11.437  -3.417  1.00  0.00     0.014 C 
ATOM      3  C   UNL     1      45.791  13.078  -4.420  1.00  0.00     0.012 C 
ATOM      4  C   UNL     1      45.385  12.282  -1.962  1.00  0.00     0.014 C 
ATOM      5  C   UNL     1      47.836  11.702  -4.805  1.00  0.00     0.009 C 
ATOM      6  C   UNL     1      44.435  12.327  -4.740  1.00  0.00     0.000 C 
ATOM      7  C   UNL     1      46.933  12.776  -5.449  1.00  0.00     0.018 C 
ATOM      8  C   UNL     1      44.011  12.878  -2.242  1.00  0.00     0.008 C 
ATOM      9  C   UNL     1      43.846  12.765  -6.120  1.00  0.00     0.005 C 
ATOM     10  C   UNL     1      43.339  12.351  -3.556  1.00  0.00    -0.024 C 
ATOM     11  C   UNL     1      43.049  14.088  -6.123  1.00  0.00     0.005 C 
ATOM     12  C   UNL     1      42.032  13.259  -3.916  1.00  0.00    -0.024 C 
ATOM     13  C   UNL     1      42.903  10.876  -3.270  1.00  0.00     0.012 C 
ATOM     14  C   UNL     1      42.544  14.507  -4.726  1.00  0.00     0.002 C 
ATOM     15  C   UNL     1      41.213  13.730  -2.649  1.00  0.00     0.008 C 
ATOM     16  C   UNL     1      40.993  12.415  -4.749  1.00  0.00     0.012 C 
ATOM     17  C   UNL     1      41.660  15.820  -4.646  1.00  0.00    -0.026 C 
ATOM     18  C   UNL     1      41.508  15.140  -2.096  1.00  0.00     0.005 C 
ATOM     19  C   UNL     1      42.162  16.947  -5.619  1.00  0.00     0.010 C 
ATOM     20  C   UNL     1      40.196  15.565  -5.123  1.00  0.00     0.012 C 
ATOM     21  C   UNL     1      41.648  16.315  -3.132  1.00  0.00     0.003 C 
ATOM     22  C   UNL     1      43.366  17.721  -5.124  1.00  0.00     0.033 C 
ATOM     23  C   UNL     1      42.757  17.389  -2.682  1.00  0.00    -0.006 C 
ATOM     24  C   UNL     1      42.999  18.425  -3.820  1.00  0.00     0.120 C 
ATOM     25  C   UNL     1      44.132  16.790  -2.247  1.00  0.00     0.014 C 
ATOM     26  C   UNL     1      42.208  18.157  -1.452  1.00  0.00     0.014 C 
ENDROOT
BRANCH   1  27
ATOM     27  C   UNL     1      47.302  13.779  -2.504  1.00  0.00     0.048 C 
ATOM     28  O   UNL     1      47.056  14.983  -2.776  1.00  0.00    -0.550 OA
ATOM     29  O   UNL     1      48.307  13.499  -1.583  1.00  0.00    -0.550 OA
ENDBRANCH   1  27
BRANCH   7  30
ATOM     30  C   UNL     1      47.653  14.063  -5.881  1.00  0.00    -0.077 C 
ATOM     31  C   UNL     1      46.934  15.376  -6.102  1.00  0.00     0.039 C 
ATOM     32  C   UNL     1      48.993  14.050  -5.990  1.00  0.00     0.008 C 
ENDBRANCH   7  30
BRANCH  24  33
ATOM     33  O   UNL     1      44.029  19.330  -3.495  1.00  0.00    -0.393 OA
ATOM     34  H   UNL     1      44.777  18.805  -3.109  1.00  0.00     0.210 HD
ENDBRANCH  24  33
TORSDOF 3
ENDMDL
