MODEL 1
REMARK VINA RESULT:    -4.284      0.000      0.000
REMARK INTER + INTRA:          -6.737
REMARK INTER:                  -6.287
REMARK INTRA:                  -0.450
REMARK UNBOUND:                -0.450
REMARK SMILES O=C([O-])CCCCCCCC(=O)[O-]
REMARK SMILES IDX 7 1 6 2 5 3 4 4 2 5 1 6 3 7 8 8 9 9 10 10 11 11 12 12 13 13
REMARK H PARENT
REMARK Flexibility Score: inf
ROOT
ATOM      1  C   UNL     1      45.749   3.988 132.251  1.00  0.00     0.000 C 
ENDROOT
BRANCH   1   2
ATOM      2  C   UNL     1      46.057   3.164 133.511  1.00  0.00     0.000 C 
BRANCH   2   3
ATOM      3  C   UNL     1      44.906   2.224 133.898  1.00  0.00     0.006 C 
BRANCH   3   4
ATOM      4  C   UNL     1      43.877   2.125 132.767  1.00  0.00     0.053 C 
BRANCH   4   5
ATOM      5  C   UNL     1      43.874   0.749 132.179  1.00  0.00     0.041 C 
ATOM      6  O   UNL     1      42.850   0.315 131.588  1.00  0.00    -0.550 OA
ATOM      7  O   UNL     1      44.984  -0.074 132.329  1.00  0.00    -0.550 OA
ENDBRANCH   4   5
ENDBRANCH   3   4
ENDBRANCH   2   3
ENDBRANCH   1   2
BRANCH   1   8
ATOM      8  C   UNL     1      47.022   4.498 131.551  1.00  0.00     0.000 C 
BRANCH   8   9
ATOM      9  C   UNL     1      46.741   5.048 130.144  1.00  0.00     0.006 C 
BRANCH   9  10
ATOM     10  C   UNL     1      45.256   4.974 129.767  1.00  0.00     0.053 C 
BRANCH  10  11
ATOM     11  C   UNL     1      45.097   4.914 128.281  1.00  0.00     0.041 C 
ATOM     12  O   UNL     1      46.008   4.418 127.566  1.00  0.00    -0.550 OA
ATOM     13  O   UNL     1      43.965   5.450 127.681  1.00  0.00    -0.550 OA
ENDBRANCH  10  11
ENDBRANCH   9  10
ENDBRANCH   8   9
ENDBRANCH   1   8
TORSDOF 8
ENDMDL
MODEL 2
REMARK VINA RESULT:    -4.279      0.170      5.127
REMARK INTER + INTRA:          -6.730
REMARK INTER:                  -6.279
REMARK INTRA:                  -0.451
REMARK UNBOUND:                -0.450
REMARK SMILES O=C([O-])CCCCCCCC(=O)[O-]
REMARK SMILES IDX 7 1 6 2 5 3 4 4 2 5 1 6 3 7 8 8 9 9 10 10 11 11 12 12 13 13
REMARK H PARENT
REMARK Flexibility Score: inf
ROOT
ATOM      1  C   UNL     1      45.723   4.159 132.247  1.00  0.00     0.000 C 
ENDROOT
BRANCH   1   2
ATOM      2  C   UNL     1      47.021   4.454 131.480  1.00  0.00     0.000 C 
BRANCH   2   3
ATOM      3  C   UNL     1      46.771   5.198 130.159  1.00  0.00     0.006 C 
BRANCH   3   4
ATOM      4  C   UNL     1      45.287   5.153 129.779  1.00  0.00     0.053 C 
BRANCH   4   5
ATOM      5  C   UNL     1      45.129   4.922 128.309  1.00  0.00     0.041 C 
ATOM      6  O   UNL     1      44.029   5.161 127.746  1.00  0.00    -0.550 OA
ATOM      7  O   UNL     1      46.181   4.394 127.571  1.00  0.00    -0.550 OA
ENDBRANCH   4   5
ENDBRANCH   3   4
ENDBRANCH   2   3
ENDBRANCH   1   2
BRANCH   1   8
ATOM      8  C   UNL     1      45.977   3.456 133.592  1.00  0.00     0.000 C 
BRANCH   8   9
ATOM      9  C   UNL     1      45.028   2.270 133.827  1.00  0.00     0.006 C 
BRANCH   9  10
ATOM     10  C   UNL     1      43.961   2.144 132.733  1.00  0.00     0.053 C 
BRANCH  10  11
ATOM     11  C   UNL     1      43.889   0.736 132.233  1.00  0.00     0.041 C 
ATOM     12  O   UNL     1      44.882  -0.030 132.354  1.00  0.00    -0.550 OA
ATOM     13  O   UNL     1      42.744   0.284 131.590  1.00  0.00    -0.550 OA
ENDBRANCH  10  11
ENDBRANCH   9  10
ENDBRANCH   8   9
ENDBRANCH   1   8
TORSDOF 8
ENDMDL
MODEL 3
REMARK VINA RESULT:    -4.264      2.203      3.701
REMARK INTER + INTRA:          -6.709
REMARK INTER:                  -6.116
REMARK INTRA:                  -0.593
REMARK UNBOUND:                -0.450
REMARK SMILES O=C([O-])CCCCCCCC(=O)[O-]
REMARK SMILES IDX 7 1 6 2 5 3 4 4 2 5 1 6 3 7 8 8 9 9 10 10 11 11 12 12 13 13
REMARK H PARENT
REMARK Flexibility Score: inf
ROOT
ATOM      1  C   UNL     1      47.363   6.690 128.722  1.00  0.00     0.000 C 
ENDROOT
BRANCH   1   2
ATOM      2  C   UNL     1      47.569   5.305 129.355  1.00  0.00     0.000 C 
BRANCH   2   3
ATOM      3  C   UNL     1      46.538   4.998 130.451  1.00  0.00     0.006 C 
BRANCH   3   4
ATOM      4  C   UNL     1      47.200   4.298 131.643  1.00  0.00     0.053 C 
BRANCH   4   5
ATOM      5  C   UNL     1      46.185   3.529 132.428  1.00  0.00     0.041 C 
ATOM      6  O   UNL     1      46.549   2.789 133.380  1.00  0.00    -0.550 OA
ATOM      7  O   UNL     1      44.842   3.589 132.077  1.00  0.00    -0.550 OA
ENDBRANCH   4   5
ENDBRANCH   3   4
ENDBRANCH   2   3
ENDBRANCH   1   2
BRANCH   1   8
ATOM      8  C   UNL     1      46.082   7.384 129.219  1.00  0.00     0.000 C 
BRANCH   8   9
ATOM      9  C   UNL     1      45.018   7.516 128.118  1.00  0.00     0.006 C 
BRANCH   9  10
ATOM     10  C   UNL     1      43.803   6.612 128.359  1.00  0.00     0.053 C 
BRANCH  10  11
ATOM     11  C   UNL     1      43.778   5.495 127.364  1.00  0.00     0.041 C 
ATOM     12  O   UNL     1      44.564   4.519 127.489  1.00  0.00    -0.550 OA
ATOM     13  O   UNL     1      42.921   5.555 126.273  1.00  0.00    -0.550 OA
ENDBRANCH  10  11
ENDBRANCH   9  10
ENDBRANCH   8   9
ENDBRANCH   1   8
TORSDOF 8
ENDMDL
MODEL 4
REMARK VINA RESULT:    -4.218      2.100      5.587
REMARK INTER + INTRA:          -6.640
REMARK INTER:                  -6.087
REMARK INTRA:                  -0.553
REMARK UNBOUND:                -0.450
REMARK SMILES O=C([O-])CCCCCCCC(=O)[O-]
REMARK SMILES IDX 7 1 6 2 5 3 4 4 2 5 1 6 3 7 8 8 9 9 10 10 11 11 12 12 13 13
REMARK H PARENT
REMARK Flexibility Score: inf
ROOT
ATOM      1  C   UNL     1      47.377   6.301 128.533  1.00  0.00     0.000 C 
ENDROOT
BRANCH   1   2
ATOM      2  C   UNL     1      46.348   7.322 129.041  1.00  0.00     0.000 C 
BRANCH   2   3
ATOM      3  C   UNL     1      45.173   7.509 128.070  1.00  0.00     0.006 C 
BRANCH   3   4
ATOM      4  C   UNL     1      43.958   6.690 128.518  1.00  0.00     0.053 C 
BRANCH   4   5
ATOM      5  C   UNL     1      43.667   5.602 127.534  1.00  0.00     0.041 C 
ATOM      6  O   UNL     1      44.510   4.688 127.334  1.00  0.00    -0.550 OA
ATOM      7  O   UNL     1      42.488   5.625 126.799  1.00  0.00    -0.550 OA
ENDBRANCH   4   5
ENDBRANCH   3   4
ENDBRANCH   2   3
ENDBRANCH   1   2
BRANCH   1   8
ATOM      8  C   UNL     1      47.731   5.240 129.591  1.00  0.00     0.000 C 
BRANCH   8   9
ATOM      9  C   UNL     1      46.550   4.917 130.520  1.00  0.00     0.006 C 
BRANCH   9  10
ATOM     10  C   UNL     1      46.999   4.337 131.866  1.00  0.00     0.053 C 
BRANCH  10  11
ATOM     11  C   UNL     1      45.927   3.469 132.445  1.00  0.00     0.041 C 
ATOM     12  O   UNL     1      46.213   2.331 132.902  1.00  0.00    -0.550 OA
ATOM     13  O   UNL     1      44.606   3.896 132.435  1.00  0.00    -0.550 OA
ENDBRANCH  10  11
ENDBRANCH   9  10
ENDBRANCH   8   9
ENDBRANCH   1   8
TORSDOF 8
ENDMDL
MODEL 5
REMARK VINA RESULT:    -4.196      2.320      3.580
REMARK INTER + INTRA:          -6.608
REMARK INTER:                  -6.137
REMARK INTRA:                  -0.471
REMARK UNBOUND:                -0.450
REMARK SMILES O=C([O-])CCCCCCCC(=O)[O-]
REMARK SMILES IDX 7 1 6 2 5 3 4 4 2 5 1 6 3 7 8 8 9 9 10 10 11 11 12 12 13 13
REMARK H PARENT
REMARK Flexibility Score: inf
ROOT
ATOM      1  C   UNL     1      47.174   5.595 129.373  1.00  0.00     0.000 C 
ENDROOT
BRANCH   1   2
ATOM      2  C   UNL     1      46.456   4.875 130.525  1.00  0.00     0.000 C 
BRANCH   2   3
ATOM      3  C   UNL     1      47.430   4.339 131.585  1.00  0.00     0.006 C 
BRANCH   3   4
ATOM      4  C   UNL     1      46.789   3.206 132.393  1.00  0.00     0.053 C 
BRANCH   4   5
ATOM      5  C   UNL     1      45.654   3.728 133.217  1.00  0.00     0.041 C 
ATOM      6  O   UNL     1      45.876   4.511 134.178  1.00  0.00    -0.550 OA
ATOM      7  O   UNL     1      44.355   3.309 132.956  1.00  0.00    -0.550 OA
ENDBRANCH   4   5
ENDBRANCH   3   4
ENDBRANCH   2   3
ENDBRANCH   1   2
BRANCH   1   8
ATOM      8  C   UNL     1      46.622   5.199 127.991  1.00  0.00     0.000 C 
BRANCH   8   9
ATOM      9  C   UNL     1      45.184   4.662 128.063  1.00  0.00     0.006 C 
BRANCH   9  10
ATOM     10  C   UNL     1      44.232   5.398 127.112  1.00  0.00     0.053 C 
BRANCH  10  11
ATOM     11  C   UNL     1      43.388   6.374 127.870  1.00  0.00     0.041 C 
ATOM     12  O   UNL     1      42.133   6.275 127.850  1.00  0.00    -0.550 OA
ATOM     13  O   UNL     1      43.986   7.422 128.557  1.00  0.00    -0.550 OA
ENDBRANCH  10  11
ENDBRANCH   9  10
ENDBRANCH   8   9
ENDBRANCH   1   8
TORSDOF 8
ENDMDL
MODEL 6
REMARK VINA RESULT:    -4.152      1.443      2.253
REMARK INTER + INTRA:          -6.543
REMARK INTER:                  -6.144
REMARK INTRA:                  -0.399
REMARK UNBOUND:                -0.450
REMARK SMILES O=C([O-])CCCCCCCC(=O)[O-]
REMARK SMILES IDX 7 1 6 2 5 3 4 4 2 5 1 6 3 7 8 8 9 9 10 10 11 11 12 12 13 13
REMARK H PARENT
REMARK Flexibility Score: inf
ROOT
ATOM      1  C   UNL     1      46.184   4.867 130.367  1.00  0.00     0.000 C 
ENDROOT
BRANCH   1   2
ATOM      2  C   UNL     1      47.024   4.495 131.599  1.00  0.00     0.000 C 
BRANCH   2   3
ATOM      3  C   UNL     1      46.160   4.117 132.810  1.00  0.00     0.006 C 
BRANCH   3   4
ATOM      4  C   UNL     1      46.207   2.607 133.066  1.00  0.00     0.053 C 
BRANCH   4   5
ATOM      5  C   UNL     1      44.893   1.977 132.727  1.00  0.00     0.041 C 
ATOM      6  O   UNL     1      43.835   2.660 132.763  1.00  0.00    -0.550 OA
ATOM      7  O   UNL     1      44.829   0.623 132.423  1.00  0.00    -0.550 OA
ENDBRANCH   4   5
ENDBRANCH   3   4
ENDBRANCH   2   3
ENDBRANCH   1   2
BRANCH   1   8
ATOM      8  C   UNL     1      47.041   5.405 129.207  1.00  0.00     0.000 C 
BRANCH   8   9
ATOM      9  C   UNL     1      46.272   5.451 127.877  1.00  0.00     0.006 C 
BRANCH   9  10
ATOM     10  C   UNL     1      44.861   4.860 127.991  1.00  0.00     0.053 C 
BRANCH  10  11
ATOM     11  C   UNL     1      43.831   5.916 127.742  1.00  0.00     0.041 C 
ATOM     12  O   UNL     1      43.967   7.064 128.240  1.00  0.00    -0.550 OA
ATOM     13  O   UNL     1      42.695   5.617 127.000  1.00  0.00    -0.550 OA
ENDBRANCH  10  11
ENDBRANCH   9  10
ENDBRANCH   8   9
ENDBRANCH   1   8
TORSDOF 8
ENDMDL
MODEL 7
REMARK VINA RESULT:    -4.151      2.310      5.835
REMARK INTER + INTRA:          -6.542
REMARK INTER:                  -6.026
REMARK INTRA:                  -0.516
REMARK UNBOUND:                -0.450
REMARK SMILES O=C([O-])CCCCCCCC(=O)[O-]
REMARK SMILES IDX 7 1 6 2 5 3 4 4 2 5 1 6 3 7 8 8 9 9 10 10 11 11 12 12 13 13
REMARK H PARENT
REMARK Flexibility Score: inf
ROOT
ATOM      1  C   UNL     1      47.387   6.766 129.002  1.00  0.00     0.000 C 
ENDROOT
BRANCH   1   2
ATOM      2  C   UNL     1      47.139   6.732 127.486  1.00  0.00     0.000 C 
BRANCH   2   3
ATOM      3  C   UNL     1      45.700   7.119 127.113  1.00  0.00     0.006 C 
BRANCH   3   4
ATOM      4  C   UNL     1      44.767   5.907 127.205  1.00  0.00     0.053 C 
BRANCH   4   5
ATOM      5  C   UNL     1      43.556   6.239 128.018  1.00  0.00     0.041 C 
ATOM      6  O   UNL     1      43.682   6.689 129.187  1.00  0.00    -0.550 OA
ATOM      7  O   UNL     1      42.287   6.002 127.504  1.00  0.00    -0.550 OA
ENDBRANCH   4   5
ENDBRANCH   3   4
ENDBRANCH   2   3
ENDBRANCH   1   2
BRANCH   1   8
ATOM      8  C   UNL     1      47.646   5.367 129.590  1.00  0.00     0.000 C 
BRANCH   8   9
ATOM      9  C   UNL     1      46.499   4.885 130.492  1.00  0.00     0.006 C 
BRANCH   9  10
ATOM     10  C   UNL     1      46.995   4.349 131.841  1.00  0.00     0.053 C 
BRANCH  10  11
ATOM     11  C   UNL     1      45.955   3.476 132.470  1.00  0.00     0.041 C 
ATOM     12  O   UNL     1      46.230   2.286 132.777  1.00  0.00    -0.550 OA
ATOM     13  O   UNL     1      44.670   3.961 132.672  1.00  0.00    -0.550 OA
ENDBRANCH  10  11
ENDBRANCH   9  10
ENDBRANCH   8   9
ENDBRANCH   1   8
TORSDOF 8
ENDMDL
MODEL 8
REMARK VINA RESULT:    -4.121      1.441      5.642
REMARK INTER + INTRA:          -6.498
REMARK INTER:                  -6.095
REMARK INTRA:                  -0.402
REMARK UNBOUND:                -0.450
REMARK SMILES O=C([O-])CCCCCCCC(=O)[O-]
REMARK SMILES IDX 7 1 6 2 5 3 4 4 2 5 1 6 3 7 8 8 9 9 10 10 11 11 12 12 13 13
REMARK H PARENT
REMARK Flexibility Score: inf
ROOT
ATOM      1  C   UNL     1      46.156   4.888 130.370  1.00  0.00     0.000 C 
ENDROOT
BRANCH   1   2
ATOM      2  C   UNL     1      46.964   4.906 129.064  1.00  0.00     0.000 C 
BRANCH   2   3
ATOM      3  C   UNL     1      46.164   5.472 127.881  1.00  0.00     0.006 C 
BRANCH   3   4
ATOM      4  C   UNL     1      44.754   4.872 127.839  1.00  0.00     0.053 C 
BRANCH   4   5
ATOM      5  C   UNL     1      43.727   5.956 127.737  1.00  0.00     0.041 C 
ATOM      6  O   UNL     1      43.950   7.089 128.240  1.00  0.00    -0.550 OA
ATOM      7  O   UNL     1      42.503   5.699 127.133  1.00  0.00    -0.550 OA
ENDBRANCH   4   5
ENDBRANCH   3   4
ENDBRANCH   2   3
ENDBRANCH   1   2
BRANCH   1   8
ATOM      8  C   UNL     1      47.014   4.517 131.592  1.00  0.00     0.000 C 
BRANCH   8   9
ATOM      9  C   UNL     1      46.178   3.953 132.751  1.00  0.00     0.006 C 
BRANCH   9  10
ATOM     10  C   UNL     1      46.170   2.420 132.783  1.00  0.00     0.053 C 
BRANCH  10  11
ATOM     11  C   UNL     1      44.780   1.900 132.593  1.00  0.00     0.041 C 
ATOM     12  O   UNL     1      43.796   2.682 132.671  1.00  0.00    -0.550 OA
ATOM     13  O   UNL     1      44.568   0.544 132.379  1.00  0.00    -0.550 OA
ENDBRANCH  10  11
ENDBRANCH   9  10
ENDBRANCH   8   9
ENDBRANCH   1   8
TORSDOF 8
ENDMDL
MODEL 9
REMARK VINA RESULT:    -4.096      5.203      9.329
REMARK INTER + INTRA:          -6.461
REMARK INTER:                  -6.089
REMARK INTRA:                  -0.372
REMARK UNBOUND:                -0.450
REMARK SMILES O=C([O-])CCCCCCCC(=O)[O-]
REMARK SMILES IDX 7 1 6 2 5 3 4 4 2 5 1 6 3 7 8 8 9 9 10 10 11 11 12 12 13 13
REMARK H PARENT
REMARK Flexibility Score: inf
ROOT
ATOM      1  C   UNL     1      47.005   7.947 125.639  1.00  0.00     0.000 C 
ENDROOT
BRANCH   1   2
ATOM      2  C   UNL     1      48.096   8.290 124.612  1.00  0.00     0.000 C 
BRANCH   2   3
ATOM      3  C   UNL     1      47.717   9.485 123.725  1.00  0.00     0.006 C 
BRANCH   3   4
ATOM      4  C   UNL     1      46.224   9.806 123.848  1.00  0.00     0.053 C 
BRANCH   4   5
ATOM      5  C   UNL     1      46.021  11.267 124.099  1.00  0.00     0.041 C 
ATOM      6  O   UNL     1      47.005  12.007 124.360  1.00  0.00    -0.550 OA
ATOM      7  O   UNL     1      44.738  11.801 124.097  1.00  0.00    -0.550 OA
ENDBRANCH   4   5
ENDBRANCH   3   4
ENDBRANCH   2   3
ENDBRANCH   1   2
BRANCH   1   8
ATOM      8  C   UNL     1      47.550   7.143 126.834  1.00  0.00     0.000 C 
BRANCH   8   9
ATOM      9  C   UNL     1      46.458   6.323 127.539  1.00  0.00     0.006 C 
BRANCH   9  10
ATOM     10  C   UNL     1      45.148   7.103 127.704  1.00  0.00     0.053 C 
BRANCH  10  11
ATOM     11  C   UNL     1      43.989   6.163 127.807  1.00  0.00     0.041 C 
ATOM     12  O   UNL     1      44.109   4.967 127.432  1.00  0.00    -0.550 OA
ATOM     13  O   UNL     1      42.762   6.620 128.271  1.00  0.00    -0.550 OA
ENDBRANCH  10  11
ENDBRANCH   9  10
ENDBRANCH   8   9
ENDBRANCH   1   8
TORSDOF 8
ENDMDL
