MODEL 1
REMARK VINA RESULT:    47.201      0.000      0.000
REMARK INTER + INTRA:          57.331
REMARK INTER:                  56.859
REMARK INTRA:                   0.471
REMARK UNBOUND:                 0.471
REMARK SMILES O=c1c(O)c(-c2ccc(O)c(O)c2)oc2cc(O)cc(O)c12
REMARK SMILES IDX 5 1 3 2 2 3 1 4 22 5 20 6 19 7 17 8 16 9 15 10 14 11 6 12
REMARK SMILES IDX 7 13 8 14 9 15 13 16 11 17 10 18 12 20 4 22 21 24 18 26
REMARK H PARENT 10 19 12 21 4 23 21 25 18 27
REMARK Flexibility Score: inf
ROOT
ATOM      1  C   UNL     1      61.905  80.130  15.390  1.00  0.00     0.180 A 
ATOM      2  C   UNL     1      62.770  81.238  15.395  1.00  0.00     0.208 A 
ATOM      3  C   UNL     1      62.259  82.499  15.741  1.00  0.00     0.238 A 
ATOM      4  O   UNL     1      63.049  83.478  15.796  1.00  0.00    -0.285 OA
ATOM      5  C   UNL     1      60.888  82.641  16.064  1.00  0.00     0.111 A 
ATOM      6  C   UNL     1      60.255  83.877  16.390  1.00  0.00     0.134 A 
ATOM      7  C   UNL     1      58.922  83.879  16.821  1.00  0.00     0.093 A 
ATOM      8  C   UNL     1      58.181  82.699  16.872  1.00  0.00     0.123 A 
ATOM      9  C   UNL     1      58.772  81.492  16.497  1.00  0.00     0.094 A 
ATOM     10  C   UNL     1      60.111  81.454  16.100  1.00  0.00     0.146 A 
ATOM     11  O   UNL     1      60.639  80.283  15.761  1.00  0.00    -0.452 OA
ENDROOT
BRANCH   1  12
ATOM     12  C   UNL     1      62.363  78.775  15.013  1.00  0.00     0.025 A 
ATOM     13  C   UNL     1      63.718  78.508  14.745  1.00  0.00     0.016 A 
ATOM     14  C   UNL     1      64.124  77.226  14.366  1.00  0.00     0.051 A 
ATOM     15  C   UNL     1      63.183  76.196  14.236  1.00  0.00     0.157 A 
ATOM     16  C   UNL     1      61.422  77.743  14.859  1.00  0.00     0.062 A 
ATOM     17  C   UNL     1      61.826  76.458  14.481  1.00  0.00     0.158 A 
BRANCH  15  18
ATOM     18  O   UNL     1      63.591  74.917  13.859  1.00  0.00    -0.504 OA
ATOM     19  H   UNL     1      63.559  74.137  14.507  1.00  0.00     0.293 HD
ENDBRANCH  15  18
BRANCH  17  20
ATOM     20  O   UNL     1      60.864  75.457  14.352  1.00  0.00    -0.504 OA
ATOM     21  H   UNL     1      60.165  75.473  13.620  1.00  0.00     0.293 HD
ENDBRANCH  17  20
ENDBRANCH   1  12
BRANCH   2  22
ATOM     22  O   UNL     1      64.124  81.073  15.094  1.00  0.00    -0.502 OA
ATOM     23  H   UNL     1      64.773  80.624  15.730  1.00  0.00     0.293 HD
ENDBRANCH   2  22
BRANCH   6  24
ATOM     24  O   UNL     1      60.877  85.125  16.284  1.00  0.00    -0.507 OA
ATOM     25  H   UNL     1      61.132  85.568  15.414  1.00  0.00     0.293 HD
ENDBRANCH   6  24
BRANCH   8  26
ATOM     26  O   UNL     1      56.852  82.739  17.289  1.00  0.00    -0.508 OA
ATOM     27  H   UNL     1      56.317  83.598  17.274  1.00  0.00     0.293 HD
ENDBRANCH   8  26
TORSDOF 6
ENDMDL
