MODEL 1
REMARK VINA RESULT:    -4.367      0.000      0.000
REMARK INTER + INTRA:          -6.044
REMARK INTER:                  -5.643
REMARK INTRA:                  -0.401
REMARK UNBOUND:                -0.401
REMARK SMILES CCO[C@H]1O[C@H](CO)[C@@H](O)[C@@H](O)[C@H]1O
REMARK SMILES IDX 4 1 13 2 11 3 9 4 6 5 5 6 3 7 2 8 1 9 14 10 12 12 7 14 8 15
REMARK SMILES IDX 10 17
REMARK H PARENT 14 11 12 13 8 16 10 18
REMARK Flexibility Score: inf
ROOT
ATOM      1  C   UNL     1      36.112 -51.160   2.960  1.00  0.00     0.281 C 
ATOM      2  C   UNL     1      36.533 -51.980   4.201  1.00  0.00     0.202 C 
ATOM      3  C   UNL     1      37.175 -51.100   5.291  1.00  0.00     0.179 C 
ATOM      4  C   UNL     1      38.205 -50.123   4.682  1.00  0.00     0.177 C 
ATOM      5  C   UNL     1      37.631 -49.425   3.428  1.00  0.00     0.178 C 
ATOM      6  O   UNL     1      37.197 -50.383   2.475  1.00  0.00    -0.341 OA
ENDROOT
BRANCH   1   7
ATOM      7  O   UNL     1      34.980 -50.351   3.257  1.00  0.00    -0.350 OA
BRANCH   7   8
ATOM      8  C   UNL     1      34.177 -50.118   2.113  1.00  0.00     0.160 C 
ATOM      9  C   UNL     1      32.967 -51.048   2.083  1.00  0.00     0.035 C 
ENDBRANCH   7   8
ENDBRANCH   1   7
BRANCH   2  10
ATOM     10  O   UNL     1      35.432 -52.670   4.733  1.00  0.00    -0.385 OA
ATOM     11  H   UNL     1      34.806 -52.837   3.981  1.00  0.00     0.211 HD
ENDBRANCH   2  10
BRANCH   3  12
ATOM     12  O   UNL     1      36.206 -50.438   6.070  1.00  0.00    -0.387 OA
ATOM     13  H   UNL     1      36.002 -50.993   6.863  1.00  0.00     0.211 HD
ENDBRANCH   3  12
BRANCH   5  14
ATOM     14  C   UNL     1      38.702 -48.542   2.769  1.00  0.00     0.191 C 
BRANCH  14  15
ATOM     15  O   UNL     1      38.773 -47.296   3.407  1.00  0.00    -0.394 OA
ATOM     16  H   UNL     1      38.714 -46.607   2.694  1.00  0.00     0.210 HD
ENDBRANCH  14  15
ENDBRANCH   5  14
BRANCH   4  17
ATOM     17  O   UNL     1      38.583 -49.164   5.636  1.00  0.00    -0.387 OA
ATOM     18  H   UNL     1      38.291 -48.282   5.285  1.00  0.00     0.211 HD
ENDBRANCH   4  17
TORSDOF 7
ENDMDL
MODEL 2
REMARK VINA RESULT:    -4.146      2.076      4.748
REMARK INTER + INTRA:          -5.760
REMARK INTER:                  -5.355
REMARK INTRA:                  -0.405
REMARK UNBOUND:                -0.401
REMARK SMILES CCO[C@H]1O[C@H](CO)[C@@H](O)[C@@H](O)[C@H]1O
REMARK SMILES IDX 4 1 13 2 11 3 9 4 6 5 5 6 3 7 2 8 1 9 14 10 12 12 7 14 8 15
REMARK SMILES IDX 10 17
REMARK H PARENT 14 11 12 13 8 16 10 18
REMARK Flexibility Score: inf
ROOT
ATOM      1  C   UNL     1      38.775 -50.134   4.072  1.00  0.00     0.281 C 
ATOM      2  C   UNL     1      37.330 -49.597   3.974  1.00  0.00     0.202 C 
ATOM      3  C   UNL     1      36.317 -50.516   4.684  1.00  0.00     0.179 C 
ATOM      4  C   UNL     1      36.567 -51.998   4.329  1.00  0.00     0.177 C 
ATOM      5  C   UNL     1      38.069 -52.348   4.438  1.00  0.00     0.178 C 
ATOM      6  O   UNL     1      38.847 -51.481   3.628  1.00  0.00    -0.341 OA
ENDROOT
BRANCH   1   7
ATOM      7  O   UNL     1      39.272 -49.993   5.397  1.00  0.00    -0.350 OA
BRANCH   7   8
ATOM      8  C   UNL     1      40.569 -49.421   5.423  1.00  0.00     0.160 C 
ATOM      9  C   UNL     1      40.519 -47.945   5.807  1.00  0.00     0.035 C 
ENDBRANCH   7   8
ENDBRANCH   1   7
BRANCH   2  10
ATOM     10  O   UNL     1      37.248 -48.299   4.505  1.00  0.00    -0.385 OA
ATOM     11  H   UNL     1      36.529 -47.829   4.007  1.00  0.00     0.211 HD
ENDBRANCH   2  10
BRANCH   3  12
ATOM     12  O   UNL     1      36.294 -50.297   6.076  1.00  0.00    -0.387 OA
ATOM     13  H   UNL     1      36.218 -49.324   6.243  1.00  0.00     0.211 HD
ENDBRANCH   3  12
BRANCH   5  14
ATOM     14  C   UNL     1      38.318 -53.791   3.975  1.00  0.00     0.191 C 
BRANCH  14  15
ATOM     15  O   UNL     1      37.520 -54.096   2.863  1.00  0.00    -0.394 OA
ATOM     16  H   UNL     1      38.082 -54.641   2.251  1.00  0.00     0.210 HD
ENDBRANCH  14  15
ENDBRANCH   5  14
BRANCH   4  17
ATOM     17  O   UNL     1      35.816 -52.831   5.175  1.00  0.00    -0.387 OA
ATOM     18  H   UNL     1      35.555 -52.281   5.959  1.00  0.00     0.211 HD
ENDBRANCH   4  17
TORSDOF 7
ENDMDL
MODEL 3
REMARK VINA RESULT:    -4.142      1.988      3.386
REMARK INTER + INTRA:          -5.754
REMARK INTER:                  -5.544
REMARK INTRA:                  -0.210
REMARK UNBOUND:                -0.401
REMARK SMILES CCO[C@H]1O[C@H](CO)[C@@H](O)[C@@H](O)[C@H]1O
REMARK SMILES IDX 4 1 13 2 11 3 9 4 6 5 5 6 3 7 2 8 1 9 14 10 12 12 7 14 8 15
REMARK SMILES IDX 10 17
REMARK H PARENT 14 11 12 13 8 16 10 18
REMARK Flexibility Score: inf
ROOT
ATOM      1  C   UNL     1      36.219 -51.476   4.305  1.00  0.00     0.281 C 
ATOM      2  C   UNL     1      36.934 -50.830   5.513  1.00  0.00     0.202 C 
ATOM      3  C   UNL     1      38.462 -50.769   5.322  1.00  0.00     0.179 C 
ATOM      4  C   UNL     1      39.009 -52.110   4.786  1.00  0.00     0.177 C 
ATOM      5  C   UNL     1      38.149 -52.629   3.611  1.00  0.00     0.178 C 
ATOM      6  O   UNL     1      36.787 -52.740   3.996  1.00  0.00    -0.341 OA
ENDROOT
BRANCH   1   7
ATOM      7  O   UNL     1      36.246 -50.602   3.183  1.00  0.00    -0.350 OA
BRANCH   7   8
ATOM      8  C   UNL     1      34.959 -50.417   2.620  1.00  0.00     0.160 C 
ATOM      9  C   UNL     1      34.611 -48.935   2.501  1.00  0.00     0.035 C 
ENDBRANCH   7   8
ENDBRANCH   1   7
BRANCH   2  10
ATOM     10  O   UNL     1      36.433 -49.539   5.752  1.00  0.00    -0.385 OA
ATOM     11  H   UNL     1      36.668 -48.989   4.959  1.00  0.00     0.211 HD
ENDBRANCH   2  10
BRANCH   3  12
ATOM     12  O   UNL     1      38.849 -49.676   4.522  1.00  0.00    -0.387 OA
ATOM     13  H   UNL     1      38.770 -48.847   5.056  1.00  0.00     0.211 HD
ENDBRANCH   3  12
BRANCH   5  14
ATOM     14  C   UNL     1      38.636 -54.015   3.161  1.00  0.00     0.191 C 
BRANCH  14  15
ATOM     15  O   UNL     1      37.689 -54.620   2.322  1.00  0.00    -0.394 OA
ATOM     16  H   UNL     1      37.429 -55.475   2.756  1.00  0.00     0.210 HD
ENDBRANCH  14  15
ENDBRANCH   5  14
BRANCH   4  17
ATOM     17  O   UNL     1      40.344 -51.958   4.375  1.00  0.00    -0.387 OA
ATOM     18  H   UNL     1      40.584 -52.781   3.874  1.00  0.00     0.211 HD
ENDBRANCH   4  17
TORSDOF 7
ENDMDL
MODEL 4
REMARK VINA RESULT:    -4.100      5.654      8.200
REMARK INTER + INTRA:          -5.699
REMARK INTER:                  -5.488
REMARK INTRA:                  -0.211
REMARK UNBOUND:                -0.401
REMARK SMILES CCO[C@H]1O[C@H](CO)[C@@H](O)[C@@H](O)[C@H]1O
REMARK SMILES IDX 4 1 13 2 11 3 9 4 6 5 5 6 3 7 2 8 1 9 14 10 12 12 7 14 8 15
REMARK SMILES IDX 10 17
REMARK H PARENT 14 11 12 13 8 16 10 18
REMARK Flexibility Score: inf
ROOT
ATOM      1  C   UNL     1      34.256 -48.222  -1.228  1.00  0.00     0.281 C 
ATOM      2  C   UNL     1      34.337 -46.805  -1.838  1.00  0.00     0.202 C 
ATOM      3  C   UNL     1      33.016 -46.382  -2.509  1.00  0.00     0.179 C 
ATOM      4  C   UNL     1      32.449 -47.519  -3.386  1.00  0.00     0.177 C 
ATOM      5  C   UNL     1      32.483 -48.869  -2.634  1.00  0.00     0.178 C 
ATOM      6  O   UNL     1      33.799 -49.162  -2.189  1.00  0.00    -0.341 OA
ENDROOT
BRANCH   1   7
ATOM      7  O   UNL     1      33.434 -48.220  -0.067  1.00  0.00    -0.350 OA
BRANCH   7   8
ATOM      8  C   UNL     1      33.717 -49.313   0.789  1.00  0.00     0.160 C 
ATOM      9  C   UNL     1      32.479 -50.177   1.017  1.00  0.00     0.035 C 
ENDBRANCH   7   8
ENDBRANCH   1   7
BRANCH   2  10
ATOM     10  O   UNL     1      34.696 -45.865  -0.858  1.00  0.00    -0.385 OA
ATOM     11  H   UNL     1      35.599 -46.118  -0.534  1.00  0.00     0.211 HD
ENDBRANCH   2  10
BRANCH   3  12
ATOM     12  O   UNL     1      32.077 -45.913  -1.570  1.00  0.00    -0.387 OA
ATOM     13  H   UNL     1      32.412 -46.110  -0.660  1.00  0.00     0.211 HD
ENDBRANCH   3  12
BRANCH   5  14
ATOM     14  C   UNL     1      32.022 -50.009  -3.555  1.00  0.00     0.191 C 
BRANCH  14  15
ATOM     15  O   UNL     1      31.274 -50.951  -2.834  1.00  0.00    -0.394 OA
ATOM     16  H   UNL     1      31.844 -51.760  -2.748  1.00  0.00     0.210 HD
ENDBRANCH  14  15
ENDBRANCH   5  14
BRANCH   4  17
ATOM     17  O   UNL     1      31.133 -47.219  -3.775  1.00  0.00    -0.387 OA
ATOM     18  H   UNL     1      30.542 -47.866  -3.308  1.00  0.00     0.211 HD
ENDBRANCH   4  17
TORSDOF 7
ENDMDL
MODEL 5
REMARK VINA RESULT:    -4.088      8.535     10.116
REMARK INTER + INTRA:          -5.684
REMARK INTER:                  -5.226
REMARK INTRA:                  -0.458
REMARK UNBOUND:                -0.401
REMARK SMILES CCO[C@H]1O[C@H](CO)[C@@H](O)[C@@H](O)[C@H]1O
REMARK SMILES IDX 4 1 13 2 11 3 9 4 6 5 5 6 3 7 2 8 1 9 14 10 12 12 7 14 8 15
REMARK SMILES IDX 10 17
REMARK H PARENT 14 11 12 13 8 16 10 18
REMARK Flexibility Score: inf
ROOT
ATOM      1  C   UNL     1      31.888 -46.749  -3.087  1.00  0.00     0.281 C 
ATOM      2  C   UNL     1      30.898 -46.013  -4.017  1.00  0.00     0.202 C 
ATOM      3  C   UNL     1      31.493 -44.712  -4.590  1.00  0.00     0.179 C 
ATOM      4  C   UNL     1      32.201 -43.893  -3.489  1.00  0.00     0.177 C 
ATOM      5  C   UNL     1      33.116 -44.796  -2.630  1.00  0.00     0.178 C 
ATOM      6  O   UNL     1      32.381 -45.878  -2.080  1.00  0.00    -0.341 OA
ENDROOT
BRANCH   1   7
ATOM      7  O   UNL     1      32.946 -47.329  -3.841  1.00  0.00    -0.350 OA
BRANCH   7   8
ATOM      8  C   UNL     1      33.298 -48.615  -3.365  1.00  0.00     0.160 C 
ATOM      9  C   UNL     1      32.089 -49.546  -3.325  1.00  0.00     0.035 C 
ENDBRANCH   7   8
ENDBRANCH   1   7
BRANCH   2  10
ATOM     10  O   UNL     1      30.489 -46.852  -5.067  1.00  0.00    -0.385 OA
ATOM     11  H   UNL     1      30.398 -47.765  -4.687  1.00  0.00     0.211 HD
ENDBRANCH   2  10
BRANCH   3  12
ATOM     12  O   UNL     1      32.331 -44.960  -5.695  1.00  0.00    -0.387 OA
ATOM     13  H   UNL     1      32.888 -45.755  -5.499  1.00  0.00     0.211 HD
ENDBRANCH   3  12
BRANCH   5  14
ATOM     14  C   UNL     1      33.727 -43.992  -1.471  1.00  0.00     0.191 C 
BRANCH  14  15
ATOM     15  O   UNL     1      32.818 -43.032  -1.005  1.00  0.00    -0.394 OA
ATOM     16  H   UNL     1      31.911 -43.361  -1.241  1.00  0.00     0.210 HD
ENDBRANCH  14  15
ENDBRANCH   5  14
BRANCH   4  17
ATOM     17  O   UNL     1      32.953 -42.857  -4.067  1.00  0.00    -0.387 OA
ATOM     18  H   UNL     1      33.667 -42.625  -3.416  1.00  0.00     0.211 HD
ENDBRANCH   4  17
TORSDOF 7
ENDMDL
MODEL 6
REMARK VINA RESULT:    -3.947     11.273     13.072
REMARK INTER + INTRA:          -5.502
REMARK INTER:                  -5.197
REMARK INTRA:                  -0.305
REMARK UNBOUND:                -0.401
REMARK SMILES CCO[C@H]1O[C@H](CO)[C@@H](O)[C@@H](O)[C@H]1O
REMARK SMILES IDX 4 1 13 2 11 3 9 4 6 5 5 6 3 7 2 8 1 9 14 10 12 12 7 14 8 15
REMARK SMILES IDX 10 17
REMARK H PARENT 14 11 12 13 8 16 10 18
REMARK Flexibility Score: inf
ROOT
ATOM      1  C   UNL     1      30.447 -42.729  -4.565  1.00  0.00     0.281 C 
ATOM      2  C   UNL     1      31.683 -43.465  -3.999  1.00  0.00     0.202 C 
ATOM      3  C   UNL     1      31.730 -44.943  -4.431  1.00  0.00     0.179 C 
ATOM      4  C   UNL     1      30.347 -45.613  -4.269  1.00  0.00     0.177 C 
ATOM      5  C   UNL     1      29.228 -44.720  -4.851  1.00  0.00     0.178 C 
ATOM      6  O   UNL     1      29.253 -43.432  -4.257  1.00  0.00    -0.341 OA
ENDROOT
BRANCH   1   7
ATOM      7  O   UNL     1      30.587 -42.524  -5.966  1.00  0.00    -0.350 OA
BRANCH   7   8
ATOM      8  C   UNL     1      29.634 -41.604  -6.468  1.00  0.00     0.160 C 
ATOM      9  C   UNL     1      28.876 -42.181  -7.661  1.00  0.00     0.035 C 
ENDBRANCH   7   8
ENDBRANCH   1   7
BRANCH   2  10
ATOM     10  O   UNL     1      32.866 -42.817  -4.391  1.00  0.00    -0.385 OA
ATOM     11  H   UNL     1      33.556 -43.522  -4.502  1.00  0.00     0.211 HD
ENDBRANCH   2  10
BRANCH   3  12
ATOM     12  O   UNL     1      32.248 -45.095  -5.732  1.00  0.00    -0.387 OA
ATOM     13  H   UNL     1      33.202 -45.349  -5.666  1.00  0.00     0.211 HD
ENDBRANCH   3  12
BRANCH   5  14
ATOM     14  C   UNL     1      27.850 -45.346  -4.585  1.00  0.00     0.191 C 
BRANCH  14  15
ATOM     15  O   UNL     1      27.777 -45.836  -3.273  1.00  0.00    -0.394 OA
ATOM     16  H   UNL     1      27.746 -45.044  -2.675  1.00  0.00     0.210 HD
ENDBRANCH  14  15
ENDBRANCH   5  14
BRANCH   4  17
ATOM     17  O   UNL     1      30.341 -46.867  -4.903  1.00  0.00    -0.387 OA
ATOM     18  H   UNL     1      31.151 -46.901  -5.477  1.00  0.00     0.211 HD
ENDBRANCH   4  17
TORSDOF 7
ENDMDL
MODEL 7
REMARK VINA RESULT:    -3.935      2.088      3.767
REMARK INTER + INTRA:          -5.487
REMARK INTER:                  -5.031
REMARK INTRA:                  -0.456
REMARK UNBOUND:                -0.401
REMARK SMILES CCO[C@H]1O[C@H](CO)[C@@H](O)[C@@H](O)[C@H]1O
REMARK SMILES IDX 4 1 13 2 11 3 9 4 6 5 5 6 3 7 2 8 1 9 14 10 12 12 7 14 8 15
REMARK SMILES IDX 10 17
REMARK H PARENT 14 11 12 13 8 16 10 18
REMARK Flexibility Score: inf
ROOT
ATOM      1  C   UNL     1      34.725 -48.731   2.384  1.00  0.00     0.281 C 
ATOM      2  C   UNL     1      35.305 -47.842   3.507  1.00  0.00     0.202 C 
ATOM      3  C   UNL     1      36.580 -48.444   4.128  1.00  0.00     0.179 C 
ATOM      4  C   UNL     1      36.402 -49.951   4.413  1.00  0.00     0.177 C 
ATOM      5  C   UNL     1      35.772 -50.673   3.200  1.00  0.00     0.178 C 
ATOM      6  O   UNL     1      34.543 -50.065   2.836  1.00  0.00    -0.341 OA
ENDROOT
BRANCH   1   7
ATOM      7  O   UNL     1      35.553 -48.678   1.228  1.00  0.00    -0.350 OA
BRANCH   7   8
ATOM      8  C   UNL     1      34.797 -48.685   0.030  1.00  0.00     0.160 C 
ATOM      9  C   UNL     1      33.486 -47.921   0.194  1.00  0.00     0.035 C 
ENDBRANCH   7   8
ENDBRANCH   1   7
BRANCH   2  10
ATOM     10  O   UNL     1      35.573 -46.550   3.026  1.00  0.00    -0.385 OA
ATOM     11  H   UNL     1      34.729 -46.033   3.104  1.00  0.00     0.211 HD
ENDBRANCH   2  10
BRANCH   3  12
ATOM     12  O   UNL     1      37.721 -48.179   3.344  1.00  0.00    -0.387 OA
ATOM     13  H   UNL     1      38.521 -48.213   3.925  1.00  0.00     0.211 HD
ENDBRANCH   3  12
BRANCH   5  14
ATOM     14  C   UNL     1      35.498 -52.147   3.536  1.00  0.00     0.191 C 
BRANCH  14  15
ATOM     15  O   UNL     1      36.602 -52.943   3.198  1.00  0.00    -0.394 OA
ATOM     16  H   UNL     1      37.334 -52.321   2.947  1.00  0.00     0.210 HD
ENDBRANCH  14  15
ENDBRANCH   5  14
BRANCH   4  17
ATOM     17  O   UNL     1      37.641 -50.533   4.728  1.00  0.00    -0.387 OA
ATOM     18  H   UNL     1      37.702 -51.376   4.208  1.00  0.00     0.211 HD
ENDBRANCH   4  17
TORSDOF 7
ENDMDL
MODEL 8
REMARK VINA RESULT:    -3.881     10.618     12.140
REMARK INTER + INTRA:          -5.417
REMARK INTER:                  -5.216
REMARK INTRA:                  -0.201
REMARK UNBOUND:                -0.401
REMARK SMILES CCO[C@H]1O[C@H](CO)[C@@H](O)[C@@H](O)[C@H]1O
REMARK SMILES IDX 4 1 13 2 11 3 9 4 6 5 5 6 3 7 2 8 1 9 14 10 12 12 7 14 8 15
REMARK SMILES IDX 10 17
REMARK H PARENT 14 11 12 13 8 16 10 18
REMARK Flexibility Score: inf
ROOT
ATOM      1  C   UNL     1      32.276 -43.979  -4.725  1.00  0.00     0.281 C 
ATOM      2  C   UNL     1      32.364 -45.431  -4.206  1.00  0.00     0.202 C 
ATOM      3  C   UNL     1      30.974 -46.040  -3.937  1.00  0.00     0.179 C 
ATOM      4  C   UNL     1      30.072 -45.048  -3.172  1.00  0.00     0.177 C 
ATOM      5  C   UNL     1      30.139 -43.638  -3.802  1.00  0.00     0.178 C 
ATOM      6  O   UNL     1      31.481 -43.179  -3.863  1.00  0.00    -0.341 OA
ENDROOT
BRANCH   1   7
ATOM      7  O   UNL     1      31.786 -43.955  -6.061  1.00  0.00    -0.350 OA
BRANCH   7   8
ATOM      8  C   UNL     1      32.565 -43.121  -6.900  1.00  0.00     0.160 C 
ATOM      9  C   UNL     1      31.695 -42.380  -7.912  1.00  0.00     0.035 C 
ENDBRANCH   7   8
ENDBRANCH   1   7
BRANCH   2  10
ATOM     10  O   UNL     1      33.070 -46.238  -5.113  1.00  0.00    -0.385 OA
ATOM     11  H   UNL     1      33.546 -46.925  -4.576  1.00  0.00     0.211 HD
ENDBRANCH   2  10
BRANCH   3  12
ATOM     12  O   UNL     1      30.369 -46.510  -5.119  1.00  0.00    -0.387 OA
ATOM     13  H   UNL     1      29.738 -47.236  -4.886  1.00  0.00     0.211 HD
ENDBRANCH   3  12
BRANCH   5  14
ATOM     14  C   UNL     1      29.326 -42.637  -2.967  1.00  0.00     0.191 C 
BRANCH  14  15
ATOM     15  O   UNL     1      29.995 -42.335  -1.772  1.00  0.00    -0.394 OA
ATOM     16  H   UNL     1      29.340 -42.468  -1.038  1.00  0.00     0.210 HD
ENDBRANCH  14  15
ENDBRANCH   5  14
BRANCH   4  17
ATOM     17  O   UNL     1      28.745 -45.509  -3.165  1.00  0.00    -0.387 OA
ATOM     18  H   UNL     1      28.386 -45.334  -2.256  1.00  0.00     0.211 HD
ENDBRANCH   4  17
TORSDOF 7
ENDMDL
MODEL 9
REMARK VINA RESULT:    -3.811     12.351     14.363
REMARK INTER + INTRA:          -5.326
REMARK INTER:                  -4.893
REMARK INTRA:                  -0.433
REMARK UNBOUND:                -0.401
REMARK SMILES CCO[C@H]1O[C@H](CO)[C@@H](O)[C@@H](O)[C@H]1O
REMARK SMILES IDX 4 1 13 2 11 3 9 4 6 5 5 6 3 7 2 8 1 9 14 10 12 12 7 14 8 15
REMARK SMILES IDX 10 17
REMARK H PARENT 14 11 12 13 8 16 10 18
REMARK Flexibility Score: inf
ROOT
ATOM      1  C   UNL     1      29.026 -41.768  -6.081  1.00  0.00     0.281 C 
ATOM      2  C   UNL     1      30.524 -41.419  -5.938  1.00  0.00     0.202 C 
ATOM      3  C   UNL     1      31.350 -42.603  -5.398  1.00  0.00     0.179 C 
ATOM      4  C   UNL     1      30.642 -43.272  -4.199  1.00  0.00     0.177 C 
ATOM      5  C   UNL     1      29.144 -43.507  -4.501  1.00  0.00     0.178 C 
ATOM      6  O   UNL     1      28.509 -42.291  -4.866  1.00  0.00    -0.341 OA
ENDROOT
BRANCH   1   7
ATOM      7  O   UNL     1      28.823 -42.665  -7.166  1.00  0.00    -0.350 OA
BRANCH   7   8
ATOM      8  C   UNL     1      27.606 -42.411  -7.847  1.00  0.00     0.160 C 
ATOM      9  C   UNL     1      27.781 -41.338  -8.919  1.00  0.00     0.035 C 
ENDBRANCH   7   8
ENDBRANCH   1   7
BRANCH   2  10
ATOM     10  O   UNL     1      31.052 -40.994  -7.168  1.00  0.00    -0.385 OA
ATOM     11  H   UNL     1      30.823 -41.692  -7.836  1.00  0.00     0.211 HD
ENDBRANCH   2  10
BRANCH   3  12
ATOM     12  O   UNL     1      31.671 -43.526  -6.412  1.00  0.00    -0.387 OA
ATOM     13  H   UNL     1      32.592 -43.855  -6.262  1.00  0.00     0.211 HD
ENDBRANCH   3  12
BRANCH   5  14
ATOM     14  C   UNL     1      28.429 -44.070  -3.263  1.00  0.00     0.191 C 
BRANCH  14  15
ATOM     15  O   UNL     1      28.590 -45.461  -3.192  1.00  0.00    -0.394 OA
ATOM     16  H   UNL     1      27.690 -45.842  -3.015  1.00  0.00     0.210 HD
ENDBRANCH  14  15
ENDBRANCH   5  14
BRANCH   4  17
ATOM     17  O   UNL     1      31.267 -44.491  -3.889  1.00  0.00    -0.387 OA
ATOM     18  H   UNL     1      31.283 -44.561  -2.899  1.00  0.00     0.211 HD
ENDBRANCH   4  17
TORSDOF 7
ENDMDL
