MODEL 1
REMARK VINA RESULT:    49.411      0.000      0.000
REMARK INTER + INTRA:          82.937
REMARK INTER:                  73.963
REMARK INTRA:                   8.974
REMARK UNBOUND:                 8.974
REMARK SMILES COC(=O)C1=CO[C@@H](O[C@@H]2O[C@H](CO)[C@@H](O)[C@H](O)[C@@H]2O)[C@@H]2C(CO)=CC[C@@H]12
REMARK SMILES IDX 9 1 8 2 5 3 6 4 27 5 7 6 21 7 26 8 22 9 25 10 3 11 4 12 2 13
REMARK SMILES IDX 1 14 23 15 24 16 10 18 19 19 11 20 17 21 12 22 15 23 20 24
REMARK SMILES IDX 18 26 13 28 14 29 16 31
REMARK H PARENT 24 17 20 25 18 27 14 30 16 32
REMARK Flexibility Score: inf
ROOT
ATOM      1  O   UNL     1     -36.256  28.475  -7.374  1.00  0.00    -0.310 OA
ENDROOT
BRANCH   1   2
ATOM      2  C   UNL     1     -36.429  27.727  -6.180  1.00  0.00     0.316 C 
ATOM      3  C   UNL     1     -37.006  24.896  -5.479  1.00  0.00     0.076 C 
ATOM      4  C   UNL     1     -35.768  25.177  -5.925  1.00  0.00     0.202 C 
ATOM      5  C   UNL     1     -37.891  26.053  -5.079  1.00  0.00     0.047 C 
ATOM      6  O   UNL     1     -35.447  26.579  -6.161  1.00  0.00    -0.471 OA
ATOM      7  C   UNL     1     -37.839  27.135  -6.150  1.00  0.00     0.094 C 
ATOM      8  C   UNL     1     -39.395  25.854  -4.877  1.00  0.00     0.037 C 
ATOM      9  C   UNL     1     -39.004  27.988  -5.753  1.00  0.00    -0.039 C 
ATOM     10  C   UNL     1     -39.906  27.242  -5.112  1.00  0.00    -0.024 C 
BRANCH   3  11
ATOM     11  C   UNL     1     -37.358  23.484  -5.220  1.00  0.00     0.337 C 
ATOM     12  O   UNL     1     -38.565  23.125  -5.154  1.00  0.00    -0.246 OA
BRANCH  11  13
ATOM     13  O   UNL     1     -36.339  22.543  -5.031  1.00  0.00    -0.466 OA
ATOM     14  C   UNL     1     -36.485  21.173  -5.383  1.00  0.00     0.282 C 
ENDBRANCH  11  13
ENDBRANCH   3  11
BRANCH   9  15
ATOM     15  C   UNL     1     -39.196  29.442  -6.074  1.00  0.00     0.187 C 
BRANCH  15  16
ATOM     16  O   UNL     1     -40.232  29.977  -5.295  1.00  0.00    -0.392 OA
ATOM     17  H   UNL     1     -39.806  30.434  -4.523  1.00  0.00     0.211 HD
ENDBRANCH  15  16
ENDBRANCH   9  15
ENDBRANCH   1   2
BRANCH   1  18
ATOM     18  C   UNL     1     -36.271  29.877  -7.129  1.00  0.00     0.286 C 
ATOM     19  C   UNL     1     -36.356  30.194  -5.620  1.00  0.00     0.202 C 
ATOM     20  O   UNL     1     -35.151  30.498  -7.745  1.00  0.00    -0.341 OA
ATOM     21  C   UNL     1     -35.089  29.757  -4.893  1.00  0.00     0.179 C 
ATOM     22  C   UNL     1     -33.888  30.268  -7.119  1.00  0.00     0.178 C 
ATOM     23  C   UNL     1     -33.864  30.392  -5.566  1.00  0.00     0.177 C 
BRANCH  19  24
ATOM     24  O   UNL     1     -37.468  29.569  -5.035  1.00  0.00    -0.385 OA
ATOM     25  H   UNL     1     -37.758  30.147  -4.280  1.00  0.00     0.211 HD
ENDBRANCH  19  24
BRANCH  21  26
ATOM     26  O   UNL     1     -34.996  28.356  -4.875  1.00  0.00    -0.387 OA
ATOM     27  H   UNL     1     -35.923  28.005  -4.895  1.00  0.00     0.211 HD
ENDBRANCH  21  26
BRANCH  22  28
ATOM     28  C   UNL     1     -33.151  29.032  -7.675  1.00  0.00     0.191 C 
BRANCH  28  29
ATOM     29  O   UNL     1     -32.353  28.404  -6.709  1.00  0.00    -0.394 OA
ATOM     30  H   UNL     1     -31.406  28.552  -6.970  1.00  0.00     0.210 HD
ENDBRANCH  28  29
ENDBRANCH  22  28
BRANCH  23  31
ATOM     31  O   UNL     1     -33.818  31.752  -5.206  1.00  0.00    -0.387 OA
ATOM     32  H   UNL     1     -32.872  31.965  -4.992  1.00  0.00     0.211 HD
ENDBRANCH  23  31
ENDBRANCH   1  18
TORSDOF 11
ENDMDL
MODEL 2
REMARK VINA RESULT:    50.169     15.088     16.760
REMARK INTER + INTRA:          84.072
REMARK INTER:                  83.607
REMARK INTRA:                   0.465
REMARK UNBOUND:                 8.974
REMARK SMILES COC(=O)C1=CO[C@@H](O[C@@H]2O[C@H](CO)[C@@H](O)[C@H](O)[C@@H]2O)[C@@H]2C(CO)=CC[C@@H]12
REMARK SMILES IDX 9 1 8 2 5 3 6 4 27 5 7 6 21 7 26 8 22 9 25 10 3 11 4 12 2 13
REMARK SMILES IDX 1 14 23 15 24 16 10 18 19 19 11 20 17 21 12 22 15 23 20 24
REMARK SMILES IDX 18 26 13 28 14 29 16 31
REMARK H PARENT 24 17 20 25 18 27 14 30 16 32
REMARK Flexibility Score: inf
ROOT
ATOM      1  O   UNL     1     -41.588  29.878 -21.289  1.00  0.00    -0.310 OA
ENDROOT
BRANCH   1   2
ATOM      2  C   UNL     1     -40.320  29.519 -21.817  1.00  0.00     0.316 C 
ATOM      3  C   UNL     1     -38.456  27.216 -21.563  1.00  0.00     0.076 C 
ATOM      4  C   UNL     1     -39.570  27.025 -22.294  1.00  0.00     0.202 C 
ATOM      5  C   UNL     1     -38.087  28.634 -21.196  1.00  0.00     0.047 C 
ATOM      6  O   UNL     1     -40.428  28.183 -22.515  1.00  0.00    -0.471 OA
ATOM      7  C   UNL     1     -39.316  29.367 -20.674  1.00  0.00     0.094 C 
ATOM      8  C   UNL     1     -37.043  28.916 -20.113  1.00  0.00     0.037 C 
ATOM      9  C   UNL     1     -38.688  30.580 -20.059  1.00  0.00    -0.039 C 
ATOM     10  C   UNL     1     -37.442  30.292 -19.676  1.00  0.00    -0.024 C 
BRANCH   3  11
ATOM     11  C   UNL     1     -37.561  26.064 -21.329  1.00  0.00     0.337 C 
ATOM     12  O   UNL     1     -36.322  26.236 -21.169  1.00  0.00    -0.246 OA
BRANCH  11  13
ATOM     13  O   UNL     1     -38.095  24.770 -21.305  1.00  0.00    -0.466 OA
ATOM     14  C   UNL     1     -37.981  23.914 -20.176  1.00  0.00     0.282 C 
ENDBRANCH  11  13
ENDBRANCH   3  11
BRANCH   9  15
ATOM     15  C   UNL     1     -39.349  31.908 -19.828  1.00  0.00     0.187 C 
BRANCH  15  16
ATOM     16  O   UNL     1     -40.440  31.761 -18.961  1.00  0.00    -0.392 OA
ATOM     17  H   UNL     1     -40.175  31.095 -18.273  1.00  0.00     0.211 HD
ENDBRANCH  15  16
ENDBRANCH   9  15
ENDBRANCH   1   2
BRANCH   1  18
ATOM     18  C   UNL     1     -41.855  31.266 -21.448  1.00  0.00     0.286 C 
ATOM     19  C   UNL     1     -42.369  31.592 -22.867  1.00  0.00     0.202 C 
ATOM     20  O   UNL     1     -42.749  31.715 -20.439  1.00  0.00    -0.341 OA
ATOM     21  C   UNL     1     -43.741  30.973 -23.112  1.00  0.00     0.179 C 
ATOM     22  C   UNL     1     -44.109  31.302 -20.580  1.00  0.00     0.178 C 
ATOM     23  C   UNL     1     -44.712  31.420 -22.011  1.00  0.00     0.177 C 
BRANCH  19  24
ATOM     24  O   UNL     1     -41.472  31.137 -23.846  1.00  0.00    -0.385 OA
ATOM     25  H   UNL     1     -41.904  30.364 -24.295  1.00  0.00     0.211 HD
ENDBRANCH  19  24
BRANCH  21  26
ATOM     26  O   UNL     1     -43.641  29.573 -23.170  1.00  0.00    -0.387 OA
ATOM     27  H   UNL     1     -42.716  29.338 -22.896  1.00  0.00     0.211 HD
ENDBRANCH  21  26
BRANCH  22  28
ATOM     28  C   UNL     1     -44.416  29.971 -19.862  1.00  0.00     0.191 C 
BRANCH  28  29
ATOM     29  O   UNL     1     -44.864  30.162 -18.548  1.00  0.00    -0.394 OA
ATOM     30  H   UNL     1     -44.064  30.348 -17.989  1.00  0.00     0.210 HD
ENDBRANCH  28  29
ENDBRANCH  22  28
BRANCH  23  31
ATOM     31  O   UNL     1     -45.072  32.758 -22.258  1.00  0.00    -0.387 OA
ATOM     32  H   UNL     1     -44.876  32.941 -23.214  1.00  0.00     0.211 HD
ENDBRANCH  23  31
ENDBRANCH   1  18
TORSDOF 11
ENDMDL
MODEL 3
REMARK VINA RESULT:    50.553     15.202     16.788
REMARK INTER + INTRA:          84.647
REMARK INTER:                  85.395
REMARK INTRA:                  -0.748
REMARK UNBOUND:                 8.974
REMARK SMILES COC(=O)C1=CO[C@@H](O[C@@H]2O[C@H](CO)[C@@H](O)[C@H](O)[C@@H]2O)[C@@H]2C(CO)=CC[C@@H]12
REMARK SMILES IDX 9 1 8 2 5 3 6 4 27 5 7 6 21 7 26 8 22 9 25 10 3 11 4 12 2 13
REMARK SMILES IDX 1 14 23 15 24 16 10 18 19 19 11 20 17 21 12 22 15 23 20 24
REMARK SMILES IDX 18 26 13 28 14 29 16 31
REMARK H PARENT 24 17 20 25 18 27 14 30 16 32
REMARK Flexibility Score: inf
ROOT
ATOM      1  O   UNL     1     -41.364  30.141 -21.190  1.00  0.00    -0.310 OA
ENDROOT
BRANCH   1   2
ATOM      2  C   UNL     1     -40.127  29.714 -21.738  1.00  0.00     0.316 C 
ATOM      3  C   UNL     1     -38.394  27.307 -21.526  1.00  0.00     0.076 C 
ATOM      4  C   UNL     1     -39.526  27.186 -22.244  1.00  0.00     0.202 C 
ATOM      5  C   UNL     1     -37.940  28.698 -21.154  1.00  0.00     0.047 C 
ATOM      6  O   UNL     1     -40.320  28.392 -22.444  1.00  0.00    -0.471 OA
ATOM      7  C   UNL     1     -39.118  29.496 -20.609  1.00  0.00     0.094 C 
ATOM      8  C   UNL     1     -36.867  28.911 -20.083  1.00  0.00     0.037 C 
ATOM      9  C   UNL     1     -38.413  30.666 -19.995  1.00  0.00    -0.039 C 
ATOM     10  C   UNL     1     -37.181  30.304 -19.630  1.00  0.00    -0.024 C 
BRANCH   3  11
ATOM     11  C   UNL     1     -37.564  26.103 -21.313  1.00  0.00     0.337 C 
ATOM     12  O   UNL     1     -36.313  26.200 -21.189  1.00  0.00    -0.246 OA
BRANCH  11  13
ATOM     13  O   UNL     1     -38.174  24.844 -21.269  1.00  0.00    -0.466 OA
ATOM     14  C   UNL     1     -37.965  23.928 -20.201  1.00  0.00     0.282 C 
ENDBRANCH  11  13
ENDBRANCH   3  11
BRANCH   9  15
ATOM     15  C   UNL     1     -38.993  32.028 -19.744  1.00  0.00     0.187 C 
BRANCH  15  16
ATOM     16  O   UNL     1     -40.303  31.914 -19.256  1.00  0.00    -0.392 OA
ATOM     17  H   UNL     1     -40.661  32.838 -19.176  1.00  0.00     0.211 HD
ENDBRANCH  15  16
ENDBRANCH   9  15
ENDBRANCH   1   2
BRANCH   1  18
ATOM     18  C   UNL     1     -42.470  29.695 -21.966  1.00  0.00     0.286 C 
ATOM     19  C   UNL     1     -43.809  29.894 -21.222  1.00  0.00     0.202 C 
ATOM     20  O   UNL     1     -42.467  30.325 -23.239  1.00  0.00    -0.341 OA
ATOM     21  C   UNL     1     -44.123  31.375 -21.041  1.00  0.00     0.179 C 
ATOM     22  C   UNL     1     -42.842  31.703 -23.256  1.00  0.00     0.178 C 
ATOM     23  C   UNL     1     -44.090  32.080 -22.404  1.00  0.00     0.177 C 
BRANCH  19  24
ATOM     24  O   UNL     1     -43.788  29.266 -19.967  1.00  0.00    -0.385 OA
ATOM     25  H   UNL     1     -44.660  29.462 -19.533  1.00  0.00     0.211 HD
ENDBRANCH  19  24
BRANCH  21  26
ATOM     26  O   UNL     1     -43.218  31.959 -20.139  1.00  0.00    -0.387 OA
ATOM     27  H   UNL     1     -42.516  31.282 -19.956  1.00  0.00     0.211 HD
ENDBRANCH  21  26
BRANCH  22  28
ATOM     28  C   UNL     1     -41.642  32.660 -23.093  1.00  0.00     0.191 C 
BRANCH  28  29
ATOM     29  O   UNL     1     -41.853  33.895 -23.721  1.00  0.00    -0.394 OA
ATOM     30  H   UNL     1     -41.306  34.568 -23.236  1.00  0.00     0.210 HD
ENDBRANCH  28  29
ENDBRANCH  22  28
BRANCH  23  31
ATOM     31  O   UNL     1     -45.258  31.733 -23.108  1.00  0.00    -0.387 OA
ATOM     32  H   UNL     1     -46.023  31.869 -22.489  1.00  0.00     0.211 HD
ENDBRANCH  23  31
ENDBRANCH   1  18
TORSDOF 11
ENDMDL
MODEL 4
REMARK VINA RESULT:    50.993     15.127     17.170
REMARK INTER + INTRA:          85.306
REMARK INTER:                  85.311
REMARK INTRA:                  -0.005
REMARK UNBOUND:                 8.974
REMARK SMILES COC(=O)C1=CO[C@@H](O[C@@H]2O[C@H](CO)[C@@H](O)[C@H](O)[C@@H]2O)[C@@H]2C(CO)=CC[C@@H]12
REMARK SMILES IDX 9 1 8 2 5 3 6 4 27 5 7 6 21 7 26 8 22 9 25 10 3 11 4 12 2 13
REMARK SMILES IDX 1 14 23 15 24 16 10 18 19 19 11 20 17 21 12 22 15 23 20 24
REMARK SMILES IDX 18 26 13 28 14 29 16 31
REMARK H PARENT 24 17 20 25 18 27 14 30 16 32
REMARK Flexibility Score: inf
ROOT
ATOM      1  O   UNL     1     -41.815  29.454 -21.888  1.00  0.00    -0.310 OA
ENDROOT
BRANCH   1   2
ATOM      2  C   UNL     1     -40.869  29.001 -20.932  1.00  0.00     0.316 C 
ATOM      3  C   UNL     1     -38.208  29.890 -19.947  1.00  0.00     0.076 C 
ATOM      4  C   UNL     1     -39.278  30.603 -19.550  1.00  0.00     0.202 C 
ATOM      5  C   UNL     1     -38.455  28.544 -20.587  1.00  0.00     0.047 C 
ATOM      6  O   UNL     1     -40.592  30.104 -19.938  1.00  0.00    -0.471 OA
ATOM      7  C   UNL     1     -39.553  28.667 -21.636  1.00  0.00     0.094 C 
ATOM      8  C   UNL     1     -37.340  27.825 -21.351  1.00  0.00     0.037 C 
ATOM      9  C   UNL     1     -39.399  27.369 -22.367  1.00  0.00    -0.039 C 
ATOM     10  C   UNL     1     -38.136  26.948 -22.268  1.00  0.00    -0.024 C 
BRANCH   3  11
ATOM     11  C   UNL     1     -36.863  30.365 -19.561  1.00  0.00     0.337 C 
ATOM     12  O   UNL     1     -36.006  29.562 -19.101  1.00  0.00    -0.246 OA
BRANCH  11  13
ATOM     13  O   UNL     1     -36.547  31.722 -19.693  1.00  0.00    -0.466 OA
ATOM     14  C   UNL     1     -35.907  32.464 -18.663  1.00  0.00     0.282 C 
ENDBRANCH  11  13
ENDBRANCH   3  11
BRANCH   9  15
ATOM     15  C   UNL     1     -40.458  26.658 -23.159  1.00  0.00     0.187 C 
BRANCH  15  16
ATOM     16  O   UNL     1     -41.110  25.712 -22.356  1.00  0.00    -0.392 OA
ATOM     17  H   UNL     1     -41.402  24.976 -22.958  1.00  0.00     0.211 HD
ENDBRANCH  15  16
ENDBRANCH   9  15
ENDBRANCH   1   2
BRANCH   1  18
ATOM     18  C   UNL     1     -41.863  30.875 -21.955  1.00  0.00     0.286 C 
ATOM     19  C   UNL     1     -42.556  31.364 -23.245  1.00  0.00     0.202 C 
ATOM     20  O   UNL     1     -42.473  31.404 -20.786  1.00  0.00    -0.341 OA
ATOM     21  C   UNL     1     -44.036  30.994 -23.250  1.00  0.00     0.179 C 
ATOM     22  C   UNL     1     -43.887  31.228 -20.685  1.00  0.00     0.178 C 
ATOM     23  C   UNL     1     -44.705  31.529 -21.977  1.00  0.00     0.177 C 
BRANCH  19  24
ATOM     24  O   UNL     1     -41.938  30.827 -24.385  1.00  0.00    -0.385 OA
ATOM     25  H   UNL     1     -41.006  30.600 -24.127  1.00  0.00     0.211 HD
ENDBRANCH  19  24
BRANCH  21  26
ATOM     26  O   UNL     1     -44.190  29.602 -23.365  1.00  0.00    -0.387 OA
ATOM     27  H   UNL     1     -43.617  29.190 -22.668  1.00  0.00     0.211 HD
ENDBRANCH  21  26
BRANCH  22  28
ATOM     28  C   UNL     1     -44.287  29.926 -19.962  1.00  0.00     0.191 C 
BRANCH  28  29
ATOM     29  O   UNL     1     -44.827  30.163 -18.691  1.00  0.00    -0.394 OA
ATOM     30  H   UNL     1     -45.289  29.329 -18.408  1.00  0.00     0.210 HD
ENDBRANCH  28  29
ENDBRANCH  22  28
BRANCH  23  31
ATOM     31  O   UNL     1     -44.866  32.920 -22.114  1.00  0.00    -0.387 OA
ATOM     32  H   UNL     1     -44.781  33.314 -21.207  1.00  0.00     0.211 HD
ENDBRANCH  23  31
ENDBRANCH   1  18
TORSDOF 11
ENDMDL
MODEL 5
REMARK VINA RESULT:    52.179     11.106     13.793
REMARK INTER + INTRA:          87.081
REMARK INTER:                  87.465
REMARK INTRA:                  -0.384
REMARK UNBOUND:                 8.974
REMARK SMILES COC(=O)C1=CO[C@@H](O[C@@H]2O[C@H](CO)[C@@H](O)[C@H](O)[C@@H]2O)[C@@H]2C(CO)=CC[C@@H]12
REMARK SMILES IDX 9 1 8 2 5 3 6 4 27 5 7 6 21 7 26 8 22 9 25 10 3 11 4 12 2 13
REMARK SMILES IDX 1 14 23 15 24 16 10 18 19 19 11 20 17 21 12 22 15 23 20 24
REMARK SMILES IDX 18 26 13 28 14 29 16 31
REMARK H PARENT 24 17 20 25 18 27 14 30 16 32
REMARK Flexibility Score: inf
ROOT
ATOM      1  O   UNL     1     -29.136  28.150 -16.856  1.00  0.00    -0.310 OA
ENDROOT
BRANCH   1   2
ATOM      2  C   UNL     1     -29.180  29.549 -17.089  1.00  0.00     0.316 C 
ATOM      3  C   UNL     1     -30.204  31.941 -15.650  1.00  0.00     0.076 C 
ATOM      4  C   UNL     1     -29.082  31.372 -15.172  1.00  0.00     0.202 C 
ATOM      5  C   UNL     1     -30.674  31.529 -17.025  1.00  0.00     0.047 C 
ATOM      6  O   UNL     1     -28.515  30.271 -15.940  1.00  0.00    -0.471 OA
ATOM      7  C   UNL     1     -30.637  30.011 -17.148  1.00  0.00     0.094 C 
ATOM      8  C   UNL     1     -32.087  31.870 -17.504  1.00  0.00     0.037 C 
ATOM      9  C   UNL     1     -31.441  29.804 -18.394  1.00  0.00    -0.039 C 
ATOM     10  C   UNL     1     -32.306  30.810 -18.540  1.00  0.00    -0.024 C 
BRANCH   3  11
ATOM     11  C   UNL     1     -30.798  33.067 -14.898  1.00  0.00     0.337 C 
ATOM     12  O   UNL     1     -31.391  32.865 -13.804  1.00  0.00    -0.246 OA
BRANCH  11  13
ATOM     13  O   UNL     1     -30.714  34.363 -15.418  1.00  0.00    -0.466 OA
ATOM     14  C   UNL     1     -29.594  34.819 -16.166  1.00  0.00     0.282 C 
ENDBRANCH  11  13
ENDBRANCH   3  11
BRANCH   9  15
ATOM     15  C   UNL     1     -31.366  28.625 -19.321  1.00  0.00     0.187 C 
BRANCH  15  16
ATOM     16  O   UNL     1     -30.576  28.935 -20.436  1.00  0.00    -0.392 OA
ATOM     17  H   UNL     1     -29.669  28.569 -20.258  1.00  0.00     0.211 HD
ENDBRANCH  15  16
ENDBRANCH   9  15
ENDBRANCH   1   2
BRANCH   1  18
ATOM     18  C   UNL     1     -29.235  27.839 -15.472  1.00  0.00     0.286 C 
ATOM     19  C   UNL     1     -30.629  27.282 -15.108  1.00  0.00     0.202 C 
ATOM     20  O   UNL     1     -28.189  26.957 -15.087  1.00  0.00    -0.341 OA
ATOM     21  C   UNL     1     -30.865  25.923 -15.758  1.00  0.00     0.179 C 
ATOM     22  C   UNL     1     -28.315  25.607 -15.535  1.00  0.00     0.178 C 
ATOM     23  C   UNL     1     -29.726  24.966 -15.381  1.00  0.00     0.177 C 
BRANCH  19  24
ATOM     24  O   UNL     1     -31.645  28.168 -15.498  1.00  0.00    -0.385 OA
ATOM     25  H   UNL     1     -31.828  28.756 -14.719  1.00  0.00     0.211 HD
ENDBRANCH  19  24
BRANCH  21  26
ATOM     26  O   UNL     1     -30.979  26.062 -17.151  1.00  0.00    -0.387 OA
ATOM     27  H   UNL     1     -31.685  26.739 -17.317  1.00  0.00     0.211 HD
ENDBRANCH  21  26
BRANCH  22  28
ATOM     28  C   UNL     1     -27.642  25.356 -16.901  1.00  0.00     0.191 C 
BRANCH  28  29
ATOM     29  O   UNL     1     -28.414  24.538 -17.736  1.00  0.00    -0.394 OA
ATOM     30  H   UNL     1     -29.213  24.259 -17.217  1.00  0.00     0.210 HD
ENDBRANCH  28  29
ENDBRANCH  22  28
BRANCH  23  31
ATOM     31  O   UNL     1     -29.913  24.562 -14.046  1.00  0.00    -0.387 OA
ATOM     32  H   UNL     1     -30.820  24.862 -13.775  1.00  0.00     0.211 HD
ENDBRANCH  23  31
ENDBRANCH   1  18
TORSDOF 11
ENDMDL
