MODEL 1
REMARK VINA RESULT:    -1.827      0.000      0.000
REMARK INTER + INTRA:          -2.220
REMARK INTER:                  -2.147
REMARK INTRA:                  -0.073
REMARK UNBOUND:                -0.073
REMARK SMILES O=C([O-])CCC(=O)[O-]
REMARK SMILES IDX 4 1 2 2 1 3 3 4 5 5 6 6 7 7 8 8
REMARK H PARENT
REMARK Flexibility Score: inf
ROOT
ATOM      1  C   UNL     1      -1.030  50.620   9.131  1.00  0.00     0.059 C 
ENDROOT
BRANCH   1   2
ATOM      2  C   UNL     1       0.349  51.021   9.550  1.00  0.00     0.042 C 
ATOM      3  O   UNL     1       1.103  50.192  10.124  1.00  0.00    -0.550 OA
ATOM      4  O   UNL     1       0.822  52.295   9.263  1.00  0.00    -0.550 OA
ENDBRANCH   1   2
BRANCH   1   5
ATOM      5  C   UNL     1      -2.066  51.152  10.123  1.00  0.00     0.059 C 
BRANCH   5   6
ATOM      6  C   UNL     1      -2.996  52.108   9.445  1.00  0.00     0.042 C 
ATOM      7  O   UNL     1      -3.667  52.929  10.125  1.00  0.00    -0.550 OA
ATOM      8  O   UNL     1      -3.162  52.059   8.067  1.00  0.00    -0.550 OA
ENDBRANCH   5   6
ENDBRANCH   1   5
TORSDOF 3
ENDMDL
MODEL 2
REMARK VINA RESULT:    -1.811      0.454      3.882
REMARK INTER + INTRA:          -2.201
REMARK INTER:                  -2.119
REMARK INTRA:                  -0.083
REMARK UNBOUND:                -0.073
REMARK SMILES O=C([O-])CCC(=O)[O-]
REMARK SMILES IDX 4 1 2 2 1 3 3 4 5 5 6 6 7 7 8 8
REMARK H PARENT
REMARK Flexibility Score: inf
ROOT
ATOM      1  C   UNL     1      -2.389  51.158  10.124  1.00  0.00     0.059 C 
ENDROOT
BRANCH   1   2
ATOM      2  C   UNL     1      -3.177  52.174   9.361  1.00  0.00     0.042 C 
ATOM      3  O   UNL     1      -3.225  52.125   8.104  1.00  0.00    -0.550 OA
ATOM      4  O   UNL     1      -3.902  53.146  10.040  1.00  0.00    -0.550 OA
ENDBRANCH   1   2
BRANCH   1   5
ATOM      5  C   UNL     1      -1.269  50.585   9.253  1.00  0.00     0.059 C 
BRANCH   5   6
ATOM      6  C   UNL     1       0.067  51.019   9.767  1.00  0.00     0.042 C 
ATOM      7  O   UNL     1       0.252  52.212  10.124  1.00  0.00    -0.550 OA
ATOM      8  O   UNL     1       1.125  50.119   9.804  1.00  0.00    -0.550 OA
ENDBRANCH   5   6
ENDBRANCH   1   5
TORSDOF 3
ENDMDL
