MODEL 1
REMARK VINA RESULT:    -4.961      0.000      0.000
REMARK INTER + INTRA:          -5.735
REMARK INTER:                  -5.687
REMARK INTRA:                  -0.049
REMARK UNBOUND:                -0.049
REMARK SMILES O=C([O-])c1cc(O)c(O)c(O)c1
REMARK SMILES IDX 4 1 5 2 12 3 6 4 10 5 8 6 2 7 1 8 3 9 7 10 11 12 9 14
REMARK H PARENT 7 11 11 13 9 15
REMARK Flexibility Score: inf
ROOT
ATOM      1  C   UNL     1      -6.697  -8.453  11.875  1.00  0.00     0.005 A 
ATOM      2  C   UNL     1      -6.067  -7.500  12.693  1.00  0.00     0.060 A 
ATOM      3  C   UNL     1      -6.465  -8.423  10.490  1.00  0.00     0.060 A 
ATOM      4  C   UNL     1      -5.219  -6.534  12.142  1.00  0.00     0.162 A 
ATOM      5  C   UNL     1      -5.617  -7.457   9.929  1.00  0.00     0.162 A 
ATOM      6  C   UNL     1      -4.990  -6.509  10.756  1.00  0.00     0.200 A 
ENDROOT
BRANCH   1   7
ATOM      7  C   UNL     1      -7.594  -9.474  12.460  1.00  0.00     0.072 C 
ATOM      8  O   UNL     1      -8.682  -9.769  11.899  1.00  0.00    -0.545 OA
ATOM      9  O   UNL     1      -7.246 -10.125  13.640  1.00  0.00    -0.545 OA
ENDBRANCH   1   7
BRANCH   4  10
ATOM     10  O   UNL     1      -4.613  -5.606  12.989  1.00  0.00    -0.504 OA
ATOM     11  H   UNL     1      -4.350  -4.679  12.673  1.00  0.00     0.293 HD
ENDBRANCH   4  10
BRANCH   5  12
ATOM     12  O   UNL     1      -5.393  -7.438   8.553  1.00  0.00    -0.504 OA
ATOM     13  H   UNL     1      -4.625  -7.949   8.132  1.00  0.00     0.293 HD
ENDBRANCH   5  12
BRANCH   6  14
ATOM     14  O   UNL     1      -4.142  -5.542  10.214  1.00  0.00    -0.502 OA
ATOM     15  H   UNL     1      -3.158  -5.492  10.451  1.00  0.00     0.293 HD
ENDBRANCH   6  14
TORSDOF 4
ENDMDL
MODEL 2
REMARK VINA RESULT:    -4.896      0.157      2.434
REMARK INTER + INTRA:          -5.660
REMARK INTER:                  -5.611
REMARK INTRA:                  -0.049
REMARK UNBOUND:                -0.049
REMARK SMILES O=C([O-])c1cc(O)c(O)c(O)c1
REMARK SMILES IDX 4 1 5 2 12 3 6 4 10 5 8 6 2 7 1 8 3 9 7 10 11 12 9 14
REMARK H PARENT 7 11 11 13 9 15
REMARK Flexibility Score: inf
ROOT
ATOM      1  C   UNL     1      -6.797  -8.509  11.825  1.00  0.00     0.005 A 
ATOM      2  C   UNL     1      -6.534  -8.527  10.445  1.00  0.00     0.060 A 
ATOM      3  C   UNL     1      -6.172  -7.540  12.627  1.00  0.00     0.060 A 
ATOM      4  C   UNL     1      -5.663  -7.595   9.872  1.00  0.00     0.162 A 
ATOM      5  C   UNL     1      -5.298  -6.601  12.060  1.00  0.00     0.162 A 
ATOM      6  C   UNL     1      -5.041  -6.626  10.678  1.00  0.00     0.200 A 
ENDROOT
BRANCH   1   7
ATOM      7  C   UNL     1      -7.719  -9.497  12.430  1.00  0.00     0.072 C 
ATOM      8  O   UNL     1      -8.775  -9.837  11.834  1.00  0.00    -0.545 OA
ATOM      9  O   UNL     1      -7.431 -10.065  13.667  1.00  0.00    -0.545 OA
ENDBRANCH   1   7
BRANCH   4  10
ATOM     10  O   UNL     1      -5.428  -7.646   8.498  1.00  0.00    -0.504 OA
ATOM     11  H   UNL     1      -5.149  -6.828   7.968  1.00  0.00     0.293 HD
ENDBRANCH   4  10
BRANCH   5  12
ATOM     12  O   UNL     1      -4.684  -5.643  12.866  1.00  0.00    -0.504 OA
ATOM     13  H   UNL     1      -3.976  -5.896  13.546  1.00  0.00     0.293 HD
ENDBRANCH   5  12
BRANCH   6  14
ATOM     14  O   UNL     1      -4.174  -5.699  10.099  1.00  0.00    -0.502 OA
ATOM     15  H   UNL     1      -3.661  -5.898   9.248  1.00  0.00     0.293 HD
ENDBRANCH   6  14
TORSDOF 4
ENDMDL
MODEL 3
REMARK VINA RESULT:    -4.881      1.391      3.153
REMARK INTER + INTRA:          -5.644
REMARK INTER:                  -5.592
REMARK INTRA:                  -0.052
REMARK UNBOUND:                -0.049
REMARK SMILES O=C([O-])c1cc(O)c(O)c(O)c1
REMARK SMILES IDX 4 1 5 2 12 3 6 4 10 5 8 6 2 7 1 8 3 9 7 10 11 12 9 14
REMARK H PARENT 7 11 11 13 9 15
REMARK Flexibility Score: inf
ROOT
ATOM      1  C   UNL     1      -6.366  -8.464  10.119  1.00  0.00     0.005 A 
ATOM      2  C   UNL     1      -5.478  -7.475   9.664  1.00  0.00     0.060 A 
ATOM      3  C   UNL     1      -6.705  -8.503  11.481  1.00  0.00     0.060 A 
ATOM      4  C   UNL     1      -4.935  -6.539  10.551  1.00  0.00     0.162 A 
ATOM      5  C   UNL     1      -6.166  -7.569  12.377  1.00  0.00     0.162 A 
ATOM      6  C   UNL     1      -5.278  -6.582  11.913  1.00  0.00     0.200 A 
ENDROOT
BRANCH   1   7
ATOM      7  C   UNL     1      -6.939  -9.453   9.178  1.00  0.00     0.072 C 
ATOM      8  O   UNL     1      -7.956 -10.125   9.494  1.00  0.00    -0.545 OA
ATOM      9  O   UNL     1      -6.360  -9.655   7.929  1.00  0.00    -0.545 OA
ENDBRANCH   1   7
BRANCH   4  10
ATOM     10  O   UNL     1      -4.057  -5.574  10.060  1.00  0.00    -0.504 OA
ATOM     11  H   UNL     1      -3.138  -5.426  10.462  1.00  0.00     0.293 HD
ENDBRANCH   4  10
BRANCH   5  12
ATOM     12  O   UNL     1      -6.510  -7.617  13.727  1.00  0.00    -0.504 OA
ATOM     13  H   UNL     1      -6.675  -6.773  14.264  1.00  0.00     0.293 HD
ENDBRANCH   5  12
BRANCH   6  14
ATOM     14  O   UNL     1      -4.733  -5.645  12.791  1.00  0.00    -0.502 OA
ATOM     15  H   UNL     1      -4.396  -5.900  13.712  1.00  0.00     0.293 HD
ENDBRANCH   6  14
TORSDOF 4
ENDMDL
MODEL 4
REMARK VINA RESULT:    -4.816      1.434      2.741
REMARK INTER + INTRA:          -5.568
REMARK INTER:                  -5.517
REMARK INTRA:                  -0.051
REMARK UNBOUND:                -0.049
REMARK SMILES O=C([O-])c1cc(O)c(O)c(O)c1
REMARK SMILES IDX 4 1 5 2 12 3 6 4 10 5 8 6 2 7 1 8 3 9 7 10 11 12 9 14
REMARK H PARENT 7 11 11 13 9 15
REMARK Flexibility Score: inf
ROOT
ATOM      1  C   UNL     1      -6.288  -8.507  10.063  1.00  0.00     0.005 A 
ATOM      2  C   UNL     1      -6.666  -8.537  11.416  1.00  0.00     0.060 A 
ATOM      3  C   UNL     1      -5.407  -7.507   9.623  1.00  0.00     0.060 A 
ATOM      4  C   UNL     1      -6.173  -7.586  12.317  1.00  0.00     0.162 A 
ATOM      5  C   UNL     1      -4.909  -6.550  10.518  1.00  0.00     0.162 A 
ATOM      6  C   UNL     1      -5.291  -6.588  11.871  1.00  0.00     0.200 A 
ENDROOT
BRANCH   1   7
ATOM      7  C   UNL     1      -6.811  -9.514   9.113  1.00  0.00     0.072 C 
ATOM      8  O   UNL     1      -7.905 -10.097   9.333  1.00  0.00    -0.545 OA
ATOM      9  O   UNL     1      -6.099  -9.832   7.960  1.00  0.00    -0.545 OA
ENDBRANCH   1   7
BRANCH   4  10
ATOM     10  O   UNL     1      -6.571  -7.650  13.651  1.00  0.00    -0.504 OA
ATOM     11  H   UNL     1      -5.954  -7.982  14.384  1.00  0.00     0.293 HD
ENDBRANCH   4  10
BRANCH   5  12
ATOM     12  O   UNL     1      -4.033  -5.561  10.069  1.00  0.00    -0.504 OA
ATOM     13  H   UNL     1      -4.063  -4.618  10.440  1.00  0.00     0.293 HD
ENDBRANCH   5  12
BRANCH   6  14
ATOM     14  O   UNL     1      -4.804  -5.644  12.775  1.00  0.00    -0.502 OA
ATOM     15  H   UNL     1      -3.855  -5.290  12.728  1.00  0.00     0.293 HD
ENDBRANCH   6  14
TORSDOF 4
ENDMDL
MODEL 5
REMARK VINA RESULT:    -4.588      1.474      2.553
REMARK INTER + INTRA:          -5.307
REMARK INTER:                  -5.259
REMARK INTRA:                  -0.048
REMARK UNBOUND:                -0.049
REMARK SMILES O=C([O-])c1cc(O)c(O)c(O)c1
REMARK SMILES IDX 4 1 5 2 12 3 6 4 10 5 8 6 2 7 1 8 3 9 7 10 11 12 9 14
REMARK H PARENT 7 11 11 13 9 15
REMARK Flexibility Score: inf
ROOT
ATOM      1  C   UNL     1      -5.934  -7.796  12.256  1.00  0.00     0.005 A 
ATOM      2  C   UNL     1      -5.150  -6.792  11.663  1.00  0.00     0.060 A 
ATOM      3  C   UNL     1      -6.620  -8.703  11.431  1.00  0.00     0.060 A 
ATOM      4  C   UNL     1      -5.050  -6.693  10.271  1.00  0.00     0.162 A 
ATOM      5  C   UNL     1      -6.525  -8.610  10.035  1.00  0.00     0.162 A 
ATOM      6  C   UNL     1      -5.737  -7.603   9.450  1.00  0.00     0.200 A 
ENDROOT
BRANCH   1   7
ATOM      7  C   UNL     1      -6.040  -7.900  13.728  1.00  0.00     0.072 C 
ATOM      8  O   UNL     1      -5.012  -7.824  14.452  1.00  0.00    -0.545 OA
ATOM      9  O   UNL     1      -7.278  -8.082  14.335  1.00  0.00    -0.545 OA
ENDBRANCH   1   7
BRANCH   4  10
ATOM     10  O   UNL     1      -4.261  -5.682   9.722  1.00  0.00    -0.504 OA
ATOM     11  H   UNL     1      -4.663  -4.854   9.298  1.00  0.00     0.293 HD
ENDBRANCH   4  10
BRANCH   5  12
ATOM     12  O   UNL     1      -7.210  -9.516   9.226  1.00  0.00    -0.504 OA
ATOM     13  H   UNL     1      -8.202  -9.688   9.344  1.00  0.00     0.293 HD
ENDBRANCH   5  12
BRANCH   6  14
ATOM     14  O   UNL     1      -5.631  -7.497   8.063  1.00  0.00    -0.502 OA
ATOM     15  H   UNL     1      -5.352  -8.278   7.482  1.00  0.00     0.293 HD
ENDBRANCH   6  14
TORSDOF 4
ENDMDL
MODEL 6
REMARK VINA RESULT:    -4.584      1.472      3.004
REMARK INTER + INTRA:          -5.303
REMARK INTER:                  -5.254
REMARK INTRA:                  -0.049
REMARK UNBOUND:                -0.049
REMARK SMILES O=C([O-])c1cc(O)c(O)c(O)c1
REMARK SMILES IDX 4 1 5 2 12 3 6 4 10 5 8 6 2 7 1 8 3 9 7 10 11 12 9 14
REMARK H PARENT 7 11 11 13 9 15
REMARK Flexibility Score: inf
ROOT
ATOM      1  C   UNL     1      -5.803  -7.812  12.267  1.00  0.00     0.005 A 
ATOM      2  C   UNL     1      -6.529  -8.696  11.452  1.00  0.00     0.060 A 
ATOM      3  C   UNL     1      -5.012  -6.821  11.664  1.00  0.00     0.060 A 
ATOM      4  C   UNL     1      -6.471  -8.594  10.058  1.00  0.00     0.162 A 
ATOM      5  C   UNL     1      -4.948  -6.711  10.267  1.00  0.00     0.162 A 
ATOM      6  C   UNL     1      -5.680  -7.599   9.459  1.00  0.00     0.200 A 
ENDROOT
BRANCH   1   7
ATOM      7  C   UNL     1      -5.866  -7.923  13.742  1.00  0.00     0.072 C 
ATOM      8  O   UNL     1      -6.966  -8.110  14.324  1.00  0.00    -0.545 OA
ATOM      9  O   UNL     1      -4.707  -7.822  14.506  1.00  0.00    -0.545 OA
ENDBRANCH   1   7
BRANCH   4  10
ATOM     10  O   UNL     1      -7.208  -9.490   9.284  1.00  0.00    -0.504 OA
ATOM     11  H   UNL     1      -7.753  -9.190   8.483  1.00  0.00     0.293 HD
ENDBRANCH   4  10
BRANCH   5  12
ATOM     12  O   UNL     1      -4.161  -5.722   9.679  1.00  0.00    -0.504 OA
ATOM     13  H   UNL     1      -3.463  -5.213  10.211  1.00  0.00     0.293 HD
ENDBRANCH   5  12
BRANCH   6  14
ATOM     14  O   UNL     1      -5.627  -7.503   8.068  1.00  0.00    -0.502 OA
ATOM     15  H   UNL     1      -5.186  -8.212   7.494  1.00  0.00     0.293 HD
ENDBRANCH   6  14
TORSDOF 4
ENDMDL
MODEL 7
REMARK VINA RESULT:    -4.436      2.519      3.838
REMARK INTER + INTRA:          -5.133
REMARK INTER:                  -5.081
REMARK INTRA:                  -0.052
REMARK UNBOUND:                -0.049
REMARK SMILES O=C([O-])c1cc(O)c(O)c(O)c1
REMARK SMILES IDX 4 1 5 2 12 3 6 4 10 5 8 6 2 7 1 8 3 9 7 10 11 12 9 14
REMARK H PARENT 7 11 11 13 9 15
REMARK Flexibility Score: inf
ROOT
ATOM      1  C   UNL     1      -4.798  -8.054   9.905  1.00  0.00     0.005 A 
ATOM      2  C   UNL     1      -4.019  -8.719  10.866  1.00  0.00     0.060 A 
ATOM      3  C   UNL     1      -5.597  -6.970  10.305  1.00  0.00     0.060 A 
ATOM      4  C   UNL     1      -4.034  -8.311  12.205  1.00  0.00     0.162 A 
ATOM      5  C   UNL     1      -5.619  -6.556  11.644  1.00  0.00     0.162 A 
ATOM      6  C   UNL     1      -4.835  -7.226  12.599  1.00  0.00     0.200 A 
ENDROOT
BRANCH   1   7
ATOM      7  C   UNL     1      -4.780  -8.487   8.490  1.00  0.00     0.072 C 
ATOM      8  O   UNL     1      -5.734  -8.201   7.719  1.00  0.00    -0.545 OA
ATOM      9  O   UNL     1      -3.707  -9.217   7.990  1.00  0.00    -0.545 OA
ENDBRANCH   1   7
BRANCH   4  10
ATOM     10  O   UNL     1      -3.247  -8.998  13.128  1.00  0.00    -0.504 OA
ATOM     11  H   UNL     1      -2.906  -9.936  12.955  1.00  0.00     0.293 HD
ENDBRANCH   4  10
BRANCH   5  12
ATOM     12  O   UNL     1      -6.416  -5.478  12.029  1.00  0.00    -0.504 OA
ATOM     13  H   UNL     1      -6.044  -4.537  12.087  1.00  0.00     0.293 HD
ENDBRANCH   5  12
BRANCH   6  14
ATOM     14  O   UNL     1      -4.845  -6.826  13.936  1.00  0.00    -0.502 OA
ATOM     15  H   UNL     1      -5.694  -6.538  14.407  1.00  0.00     0.293 HD
ENDBRANCH   6  14
TORSDOF 4
ENDMDL
MODEL 8
REMARK VINA RESULT:    -4.404      2.509      3.964
REMARK INTER + INTRA:          -5.096
REMARK INTER:                  -5.045
REMARK INTRA:                  -0.051
REMARK UNBOUND:                -0.049
REMARK SMILES O=C([O-])c1cc(O)c(O)c(O)c1
REMARK SMILES IDX 4 1 5 2 12 3 6 4 10 5 8 6 2 7 1 8 3 9 7 10 11 12 9 14
REMARK H PARENT 7 11 11 13 9 15
REMARK Flexibility Score: inf
ROOT
ATOM      1  C   UNL     1      -4.738  -8.108   9.960  1.00  0.00     0.005 A 
ATOM      2  C   UNL     1      -5.518  -7.019  10.384  1.00  0.00     0.060 A 
ATOM      3  C   UNL     1      -3.974  -8.810  10.906  1.00  0.00     0.060 A 
ATOM      4  C   UNL     1      -5.538  -6.636  11.730  1.00  0.00     0.162 A 
ATOM      5  C   UNL     1      -3.988  -8.432  12.257  1.00  0.00     0.162 A 
ATOM      6  C   UNL     1      -4.772  -7.342  12.673  1.00  0.00     0.200 A 
ENDROOT
BRANCH   1   7
ATOM      7  C   UNL     1      -4.719  -8.511   8.536  1.00  0.00     0.072 C 
ATOM      8  O   UNL     1      -3.732  -9.129   8.058  1.00  0.00    -0.545 OA
ATOM      9  O   UNL     1      -5.794  -8.213   7.704  1.00  0.00    -0.545 OA
ENDBRANCH   1   7
BRANCH   4  10
ATOM     10  O   UNL     1      -6.325  -5.549  12.111  1.00  0.00    -0.504 OA
ATOM     11  H   UNL     1      -6.492  -5.319  13.084  1.00  0.00     0.293 HD
ENDBRANCH   4  10
BRANCH   5  12
ATOM     12  O   UNL     1      -3.226  -9.138  13.187  1.00  0.00    -0.504 OA
ATOM     13  H   UNL     1      -2.255  -9.373  13.010  1.00  0.00     0.293 HD
ENDBRANCH   5  12
BRANCH   6  14
ATOM     14  O   UNL     1      -4.797  -6.954  14.012  1.00  0.00    -0.502 OA
ATOM     15  H   UNL     1      -5.489  -7.305  14.664  1.00  0.00     0.293 HD
ENDBRANCH   6  14
TORSDOF 4
ENDMDL
MODEL 9
REMARK VINA RESULT:    -4.383      1.197      4.295
REMARK INTER + INTRA:          -5.072
REMARK INTER:                  -5.023
REMARK INTRA:                  -0.049
REMARK UNBOUND:                -0.049
REMARK SMILES O=C([O-])c1cc(O)c(O)c(O)c1
REMARK SMILES IDX 4 1 5 2 12 3 6 4 10 5 8 6 2 7 1 8 3 9 7 10 11 12 9 14
REMARK H PARENT 7 11 11 13 9 15
REMARK Flexibility Score: inf
ROOT
ATOM      1  C   UNL     1      -5.298  -7.862  10.212  1.00  0.00     0.005 A 
ATOM      2  C   UNL     1      -6.398  -8.652  10.586  1.00  0.00     0.060 A 
ATOM      3  C   UNL     1      -4.792  -6.921  11.123  1.00  0.00     0.060 A 
ATOM      4  C   UNL     1      -6.985  -8.507  11.848  1.00  0.00     0.162 A 
ATOM      5  C   UNL     1      -5.374  -6.769  12.389  1.00  0.00     0.162 A 
ATOM      6  C   UNL     1      -6.474  -7.565  12.756  1.00  0.00     0.200 A 
ENDROOT
BRANCH   1   7
ATOM      7  C   UNL     1      -4.679  -8.017   8.876  1.00  0.00     0.072 C 
ATOM      8  O   UNL     1      -3.428  -7.979   8.740  1.00  0.00    -0.545 OA
ATOM      9  O   UNL     1      -5.473  -8.206   7.749  1.00  0.00    -0.545 OA
ENDBRANCH   1   7
BRANCH   4  10
ATOM     10  O   UNL     1      -8.075  -9.310  12.182  1.00  0.00    -0.504 OA
ATOM     11  H   UNL     1      -8.081  -9.894  13.011  1.00  0.00     0.293 HD
ENDBRANCH   4  10
BRANCH   5  12
ATOM     12  O   UNL     1      -4.862  -5.832  13.286  1.00  0.00    -0.504 OA
ATOM     13  H   UNL     1      -5.452  -5.378  13.974  1.00  0.00     0.293 HD
ENDBRANCH   5  12
BRANCH   6  14
ATOM     14  O   UNL     1      -7.064  -7.427  14.013  1.00  0.00    -0.502 OA
ATOM     15  H   UNL     1      -8.069  -7.439  14.141  1.00  0.00     0.293 HD
ENDBRANCH   6  14
TORSDOF 4
ENDMDL
