MODEL 1
REMARK VINA RESULT:    18.228      0.000      0.000
REMARK INTER + INTRA:          26.061
REMARK INTER:                  25.154
REMARK INTRA:                   0.907
REMARK UNBOUND:                 0.907
REMARK SMILES C=C(CC[C@H](C(=O)[O-])[C@H]1CC[C@@]2(C)C3=C(CC[C@@]12C)[C@@]1(C)CC[C@@H](O)C(C)(C)[C@H]1CC3)C(C)C
REMARK SMILES IDX 4 1 5 2 6 3 7 4 8 5 9 6 10 7 18 8 11 9 12 10 17 11 19 12
REMARK SMILES IDX 13 13 14 14 16 15 15 16 31 17 20 18 30 19 29 20 22 21 21 22
REMARK SMILES IDX 26 23 23 24 24 25 27 26 28 27 25 28 3 30 2 31 1 32 32 33
REMARK SMILES IDX 33 34 34 35
REMARK H PARENT 25 29
REMARK Flexibility Score: inf
ROOT
ATOM      1  C   UNL     1      -0.734  27.812  29.723  1.00  0.00     0.014 C 
ENDROOT
BRANCH   1   2
ATOM      2  C   UNL     1      -1.743  27.712  30.892  1.00  0.00     0.039 C 
BRANCH   2   3
ATOM      3  C   UNL     1      -1.951  26.263  31.256  1.00  0.00     0.045 C 
ATOM      4  O   UNL     1      -0.966  25.485  31.365  1.00  0.00    -0.550 OA
ATOM      5  O   UNL     1      -3.237  25.772  31.447  1.00  0.00    -0.550 OA
ENDBRANCH   2   3
BRANCH   2   6
ATOM      6  C   UNL     1      -3.137  28.374  30.586  1.00  0.00     0.004 C 
ATOM      7  C   UNL     1      -3.304  29.666  31.400  1.00  0.00     0.006 C 
ATOM      8  C   UNL     1      -3.546  28.747  29.115  1.00  0.00    -0.020 C 
ATOM      9  C   UNL     1      -4.296  30.560  30.671  1.00  0.00     0.012 C 
ATOM     10  C   UNL     1      -4.653  29.875  29.324  1.00  0.00    -0.006 C 
ATOM     11  C   UNL     1      -2.343  29.274  28.252  1.00  0.00     0.012 C 
ATOM     12  C   UNL     1      -4.131  27.510  28.365  1.00  0.00     0.012 C 
ATOM     13  C   UNL     1      -6.077  29.260  29.517  1.00  0.00     0.017 C 
ATOM     14  C   UNL     1      -4.625  30.945  28.195  1.00  0.00    -0.064 C 
ATOM     15  C   UNL     1      -2.169  30.784  28.317  1.00  0.00     0.032 C 
ATOM     16  C   UNL     1      -3.426  31.470  27.797  1.00  0.00    -0.064 C 
ATOM     17  C   UNL     1      -5.922  31.531  27.683  1.00  0.00     0.032 C 
ATOM     18  C   UNL     1      -3.287  32.669  26.811  1.00  0.00    -0.008 C 
ATOM     19  C   UNL     1      -5.762  32.242  26.354  1.00  0.00     0.009 C 
ATOM     20  C   UNL     1      -4.681  33.342  26.453  1.00  0.00     0.007 C 
ATOM     21  C   UNL     1      -2.608  32.133  25.515  1.00  0.00     0.014 C 
ATOM     22  C   UNL     1      -2.373  33.706  27.523  1.00  0.00     0.016 C 
ATOM     23  C   UNL     1      -4.676  34.318  25.185  1.00  0.00    -0.006 C 
ATOM     24  C   UNL     1      -2.533  33.149  24.374  1.00  0.00     0.033 C 
ATOM     25  C   UNL     1      -3.919  33.677  23.980  1.00  0.00     0.120 C 
ATOM     26  C   UNL     1      -4.034  35.697  25.539  1.00  0.00     0.014 C 
ATOM     27  C   UNL     1      -6.124  34.666  24.723  1.00  0.00     0.014 C 
BRANCH  25  28
ATOM     28  O   UNL     1      -4.672  32.626  23.423  1.00  0.00    -0.393 OA
ATOM     29  H   UNL     1      -5.486  32.522  23.982  1.00  0.00     0.210 HD
ENDBRANCH  25  28
ENDBRANCH   2   6
ENDBRANCH   1   2
BRANCH   1  30
ATOM     30  C   UNL     1       0.087  26.524  29.485  1.00  0.00     0.031 C 
BRANCH  30  31
ATOM     31  C   UNL     1      -0.098  25.909  28.109  1.00  0.00    -0.075 C 
ATOM     32  C   UNL     1       0.846  25.077  27.629  1.00  0.00     0.008 C 
BRANCH  31  33
ATOM     33  C   UNL     1      -1.432  26.076  27.388  1.00  0.00     0.008 C 
ATOM     34  C   UNL     1      -1.275  26.251  25.870  1.00  0.00     0.012 C 
ATOM     35  C   UNL     1      -2.358  24.897  27.703  1.00  0.00     0.012 C 
ENDBRANCH  31  33
ENDBRANCH  30  31
ENDBRANCH   1  30
TORSDOF 7
ENDMDL
MODEL 2
REMARK VINA RESULT:    20.810      1.860      7.975
REMARK INTER + INTRA:          29.625
REMARK INTER:                  28.762
REMARK INTRA:                   0.863
REMARK UNBOUND:                 0.907
REMARK SMILES C=C(CC[C@H](C(=O)[O-])[C@H]1CC[C@@]2(C)C3=C(CC[C@@]12C)[C@@]1(C)CC[C@@H](O)C(C)(C)[C@H]1CC3)C(C)C
REMARK SMILES IDX 4 1 5 2 6 3 7 4 8 5 9 6 10 7 18 8 11 9 12 10 17 11 19 12
REMARK SMILES IDX 13 13 14 14 16 15 15 16 31 17 20 18 30 19 29 20 22 21 21 22
REMARK SMILES IDX 26 23 23 24 24 25 27 26 28 27 25 28 3 30 2 31 1 32 32 33
REMARK SMILES IDX 33 34 34 35
REMARK H PARENT 25 29
REMARK Flexibility Score: inf
ROOT
ATOM      1  C   UNL     1      -5.103  31.791  25.462  1.00  0.00     0.014 C 
ENDROOT
BRANCH   1   2
ATOM      2  C   UNL     1      -5.526  32.524  26.757  1.00  0.00     0.039 C 
BRANCH   2   3
ATOM      3  C   UNL     1      -4.885  33.889  26.795  1.00  0.00     0.045 C 
ATOM      4  O   UNL     1      -5.566  34.905  27.100  1.00  0.00    -0.550 OA
ATOM      5  O   UNL     1      -3.543  34.038  26.468  1.00  0.00    -0.550 OA
ENDBRANCH   2   3
BRANCH   2   6
ATOM      6  C   UNL     1      -5.165  31.747  28.075  1.00  0.00     0.004 C 
ATOM      7  C   UNL     1      -6.125  30.564  28.278  1.00  0.00     0.006 C 
ATOM      8  C   UNL     1      -3.723  31.161  28.296  1.00  0.00    -0.020 C 
ATOM      9  C   UNL     1      -5.422  29.526  29.138  1.00  0.00     0.012 C 
ATOM     10  C   UNL     1      -3.963  30.006  29.368  1.00  0.00    -0.006 C 
ATOM     11  C   UNL     1      -3.076  30.598  26.979  1.00  0.00     0.012 C 
ATOM     12  C   UNL     1      -2.752  32.252  28.844  1.00  0.00     0.012 C 
ATOM     13  C   UNL     1      -3.915  30.555  30.831  1.00  0.00     0.017 C 
ATOM     14  C   UNL     1      -3.001  28.801  29.163  1.00  0.00    -0.064 C 
ATOM     15  C   UNL     1      -3.365  29.122  26.746  1.00  0.00     0.032 C 
ATOM     16  C   UNL     1      -2.810  28.301  27.904  1.00  0.00    -0.064 C 
ATOM     17  C   UNL     1      -2.437  28.077  30.365  1.00  0.00     0.032 C 
ATOM     18  C   UNL     1      -2.018  26.994  27.599  1.00  0.00    -0.008 C 
ATOM     19  C   UNL     1      -1.242  27.209  30.021  1.00  0.00     0.009 C 
ATOM     20  C   UNL     1      -1.607  26.198  28.912  1.00  0.00     0.007 C 
ATOM     21  C   UNL     1      -0.743  27.395  26.799  1.00  0.00     0.014 C 
ATOM     22  C   UNL     1      -2.960  26.115  26.728  1.00  0.00     0.016 C 
ATOM     23  C   UNL     1      -0.492  25.067  28.717  1.00  0.00    -0.006 C 
ATOM     24  C   UNL     1       0.234  26.244  26.549  1.00  0.00     0.033 C 
ATOM     25  C   UNL     1       0.700  25.588  27.856  1.00  0.00     0.120 C 
ATOM     26  C   UNL     1      -1.099  23.787  28.060  1.00  0.00     0.014 C 
ATOM     27  C   UNL     1       0.072  24.575  30.085  1.00  0.00     0.014 C 
BRANCH  25  28
ATOM     28  O   UNL     1       1.473  26.510  28.585  1.00  0.00    -0.393 OA
ATOM     29  H   UNL     1       1.925  27.098  27.925  1.00  0.00     0.210 HD
ENDBRANCH  25  28
ENDBRANCH   2   6
ENDBRANCH   1   2
BRANCH   1  30
ATOM     30  C   UNL     1      -6.124  31.904  24.307  1.00  0.00     0.031 C 
BRANCH  30  31
ATOM     31  C   UNL     1      -5.659  32.759  23.142  1.00  0.00    -0.075 C 
ATOM     32  C   UNL     1      -5.947  32.369  21.885  1.00  0.00     0.008 C 
BRANCH  31  33
ATOM     33  C   UNL     1      -5.064  34.136  23.415  1.00  0.00     0.008 C 
ATOM     34  C   UNL     1      -4.563  34.836  22.143  1.00  0.00     0.012 C 
ATOM     35  C   UNL     1      -6.077  35.017  24.153  1.00  0.00     0.012 C 
ENDBRANCH  31  33
ENDBRANCH  30  31
ENDBRANCH   1  30
TORSDOF 7
ENDMDL
MODEL 3
REMARK VINA RESULT:    21.123      1.424      2.185
REMARK INTER + INTRA:          30.057
REMARK INTER:                  29.335
REMARK INTRA:                   0.722
REMARK UNBOUND:                 0.907
REMARK SMILES C=C(CC[C@H](C(=O)[O-])[C@H]1CC[C@@]2(C)C3=C(CC[C@@]12C)[C@@]1(C)CC[C@@H](O)C(C)(C)[C@H]1CC3)C(C)C
REMARK SMILES IDX 4 1 5 2 6 3 7 4 8 5 9 6 10 7 18 8 11 9 12 10 17 11 19 12
REMARK SMILES IDX 13 13 14 14 16 15 15 16 31 17 20 18 30 19 29 20 22 21 21 22
REMARK SMILES IDX 26 23 23 24 24 25 27 26 28 27 25 28 3 30 2 31 1 32 32 33
REMARK SMILES IDX 33 34 34 35
REMARK H PARENT 25 29
REMARK Flexibility Score: inf
ROOT
ATOM      1  C   UNL     1      -2.323  26.943  27.499  1.00  0.00     0.014 C 
ENDROOT
BRANCH   1   2
ATOM      2  C   UNL     1      -2.931  26.707  28.902  1.00  0.00     0.039 C 
BRANCH   2   3
ATOM      3  C   UNL     1      -3.757  25.445  28.888  1.00  0.00     0.045 C 
ATOM      4  O   UNL     1      -4.798  25.356  29.594  1.00  0.00    -0.550 OA
ATOM      5  O   UNL     1      -3.360  24.362  28.115  1.00  0.00    -0.550 OA
ENDBRANCH   2   3
BRANCH   2   6
ATOM      6  C   UNL     1      -3.817  27.899  29.420  1.00  0.00     0.004 C 
ATOM      7  C   UNL     1      -2.977  28.855  30.280  1.00  0.00     0.006 C 
ATOM      8  C   UNL     1      -4.600  28.818  28.412  1.00  0.00    -0.020 C 
ATOM      9  C   UNL     1      -3.632  30.227  30.241  1.00  0.00     0.012 C 
ATOM     10  C   UNL     1      -4.820  30.159  29.244  1.00  0.00    -0.006 C 
ATOM     11  C   UNL     1      -3.810  29.089  27.081  1.00  0.00     0.012 C 
ATOM     12  C   UNL     1      -5.961  28.172  28.005  1.00  0.00     0.012 C 
ATOM     13  C   UNL     1      -6.114  30.092  30.118  1.00  0.00     0.017 C 
ATOM     14  C   UNL     1      -4.789  31.425  28.340  1.00  0.00    -0.064 C 
ATOM     15  C   UNL     1      -2.934  30.332  27.140  1.00  0.00     0.032 C 
ATOM     16  C   UNL     1      -3.800  31.558  27.405  1.00  0.00    -0.064 C 
ATOM     17  C   UNL     1      -5.727  32.576  28.627  1.00  0.00     0.032 C 
ATOM     18  C   UNL     1      -3.559  32.853  26.572  1.00  0.00    -0.008 C 
ATOM     19  C   UNL     1      -5.852  33.537  27.461  1.00  0.00     0.009 C 
ATOM     20  C   UNL     1      -4.464  34.071  27.046  1.00  0.00     0.007 C 
ATOM     21  C   UNL     1      -3.863  32.515  25.082  1.00  0.00     0.014 C 
ATOM     22  C   UNL     1      -2.058  33.212  26.760  1.00  0.00     0.016 C 
ATOM     23  C   UNL     1      -4.555  35.305  26.031  1.00  0.00    -0.006 C 
ATOM     24  C   UNL     1      -3.826  33.720  24.140  1.00  0.00     0.033 C 
ATOM     25  C   UNL     1      -4.808  34.818  24.570  1.00  0.00     0.120 C 
ATOM     26  C   UNL     1      -3.257  36.172  26.081  1.00  0.00     0.014 C 
ATOM     27  C   UNL     1      -5.700  36.288  26.424  1.00  0.00     0.014 C 
BRANCH  25  28
ATOM     28  O   UNL     1      -6.125  34.341  24.427  1.00  0.00    -0.393 OA
ATOM     29  H   UNL     1      -6.195  33.512  24.970  1.00  0.00     0.210 HD
ENDBRANCH  25  28
ENDBRANCH   2   6
ENDBRANCH   1   2
BRANCH   1  30
ATOM     30  C   UNL     1      -1.211  25.940  27.114  1.00  0.00     0.031 C 
BRANCH  30  31
ATOM     31  C   UNL     1      -0.175  25.708  28.199  1.00  0.00    -0.075 C 
ATOM     32  C   UNL     1       0.603  24.611  28.140  1.00  0.00     0.008 C 
BRANCH  31  33
ATOM     33  C   UNL     1       0.108  26.813  29.212  1.00  0.00     0.008 C 
ATOM     34  C   UNL     1      -0.226  26.404  30.655  1.00  0.00     0.012 C 
ATOM     35  C   UNL     1       1.566  27.272  29.105  1.00  0.00     0.012 C 
ENDBRANCH  31  33
ENDBRANCH  30  31
ENDBRANCH   1  30
TORSDOF 7
ENDMDL
