MODEL 1
REMARK VINA RESULT:     8.602      0.000      0.000
REMARK INTER + INTRA:          10.851
REMARK INTER:                  11.619
REMARK INTRA:                  -0.768
REMARK UNBOUND:                -0.768
REMARK SMILES CC[C@@H](CC[C@@H](C)[C@@H]1CC[C@H]2[C@H]3CC(=O)C4=CC(=O)CC[C@@]4(C)[C@@H]3CC[C@]21C)C(C)C
REMARK SMILES IDX 4 1 3 2 2 3 1 4 29 5 30 6 31 7 5 8 6 9 7 10 8 11 9 12 27 13
REMARK SMILES IDX 10 14 11 15 26 16 28 17 12 18 25 19 24 20 13 21 22 22 14 23
REMARK SMILES IDX 16 24 21 25 23 26 15 27 17 28 20 29 18 30 19 31
REMARK H PARENT
REMARK Flexibility Score: inf
ROOT
ATOM      1  C   UNL     1      -1.275  48.970  14.446  1.00  0.00     0.004 C 
ENDROOT
BRANCH   1   2
ATOM      2  C   UNL     1      -2.638  48.225  14.353  1.00  0.00    -0.009 C 
BRANCH   2   3
ATOM      3  C   UNL     1      -3.502  48.825  13.207  1.00  0.00     0.000 C 
ATOM      4  C   UNL     1      -4.733  47.985  12.857  1.00  0.00     0.004 C 
ENDBRANCH   2   3
BRANCH   2   5
ATOM      5  C   UNL     1      -3.395  48.191  15.725  1.00  0.00    -0.014 C 
ATOM      6  C   UNL     1      -2.723  49.038  16.818  1.00  0.00     0.007 C 
ATOM      7  C   UNL     1      -3.624  46.756  16.230  1.00  0.00     0.007 C 
ENDBRANCH   2   5
ENDBRANCH   1   2
BRANCH   1   8
ATOM      8  C   UNL     1      -0.219  48.424  13.462  1.00  0.00     0.004 C 
BRANCH   8   9
ATOM      9  C   UNL     1       1.056  47.897  14.183  1.00  0.00    -0.011 C 
ATOM     10  C   UNL     1       2.254  47.906  13.203  1.00  0.00     0.008 C 
BRANCH   9  11
ATOM     11  C   UNL     1       1.298  48.687  15.524  1.00  0.00    -0.002 C 
ATOM     12  C   UNL     1       2.768  49.114  15.707  1.00  0.00     0.005 C 
ATOM     13  C   UNL     1       0.912  48.001  16.878  1.00  0.00    -0.026 C 
ATOM     14  C   UNL     1       3.344  48.276  16.852  1.00  0.00     0.005 C 
ATOM     15  C   UNL     1       2.227  47.334  17.333  1.00  0.00    -0.001 C 
ATOM     16  C   UNL     1       0.502  49.120  17.889  1.00  0.00     0.007 C 
ATOM     17  C   UNL     1      -0.251  46.984  16.750  1.00  0.00     0.012 C 
ATOM     18  C   UNL     1       2.276  46.945  18.844  1.00  0.00     0.004 C 
ATOM     19  C   UNL     1       0.480  48.662  19.349  1.00  0.00     0.005 C 
ATOM     20  C   UNL     1       1.853  48.103  19.796  1.00  0.00     0.003 C 
ATOM     21  C   UNL     1       3.665  46.386  19.206  1.00  0.00     0.085 C 
ATOM     22  C   UNL     1       1.879  47.694  21.329  1.00  0.00    -0.000 C 
ATOM     23  C   UNL     1       3.772  46.054  20.656  1.00  0.00     0.159 C 
ATOM     24  C   UNL     1       3.185  46.964  21.659  1.00  0.00     0.005 C 
ATOM     25  C   UNL     1       1.773  48.987  22.201  1.00  0.00     0.020 C 
ATOM     26  C   UNL     1       0.711  46.736  21.689  1.00  0.00     0.017 C 
ATOM     27  O   UNL     1       4.444  45.048  21.013  1.00  0.00    -0.295 OA
ATOM     28  C   UNL     1       3.751  47.043  22.878  1.00  0.00     0.055 C 
ATOM     29  C   UNL     1       1.981  48.728  23.698  1.00  0.00     0.081 C 
ATOM     30  C   UNL     1       3.213  47.915  23.933  1.00  0.00     0.156 C 
ATOM     31  O   UNL     1       3.775  47.946  25.059  1.00  0.00    -0.295 OA
ENDBRANCH   9  11
ENDBRANCH   8   9
ENDBRANCH   1   8
TORSDOF 6
ENDMDL
MODEL 2
REMARK VINA RESULT:     9.739      1.580      3.011
REMARK INTER + INTRA:          12.387
REMARK INTER:                  12.201
REMARK INTRA:                   0.186
REMARK UNBOUND:                -0.768
REMARK SMILES CC[C@@H](CC[C@@H](C)[C@@H]1CC[C@H]2[C@H]3CC(=O)C4=CC(=O)CC[C@@]4(C)[C@@H]3CC[C@]21C)C(C)C
REMARK SMILES IDX 4 1 3 2 2 3 1 4 29 5 30 6 31 7 5 8 6 9 7 10 8 11 9 12 27 13
REMARK SMILES IDX 10 14 11 15 26 16 28 17 12 18 25 19 24 20 13 21 22 22 14 23
REMARK SMILES IDX 16 24 21 25 23 26 15 27 17 28 20 29 18 30 19 31
REMARK H PARENT
REMARK Flexibility Score: inf
ROOT
ATOM      1  C   UNL     1      -2.673  48.801  15.138  1.00  0.00     0.004 C 
ENDROOT
BRANCH   1   2
ATOM      2  C   UNL     1      -2.909  48.759  13.600  1.00  0.00    -0.009 C 
BRANCH   2   3
ATOM      3  C   UNL     1      -4.151  47.884  13.270  1.00  0.00     0.000 C 
ATOM      4  C   UNL     1      -5.128  48.542  12.292  1.00  0.00     0.004 C 
ENDBRANCH   2   3
BRANCH   2   5
ATOM      5  C   UNL     1      -1.629  48.314  12.812  1.00  0.00    -0.014 C 
ATOM      6  C   UNL     1      -0.338  48.393  13.643  1.00  0.00     0.007 C 
ATOM      7  C   UNL     1      -1.459  49.083  11.491  1.00  0.00     0.007 C 
ENDBRANCH   2   5
ENDBRANCH   1   2
BRANCH   1   8
ATOM      8  C   UNL     1      -3.777  48.079  15.939  1.00  0.00     0.004 C 
BRANCH   8   9
ATOM      9  C   UNL     1      -3.211  47.267  17.141  1.00  0.00    -0.011 C 
ATOM     10  C   UNL     1      -2.484  46.002  16.622  1.00  0.00     0.008 C 
BRANCH   9  11
ATOM     11  C   UNL     1      -2.337  48.193  18.069  1.00  0.00    -0.002 C 
ATOM     12  C   UNL     1      -1.296  49.014  17.282  1.00  0.00     0.005 C 
ATOM     13  C   UNL     1      -1.523  47.531  19.233  1.00  0.00    -0.026 C 
ATOM     14  C   UNL     1       0.084  48.452  17.633  1.00  0.00     0.005 C 
ATOM     15  C   UNL     1      -0.135  47.282  18.607  1.00  0.00    -0.001 C 
ATOM     16  C   UNL     1      -1.407  48.571  20.394  1.00  0.00     0.007 C 
ATOM     17  C   UNL     1      -2.166  46.231  19.780  1.00  0.00     0.012 C 
ATOM     18  C   UNL     1       1.013  47.035  19.636  1.00  0.00     0.004 C 
ATOM     19  C   UNL     1      -0.326  48.235  21.424  1.00  0.00     0.005 C 
ATOM     20  C   UNL     1       1.071  48.104  20.768  1.00  0.00     0.003 C 
ATOM     21  C   UNL     1       2.363  46.902  18.906  1.00  0.00     0.085 C 
ATOM     22  C   UNL     1       2.222  47.835  21.825  1.00  0.00    -0.000 C 
ATOM     23  C   UNL     1       3.496  46.723  19.859  1.00  0.00     0.159 C 
ATOM     24  C   UNL     1       3.536  47.513  21.105  1.00  0.00     0.005 C 
ATOM     25  C   UNL     1       2.413  49.112  22.705  1.00  0.00     0.020 C 
ATOM     26  C   UNL     1       1.890  46.626  22.742  1.00  0.00     0.017 C 
ATOM     27  O   UNL     1       4.455  45.965  19.544  1.00  0.00    -0.295 OA
ATOM     28  C   UNL     1       4.731  47.834  21.636  1.00  0.00     0.055 C 
ATOM     29  C   UNL     1       3.630  49.032  23.635  1.00  0.00     0.081 C 
ATOM     30  C   UNL     1       4.849  48.604  22.883  1.00  0.00     0.156 C 
ATOM     31  O   UNL     1       5.991  48.871  23.342  1.00  0.00    -0.295 OA
ENDBRANCH   9  11
ENDBRANCH   8   9
ENDBRANCH   1   8
TORSDOF 6
ENDMDL
MODEL 3
REMARK VINA RESULT:    10.647      3.254      8.958
REMARK INTER + INTRA:          13.614
REMARK INTER:                  12.797
REMARK INTRA:                   0.817
REMARK UNBOUND:                -0.768
REMARK SMILES CC[C@@H](CC[C@@H](C)[C@@H]1CC[C@H]2[C@H]3CC(=O)C4=CC(=O)CC[C@@]4(C)[C@@H]3CC[C@]21C)C(C)C
REMARK SMILES IDX 4 1 3 2 2 3 1 4 29 5 30 6 31 7 5 8 6 9 7 10 8 11 9 12 27 13
REMARK SMILES IDX 10 14 11 15 26 16 28 17 12 18 25 19 24 20 13 21 22 22 14 23
REMARK SMILES IDX 16 24 21 25 23 26 15 27 17 28 20 29 18 30 19 31
REMARK H PARENT
REMARK Flexibility Score: inf
ROOT
ATOM      1  C   UNL     1       1.748  48.738  23.807  1.00  0.00     0.004 C 
ENDROOT
BRANCH   1   2
ATOM      2  C   UNL     1       2.976  47.926  24.312  1.00  0.00    -0.009 C 
BRANCH   2   3
ATOM      3  C   UNL     1       3.552  48.568  25.606  1.00  0.00     0.000 C 
ATOM      4  C   UNL     1       2.578  48.559  26.786  1.00  0.00     0.004 C 
ENDBRANCH   2   3
BRANCH   2   5
ATOM      5  C   UNL     1       4.061  47.733  23.198  1.00  0.00    -0.014 C 
ATOM      6  C   UNL     1       4.171  48.925  22.234  1.00  0.00     0.007 C 
ATOM      7  C   UNL     1       3.863  46.428  22.408  1.00  0.00     0.007 C 
ENDBRANCH   2   5
ENDBRANCH   1   2
BRANCH   1   8
ATOM      8  C   UNL     1       0.696  47.863  23.093  1.00  0.00     0.004 C 
BRANCH   8   9
ATOM      9  C   UNL     1       1.242  47.220  21.784  1.00  0.00    -0.011 C 
ATOM     10  C   UNL     1       0.703  45.775  21.647  1.00  0.00     0.008 C 
BRANCH   9  11
ATOM     11  C   UNL     1       0.948  48.151  20.547  1.00  0.00    -0.002 C 
ATOM     12  C   UNL     1      -0.287  49.050  20.758  1.00  0.00     0.005 C 
ATOM     13  C   UNL     1       0.722  47.487  19.148  1.00  0.00    -0.026 C 
ATOM     14  C   UNL     1      -1.382  48.542  19.817  1.00  0.00     0.005 C 
ATOM     15  C   UNL     1      -0.810  47.327  19.066  1.00  0.00    -0.001 C 
ATOM     16  C   UNL     1       1.214  48.487  18.051  1.00  0.00     0.007 C 
ATOM     17  C   UNL     1       1.466  46.138  18.972  1.00  0.00     0.012 C 
ATOM     18  C   UNL     1      -1.370  47.097  17.626  1.00  0.00     0.004 C 
ATOM     19  C   UNL     1       0.708  48.165  16.644  1.00  0.00     0.005 C 
ATOM     20  C   UNL     1      -0.838  48.125  16.584  1.00  0.00     0.003 C 
ATOM     21  C   UNL     1      -2.910  47.056  17.654  1.00  0.00     0.085 C 
ATOM     22  C   UNL     1      -1.389  47.872  15.118  1.00  0.00    -0.000 C 
ATOM     23  C   UNL     1      -3.487  46.895  16.289  1.00  0.00     0.159 C 
ATOM     24  C   UNL     1      -2.903  47.639  15.156  1.00  0.00     0.005 C 
ATOM     25  C   UNL     1      -1.078  49.124  14.235  1.00  0.00     0.020 C 
ATOM     26  C   UNL     1      -0.745  46.616  14.470  1.00  0.00     0.017 C 
ATOM     27  O   UNL     1      -4.527  46.196  16.135  1.00  0.00    -0.295 OA
ATOM     28  C   UNL     1      -3.700  47.997  14.131  1.00  0.00     0.055 C 
ATOM     29  C   UNL     1      -1.735  49.068  12.850  1.00  0.00     0.081 C 
ATOM     30  C   UNL     1      -3.186  48.725  12.961  1.00  0.00     0.156 C 
ATOM     31  O   UNL     1      -3.971  49.029  12.025  1.00  0.00    -0.295 OA
ENDBRANCH   9  11
ENDBRANCH   8   9
ENDBRANCH   1   8
TORSDOF 6
ENDMDL
