MODEL 1
REMARK VINA RESULT:    -5.536      0.000      0.000
REMARK INTER + INTRA:         -12.063
REMARK INTER:                 -10.714
REMARK INTRA:                  -1.349
REMARK UNBOUND:                -1.349
REMARK SMILES CCCCCCCCCCCCCCCCCC(=O)[O-]
REMARK SMILES IDX 10 1 11 2 12 3 13 4 14 5 15 6 16 7 17 8 18 9 19 10 20 11
REMARK SMILES IDX 9 12 8 13 7 14 6 15 5 16 4 17 3 18 2 19 1 20
REMARK H PARENT
REMARK Flexibility Score: inf
ROOT
ATOM      1  C   UNL     1     139.441 134.943 142.731  1.00  0.00     0.000 C 
ENDROOT
BRANCH   1   2
ATOM      2  C   UNL     1     137.945 134.979 142.390  1.00  0.00     0.000 C 
BRANCH   2   3
ATOM      3  C   UNL     1     137.338 136.346 142.736  1.00  0.00     0.000 C 
BRANCH   3   4
ATOM      4  C   UNL     1     136.715 137.049 141.517  1.00  0.00     0.000 C 
BRANCH   4   5
ATOM      5  C   UNL     1     136.817 136.267 140.192  1.00  0.00     0.000 C 
BRANCH   5   6
ATOM      6  C   UNL     1     135.474 136.132 139.442  1.00  0.00     0.000 C 
BRANCH   6   7
ATOM      7  C   UNL     1     134.805 134.770 139.681  1.00  0.00     0.006 C 
BRANCH   7   8
ATOM      8  C   UNL     1     133.363 134.944 140.167  1.00  0.00     0.053 C 
BRANCH   8   9
ATOM      9  C   UNL     1     133.265 134.642 141.630  1.00  0.00     0.041 C 
ATOM     10  O   UNL     1     134.308 134.490 142.318  1.00  0.00    -0.550 OA
ATOM     11  O   UNL     1     132.021 134.579 142.243  1.00  0.00    -0.550 OA
ENDBRANCH   8   9
ENDBRANCH   7   8
ENDBRANCH   6   7
ENDBRANCH   5   6
ENDBRANCH   4   5
ENDBRANCH   3   4
ENDBRANCH   2   3
ENDBRANCH   1   2
BRANCH   1  12
ATOM     12  C   UNL     1     140.262 135.948 141.906  1.00  0.00     0.000 C 
BRANCH  12  13
ATOM     13  C   UNL     1     141.690 135.458 141.627  1.00  0.00    -0.000 C 
BRANCH  13  14
ATOM     14  C   UNL     1     142.522 136.551 140.946  1.00  0.00    -0.000 C 
BRANCH  14  15
ATOM     15  C   UNL     1     143.946 136.061 140.657  1.00  0.00    -0.000 C 
BRANCH  15  16
ATOM     16  C   UNL     1     144.695 135.747 141.960  1.00  0.00    -0.000 C 
BRANCH  16  17
ATOM     17  C   UNL     1     145.335 134.350 141.952  1.00  0.00    -0.000 C 
BRANCH  17  18
ATOM     18  C   UNL     1     145.473 133.753 143.363  1.00  0.00    -0.000 C 
BRANCH  18  19
ATOM     19  C   UNL     1     144.829 132.363 143.480  1.00  0.00    -0.003 C 
ATOM     20  C   UNL     1     143.769 132.111 142.408  1.00  0.00     0.004 C 
ENDBRANCH  18  19
ENDBRANCH  17  18
ENDBRANCH  16  17
ENDBRANCH  15  16
ENDBRANCH  14  15
ENDBRANCH  13  14
ENDBRANCH  12  13
ENDBRANCH   1  12
TORSDOF 16
ENDMDL
MODEL 2
REMARK VINA RESULT:    -5.235      2.095      2.898
REMARK INTER + INTRA:         -11.481
REMARK INTER:                 -10.604
REMARK INTRA:                  -0.877
REMARK UNBOUND:                -1.349
REMARK SMILES CCCCCCCCCCCCCCCCCC(=O)[O-]
REMARK SMILES IDX 10 1 11 2 12 3 13 4 14 5 15 6 16 7 17 8 18 9 19 10 20 11
REMARK SMILES IDX 9 12 8 13 7 14 6 15 5 16 4 17 3 18 2 19 1 20
REMARK H PARENT
REMARK Flexibility Score: inf
ROOT
ATOM      1  C   UNL     1     138.027 135.455 142.421  1.00  0.00     0.000 C 
ENDROOT
BRANCH   1   2
ATOM      2  C   UNL     1     137.582 136.157 141.130  1.00  0.00     0.000 C 
BRANCH   2   3
ATOM      3  C   UNL     1     136.098 135.883 140.843  1.00  0.00     0.000 C 
BRANCH   3   4
ATOM      4  C   UNL     1     135.408 135.091 141.968  1.00  0.00     0.000 C 
BRANCH   4   5
ATOM      5  C   UNL     1     133.909 135.395 142.153  1.00  0.00     0.000 C 
BRANCH   5   6
ATOM      6  C   UNL     1     133.614 136.441 143.249  1.00  0.00     0.000 C 
BRANCH   6   7
ATOM      7  C   UNL     1     132.207 136.282 143.846  1.00  0.00     0.006 C 
BRANCH   7   8
ATOM      8  C   UNL     1     132.268 135.638 145.234  1.00  0.00     0.053 C 
BRANCH   8   9
ATOM      9  C   UNL     1     131.422 134.405 145.276  1.00  0.00     0.041 C 
ATOM     10  O   UNL     1     131.502 133.549 144.356  1.00  0.00    -0.550 OA
ATOM     11  O   UNL     1     130.581 134.176 146.357  1.00  0.00    -0.550 OA
ENDBRANCH   8   9
ENDBRANCH   7   8
ENDBRANCH   6   7
ENDBRANCH   5   6
ENDBRANCH   4   5
ENDBRANCH   3   4
ENDBRANCH   2   3
ENDBRANCH   1   2
BRANCH   1  12
ATOM     12  C   UNL     1     139.441 135.868 142.862  1.00  0.00     0.000 C 
BRANCH  12  13
ATOM     13  C   UNL     1     140.494 135.631 141.770  1.00  0.00    -0.000 C 
BRANCH  13  14
ATOM     14  C   UNL     1     141.156 136.949 141.352  1.00  0.00    -0.000 C 
BRANCH  14  15
ATOM     15  C   UNL     1     142.654 136.754 141.085  1.00  0.00    -0.000 C 
BRANCH  15  16
ATOM     16  C   UNL     1     143.091 135.322 141.427  1.00  0.00    -0.000 C 
BRANCH  16  17
ATOM     17  C   UNL     1     144.619 135.176 141.515  1.00  0.00    -0.000 C 
BRANCH  17  18
ATOM     18  C   UNL     1     145.081 134.575 142.853  1.00  0.00    -0.000 C 
BRANCH  18  19
ATOM     19  C   UNL     1     145.645 133.156 142.698  1.00  0.00    -0.003 C 
ATOM     20  C   UNL     1     144.929 132.135 143.583  1.00  0.00     0.004 C 
ENDBRANCH  18  19
ENDBRANCH  17  18
ENDBRANCH  16  17
ENDBRANCH  15  16
ENDBRANCH  14  15
ENDBRANCH  13  14
ENDBRANCH  12  13
ENDBRANCH   1  12
TORSDOF 16
ENDMDL
MODEL 3
REMARK VINA RESULT:    -5.195      3.308      4.400
REMARK INTER + INTRA:         -11.403
REMARK INTER:                  -9.071
REMARK INTRA:                  -2.331
REMARK UNBOUND:                -1.349
REMARK SMILES CCCCCCCCCCCCCCCCCC(=O)[O-]
REMARK SMILES IDX 10 1 11 2 12 3 13 4 14 5 15 6 16 7 17 8 18 9 19 10 20 11
REMARK SMILES IDX 9 12 8 13 7 14 6 15 5 16 4 17 3 18 2 19 1 20
REMARK H PARENT
REMARK Flexibility Score: inf
ROOT
ATOM      1  C   UNL     1     141.822 138.443 142.286  1.00  0.00     0.000 C 
ENDROOT
BRANCH   1   2
ATOM      2  C   UNL     1     140.881 138.438 141.073  1.00  0.00     0.000 C 
BRANCH   2   3
ATOM      3  C   UNL     1     140.513 137.003 140.671  1.00  0.00     0.000 C 
BRANCH   3   4
ATOM      4  C   UNL     1     140.802 135.979 141.783  1.00  0.00     0.000 C 
BRANCH   4   5
ATOM      5  C   UNL     1     139.557 135.280 142.364  1.00  0.00     0.000 C 
BRANCH   5   6
ATOM      6  C   UNL     1     138.223 135.945 141.962  1.00  0.00     0.000 C 
BRANCH   6   7
ATOM      7  C   UNL     1     137.570 136.699 143.131  1.00  0.00     0.006 C 
BRANCH   7   8
ATOM      8  C   UNL     1     137.495 138.201 142.843  1.00  0.00     0.053 C 
BRANCH   8   9
ATOM      9  C   UNL     1     138.375 138.959 143.787  1.00  0.00     0.041 C 
ATOM     10  O   UNL     1     139.119 138.343 144.593  1.00  0.00    -0.550 OA
ATOM     11  O   UNL     1     138.409 140.347 143.740  1.00  0.00    -0.550 OA
ENDBRANCH   8   9
ENDBRANCH   7   8
ENDBRANCH   6   7
ENDBRANCH   5   6
ENDBRANCH   4   5
ENDBRANCH   3   4
ENDBRANCH   2   3
ENDBRANCH   1   2
BRANCH   1  12
ATOM     12  C   UNL     1     143.165 139.131 141.992  1.00  0.00     0.000 C 
BRANCH  12  13
ATOM     13  C   UNL     1     143.383 139.387 140.493  1.00  0.00    -0.000 C 
BRANCH  13  14
ATOM     14  C   UNL     1     144.578 138.581 139.968  1.00  0.00    -0.000 C 
BRANCH  14  15
ATOM     15  C   UNL     1     144.201 137.110 139.756  1.00  0.00    -0.000 C 
BRANCH  15  16
ATOM     16  C   UNL     1     145.065 136.190 140.631  1.00  0.00    -0.000 C 
BRANCH  16  17
ATOM     17  C   UNL     1     144.250 135.475 141.721  1.00  0.00    -0.000 C 
BRANCH  17  18
ATOM     18  C   UNL     1     145.073 134.420 142.479  1.00  0.00    -0.000 C 
BRANCH  18  19
ATOM     19  C   UNL     1     144.335 133.079 142.609  1.00  0.00    -0.003 C 
ATOM     20  C   UNL     1     144.890 132.206 143.734  1.00  0.00     0.004 C 
ENDBRANCH  18  19
ENDBRANCH  17  18
ENDBRANCH  16  17
ENDBRANCH  15  16
ENDBRANCH  14  15
ENDBRANCH  13  14
ENDBRANCH  12  13
ENDBRANCH   1  12
TORSDOF 16
ENDMDL
MODEL 4
REMARK VINA RESULT:    -5.162      3.730      9.342
REMARK INTER + INTRA:         -11.339
REMARK INTER:                 -10.455
REMARK INTRA:                  -0.884
REMARK UNBOUND:                -1.349
REMARK SMILES CCCCCCCCCCCCCCCCCC(=O)[O-]
REMARK SMILES IDX 10 1 11 2 12 3 13 4 14 5 15 6 16 7 17 8 18 9 19 10 20 11
REMARK SMILES IDX 9 12 8 13 7 14 6 15 5 16 4 17 3 18 2 19 1 20
REMARK H PARENT
REMARK Flexibility Score: inf
ROOT
ATOM      1  C   UNL     1     140.620 135.537 141.836  1.00  0.00     0.000 C 
ENDROOT
BRANCH   1   2
ATOM      2  C   UNL     1     140.368 136.970 141.344  1.00  0.00     0.000 C 
BRANCH   2   3
ATOM      3  C   UNL     1     141.345 137.341 140.219  1.00  0.00     0.000 C 
BRANCH   3   4
ATOM      4  C   UNL     1     142.615 136.471 140.218  1.00  0.00     0.000 C 
BRANCH   4   5
ATOM      5  C   UNL     1     143.799 137.046 141.020  1.00  0.00     0.000 C 
BRANCH   5   6
ATOM      6  C   UNL     1     144.852 135.991 141.423  1.00  0.00     0.000 C 
BRANCH   6   7
ATOM      7  C   UNL     1     144.212 134.693 141.937  1.00  0.00     0.006 C 
BRANCH   7   8
ATOM      8  C   UNL     1     145.226 133.851 142.715  1.00  0.00     0.053 C 
BRANCH   8   9
ATOM      9  C   UNL     1     144.639 132.521 143.072  1.00  0.00     0.041 C 
ATOM     10  O   UNL     1     144.875 132.005 144.196  1.00  0.00    -0.550 OA
ATOM     11  O   UNL     1     143.789 131.877 142.183  1.00  0.00    -0.550 OA
ENDBRANCH   8   9
ENDBRANCH   7   8
ENDBRANCH   6   7
ENDBRANCH   5   6
ENDBRANCH   4   5
ENDBRANCH   3   4
ENDBRANCH   2   3
ENDBRANCH   1   2
BRANCH   1  12
ATOM     12  C   UNL     1     139.398 134.929 142.542  1.00  0.00     0.000 C 
BRANCH  12  13
ATOM     13  C   UNL     1     138.230 135.920 142.662  1.00  0.00    -0.000 C 
BRANCH  13  14
ATOM     14  C   UNL     1     136.930 135.302 142.135  1.00  0.00    -0.000 C 
BRANCH  14  15
ATOM     15  C   UNL     1     135.744 136.251 142.345  1.00  0.00    -0.000 C 
BRANCH  15  16
ATOM     16  C   UNL     1     134.426 135.588 141.916  1.00  0.00    -0.000 C 
BRANCH  16  17
ATOM     17  C   UNL     1     133.416 135.481 143.070  1.00  0.00    -0.000 C 
BRANCH  17  18
ATOM     18  C   UNL     1     132.213 134.587 142.723  1.00  0.00    -0.000 C 
BRANCH  18  19
ATOM     19  C   UNL     1     131.806 133.670 143.885  1.00  0.00    -0.003 C 
ATOM     20  C   UNL     1     131.377 134.448 145.130  1.00  0.00     0.004 C 
ENDBRANCH  18  19
ENDBRANCH  17  18
ENDBRANCH  16  17
ENDBRANCH  15  16
ENDBRANCH  14  15
ENDBRANCH  13  14
ENDBRANCH  12  13
ENDBRANCH   1  12
TORSDOF 16
ENDMDL
MODEL 5
REMARK VINA RESULT:    -5.065      3.152      4.202
REMARK INTER + INTRA:         -11.152
REMARK INTER:                  -9.692
REMARK INTRA:                  -1.460
REMARK UNBOUND:                -1.349
REMARK SMILES CCCCCCCCCCCCCCCCCC(=O)[O-]
REMARK SMILES IDX 10 1 11 2 12 3 13 4 14 5 15 6 16 7 17 8 18 9 19 10 20 11
REMARK SMILES IDX 9 12 8 13 7 14 6 15 5 16 4 17 3 18 2 19 1 20
REMARK H PARENT
REMARK Flexibility Score: inf
ROOT
ATOM      1  C   UNL     1     140.825 136.808 141.533  1.00  0.00     0.000 C 
ENDROOT
BRANCH   1   2
ATOM      2  C   UNL     1     140.620 135.359 141.996  1.00  0.00     0.000 C 
BRANCH   2   3
ATOM      3  C   UNL     1     139.153 135.108 142.375  1.00  0.00     0.000 C 
BRANCH   3   4
ATOM      4  C   UNL     1     138.296 136.386 142.324  1.00  0.00     0.000 C 
BRANCH   4   5
ATOM      5  C   UNL     1     136.788 136.168 142.556  1.00  0.00     0.000 C 
BRANCH   5   6
ATOM      6  C   UNL     1     136.081 137.363 143.231  1.00  0.00     0.000 C 
BRANCH   6   7
ATOM      7  C   UNL     1     137.074 138.344 143.873  1.00  0.00     0.006 C 
BRANCH   7   8
ATOM      8  C   UNL     1     137.295 138.012 145.351  1.00  0.00     0.053 C 
BRANCH   8   9
ATOM      9  C   UNL     1     138.726 138.235 145.729  1.00  0.00     0.041 C 
ATOM     10  O   UNL     1     139.052 139.238 146.416  1.00  0.00    -0.550 OA
ATOM     11  O   UNL     1     139.692 137.307 145.364  1.00  0.00    -0.550 OA
ENDBRANCH   8   9
ENDBRANCH   7   8
ENDBRANCH   6   7
ENDBRANCH   5   6
ENDBRANCH   4   5
ENDBRANCH   3   4
ENDBRANCH   2   3
ENDBRANCH   1   2
BRANCH   1  12
ATOM     12  C   UNL     1     141.534 136.901 140.173  1.00  0.00     0.000 C 
BRANCH  12  13
ATOM     13  C   UNL     1     142.786 137.790 140.217  1.00  0.00    -0.000 C 
BRANCH  13  14
ATOM     14  C   UNL     1     143.282 137.965 141.658  1.00  0.00    -0.000 C 
BRANCH  14  15
ATOM     15  C   UNL     1     144.648 137.297 141.856  1.00  0.00    -0.000 C 
BRANCH  15  16
ATOM     16  C   UNL     1     144.703 135.937 141.145  1.00  0.00    -0.000 C 
BRANCH  16  17
ATOM     17  C   UNL     1     144.207 134.785 142.033  1.00  0.00    -0.000 C 
BRANCH  17  18
ATOM     18  C   UNL     1     145.340 134.130 142.842  1.00  0.00    -0.000 C 
BRANCH  18  19
ATOM     19  C   UNL     1     145.209 132.602 142.908  1.00  0.00    -0.003 C 
ATOM     20  C   UNL     1     143.858 132.102 142.399  1.00  0.00     0.004 C 
ENDBRANCH  18  19
ENDBRANCH  17  18
ENDBRANCH  16  17
ENDBRANCH  15  16
ENDBRANCH  14  15
ENDBRANCH  13  14
ENDBRANCH  12  13
ENDBRANCH   1  12
TORSDOF 16
ENDMDL
MODEL 6
REMARK VINA RESULT:    -5.037      5.021      6.801
REMARK INTER + INTRA:         -11.099
REMARK INTER:                  -9.508
REMARK INTRA:                  -1.590
REMARK UNBOUND:                -1.349
REMARK SMILES CCCCCCCCCCCCCCCCCC(=O)[O-]
REMARK SMILES IDX 10 1 11 2 12 3 13 4 14 5 15 6 16 7 17 8 18 9 19 10 20 11
REMARK SMILES IDX 9 12 8 13 7 14 6 15 5 16 4 17 3 18 2 19 1 20
REMARK H PARENT
REMARK Flexibility Score: inf
ROOT
ATOM      1  C   UNL     1     139.820 137.748 143.723  1.00  0.00     0.000 C 
ENDROOT
BRANCH   1   2
ATOM      2  C   UNL     1     139.083 139.072 143.966  1.00  0.00     0.000 C 
BRANCH   2   3
ATOM      3  C   UNL     1     138.115 139.378 142.814  1.00  0.00     0.000 C 
BRANCH   3   4
ATOM      4  C   UNL     1     138.638 140.474 141.869  1.00  0.00     0.000 C 
BRANCH   4   5
ATOM      5  C   UNL     1     139.542 139.972 140.726  1.00  0.00     0.000 C 
BRANCH   5   6
ATOM      6  C   UNL     1     141.039 140.291 140.927  1.00  0.00     0.000 C 
BRANCH   6   7
ATOM      7  C   UNL     1     141.357 141.776 140.693  1.00  0.00     0.006 C 
BRANCH   7   8
ATOM      8  C   UNL     1     142.861 141.992 140.505  1.00  0.00     0.053 C 
BRANCH   8   9
ATOM      9  C   UNL     1     143.171 142.299 139.074  1.00  0.00     0.041 C 
ATOM     10  O   UNL     1     142.276 142.194 138.195  1.00  0.00    -0.550 OA
ATOM     11  O   UNL     1     144.436 142.749 138.718  1.00  0.00    -0.550 OA
ENDBRANCH   8   9
ENDBRANCH   7   8
ENDBRANCH   6   7
ENDBRANCH   5   6
ENDBRANCH   4   5
ENDBRANCH   3   4
ENDBRANCH   2   3
ENDBRANCH   1   2
BRANCH   1  12
ATOM     12  C   UNL     1     138.933 136.692 143.043  1.00  0.00     0.000 C 
BRANCH  12  13
ATOM     13  C   UNL     1     139.432 136.315 141.639  1.00  0.00    -0.000 C 
BRANCH  13  14
ATOM     14  C   UNL     1     140.851 135.737 141.698  1.00  0.00    -0.000 C 
BRANCH  14  15
ATOM     15  C   UNL     1     141.809 136.535 140.806  1.00  0.00    -0.000 C 
BRANCH  15  16
ATOM     16  C   UNL     1     143.270 136.303 141.221  1.00  0.00    -0.000 C 
BRANCH  16  17
ATOM     17  C   UNL     1     143.523 134.869 141.714  1.00  0.00    -0.000 C 
BRANCH  17  18
ATOM     18  C   UNL     1     144.981 134.640 142.146  1.00  0.00    -0.000 C 
BRANCH  18  19
ATOM     19  C   UNL     1     145.164 133.335 142.934  1.00  0.00    -0.003 C 
ATOM     20  C   UNL     1     144.019 132.347 142.715  1.00  0.00     0.004 C 
ENDBRANCH  18  19
ENDBRANCH  17  18
ENDBRANCH  16  17
ENDBRANCH  15  16
ENDBRANCH  14  15
ENDBRANCH  13  14
ENDBRANCH  12  13
ENDBRANCH   1  12
TORSDOF 16
ENDMDL
MODEL 7
REMARK VINA RESULT:    -5.022      1.740      2.119
REMARK INTER + INTRA:         -11.069
REMARK INTER:                 -10.090
REMARK INTRA:                  -0.978
REMARK UNBOUND:                -1.349
REMARK SMILES CCCCCCCCCCCCCCCCCC(=O)[O-]
REMARK SMILES IDX 10 1 11 2 12 3 13 4 14 5 15 6 16 7 17 8 18 9 19 10 20 11
REMARK SMILES IDX 9 12 8 13 7 14 6 15 5 16 4 17 3 18 2 19 1 20
REMARK H PARENT
REMARK Flexibility Score: inf
ROOT
ATOM      1  C   UNL     1     138.995 135.010 142.629  1.00  0.00     0.000 C 
ENDROOT
BRANCH   1   2
ATOM      2  C   UNL     1     138.460 136.439 142.793  1.00  0.00     0.000 C 
BRANCH   2   3
ATOM      3  C   UNL     1     136.925 136.449 142.818  1.00  0.00     0.000 C 
BRANCH   3   4
ATOM      4  C   UNL     1     136.333 137.858 142.636  1.00  0.00     0.000 C 
BRANCH   4   5
ATOM      5  C   UNL     1     134.930 138.058 143.241  1.00  0.00     0.000 C 
BRANCH   5   6
ATOM      6  C   UNL     1     134.294 136.762 143.788  1.00  0.00     0.000 C 
BRANCH   6   7
ATOM      7  C   UNL     1     132.987 136.401 143.066  1.00  0.00     0.006 C 
BRANCH   7   8
ATOM      8  C   UNL     1     133.023 134.960 142.550  1.00  0.00     0.053 C 
BRANCH   8   9
ATOM      9  C   UNL     1     131.738 134.616 141.866  1.00  0.00     0.041 C 
ATOM     10  O   UNL     1     130.759 134.188 142.532  1.00  0.00    -0.550 OA
ATOM     11  O   UNL     1     131.604 134.817 140.498  1.00  0.00    -0.550 OA
ENDBRANCH   8   9
ENDBRANCH   7   8
ENDBRANCH   6   7
ENDBRANCH   5   6
ENDBRANCH   4   5
ENDBRANCH   3   4
ENDBRANCH   2   3
ENDBRANCH   1   2
BRANCH   1  12
ATOM     12  C   UNL     1     140.496 134.972 142.302  1.00  0.00     0.000 C 
BRANCH  12  13
ATOM     13  C   UNL     1     141.000 136.286 141.685  1.00  0.00    -0.000 C 
BRANCH  13  14
ATOM     14  C   UNL     1     142.252 136.046 140.831  1.00  0.00    -0.000 C 
BRANCH  14  15
ATOM     15  C   UNL     1     143.387 136.993 141.238  1.00  0.00    -0.000 C 
BRANCH  15  16
ATOM     16  C   UNL     1     144.590 136.208 141.782  1.00  0.00    -0.000 C 
BRANCH  16  17
ATOM     17  C   UNL     1     144.281 134.716 141.980  1.00  0.00    -0.000 C 
BRANCH  17  18
ATOM     18  C   UNL     1     145.304 134.014 142.889  1.00  0.00    -0.000 C 
BRANCH  18  19
ATOM     19  C   UNL     1     145.126 132.489 142.910  1.00  0.00    -0.003 C 
ATOM     20  C   UNL     1     143.806 132.040 142.284  1.00  0.00     0.004 C 
ENDBRANCH  18  19
ENDBRANCH  17  18
ENDBRANCH  16  17
ENDBRANCH  15  16
ENDBRANCH  14  15
ENDBRANCH  13  14
ENDBRANCH  12  13
ENDBRANCH   1  12
TORSDOF 16
ENDMDL
MODEL 8
REMARK VINA RESULT:    -5.012      3.285      6.060
REMARK INTER + INTRA:         -11.049
REMARK INTER:                  -8.145
REMARK INTRA:                  -2.904
REMARK UNBOUND:                -1.349
REMARK SMILES CCCCCCCCCCCCCCCCCC(=O)[O-]
REMARK SMILES IDX 10 1 11 2 12 3 13 4 14 5 15 6 16 7 17 8 18 9 19 10 20 11
REMARK SMILES IDX 9 12 8 13 7 14 6 15 5 16 4 17 3 18 2 19 1 20
REMARK H PARENT
REMARK Flexibility Score: inf
ROOT
ATOM      1  C   UNL     1     134.601 137.971 139.662  1.00  0.00     0.000 C 
ENDROOT
BRANCH   1   2
ATOM      2  C   UNL     1     134.455 136.672 138.858  1.00  0.00     0.000 C 
BRANCH   2   3
ATOM      3  C   UNL     1     135.185 135.514 139.554  1.00  0.00     0.000 C 
BRANCH   3   4
ATOM      4  C   UNL     1     134.233 134.589 140.332  1.00  0.00     0.000 C 
BRANCH   4   5
ATOM      5  C   UNL     1     134.336 134.690 141.867  1.00  0.00     0.000 C 
BRANCH   5   6
ATOM      6  C   UNL     1     132.992 134.989 142.565  1.00  0.00     0.000 C 
BRANCH   6   7
ATOM      7  C   UNL     1     131.784 134.615 141.693  1.00  0.00     0.006 C 
BRANCH   7   8
ATOM      8  C   UNL     1     130.822 135.798 141.550  1.00  0.00     0.053 C 
BRANCH   8   9
ATOM      9  C   UNL     1     130.411 135.969 140.121  1.00  0.00     0.041 C 
ATOM     10  O   UNL     1     131.044 135.382 139.205  1.00  0.00    -0.550 OA
ATOM     11  O   UNL     1     129.298 136.737 139.806  1.00  0.00    -0.550 OA
ENDBRANCH   8   9
ENDBRANCH   7   8
ENDBRANCH   6   7
ENDBRANCH   5   6
ENDBRANCH   4   5
ENDBRANCH   3   4
ENDBRANCH   2   3
ENDBRANCH   1   2
BRANCH   1  12
ATOM     12  C   UNL     1     133.394 138.243 140.575  1.00  0.00     0.000 C 
BRANCH  12  13
ATOM     13  C   UNL     1     133.800 138.852 141.926  1.00  0.00    -0.000 C 
BRANCH  13  14
ATOM     14  C   UNL     1     135.268 138.548 142.246  1.00  0.00    -0.000 C 
BRANCH  14  15
ATOM     15  C   UNL     1     135.394 137.733 143.538  1.00  0.00    -0.000 C 
BRANCH  15  16
ATOM     16  C   UNL     1     136.816 137.176 143.701  1.00  0.00    -0.000 C 
BRANCH  16  17
ATOM     17  C   UNL     1     137.439 136.745 142.364  1.00  0.00    -0.000 C 
BRANCH  17  18
ATOM     18  C   UNL     1     137.890 135.274 142.367  1.00  0.00    -0.000 C 
BRANCH  18  19
ATOM     19  C   UNL     1     139.406 135.123 142.555  1.00  0.00    -0.003 C 
ATOM     20  C   UNL     1     140.210 136.066 141.659  1.00  0.00     0.004 C 
ENDBRANCH  18  19
ENDBRANCH  17  18
ENDBRANCH  16  17
ENDBRANCH  15  16
ENDBRANCH  14  15
ENDBRANCH  13  14
ENDBRANCH  12  13
ENDBRANCH   1  12
TORSDOF 16
ENDMDL
MODEL 9
REMARK VINA RESULT:    -4.988      1.250      2.408
REMARK INTER + INTRA:         -11.003
REMARK INTER:                  -9.969
REMARK INTRA:                  -1.035
REMARK UNBOUND:                -1.349
REMARK SMILES CCCCCCCCCCCCCCCCCC(=O)[O-]
REMARK SMILES IDX 10 1 11 2 12 3 13 4 14 5 15 6 16 7 17 8 18 9 19 10 20 11
REMARK SMILES IDX 9 12 8 13 7 14 6 15 5 16 4 17 3 18 2 19 1 20
REMARK H PARENT
REMARK Flexibility Score: inf
ROOT
ATOM      1  C   UNL     1     137.561 136.350 142.610  1.00  0.00     0.000 C 
ENDROOT
BRANCH   1   2
ATOM      2  C   UNL     1     136.470 136.573 141.554  1.00  0.00     0.000 C 
BRANCH   2   3
ATOM      3  C   UNL     1     137.067 136.557 140.139  1.00  0.00     0.000 C 
BRANCH   3   4
ATOM      4  C   UNL     1     136.014 136.288 139.050  1.00  0.00     0.000 C 
BRANCH   4   5
ATOM      5  C   UNL     1     134.705 135.649 139.553  1.00  0.00     0.000 C 
BRANCH   5   6
ATOM      6  C   UNL     1     133.430 136.280 138.950  1.00  0.00     0.000 C 
BRANCH   6   7
ATOM      7  C   UNL     1     132.181 135.418 139.191  1.00  0.00     0.006 C 
BRANCH   7   8
ATOM      8  C   UNL     1     131.220 136.103 140.166  1.00  0.00     0.053 C 
BRANCH   8   9
ATOM      9  C   UNL     1     131.202 135.381 141.477  1.00  0.00     0.041 C 
ATOM     10  O   UNL     1     131.936 135.768 142.424  1.00  0.00    -0.550 OA
ATOM     11  O   UNL     1     130.337 134.312 141.668  1.00  0.00    -0.550 OA
ENDBRANCH   8   9
ENDBRANCH   7   8
ENDBRANCH   6   7
ENDBRANCH   5   6
ENDBRANCH   4   5
ENDBRANCH   3   4
ENDBRANCH   2   3
ENDBRANCH   1   2
BRANCH   1  12
ATOM     12  C   UNL     1     138.258 134.987 142.465  1.00  0.00     0.000 C 
BRANCH  12  13
ATOM     13  C   UNL     1     139.774 135.070 142.696  1.00  0.00    -0.000 C 
BRANCH  13  14
ATOM     14  C   UNL     1     140.316 136.446 142.290  1.00  0.00    -0.000 C 
BRANCH  14  15
ATOM     15  C   UNL     1     141.063 136.371 140.953  1.00  0.00    -0.000 C 
BRANCH  15  16
ATOM     16  C   UNL     1     142.583 136.413 141.169  1.00  0.00    -0.000 C 
BRANCH  16  17
ATOM     17  C   UNL     1     143.164 135.042 141.549  1.00  0.00    -0.000 C 
BRANCH  17  18
ATOM     18  C   UNL     1     144.639 135.122 141.979  1.00  0.00    -0.000 C 
BRANCH  18  19
ATOM     19  C   UNL     1     145.225 133.748 142.333  1.00  0.00    -0.003 C 
ATOM     20  C   UNL     1     145.790 133.693 143.752  1.00  0.00     0.004 C 
ENDBRANCH  18  19
ENDBRANCH  17  18
ENDBRANCH  16  17
ENDBRANCH  15  16
ENDBRANCH  14  15
ENDBRANCH  13  14
ENDBRANCH  12  13
ENDBRANCH   1  12
TORSDOF 16
ENDMDL
