MODEL 1
REMARK VINA RESULT:    -3.857      0.000      0.000
REMARK INTER + INTRA:          -7.400
REMARK INTER:                  -6.563
REMARK INTRA:                  -0.837
REMARK UNBOUND:                -0.837
REMARK SMILES CCCCCCCCCCCCCC(=O)[O-]
REMARK SMILES IDX 8 1 9 2 10 3 11 4 12 5 13 6 14 7 15 8 16 9 7 10 6 11 5 12
REMARK SMILES IDX 4 13 3 14 2 15 1 16
REMARK H PARENT
REMARK Flexibility Score: inf
ROOT
ATOM      1  C   UNL     1     -43.434 -22.515  28.421  1.00  0.00     0.000 C 
ENDROOT
BRANCH   1   2
ATOM      2  C   UNL     1     -44.961 -22.641  28.508  1.00  0.00     0.000 C 
BRANCH   2   3
ATOM      3  C   UNL     1     -45.649 -21.664  27.542  1.00  0.00     0.000 C 
BRANCH   3   4
ATOM      4  C   UNL     1     -47.055 -21.258  28.011  1.00  0.00     0.000 C 
BRANCH   4   5
ATOM      5  C   UNL     1     -47.495 -19.894  27.449  1.00  0.00     0.006 C 
BRANCH   5   6
ATOM      6  C   UNL     1     -46.399 -19.239  26.598  1.00  0.00     0.053 C 
BRANCH   6   7
ATOM      7  C   UNL     1     -46.636 -17.771  26.416  1.00  0.00     0.041 C 
ATOM      8  O   UNL     1     -46.910 -17.310  25.276  1.00  0.00    -0.550 OA
ATOM      9  O   UNL     1     -46.584 -16.916  27.510  1.00  0.00    -0.550 OA
ENDBRANCH   6   7
ENDBRANCH   5   6
ENDBRANCH   4   5
ENDBRANCH   3   4
ENDBRANCH   2   3
ENDBRANCH   1   2
BRANCH   1  10
ATOM     10  C   UNL     1     -43.016 -21.775  27.142  1.00  0.00     0.000 C 
BRANCH  10  11
ATOM     11  C   UNL     1     -41.604 -21.175  27.240  1.00  0.00    -0.000 C 
BRANCH  11  12
ATOM     12  C   UNL     1     -40.923 -21.482  28.583  1.00  0.00    -0.000 C 
BRANCH  12  13
ATOM     13  C   UNL     1     -39.937 -20.371  28.965  1.00  0.00    -0.000 C 
BRANCH  13  14
ATOM     14  C   UNL     1     -38.677 -20.429  28.091  1.00  0.00    -0.000 C 
BRANCH  14  15
ATOM     15  C   UNL     1     -37.933 -21.768  28.213  1.00  0.00    -0.003 C 
ATOM     16  C   UNL     1     -37.475 -22.315  26.862  1.00  0.00     0.004 C 
ENDBRANCH  14  15
ENDBRANCH  13  14
ENDBRANCH  12  13
ENDBRANCH  11  12
ENDBRANCH  10  11
ENDBRANCH   1  10
TORSDOF 12
ENDMDL
MODEL 2
REMARK VINA RESULT:    -3.765      2.854      6.881
REMARK INTER + INTRA:          -7.243
REMARK INTER:                  -6.268
REMARK INTRA:                  -0.975
REMARK UNBOUND:                -0.837
REMARK SMILES CCCCCCCCCCCCCC(=O)[O-]
REMARK SMILES IDX 8 1 9 2 10 3 11 4 12 5 13 6 14 7 15 8 16 9 7 10 6 11 5 12
REMARK SMILES IDX 4 13 3 14 2 15 1 16
REMARK H PARENT
REMARK Flexibility Score: inf
ROOT
ATOM      1  C   UNL     1     -42.363 -22.964  28.289  1.00  0.00     0.000 C 
ENDROOT
BRANCH   1   2
ATOM      2  C   UNL     1     -41.562 -22.197  29.349  1.00  0.00     0.000 C 
BRANCH   2   3
ATOM      3  C   UNL     1     -40.752 -21.059  28.708  1.00  0.00     0.000 C 
BRANCH   3   4
ATOM      4  C   UNL     1     -39.265 -21.411  28.541  1.00  0.00     0.000 C 
BRANCH   4   5
ATOM      5  C   UNL     1     -38.506 -20.383  27.684  1.00  0.00     0.006 C 
BRANCH   5   6
ATOM      6  C   UNL     1     -39.199 -20.129  26.338  1.00  0.00     0.053 C 
BRANCH   6   7
ATOM      7  C   UNL     1     -39.406 -18.667  26.084  1.00  0.00     0.041 C 
ATOM      8  O   UNL     1     -40.053 -17.967  26.907  1.00  0.00    -0.550 OA
ATOM      9  O   UNL     1     -38.860 -18.072  24.954  1.00  0.00    -0.550 OA
ENDBRANCH   6   7
ENDBRANCH   5   6
ENDBRANCH   4   5
ENDBRANCH   3   4
ENDBRANCH   2   3
ENDBRANCH   1   2
BRANCH   1  10
ATOM     10  C   UNL     1     -42.894 -22.014  27.207  1.00  0.00     0.000 C 
BRANCH  10  11
ATOM     11  C   UNL     1     -44.384 -21.680  27.390  1.00  0.00    -0.000 C 
BRANCH  11  12
ATOM     12  C   UNL     1     -45.099 -22.667  28.326  1.00  0.00    -0.000 C 
BRANCH  12  13
ATOM     13  C   UNL     1     -46.518 -22.184  28.651  1.00  0.00    -0.000 C 
BRANCH  13  14
ATOM     14  C   UNL     1     -47.174 -21.536  27.423  1.00  0.00    -0.000 C 
BRANCH  14  15
ATOM     15  C   UNL     1     -47.815 -20.177  27.744  1.00  0.00    -0.003 C 
ATOM     16  C   UNL     1     -47.151 -19.020  26.996  1.00  0.00     0.004 C 
ENDBRANCH  14  15
ENDBRANCH  13  14
ENDBRANCH  12  13
ENDBRANCH  11  12
ENDBRANCH  10  11
ENDBRANCH   1  10
TORSDOF 12
ENDMDL
MODEL 3
REMARK VINA RESULT:    -3.764      2.903      6.252
REMARK INTER + INTRA:          -7.242
REMARK INTER:                  -6.118
REMARK INTRA:                  -1.124
REMARK UNBOUND:                -0.837
REMARK SMILES CCCCCCCCCCCCCC(=O)[O-]
REMARK SMILES IDX 8 1 9 2 10 3 11 4 12 5 13 6 14 7 15 8 16 9 7 10 6 11 5 12
REMARK SMILES IDX 4 13 3 14 2 15 1 16
REMARK H PARENT
REMARK Flexibility Score: inf
ROOT
ATOM      1  C   UNL     1     -45.443 -21.753  27.659  1.00  0.00     0.000 C 
ENDROOT
BRANCH   1   2
ATOM      2  C   UNL     1     -44.397 -22.495  28.500  1.00  0.00     0.000 C 
BRANCH   2   3
ATOM      3  C   UNL     1     -42.984 -22.275  27.938  1.00  0.00     0.000 C 
BRANCH   3   4
ATOM      4  C   UNL     1     -41.912 -22.204  29.038  1.00  0.00     0.000 C 
BRANCH   4   5
ATOM      5  C   UNL     1     -40.523 -21.838  28.488  1.00  0.00     0.006 C 
BRANCH   5   6
ATOM      6  C   UNL     1     -40.245 -20.331  28.577  1.00  0.00     0.053 C 
BRANCH   6   7
ATOM      7  C   UNL     1     -40.043 -19.719  27.225  1.00  0.00     0.041 C 
ATOM      8  O   UNL     1     -40.197 -20.414  26.186  1.00  0.00    -0.550 OA
ATOM      9  O   UNL     1     -39.715 -18.374  27.111  1.00  0.00    -0.550 OA
ENDBRANCH   6   7
ENDBRANCH   5   6
ENDBRANCH   4   5
ENDBRANCH   3   4
ENDBRANCH   2   3
ENDBRANCH   1   2
BRANCH   1  10
ATOM     10  C   UNL     1     -46.836 -21.858  28.296  1.00  0.00     0.000 C 
BRANCH  10  11
ATOM     11  C   UNL     1     -47.655 -20.566  28.147  1.00  0.00    -0.000 C 
BRANCH  11  12
ATOM     12  C   UNL     1     -47.623 -20.007  26.716  1.00  0.00    -0.000 C 
BRANCH  12  13
ATOM     13  C   UNL     1     -46.992 -18.609  26.687  1.00  0.00    -0.000 C 
BRANCH  13  14
ATOM     14  C   UNL     1     -45.974 -18.488  25.544  1.00  0.00    -0.000 C 
BRANCH  14  15
ATOM     15  C   UNL     1     -44.552 -18.197  26.048  1.00  0.00    -0.003 C 
ATOM     16  C   UNL     1     -43.562 -19.306  25.694  1.00  0.00     0.004 C 
ENDBRANCH  14  15
ENDBRANCH  13  14
ENDBRANCH  12  13
ENDBRANCH  11  12
ENDBRANCH  10  11
ENDBRANCH   1  10
TORSDOF 12
ENDMDL
MODEL 4
REMARK VINA RESULT:    -3.712      3.390      6.923
REMARK INTER + INTRA:          -7.153
REMARK INTER:                  -5.872
REMARK INTRA:                  -1.281
REMARK UNBOUND:                -0.837
REMARK SMILES CCCCCCCCCCCCCC(=O)[O-]
REMARK SMILES IDX 8 1 9 2 10 3 11 4 12 5 13 6 14 7 15 8 16 9 7 10 6 11 5 12
REMARK SMILES IDX 4 13 3 14 2 15 1 16
REMARK H PARENT
REMARK Flexibility Score: inf
ROOT
ATOM      1  C   UNL     1     -44.770 -22.689  28.175  1.00  0.00     0.000 C 
ENDROOT
BRANCH   1   2
ATOM      2  C   UNL     1     -44.170 -22.284  26.822  1.00  0.00     0.000 C 
BRANCH   2   3
ATOM      3  C   UNL     1     -42.995 -21.311  27.012  1.00  0.00     0.000 C 
BRANCH   3   4
ATOM      4  C   UNL     1     -41.652 -22.034  27.202  1.00  0.00     0.000 C 
BRANCH   4   5
ATOM      5  C   UNL     1     -41.159 -21.992  28.659  1.00  0.00     0.006 C 
BRANCH   5   6
ATOM      6  C   UNL     1     -40.319 -20.740  28.949  1.00  0.00     0.053 C 
BRANCH   6   7
ATOM      7  C   UNL     1     -38.988 -20.789  28.264  1.00  0.00     0.041 C 
ATOM      8  O   UNL     1     -38.717 -19.969  27.348  1.00  0.00    -0.550 OA
ATOM      9  O   UNL     1     -38.036 -21.721  28.657  1.00  0.00    -0.550 OA
ENDBRANCH   6   7
ENDBRANCH   5   6
ENDBRANCH   4   5
ENDBRANCH   3   4
ENDBRANCH   2   3
ENDBRANCH   1   2
BRANCH   1  10
ATOM     10  C   UNL     1     -46.226 -22.215  28.294  1.00  0.00     0.000 C 
BRANCH  10  11
ATOM     11  C   UNL     1     -47.046 -22.494  27.023  1.00  0.00    -0.000 C 
BRANCH  11  12
ATOM     12  C   UNL     1     -47.857 -21.273  26.563  1.00  0.00    -0.000 C 
BRANCH  12  13
ATOM     13  C   UNL     1     -47.828 -20.164  27.622  1.00  0.00    -0.000 C 
BRANCH  13  14
ATOM     14  C   UNL     1     -47.148 -18.900  27.076  1.00  0.00    -0.000 C 
BRANCH  14  15
ATOM     15  C   UNL     1     -46.147 -19.206  25.951  1.00  0.00    -0.003 C 
ATOM     16  C   UNL     1     -44.905 -18.317  26.008  1.00  0.00     0.004 C 
ENDBRANCH  14  15
ENDBRANCH  13  14
ENDBRANCH  12  13
ENDBRANCH  11  12
ENDBRANCH  10  11
ENDBRANCH   1  10
TORSDOF 12
ENDMDL
MODEL 5
REMARK VINA RESULT:    -3.657      2.030      3.083
REMARK INTER + INTRA:          -7.060
REMARK INTER:                  -5.812
REMARK INTRA:                  -1.248
REMARK UNBOUND:                -0.837
REMARK SMILES CCCCCCCCCCCCCC(=O)[O-]
REMARK SMILES IDX 8 1 9 2 10 3 11 4 12 5 13 6 14 7 15 8 16 9 7 10 6 11 5 12
REMARK SMILES IDX 4 13 3 14 2 15 1 16
REMARK H PARENT
REMARK Flexibility Score: inf
ROOT
ATOM      1  C   UNL     1     -41.548 -22.094  29.183  1.00  0.00     0.000 C 
ENDROOT
BRANCH   1   2
ATOM      2  C   UNL     1     -41.926 -22.525  27.760  1.00  0.00     0.000 C 
BRANCH   2   3
ATOM      3  C   UNL     1     -43.325 -23.159  27.731  1.00  0.00     0.000 C 
BRANCH   3   4
ATOM      4  C   UNL     1     -44.372 -22.317  28.479  1.00  0.00     0.000 C 
BRANCH   4   5
ATOM      5  C   UNL     1     -45.813 -22.776  28.194  1.00  0.00     0.006 C 
BRANCH   5   6
ATOM      6  C   UNL     1     -46.418 -22.062  26.977  1.00  0.00     0.053 C 
BRANCH   6   7
ATOM      7  C   UNL     1     -47.605 -21.229  27.352  1.00  0.00     0.041 C 
ATOM      8  O   UNL     1     -47.707 -20.760  28.517  1.00  0.00    -0.550 OA
ATOM      9  O   UNL     1     -48.584 -20.946  26.408  1.00  0.00    -0.550 OA
ENDBRANCH   6   7
ENDBRANCH   5   6
ENDBRANCH   4   5
ENDBRANCH   3   4
ENDBRANCH   2   3
ENDBRANCH   1   2
BRANCH   1  10
ATOM     10  C   UNL     1     -40.550 -20.926  29.157  1.00  0.00     0.000 C 
BRANCH  10  11
ATOM     11  C   UNL     1     -40.308 -20.386  27.738  1.00  0.00    -0.000 C 
BRANCH  11  12
ATOM     12  C   UNL     1     -38.819 -20.147  27.443  1.00  0.00    -0.000 C 
BRANCH  12  13
ATOM     13  C   UNL     1     -37.943 -21.172  28.175  1.00  0.00    -0.000 C 
BRANCH  13  14
ATOM     14  C   UNL     1     -37.526 -22.311  27.235  1.00  0.00    -0.000 C 
BRANCH  14  15
ATOM     15  C   UNL     1     -38.414 -23.556  27.383  1.00  0.00    -0.003 C 
ATOM     16  C   UNL     1     -38.159 -24.311  28.687  1.00  0.00     0.004 C 
ENDBRANCH  14  15
ENDBRANCH  13  14
ENDBRANCH  12  13
ENDBRANCH  11  12
ENDBRANCH  10  11
ENDBRANCH   1  10
TORSDOF 12
ENDMDL
MODEL 6
REMARK VINA RESULT:    -3.643      2.376      4.118
REMARK INTER + INTRA:          -7.037
REMARK INTER:                  -5.059
REMARK INTRA:                  -1.978
REMARK UNBOUND:                -0.837
REMARK SMILES CCCCCCCCCCCCCC(=O)[O-]
REMARK SMILES IDX 8 1 9 2 10 3 11 4 12 5 13 6 14 7 15 8 16 9 7 10 6 11 5 12
REMARK SMILES IDX 4 13 3 14 2 15 1 16
REMARK H PARENT
REMARK Flexibility Score: inf
ROOT
ATOM      1  C   UNL     1     -40.239 -19.840  26.293  1.00  0.00     0.000 C 
ENDROOT
BRANCH   1   2
ATOM      2  C   UNL     1     -41.519 -20.517  26.800  1.00  0.00     0.000 C 
BRANCH   2   3
ATOM      3  C   UNL     1     -41.674 -21.921  26.195  1.00  0.00     0.000 C 
BRANCH   3   4
ATOM      4  C   UNL     1     -42.020 -22.986  27.249  1.00  0.00     0.000 C 
BRANCH   4   5
ATOM      5  C   UNL     1     -42.971 -22.455  28.336  1.00  0.00     0.006 C 
BRANCH   5   6
ATOM      6  C   UNL     1     -44.392 -23.015  28.186  1.00  0.00     0.053 C 
BRANCH   6   7
ATOM      7  C   UNL     1     -45.385 -21.940  27.869  1.00  0.00     0.041 C 
ATOM      8  O   UNL     1     -46.513 -21.934  28.431  1.00  0.00    -0.550 OA
ATOM      9  O   UNL     1     -45.057 -20.929  26.976  1.00  0.00    -0.550 OA
ENDBRANCH   6   7
ENDBRANCH   5   6
ENDBRANCH   4   5
ENDBRANCH   3   4
ENDBRANCH   2   3
ENDBRANCH   1   2
BRANCH   1  10
ATOM     10  C   UNL     1     -39.318 -19.460  27.461  1.00  0.00     0.000 C 
BRANCH  10  11
ATOM     11  C   UNL     1     -39.309 -20.518  28.577  1.00  0.00    -0.000 C 
BRANCH  11  12
ATOM     12  C   UNL     1     -38.102 -21.464  28.485  1.00  0.00    -0.000 C 
BRANCH  12  13
ATOM     13  C   UNL     1     -38.557 -22.922  28.342  1.00  0.00    -0.000 C 
BRANCH  13  14
ATOM     14  C   UNL     1     -38.210 -23.473  26.951  1.00  0.00    -0.000 C 
BRANCH  14  15
ATOM     15  C   UNL     1     -37.231 -22.570  26.185  1.00  0.00    -0.003 C 
ATOM     16  C   UNL     1     -37.774 -22.129  24.826  1.00  0.00     0.004 C 
ENDBRANCH  14  15
ENDBRANCH  13  14
ENDBRANCH  12  13
ENDBRANCH  11  12
ENDBRANCH  10  11
ENDBRANCH   1  10
TORSDOF 12
ENDMDL
MODEL 7
REMARK VINA RESULT:    -3.614      2.973      6.733
REMARK INTER + INTRA:          -6.986
REMARK INTER:                  -5.270
REMARK INTRA:                  -1.716
REMARK UNBOUND:                -0.837
REMARK SMILES CCCCCCCCCCCCCC(=O)[O-]
REMARK SMILES IDX 8 1 9 2 10 3 11 4 12 5 13 6 14 7 15 8 16 9 7 10 6 11 5 12
REMARK SMILES IDX 4 13 3 14 2 15 1 16
REMARK H PARENT
REMARK Flexibility Score: inf
ROOT
ATOM      1  C   UNL     1     -44.388 -20.744  25.201  1.00  0.00     0.000 C 
ENDROOT
BRANCH   1   2
ATOM      2  C   UNL     1     -44.394 -22.123  25.873  1.00  0.00     0.000 C 
BRANCH   2   3
ATOM      3  C   UNL     1     -44.396 -21.988  27.403  1.00  0.00     0.000 C 
BRANCH   3   4
ATOM      4  C   UNL     1     -43.457 -22.995  28.088  1.00  0.00     0.000 C 
BRANCH   4   5
ATOM      5  C   UNL     1     -42.418 -22.312  28.994  1.00  0.00     0.006 C 
BRANCH   5   6
ATOM      6  C   UNL     1     -41.027 -22.266  28.346  1.00  0.00     0.053 C 
BRANCH   6   7
ATOM      7  C   UNL     1     -40.505 -20.866  28.242  1.00  0.00     0.041 C 
ATOM      8  O   UNL     1     -40.796 -20.154  27.244  1.00  0.00    -0.550 OA
ATOM      9  O   UNL     1     -39.723 -20.336  29.260  1.00  0.00    -0.550 OA
ENDBRANCH   6   7
ENDBRANCH   5   6
ENDBRANCH   4   5
ENDBRANCH   3   4
ENDBRANCH   2   3
ENDBRANCH   1   2
BRANCH   1  10
ATOM     10  C   UNL     1     -44.400 -19.622  26.249  1.00  0.00     0.000 C 
BRANCH  10  11
ATOM     11  C   UNL     1     -45.377 -18.489  25.895  1.00  0.00    -0.000 C 
BRANCH  11  12
ATOM     12  C   UNL     1     -46.844 -18.949  25.905  1.00  0.00    -0.000 C 
BRANCH  12  13
ATOM     13  C   UNL     1     -47.311 -19.259  27.333  1.00  0.00    -0.000 C 
BRANCH  13  14
ATOM     14  C   UNL     1     -47.820 -20.704  27.443  1.00  0.00    -0.000 C 
BRANCH  14  15
ATOM     15  C   UNL     1     -48.389 -21.233  26.118  1.00  0.00    -0.003 C 
ATOM     16  C   UNL     1     -48.070 -22.710  25.886  1.00  0.00     0.004 C 
ENDBRANCH  14  15
ENDBRANCH  13  14
ENDBRANCH  12  13
ENDBRANCH  11  12
ENDBRANCH  10  11
ENDBRANCH   1  10
TORSDOF 12
ENDMDL
MODEL 8
REMARK VINA RESULT:    -3.586      2.165      3.489
REMARK INTER + INTRA:          -6.939
REMARK INTER:                  -5.554
REMARK INTRA:                  -1.385
REMARK UNBOUND:                -0.837
REMARK SMILES CCCCCCCCCCCCCC(=O)[O-]
REMARK SMILES IDX 8 1 9 2 10 3 11 4 12 5 13 6 14 7 15 8 16 9 7 10 6 11 5 12
REMARK SMILES IDX 4 13 3 14 2 15 1 16
REMARK H PARENT
REMARK Flexibility Score: inf
ROOT
ATOM      1  C   UNL     1     -41.738 -19.360  25.395  1.00  0.00     0.000 C 
ENDROOT
BRANCH   1   2
ATOM      2  C   UNL     1     -43.194 -19.328  25.877  1.00  0.00     0.000 C 
BRANCH   2   3
ATOM      3  C   UNL     1     -44.058 -20.321  25.084  1.00  0.00     0.000 C 
BRANCH   3   4
ATOM      4  C   UNL     1     -44.337 -21.617  25.862  1.00  0.00     0.000 C 
BRANCH   4   5
ATOM      5  C   UNL     1     -44.850 -21.352  27.288  1.00  0.00     0.006 C 
BRANCH   5   6
ATOM      6  C   UNL     1     -46.335 -21.709  27.444  1.00  0.00     0.053 C 
BRANCH   6   7
ATOM      7  C   UNL     1     -47.187 -20.490  27.622  1.00  0.00     0.041 C 
ATOM      8  O   UNL     1     -46.990 -19.470  26.909  1.00  0.00    -0.550 OA
ATOM      9  O   UNL     1     -48.217 -20.490  28.554  1.00  0.00    -0.550 OA
ENDBRANCH   6   7
ENDBRANCH   5   6
ENDBRANCH   4   5
ENDBRANCH   3   4
ENDBRANCH   2   3
ENDBRANCH   1   2
BRANCH   1  10
ATOM     10  C   UNL     1     -40.989 -18.089  25.823  1.00  0.00     0.000 C 
BRANCH  10  11
ATOM     11  C   UNL     1     -39.777 -18.390  26.718  1.00  0.00    -0.000 C 
BRANCH  11  12
ATOM     12  C   UNL     1     -39.347 -19.864  26.657  1.00  0.00    -0.000 C 
BRANCH  12  13
ATOM     13  C   UNL     1     -38.882 -20.357  28.033  1.00  0.00    -0.000 C 
BRANCH  13  14
ATOM     14  C   UNL     1     -40.079 -20.606  28.962  1.00  0.00    -0.000 C 
BRANCH  14  15
ATOM     15  C   UNL     1     -41.170 -21.463  28.302  1.00  0.00    -0.003 C 
ATOM     16  C   UNL     1     -41.876 -22.387  29.294  1.00  0.00     0.004 C 
ENDBRANCH  14  15
ENDBRANCH  13  14
ENDBRANCH  12  13
ENDBRANCH  11  12
ENDBRANCH  10  11
ENDBRANCH   1  10
TORSDOF 12
ENDMDL
MODEL 9
REMARK VINA RESULT:    -3.563      2.843      4.405
REMARK INTER + INTRA:          -6.900
REMARK INTER:                  -5.260
REMARK INTRA:                  -1.640
REMARK UNBOUND:                -0.837
REMARK SMILES CCCCCCCCCCCCCC(=O)[O-]
REMARK SMILES IDX 8 1 9 2 10 3 11 4 12 5 13 6 14 7 15 8 16 9 7 10 6 11 5 12
REMARK SMILES IDX 4 13 3 14 2 15 1 16
REMARK H PARENT
REMARK Flexibility Score: inf
ROOT
ATOM      1  C   UNL     1     -40.591 -19.864  25.120  1.00  0.00     0.000 C 
ENDROOT
BRANCH   1   2
ATOM      2  C   UNL     1     -41.574 -19.097  26.014  1.00  0.00     0.000 C 
BRANCH   2   3
ATOM      3  C   UNL     1     -43.014 -19.582  25.789  1.00  0.00     0.000 C 
BRANCH   3   4
ATOM      4  C   UNL     1     -43.211 -21.056  26.179  1.00  0.00     0.000 C 
BRANCH   4   5
ATOM      5  C   UNL     1     -44.506 -21.287  26.979  1.00  0.00     0.006 C 
BRANCH   5   6
ATOM      6  C   UNL     1     -44.314 -22.311  28.106  1.00  0.00     0.053 C 
BRANCH   6   7
ATOM      7  C   UNL     1     -45.604 -22.969  28.488  1.00  0.00     0.041 C 
ATOM      8  O   UNL     1     -46.593 -22.269  28.833  1.00  0.00    -0.550 OA
ATOM      9  O   UNL     1     -45.724 -24.351  28.435  1.00  0.00    -0.550 OA
ENDBRANCH   6   7
ENDBRANCH   5   6
ENDBRANCH   4   5
ENDBRANCH   3   4
ENDBRANCH   2   3
ENDBRANCH   1   2
BRANCH   1  10
ATOM     10  C   UNL     1     -39.149 -19.702  25.623  1.00  0.00     0.000 C 
BRANCH  10  11
ATOM     11  C   UNL     1     -39.081 -19.239  27.088  1.00  0.00    -0.000 C 
BRANCH  11  12
ATOM     12  C   UNL     1     -38.777 -20.391  28.058  1.00  0.00    -0.000 C 
BRANCH  12  13
ATOM     13  C   UNL     1     -39.808 -20.438  29.193  1.00  0.00    -0.000 C 
BRANCH  13  14
ATOM     14  C   UNL     1     -40.893 -21.486  28.909  1.00  0.00    -0.000 C 
BRANCH  14  15
ATOM     15  C   UNL     1     -40.397 -22.618  27.994  1.00  0.00    -0.003 C 
ATOM     16  C   UNL     1     -40.807 -24.003  28.493  1.00  0.00     0.004 C 
ENDBRANCH  14  15
ENDBRANCH  13  14
ENDBRANCH  12  13
ENDBRANCH  11  12
ENDBRANCH  10  11
ENDBRANCH   1  10
TORSDOF 12
ENDMDL
