MODEL 1
REMARK VINA RESULT:    -4.870      0.000      0.000
REMARK INTER + INTRA:          -7.288
REMARK INTER:                  -6.009
REMARK INTRA:                  -1.279
REMARK UNBOUND:                -1.279
REMARK SMILES CC(C)=CCC[C@@H](C)c1ccc(C)cc1
REMARK SMILES IDX 6 1 7 2 8 3 9 4 13 5 12 6 11 7 14 8 10 9 15 10 5 11 4 12
REMARK SMILES IDX 2 13 1 14 3 15
REMARK H PARENT
REMARK Flexibility Score: inf
ROOT
ATOM      1  C   UNL     1      -3.425  -7.785   9.250  1.00  0.00     0.012 C 
ENDROOT
BRANCH   1   2
ATOM      2  C   UNL     1      -4.949  -7.572   9.069  1.00  0.00     0.016 C 
ATOM      3  C   UNL     1      -5.548  -8.519   8.015  1.00  0.00     0.013 C 
BRANCH   2   4
ATOM      4  C   UNL     1      -5.667  -7.741  10.395  1.00  0.00    -0.045 A 
ATOM      5  C   UNL     1      -7.762  -8.225  14.142  1.00  0.00     0.044 C 
ATOM      6  C   UNL     1      -7.011  -8.074  12.852  1.00  0.00    -0.051 A 
ATOM      7  C   UNL     1      -6.152  -6.983  12.659  1.00  0.00     0.004 A 
ATOM      8  C   UNL     1      -7.218  -8.982  11.803  1.00  0.00     0.004 A 
ATOM      9  C   UNL     1      -5.480  -6.821  11.443  1.00  0.00     0.004 A 
ATOM     10  C   UNL     1      -6.547  -8.821  10.588  1.00  0.00     0.004 A 
ENDBRANCH   2   4
ENDBRANCH   1   2
BRANCH   1  11
ATOM     11  C   UNL     1      -3.027  -9.249   9.498  1.00  0.00     0.028 C 
BRANCH  11  12
ATOM     12  C   UNL     1      -1.878  -9.376  10.472  1.00  0.00    -0.028 C 
ATOM     13  C   UNL     1      -2.050  -9.653  11.782  1.00  0.00    -0.080 C 
ATOM     14  C   UNL     1      -3.424  -9.863  12.371  1.00  0.00     0.039 C 
ATOM     15  C   UNL     1      -0.834  -9.749  12.666  1.00  0.00     0.039 C 
ENDBRANCH  11  12
ENDBRANCH   1  11
TORSDOF 4
ENDMDL
MODEL 2
REMARK VINA RESULT:    -4.687      1.984      3.899
REMARK INTER + INTRA:          -7.063
REMARK INTER:                  -5.984
REMARK INTRA:                  -1.078
REMARK UNBOUND:                -1.279
REMARK SMILES CC(C)=CCC[C@@H](C)c1ccc(C)cc1
REMARK SMILES IDX 6 1 7 2 8 3 9 4 13 5 12 6 11 7 14 8 10 9 15 10 5 11 4 12
REMARK SMILES IDX 2 13 1 14 3 15
REMARK H PARENT
REMARK Flexibility Score: inf
ROOT
ATOM      1  C   UNL     1      -5.328  -6.382  11.917  1.00  0.00     0.012 C 
ENDROOT
BRANCH   1   2
ATOM      2  C   UNL     1      -5.225  -7.799  12.534  1.00  0.00     0.016 C 
ATOM      3  C   UNL     1      -4.438  -7.802  13.856  1.00  0.00     0.013 C 
BRANCH   2   4
ATOM      4  C   UNL     1      -6.609  -8.384  12.746  1.00  0.00    -0.045 A 
ATOM      5  C   UNL     1     -10.531 -10.073  13.400  1.00  0.00     0.044 C 
ATOM      6  C   UNL     1      -9.182  -9.462  13.159  1.00  0.00    -0.051 A 
ATOM      7  C   UNL     1      -8.466  -9.769  11.993  1.00  0.00     0.004 A 
ATOM      8  C   UNL     1      -8.596  -8.637  14.129  1.00  0.00     0.004 A 
ATOM      9  C   UNL     1      -7.193  -9.230  11.785  1.00  0.00     0.004 A 
ATOM     10  C   UNL     1      -7.323  -8.098  13.923  1.00  0.00     0.004 A 
ENDBRANCH   2   4
ENDBRANCH   1   2
BRANCH   1  11
ATOM     11  C   UNL     1      -5.374  -6.375  10.380  1.00  0.00     0.028 C 
BRANCH  11  12
ATOM     12  C   UNL     1      -4.448  -7.404   9.772  1.00  0.00    -0.028 C 
ATOM     13  C   UNL     1      -4.835  -8.265   8.808  1.00  0.00    -0.080 C 
ATOM     14  C   UNL     1      -6.241  -8.255   8.256  1.00  0.00     0.039 C 
ATOM     15  C   UNL     1      -3.831  -9.255   8.278  1.00  0.00     0.039 C 
ENDBRANCH  11  12
ENDBRANCH   1  11
TORSDOF 4
ENDMDL
MODEL 3
REMARK VINA RESULT:    -4.550      1.077      4.863
REMARK INTER + INTRA:          -6.893
REMARK INTER:                  -5.790
REMARK INTRA:                  -1.104
REMARK UNBOUND:                -1.279
REMARK SMILES CC(C)=CCC[C@@H](C)c1ccc(C)cc1
REMARK SMILES IDX 6 1 7 2 8 3 9 4 13 5 12 6 11 7 14 8 10 9 15 10 5 11 4 12
REMARK SMILES IDX 2 13 1 14 3 15
REMARK H PARENT
REMARK Flexibility Score: inf
ROOT
ATOM      1  C   UNL     1      -4.913  -9.724  10.109  1.00  0.00     0.012 C 
ENDROOT
BRANCH   1   2
ATOM      2  C   UNL     1      -3.498  -9.110   9.970  1.00  0.00     0.016 C 
ATOM      3  C   UNL     1      -3.544  -7.619   9.599  1.00  0.00     0.013 C 
BRANCH   2   4
ATOM      4  C   UNL     1      -2.709  -9.308  11.251  1.00  0.00    -0.045 A 
ATOM      5  C   UNL     1      -0.446  -9.925  14.879  1.00  0.00     0.044 C 
ATOM      6  C   UNL     1      -1.225  -9.681  13.621  1.00  0.00    -0.051 A 
ATOM      7  C   UNL     1      -2.592  -9.377  13.684  1.00  0.00     0.004 A 
ATOM      8  C   UNL     1      -0.609  -9.825  12.369  1.00  0.00     0.004 A 
ATOM      9  C   UNL     1      -3.327  -9.186  12.510  1.00  0.00     0.004 A 
ATOM     10  C   UNL     1      -1.342  -9.634  11.195  1.00  0.00     0.004 A 
ENDBRANCH   2   4
ENDBRANCH   1   2
BRANCH   1  11
ATOM     11  C   UNL     1      -6.037  -8.680  10.212  1.00  0.00     0.028 C 
BRANCH  11  12
ATOM     12  C   UNL     1      -6.760  -8.741  11.538  1.00  0.00    -0.028 C 
ATOM     13  C   UNL     1      -6.686  -7.763  12.464  1.00  0.00    -0.080 C 
ATOM     14  C   UNL     1      -5.865  -6.517  12.232  1.00  0.00     0.039 C 
ATOM     15  C   UNL     1      -7.442  -7.931  13.756  1.00  0.00     0.039 C 
ENDBRANCH  11  12
ENDBRANCH   1  11
TORSDOF 4
ENDMDL
MODEL 4
REMARK VINA RESULT:    -4.526      1.491      3.689
REMARK INTER + INTRA:          -6.863
REMARK INTER:                  -6.163
REMARK INTRA:                  -0.701
REMARK UNBOUND:                -1.279
REMARK SMILES CC(C)=CCC[C@@H](C)c1ccc(C)cc1
REMARK SMILES IDX 6 1 7 2 8 3 9 4 13 5 12 6 11 7 14 8 10 9 15 10 5 11 4 12
REMARK SMILES IDX 2 13 1 14 3 15
REMARK H PARENT
REMARK Flexibility Score: inf
ROOT
ATOM      1  C   UNL     1      -4.655  -7.844  13.770  1.00  0.00     0.012 C 
ENDROOT
BRANCH   1   2
ATOM      2  C   UNL     1      -5.963  -8.488  13.247  1.00  0.00     0.016 C 
ATOM      3  C   UNL     1      -7.215  -7.871  13.894  1.00  0.00     0.013 C 
BRANCH   2   4
ATOM      4  C   UNL     1      -6.042  -8.371  11.736  1.00  0.00    -0.045 A 
ATOM      5  C   UNL     1      -6.238  -8.088   7.430  1.00  0.00     0.044 C 
ATOM      6  C   UNL     1      -6.197  -8.172   8.927  1.00  0.00    -0.051 A 
ATOM      7  C   UNL     1      -5.605  -7.146   9.676  1.00  0.00     0.004 A 
ATOM      8  C   UNL     1      -6.686  -9.310   9.585  1.00  0.00     0.004 A 
ATOM      9  C   UNL     1      -5.533  -7.240  11.069  1.00  0.00     0.004 A 
ATOM     10  C   UNL     1      -6.615  -9.406  10.977  1.00  0.00     0.004 A 
ENDBRANCH   2   4
ENDBRANCH   1   2
BRANCH   1  11
ATOM     11  C   UNL     1      -3.576  -8.864  14.169  1.00  0.00     0.028 C 
BRANCH  11  12
ATOM     12  C   UNL     1      -2.711  -9.274  12.998  1.00  0.00    -0.028 C 
ATOM     13  C   UNL     1      -1.424  -9.655  13.131  1.00  0.00    -0.080 C 
ATOM     14  C   UNL     1      -0.749  -9.704  14.482  1.00  0.00     0.039 C 
ATOM     15  C   UNL     1      -0.651 -10.037  11.896  1.00  0.00     0.039 C 
ENDBRANCH  11  12
ENDBRANCH   1  11
TORSDOF 4
ENDMDL
MODEL 5
REMARK VINA RESULT:    -4.354      1.683      5.347
REMARK INTER + INTRA:          -6.651
REMARK INTER:                  -5.558
REMARK INTRA:                  -1.093
REMARK UNBOUND:                -1.279
REMARK SMILES CC(C)=CCC[C@@H](C)c1ccc(C)cc1
REMARK SMILES IDX 6 1 7 2 8 3 9 4 13 5 12 6 11 7 14 8 10 9 15 10 5 11 4 12
REMARK SMILES IDX 2 13 1 14 3 15
REMARK H PARENT
REMARK Flexibility Score: inf
ROOT
ATOM      1  C   UNL     1      -6.391  -7.164  12.871  1.00  0.00     0.012 C 
ENDROOT
BRANCH   1   2
ATOM      2  C   UNL     1      -4.954  -7.286  12.306  1.00  0.00     0.016 C 
ATOM      3  C   UNL     1      -4.051  -8.162  13.191  1.00  0.00     0.013 C 
BRANCH   2   4
ATOM      4  C   UNL     1      -4.988  -7.832  10.890  1.00  0.00    -0.045 A 
ATOM      5  C   UNL     1      -5.144  -9.400   6.868  1.00  0.00     0.044 C 
ATOM      6  C   UNL     1      -5.070  -8.834   8.255  1.00  0.00    -0.051 A 
ATOM      7  C   UNL     1      -4.110  -9.306   9.161  1.00  0.00     0.004 A 
ATOM      8  C   UNL     1      -6.007  -7.880   8.679  1.00  0.00     0.004 A 
ATOM      9  C   UNL     1      -4.065  -8.805  10.466  1.00  0.00     0.004 A 
ATOM     10  C   UNL     1      -5.963  -7.378   9.983  1.00  0.00     0.004 A 
ENDBRANCH   2   4
ENDBRANCH   1   2
BRANCH   1  11
ATOM     11  C   UNL     1      -6.811  -8.346  13.761  1.00  0.00     0.028 C 
BRANCH  11  12
ATOM     12  C   UNL     1      -8.265  -8.717  13.576  1.00  0.00    -0.028 C 
ATOM     13  C   UNL     1      -8.699  -9.523  12.585  1.00  0.00    -0.080 C 
ATOM     14  C   UNL     1      -7.745 -10.125  11.581  1.00  0.00     0.039 C 
ATOM     15  C   UNL     1     -10.172  -9.822  12.489  1.00  0.00     0.039 C 
ENDBRANCH  11  12
ENDBRANCH   1  11
TORSDOF 4
ENDMDL
MODEL 6
REMARK VINA RESULT:    -4.077      1.536      5.076
REMARK INTER + INTRA:          -6.309
REMARK INTER:                  -5.511
REMARK INTRA:                  -0.798
REMARK UNBOUND:                -1.279
REMARK SMILES CC(C)=CCC[C@@H](C)c1ccc(C)cc1
REMARK SMILES IDX 6 1 7 2 8 3 9 4 13 5 12 6 11 7 14 8 10 9 15 10 5 11 4 12
REMARK SMILES IDX 2 13 1 14 3 15
REMARK H PARENT
REMARK Flexibility Score: inf
ROOT
ATOM      1  C   UNL     1      -6.606  -8.676  10.682  1.00  0.00     0.012 C 
ENDROOT
BRANCH   1   2
ATOM      2  C   UNL     1      -5.485  -7.648  10.975  1.00  0.00     0.016 C 
ATOM      3  C   UNL     1      -6.029  -6.361  11.618  1.00  0.00     0.013 C 
BRANCH   2   4
ATOM      4  C   UNL     1      -4.420  -8.268  11.861  1.00  0.00    -0.045 A 
ATOM      5  C   UNL     1      -1.400 -10.084  14.360  1.00  0.00     0.044 C 
ATOM      6  C   UNL     1      -2.432  -9.428  13.491  1.00  0.00    -0.051 A 
ATOM      7  C   UNL     1      -3.460  -8.668  14.064  1.00  0.00     0.004 A 
ATOM      8  C   UNL     1      -2.417  -9.629  12.103  1.00  0.00     0.004 A 
ATOM      9  C   UNL     1      -4.443  -8.087  13.257  1.00  0.00     0.004 A 
ATOM     10  C   UNL     1      -3.398  -9.050  11.294  1.00  0.00     0.004 A 
ENDBRANCH   2   4
ENDBRANCH   1   2
BRANCH   1  11
ATOM     11  C   UNL     1      -6.799  -9.720  11.794  1.00  0.00     0.028 C 
BRANCH  11  12
ATOM     12  C   UNL     1      -8.253  -9.902  12.166  1.00  0.00    -0.028 C 
ATOM     13  C   UNL     1      -8.830  -9.274  13.212  1.00  0.00    -0.080 C 
ATOM     14  C   UNL     1      -8.051  -8.326  14.093  1.00  0.00     0.039 C 
ATOM     15  C   UNL     1     -10.287  -9.533  13.498  1.00  0.00     0.039 C 
ENDBRANCH  11  12
ENDBRANCH   1  11
TORSDOF 4
ENDMDL
MODEL 7
REMARK VINA RESULT:    -4.013     15.295     16.677
REMARK INTER + INTRA:          -6.230
REMARK INTER:                  -5.630
REMARK INTRA:                  -0.600
REMARK UNBOUND:                -1.279
REMARK SMILES CC(C)=CCC[C@@H](C)c1ccc(C)cc1
REMARK SMILES IDX 6 1 7 2 8 3 9 4 13 5 12 6 11 7 14 8 10 9 15 10 5 11 4 12
REMARK SMILES IDX 2 13 1 14 3 15
REMARK H PARENT
REMARK Flexibility Score: inf
ROOT
ATOM      1  C   UNL     1       7.287   2.825   8.524  1.00  0.00     0.012 C 
ENDROOT
BRANCH   1   2
ATOM      2  C   UNL     1       8.347   1.918   9.199  1.00  0.00     0.016 C 
ATOM      3  C   UNL     1       7.978   1.573  10.652  1.00  0.00     0.013 C 
BRANCH   2   4
ATOM      4  C   UNL     1       8.546   0.648   8.392  1.00  0.00    -0.045 A 
ATOM      5  C   UNL     1       9.066  -2.953   6.063  1.00  0.00     0.044 C 
ATOM      6  C   UNL     1       8.916  -1.701   6.875  1.00  0.00    -0.051 A 
ATOM      7  C   UNL     1       8.758  -1.775   8.266  1.00  0.00     0.004 A 
ATOM      8  C   UNL     1       8.860  -0.450   6.243  1.00  0.00     0.004 A 
ATOM      9  C   UNL     1       8.581  -0.611   9.020  1.00  0.00     0.004 A 
ATOM     10  C   UNL     1       8.683   0.715   6.994  1.00  0.00     0.004 A 
ENDBRANCH   2   4
ENDBRANCH   1   2
BRANCH   1  11
ATOM     11  C   UNL     1       5.859   2.608   9.050  1.00  0.00     0.028 C 
BRANCH  11  12
ATOM     12  C   UNL     1       4.846   3.477   8.338  1.00  0.00    -0.028 C 
ATOM     13  C   UNL     1       4.005   4.310   8.986  1.00  0.00    -0.080 C 
ATOM     14  C   UNL     1       4.023   4.438  10.491  1.00  0.00     0.039 C 
ATOM     15  C   UNL     1       3.030   5.125   8.178  1.00  0.00     0.039 C 
ENDBRANCH  11  12
ENDBRANCH   1  11
TORSDOF 4
ENDMDL
MODEL 8
REMARK VINA RESULT:    -3.992      9.830     12.303
REMARK INTER + INTRA:          -6.205
REMARK INTER:                  -4.793
REMARK INTRA:                  -1.412
REMARK UNBOUND:                -1.279
REMARK SMILES CC(C)=CCC[C@@H](C)c1ccc(C)cc1
REMARK SMILES IDX 6 1 7 2 8 3 9 4 13 5 12 6 11 7 14 8 10 9 15 10 5 11 4 12
REMARK SMILES IDX 2 13 1 14 3 15
REMARK H PARENT
REMARK Flexibility Score: inf
ROOT
ATOM      1  C   UNL     1      -6.053  -8.925  20.612  1.00  0.00     0.012 C 
ENDROOT
BRANCH   1   2
ATOM      2  C   UNL     1      -5.398  -9.502  21.892  1.00  0.00     0.016 C 
ATOM      3  C   UNL     1      -4.020 -10.123  21.612  1.00  0.00     0.013 C 
BRANCH   2   4
ATOM      4  C   UNL     1      -5.282  -8.425  22.956  1.00  0.00    -0.045 A 
ATOM      5  C   UNL     1      -5.010  -5.357  25.985  1.00  0.00     0.044 C 
ATOM      6  C   UNL     1      -5.080  -6.436  24.945  1.00  0.00    -0.051 A 
ATOM      7  C   UNL     1      -4.419  -6.279  23.719  1.00  0.00     0.004 A 
ATOM      8  C   UNL     1      -5.865  -7.578  25.162  1.00  0.00     0.004 A 
ATOM      9  C   UNL     1      -4.513  -7.267  22.734  1.00  0.00     0.004 A 
ATOM     10  C   UNL     1      -5.961  -8.567  24.179  1.00  0.00     0.004 A 
ENDBRANCH   2   4
ENDBRANCH   1   2
BRANCH   1  11
ATOM     11  C   UNL     1      -7.412  -8.250  20.859  1.00  0.00     0.028 C 
BRANCH  11  12
ATOM     12  C   UNL     1      -7.491  -6.873  20.241  1.00  0.00    -0.028 C 
ATOM     13  C   UNL     1      -7.707  -5.752  20.961  1.00  0.00    -0.080 C 
ATOM     14  C   UNL     1      -7.881  -5.799  22.461  1.00  0.00     0.039 C 
ATOM     15  C   UNL     1      -7.774  -4.431  20.241  1.00  0.00     0.039 C 
ENDBRANCH  11  12
ENDBRANCH   1  11
TORSDOF 4
ENDMDL
MODEL 9
REMARK VINA RESULT:    -3.954      9.850     12.322
REMARK INTER + INTRA:          -6.158
REMARK INTER:                  -4.738
REMARK INTRA:                  -1.420
REMARK UNBOUND:                -1.279
REMARK SMILES CC(C)=CCC[C@@H](C)c1ccc(C)cc1
REMARK SMILES IDX 6 1 7 2 8 3 9 4 13 5 12 6 11 7 14 8 10 9 15 10 5 11 4 12
REMARK SMILES IDX 2 13 1 14 3 15
REMARK H PARENT
REMARK Flexibility Score: inf
ROOT
ATOM      1  C   UNL     1      -6.195  -8.886  20.616  1.00  0.00     0.012 C 
ENDROOT
BRANCH   1   2
ATOM      2  C   UNL     1      -5.538  -9.447  21.902  1.00  0.00     0.016 C 
ATOM      3  C   UNL     1      -4.168 -10.089  21.623  1.00  0.00     0.013 C 
BRANCH   2   4
ATOM      4  C   UNL     1      -5.402  -8.353  22.945  1.00  0.00    -0.045 A 
ATOM      5  C   UNL     1      -4.956  -5.246  25.913  1.00  0.00     0.044 C 
ATOM      6  C   UNL     1      -5.135  -6.309  24.870  1.00  0.00    -0.051 A 
ATOM      7  C   UNL     1      -5.976  -7.404  25.114  1.00  0.00     0.004 A 
ATOM      8  C   UNL     1      -4.406  -6.254  23.673  1.00  0.00     0.004 A 
ATOM      9  C   UNL     1      -6.114  -8.415  24.157  1.00  0.00     0.004 A 
ATOM     10  C   UNL     1      -4.543  -7.263  22.716  1.00  0.00     0.004 A 
ENDBRANCH   2   4
ENDBRANCH   1   2
BRANCH   1  11
ATOM     11  C   UNL     1      -7.511  -8.131  20.869  1.00  0.00     0.028 C 
BRANCH  11  12
ATOM     12  C   UNL     1      -7.524  -6.766  20.219  1.00  0.00    -0.028 C 
ATOM     13  C   UNL     1      -7.699  -5.621  20.912  1.00  0.00    -0.080 C 
ATOM     14  C   UNL     1      -7.890  -5.626  22.410  1.00  0.00     0.039 C 
ATOM     15  C   UNL     1      -7.702  -4.315  20.161  1.00  0.00     0.039 C 
ENDBRANCH  11  12
ENDBRANCH   1  11
TORSDOF 4
ENDMDL
