MODEL 1
REMARK VINA RESULT:    -5.210      0.000      0.000
REMARK INTER + INTRA:         -17.573
REMARK INTER:                 -13.129
REMARK INTRA:                  -4.444
REMARK UNBOUND:                -4.444
REMARK SMILES CCCCCCCCCCCCCCCCCCCCCCCCCCCC(=O)[O-]
REMARK SMILES IDX 15 1 16 2 17 3 18 4 19 5 20 6 21 7 22 8 23 9 24 10 25 11
REMARK SMILES IDX 26 12 27 13 28 14 29 15 30 16 14 17 13 18 12 19 11 20 10 21
REMARK SMILES IDX 9 22 8 23 7 24 6 25 5 26 4 27 3 28 2 29 1 30
REMARK H PARENT
REMARK Flexibility Score: inf
ROOT
ATOM      1  C   UNL     1     -18.741 -25.880  11.069  1.00  0.00     0.000 C 
ENDROOT
BRANCH   1   2
ATOM      2  C   UNL     1     -19.874 -26.891  11.332  1.00  0.00     0.000 C 
BRANCH   2   3
ATOM      3  C   UNL     1     -19.353 -28.270  11.771  1.00  0.00     0.000 C 
BRANCH   3   4
ATOM      4  C   UNL     1     -19.412 -28.464  13.294  1.00  0.00     0.000 C 
BRANCH   4   5
ATOM      5  C   UNL     1     -20.826 -28.257  13.867  1.00  0.00     0.000 C 
BRANCH   5   6
ATOM      6  C   UNL     1     -21.385 -29.528  14.525  1.00  0.00     0.000 C 
BRANCH   6   7
ATOM      7  C   UNL     1     -21.076 -29.597  16.031  1.00  0.00     0.000 C 
BRANCH   7   8
ATOM      8  C   UNL     1     -22.344 -29.638  16.901  1.00  0.00     0.000 C 
BRANCH   8   9
ATOM      9  C   UNL     1     -22.966 -28.262  17.201  1.00  0.00     0.000 C 
BRANCH   9  10
ATOM     10  C   UNL     1     -21.909 -27.173  17.457  1.00  0.00     0.000 C 
BRANCH  10  11
ATOM     11  C   UNL     1     -22.228 -25.859  16.728  1.00  0.00     0.000 C 
BRANCH  11  12
ATOM     12  C   UNL     1     -23.311 -26.031  15.649  1.00  0.00     0.006 C 
BRANCH  12  13
ATOM     13  C   UNL     1     -24.384 -24.936  15.726  1.00  0.00     0.053 C 
BRANCH  13  14
ATOM     14  C   UNL     1     -25.720 -25.497  16.109  1.00  0.00     0.041 C 
ATOM     15  O   UNL     1     -26.716 -25.332  15.356  1.00  0.00    -0.550 OA
ATOM     16  O   UNL     1     -25.856 -26.228  17.282  1.00  0.00    -0.550 OA
ENDBRANCH  13  14
ENDBRANCH  12  13
ENDBRANCH  11  12
ENDBRANCH  10  11
ENDBRANCH   9  10
ENDBRANCH   8   9
ENDBRANCH   7   8
ENDBRANCH   6   7
ENDBRANCH   5   6
ENDBRANCH   4   5
ENDBRANCH   3   4
ENDBRANCH   2   3
ENDBRANCH   1   2
BRANCH   1  17
ATOM     17  C   UNL     1     -17.382 -26.500  10.684  1.00  0.00     0.000 C 
BRANCH  17  18
ATOM     18  C   UNL     1     -16.163 -25.905  11.412  1.00  0.00     0.000 C 
BRANCH  18  19
ATOM     19  C   UNL     1     -16.541 -25.169  12.704  1.00  0.00     0.000 C 
BRANCH  19  20
ATOM     20  C   UNL     1     -16.555 -26.133  13.900  1.00  0.00     0.000 C 
BRANCH  20  21
ATOM     21  C   UNL     1     -17.366 -25.597  15.094  1.00  0.00     0.000 C 
BRANCH  21  22
ATOM     22  C   UNL     1     -18.884 -25.489  14.853  1.00  0.00    -0.000 C 
BRANCH  22  23
ATOM     23  C   UNL     1     -19.349 -24.047  14.606  1.00  0.00    -0.000 C 
BRANCH  23  24
ATOM     24  C   UNL     1     -20.762 -24.018  14.013  1.00  0.00    -0.000 C 
BRANCH  24  25
ATOM     25  C   UNL     1     -20.750 -23.438  12.592  1.00  0.00    -0.000 C 
BRANCH  25  26
ATOM     26  C   UNL     1     -19.454 -22.665  12.323  1.00  0.00    -0.000 C 
BRANCH  26  27
ATOM     27  C   UNL     1     -19.704 -21.152  12.337  1.00  0.00    -0.000 C 
BRANCH  27  28
ATOM     28  C   UNL     1     -19.364 -20.523  10.981  1.00  0.00    -0.000 C 
BRANCH  28  29
ATOM     29  C   UNL     1     -19.450 -21.562   9.857  1.00  0.00    -0.003 C 
ATOM     30  C   UNL     1     -20.704 -21.358   9.012  1.00  0.00     0.004 C 
ENDBRANCH  28  29
ENDBRANCH  27  28
ENDBRANCH  26  27
ENDBRANCH  25  26
ENDBRANCH  24  25
ENDBRANCH  23  24
ENDBRANCH  22  23
ENDBRANCH  21  22
ENDBRANCH  20  21
ENDBRANCH  19  20
ENDBRANCH  18  19
ENDBRANCH  17  18
ENDBRANCH   1  17
TORSDOF 26
ENDMDL
MODEL 2
REMARK VINA RESULT:    -5.139      1.178      4.459
REMARK INTER + INTRA:         -17.395
REMARK INTER:                 -13.083
REMARK INTRA:                  -4.313
REMARK UNBOUND:                -4.444
REMARK SMILES CCCCCCCCCCCCCCCCCCCCCCCCCCCC(=O)[O-]
REMARK SMILES IDX 15 1 16 2 17 3 18 4 19 5 20 6 21 7 22 8 23 9 24 10 25 11
REMARK SMILES IDX 26 12 27 13 28 14 29 15 30 16 14 17 13 18 12 19 11 20 10 21
REMARK SMILES IDX 9 22 8 23 7 24 6 25 5 26 4 27 3 28 2 29 1 30
REMARK H PARENT
REMARK Flexibility Score: inf
ROOT
ATOM      1  C   UNL     1     -19.864 -24.051  14.791  1.00  0.00     0.000 C 
ENDROOT
BRANCH   1   2
ATOM      2  C   UNL     1     -20.258 -25.382  15.459  1.00  0.00     0.000 C 
BRANCH   2   3
ATOM      3  C   UNL     1     -21.021 -26.322  14.510  1.00  0.00     0.000 C 
BRANCH   3   4
ATOM      4  C   UNL     1     -20.089 -27.298  13.774  1.00  0.00     0.000 C 
BRANCH   4   5
ATOM      5  C   UNL     1     -20.230 -28.747  14.271  1.00  0.00     0.000 C 
BRANCH   5   6
ATOM      6  C   UNL     1     -21.681 -29.107  14.630  1.00  0.00     0.000 C 
BRANCH   6   7
ATOM      7  C   UNL     1     -21.772 -30.043  15.847  1.00  0.00     0.000 C 
BRANCH   7   8
ATOM      8  C   UNL     1     -21.886 -29.282  17.180  1.00  0.00     0.000 C 
BRANCH   8   9
ATOM      9  C   UNL     1     -22.987 -28.206  17.218  1.00  0.00     0.000 C 
BRANCH   9  10
ATOM     10  C   UNL     1     -22.533 -26.913  17.917  1.00  0.00     0.000 C 
BRANCH  10  11
ATOM     11  C   UNL     1     -23.442 -25.717  17.592  1.00  0.00     0.000 C 
BRANCH  11  12
ATOM     12  C   UNL     1     -24.055 -25.808  16.184  1.00  0.00     0.006 C 
BRANCH  12  13
ATOM     13  C   UNL     1     -25.219 -24.826  15.996  1.00  0.00     0.053 C 
BRANCH  13  14
ATOM     14  C   UNL     1     -26.539 -25.534  15.951  1.00  0.00     0.041 C 
ATOM     15  O   UNL     1     -27.026 -26.034  16.999  1.00  0.00    -0.550 OA
ATOM     16  O   UNL     1     -27.246 -25.612  14.758  1.00  0.00    -0.550 OA
ENDBRANCH  13  14
ENDBRANCH  12  13
ENDBRANCH  11  12
ENDBRANCH  10  11
ENDBRANCH   9  10
ENDBRANCH   8   9
ENDBRANCH   7   8
ENDBRANCH   6   7
ENDBRANCH   5   6
ENDBRANCH   4   5
ENDBRANCH   3   4
ENDBRANCH   2   3
ENDBRANCH   1   2
BRANCH   1  17
ATOM     17  C   UNL     1     -20.726 -23.642  13.578  1.00  0.00     0.000 C 
BRANCH  17  18
ATOM     18  C   UNL     1     -20.196 -22.441  12.774  1.00  0.00     0.000 C 
BRANCH  18  19
ATOM     19  C   UNL     1     -19.022 -22.810  11.857  1.00  0.00     0.000 C 
BRANCH  19  20
ATOM     20  C   UNL     1     -19.296 -22.368  10.412  1.00  0.00     0.000 C 
BRANCH  20  21
ATOM     21  C   UNL     1     -19.676 -23.540   9.487  1.00  0.00     0.000 C 
BRANCH  21  22
ATOM     22  C   UNL     1     -19.805 -24.905  10.188  1.00  0.00    -0.000 C 
BRANCH  22  23
ATOM     23  C   UNL     1     -18.716 -25.901   9.762  1.00  0.00    -0.000 C 
BRANCH  23  24
ATOM     24  C   UNL     1     -17.884 -26.356  10.967  1.00  0.00    -0.000 C 
BRANCH  24  25
ATOM     25  C   UNL     1     -16.455 -25.804  10.887  1.00  0.00    -0.000 C 
BRANCH  25  26
ATOM     26  C   UNL     1     -15.858 -25.613  12.286  1.00  0.00    -0.000 C 
BRANCH  26  27
ATOM     27  C   UNL     1     -16.948 -25.682  13.363  1.00  0.00    -0.000 C 
BRANCH  27  28
ATOM     28  C   UNL     1     -16.489 -26.521  14.560  1.00  0.00    -0.000 C 
BRANCH  28  29
ATOM     29  C   UNL     1     -16.654 -25.745  15.872  1.00  0.00    -0.003 C 
ATOM     30  C   UNL     1     -15.417 -25.883  16.755  1.00  0.00     0.004 C 
ENDBRANCH  28  29
ENDBRANCH  27  28
ENDBRANCH  26  27
ENDBRANCH  25  26
ENDBRANCH  24  25
ENDBRANCH  23  24
ENDBRANCH  22  23
ENDBRANCH  21  22
ENDBRANCH  20  21
ENDBRANCH  19  20
ENDBRANCH  18  19
ENDBRANCH  17  18
ENDBRANCH   1  17
TORSDOF 26
ENDMDL
MODEL 3
REMARK VINA RESULT:    -5.015      3.216      7.788
REMARK INTER + INTRA:         -17.081
REMARK INTER:                 -13.510
REMARK INTRA:                  -3.571
REMARK UNBOUND:                -4.444
REMARK SMILES CCCCCCCCCCCCCCCCCCCCCCCCCCCC(=O)[O-]
REMARK SMILES IDX 15 1 16 2 17 3 18 4 19 5 20 6 21 7 22 8 23 9 24 10 25 11
REMARK SMILES IDX 26 12 27 13 28 14 29 15 30 16 14 17 13 18 12 19 11 20 10 21
REMARK SMILES IDX 9 22 8 23 7 24 6 25 5 26 4 27 3 28 2 29 1 30
REMARK H PARENT
REMARK Flexibility Score: inf
ROOT
ATOM      1  C   UNL     1     -19.341 -22.356  11.831  1.00  0.00     0.000 C 
ENDROOT
BRANCH   1   2
ATOM      2  C   UNL     1     -19.160 -20.839  11.635  1.00  0.00     0.000 C 
BRANCH   2   3
ATOM      3  C   UNL     1     -19.675 -20.347  10.272  1.00  0.00     0.000 C 
BRANCH   3   4
ATOM      4  C   UNL     1     -20.033 -21.505   9.326  1.00  0.00     0.000 C 
BRANCH   4   5
ATOM      5  C   UNL     1     -21.420 -21.339   8.679  1.00  0.00     0.000 C 
BRANCH   5   6
ATOM      6  C   UNL     1     -22.171 -22.673   8.548  1.00  0.00     0.000 C 
BRANCH   6   7
ATOM      7  C   UNL     1     -21.933 -23.604   9.750  1.00  0.00     0.000 C 
BRANCH   7   8
ATOM      8  C   UNL     1     -21.442 -25.002   9.336  1.00  0.00     0.000 C 
BRANCH   8   9
ATOM      9  C   UNL     1     -20.198 -25.501  10.093  1.00  0.00     0.000 C 
BRANCH   9  10
ATOM     10  C   UNL     1     -18.882 -24.987   9.484  1.00  0.00     0.000 C 
BRANCH  10  11
ATOM     11  C   UNL     1     -17.795 -26.070   9.429  1.00  0.00     0.000 C 
BRANCH  11  12
ATOM     12  C   UNL     1     -17.322 -26.504  10.827  1.00  0.00     0.006 C 
BRANCH  12  13
ATOM     13  C   UNL     1     -17.127 -25.308  11.768  1.00  0.00     0.053 C 
BRANCH  13  14
ATOM     14  C   UNL     1     -15.935 -25.491  12.658  1.00  0.00     0.041 C 
ATOM     15  O   UNL     1     -14.773 -25.330  12.202  1.00  0.00    -0.550 OA
ATOM     16  O   UNL     1     -16.112 -25.809  13.999  1.00  0.00    -0.550 OA
ENDBRANCH  13  14
ENDBRANCH  12  13
ENDBRANCH  11  12
ENDBRANCH  10  11
ENDBRANCH   9  10
ENDBRANCH   8   9
ENDBRANCH   7   8
ENDBRANCH   6   7
ENDBRANCH   5   6
ENDBRANCH   4   5
ENDBRANCH   3   4
ENDBRANCH   2   3
ENDBRANCH   1   2
BRANCH   1  17
ATOM     17  C   UNL     1     -20.087 -22.770  13.117  1.00  0.00     0.000 C 
BRANCH  17  18
ATOM     18  C   UNL     1     -19.995 -24.265  13.473  1.00  0.00     0.000 C 
BRANCH  18  19
ATOM     19  C   UNL     1     -19.533 -24.507  14.916  1.00  0.00     0.000 C 
BRANCH  19  20
ATOM     20  C   UNL     1     -20.353 -25.627  15.574  1.00  0.00     0.000 C 
BRANCH  20  21
ATOM     21  C   UNL     1     -20.074 -27.013  14.964  1.00  0.00     0.000 C 
BRANCH  21  22
ATOM     22  C   UNL     1     -21.327 -27.862  14.680  1.00  0.00    -0.000 C 
BRANCH  22  23
ATOM     23  C   UNL     1     -21.219 -29.290  15.233  1.00  0.00    -0.000 C 
BRANCH  23  24
ATOM     24  C   UNL     1     -21.307 -29.298  16.764  1.00  0.00    -0.000 C 
BRANCH  24  25
ATOM     25  C   UNL     1     -22.709 -28.889  17.235  1.00  0.00    -0.000 C 
BRANCH  25  26
ATOM     26  C   UNL     1     -22.642 -27.700  18.201  1.00  0.00    -0.000 C 
BRANCH  26  27
ATOM     27  C   UNL     1     -23.967 -26.928  18.215  1.00  0.00    -0.000 C 
BRANCH  27  28
ATOM     28  C   UNL     1     -23.826 -25.576  17.506  1.00  0.00    -0.000 C 
BRANCH  28  29
ATOM     29  C   UNL     1     -24.016 -25.727  15.992  1.00  0.00    -0.003 C 
ATOM     30  C   UNL     1     -25.020 -24.710  15.458  1.00  0.00     0.004 C 
ENDBRANCH  28  29
ENDBRANCH  27  28
ENDBRANCH  26  27
ENDBRANCH  25  26
ENDBRANCH  24  25
ENDBRANCH  23  24
ENDBRANCH  22  23
ENDBRANCH  21  22
ENDBRANCH  20  21
ENDBRANCH  19  20
ENDBRANCH  18  19
ENDBRANCH  17  18
ENDBRANCH   1  17
TORSDOF 26
ENDMDL
MODEL 4
REMARK VINA RESULT:    -4.982      1.451      3.311
REMARK INTER + INTRA:         -16.999
REMARK INTER:                 -13.123
REMARK INTRA:                  -3.876
REMARK UNBOUND:                -4.444
REMARK SMILES CCCCCCCCCCCCCCCCCCCCCCCCCCCC(=O)[O-]
REMARK SMILES IDX 15 1 16 2 17 3 18 4 19 5 20 6 21 7 22 8 23 9 24 10 25 11
REMARK SMILES IDX 26 12 27 13 28 14 29 15 30 16 14 17 13 18 12 19 11 20 10 21
REMARK SMILES IDX 9 22 8 23 7 24 6 25 5 26 4 27 3 28 2 29 1 30
REMARK H PARENT
REMARK Flexibility Score: inf
ROOT
ATOM      1  C   UNL     1     -19.125 -27.795  14.183  1.00  0.00     0.000 C 
ENDROOT
BRANCH   1   2
ATOM      2  C   UNL     1     -19.277 -28.368  12.761  1.00  0.00     0.000 C 
BRANCH   2   3
ATOM      3  C   UNL     1     -20.044 -29.701  12.734  1.00  0.00     0.000 C 
BRANCH   3   4
ATOM      4  C   UNL     1     -21.353 -29.644  13.537  1.00  0.00     0.000 C 
BRANCH   4   5
ATOM      5  C   UNL     1     -21.756 -31.011  14.118  1.00  0.00     0.000 C 
BRANCH   5   6
ATOM      6  C   UNL     1     -22.151 -30.926  15.601  1.00  0.00     0.000 C 
BRANCH   6   7
ATOM      7  C   UNL     1     -21.416 -29.797  16.343  1.00  0.00     0.000 C 
BRANCH   7   8
ATOM      8  C   UNL     1     -22.217 -29.243  17.534  1.00  0.00     0.000 C 
BRANCH   8   9
ATOM      9  C   UNL     1     -22.877 -27.874  17.289  1.00  0.00     0.000 C 
BRANCH   9  10
ATOM     10  C   UNL     1     -22.400 -27.207  15.987  1.00  0.00     0.000 C 
BRANCH  10  11
ATOM     11  C   UNL     1     -23.125 -25.882  15.703  1.00  0.00     0.000 C 
BRANCH  11  12
ATOM     12  C   UNL     1     -24.119 -25.504  16.815  1.00  0.00     0.006 C 
BRANCH  12  13
ATOM     13  C   UNL     1     -25.577 -25.614  16.350  1.00  0.00     0.053 C 
BRANCH  13  14
ATOM     14  C   UNL     1     -25.948 -24.500  15.419  1.00  0.00     0.041 C 
ATOM     15  O   UNL     1     -25.693 -23.306  15.726  1.00  0.00    -0.550 OA
ATOM     16  O   UNL     1     -26.545 -24.785  14.197  1.00  0.00    -0.550 OA
ENDBRANCH  13  14
ENDBRANCH  12  13
ENDBRANCH  11  12
ENDBRANCH  10  11
ENDBRANCH   9  10
ENDBRANCH   8   9
ENDBRANCH   7   8
ENDBRANCH   6   7
ENDBRANCH   5   6
ENDBRANCH   4   5
ENDBRANCH   3   4
ENDBRANCH   2   3
ENDBRANCH   1   2
BRANCH   1  17
ATOM     17  C   UNL     1     -19.177 -26.256  14.282  1.00  0.00     0.000 C 
BRANCH  17  18
ATOM     18  C   UNL     1     -17.927 -25.598  14.895  1.00  0.00     0.000 C 
BRANCH  18  19
ATOM     19  C   UNL     1     -16.655 -25.856  14.076  1.00  0.00     0.000 C 
BRANCH  19  20
ATOM     20  C   UNL     1     -16.807 -25.320  12.645  1.00  0.00     0.000 C 
BRANCH  20  21
ATOM     21  C   UNL     1     -15.651 -25.742  11.719  1.00  0.00     0.000 C 
BRANCH  21  22
ATOM     22  C   UNL     1     -16.038 -26.736  10.608  1.00  0.00    -0.000 C 
BRANCH  22  23
ATOM     23  C   UNL     1     -16.018 -26.107   9.209  1.00  0.00    -0.000 C 
BRANCH  23  24
ATOM     24  C   UNL     1     -17.311 -26.417   8.445  1.00  0.00    -0.000 C 
BRANCH  24  25
ATOM     25  C   UNL     1     -18.538 -26.242   9.349  1.00  0.00    -0.000 C 
BRANCH  25  26
ATOM     26  C   UNL     1     -18.871 -24.758   9.547  1.00  0.00    -0.000 C 
BRANCH  26  27
ATOM     27  C   UNL     1     -19.784 -24.558  10.763  1.00  0.00    -0.000 C 
BRANCH  27  28
ATOM     28  C   UNL     1     -19.870 -23.077  11.150  1.00  0.00    -0.000 C 
BRANCH  28  29
ATOM     29  C   UNL     1     -19.762 -22.898  12.668  1.00  0.00    -0.003 C 
ATOM     30  C   UNL     1     -21.013 -23.411  13.375  1.00  0.00     0.004 C 
ENDBRANCH  28  29
ENDBRANCH  27  28
ENDBRANCH  26  27
ENDBRANCH  25  26
ENDBRANCH  24  25
ENDBRANCH  23  24
ENDBRANCH  22  23
ENDBRANCH  21  22
ENDBRANCH  20  21
ENDBRANCH  19  20
ENDBRANCH  18  19
ENDBRANCH  17  18
ENDBRANCH   1  17
TORSDOF 26
ENDMDL
MODEL 5
REMARK VINA RESULT:    -4.931      3.199      6.221
REMARK INTER + INTRA:         -16.871
REMARK INTER:                 -12.749
REMARK INTRA:                  -4.122
REMARK UNBOUND:                -4.444
REMARK SMILES CCCCCCCCCCCCCCCCCCCCCCCCCCCC(=O)[O-]
REMARK SMILES IDX 15 1 16 2 17 3 18 4 19 5 20 6 21 7 22 8 23 9 24 10 25 11
REMARK SMILES IDX 26 12 27 13 28 14 29 15 30 16 14 17 13 18 12 19 11 20 10 21
REMARK SMILES IDX 9 22 8 23 7 24 6 25 5 26 4 27 3 28 2 29 1 30
REMARK H PARENT
REMARK Flexibility Score: inf
ROOT
ATOM      1  C   UNL     1     -22.092 -30.896  15.938  1.00  0.00     0.000 C 
ENDROOT
BRANCH   1   2
ATOM      2  C   UNL     1     -21.546 -29.519  16.361  1.00  0.00     0.000 C 
BRANCH   2   3
ATOM      3  C   UNL     1     -21.980 -29.116  17.781  1.00  0.00     0.000 C 
BRANCH   3   4
ATOM      4  C   UNL     1     -23.225 -28.215  17.782  1.00  0.00     0.000 C 
BRANCH   4   5
ATOM      5  C   UNL     1     -22.970 -26.846  18.437  1.00  0.00     0.000 C 
BRANCH   5   6
ATOM      6  C   UNL     1     -23.126 -25.682  17.446  1.00  0.00     0.000 C 
BRANCH   6   7
ATOM      7  C   UNL     1     -23.346 -26.163  16.002  1.00  0.00     0.000 C 
BRANCH   7   8
ATOM      8  C   UNL     1     -22.061 -26.127  15.156  1.00  0.00     0.000 C 
BRANCH   8   9
ATOM      9  C   UNL     1     -20.803 -25.664  15.913  1.00  0.00     0.000 C 
BRANCH   9  10
ATOM     10  C   UNL     1     -19.516 -25.823  15.084  1.00  0.00     0.000 C 
BRANCH  10  11
ATOM     11  C   UNL     1     -18.988 -27.265  15.086  1.00  0.00     0.000 C 
BRANCH  11  12
ATOM     12  C   UNL     1     -17.586 -27.381  14.463  1.00  0.00     0.006 C 
BRANCH  12  13
ATOM     13  C   UNL     1     -16.733 -26.133  14.721  1.00  0.00     0.053 C 
BRANCH  13  14
ATOM     14  C   UNL     1     -15.899 -26.278  15.958  1.00  0.00     0.041 C 
ATOM     15  O   UNL     1     -15.502 -25.257  16.579  1.00  0.00    -0.550 OA
ATOM     16  O   UNL     1     -15.587 -27.543  16.441  1.00  0.00    -0.550 OA
ENDBRANCH  13  14
ENDBRANCH  12  13
ENDBRANCH  11  12
ENDBRANCH  10  11
ENDBRANCH   9  10
ENDBRANCH   8   9
ENDBRANCH   7   8
ENDBRANCH   6   7
ENDBRANCH   5   6
ENDBRANCH   4   5
ENDBRANCH   3   4
ENDBRANCH   2   3
ENDBRANCH   1   2
BRANCH   1  17
ATOM     17  C   UNL     1     -22.124 -31.153  14.416  1.00  0.00     0.000 C 
BRANCH  17  18
ATOM     18  C   UNL     1     -21.271 -30.188  13.573  1.00  0.00     0.000 C 
BRANCH  18  19
ATOM     19  C   UNL     1     -21.449 -30.400  12.063  1.00  0.00     0.000 C 
BRANCH  19  20
ATOM     20  C   UNL     1     -20.089 -30.565  11.369  1.00  0.00     0.000 C 
BRANCH  20  21
ATOM     21  C   UNL     1     -18.916 -30.027  12.209  1.00  0.00     0.000 C 
BRANCH  21  22
ATOM     22  C   UNL     1     -17.690 -29.571  11.396  1.00  0.00    -0.000 C 
BRANCH  22  23
ATOM     23  C   UNL     1     -17.987 -28.368  10.490  1.00  0.00    -0.000 C 
BRANCH  23  24
ATOM     24  C   UNL     1     -16.735 -27.506  10.289  1.00  0.00    -0.000 C 
BRANCH  24  25
ATOM     25  C   UNL     1     -16.929 -26.108  10.890  1.00  0.00    -0.000 C 
BRANCH  25  26
ATOM     26  C   UNL     1     -18.415 -25.800  11.105  1.00  0.00    -0.000 C 
BRANCH  26  27
ATOM     27  C   UNL     1     -18.919 -24.780  10.076  1.00  0.00    -0.000 C 
BRANCH  27  28
ATOM     28  C   UNL     1     -19.298 -23.457  10.750  1.00  0.00    -0.000 C 
BRANCH  28  29
ATOM     29  C   UNL     1     -19.103 -23.538  12.268  1.00  0.00    -0.003 C 
ATOM     30  C   UNL     1     -20.259 -22.872  13.010  1.00  0.00     0.004 C 
ENDBRANCH  28  29
ENDBRANCH  27  28
ENDBRANCH  26  27
ENDBRANCH  25  26
ENDBRANCH  24  25
ENDBRANCH  23  24
ENDBRANCH  22  23
ENDBRANCH  21  22
ENDBRANCH  20  21
ENDBRANCH  19  20
ENDBRANCH  18  19
ENDBRANCH  17  18
ENDBRANCH   1  17
TORSDOF 26
ENDMDL
MODEL 6
REMARK VINA RESULT:    -4.925      3.241      5.526
REMARK INTER + INTRA:         -16.856
REMARK INTER:                 -12.110
REMARK INTRA:                  -4.746
REMARK UNBOUND:                -4.444
REMARK SMILES CCCCCCCCCCCCCCCCCCCCCCCCCCCC(=O)[O-]
REMARK SMILES IDX 15 1 16 2 17 3 18 4 19 5 20 6 21 7 22 8 23 9 24 10 25 11
REMARK SMILES IDX 26 12 27 13 28 14 29 15 30 16 14 17 13 18 12 19 11 20 10 21
REMARK SMILES IDX 9 22 8 23 7 24 6 25 5 26 4 27 3 28 2 29 1 30
REMARK H PARENT
REMARK Flexibility Score: inf
ROOT
ATOM      1  C   UNL     1     -20.348 -29.098  12.732  1.00  0.00     0.000 C 
ENDROOT
BRANCH   1   2
ATOM      2  C   UNL     1     -21.034 -29.191  14.108  1.00  0.00     0.000 C 
BRANCH   2   3
ATOM      3  C   UNL     1     -21.693 -30.559  14.356  1.00  0.00     0.000 C 
BRANCH   3   4
ATOM      4  C   UNL     1     -22.113 -30.753  15.821  1.00  0.00     0.000 C 
BRANCH   4   5
ATOM      5  C   UNL     1     -21.602 -29.630  16.742  1.00  0.00     0.000 C 
BRANCH   5   6
ATOM      6  C   UNL     1     -22.682 -29.130  17.714  1.00  0.00     0.000 C 
BRANCH   6   7
ATOM      7  C   UNL     1     -22.928 -27.616  17.594  1.00  0.00     0.000 C 
BRANCH   7   8
ATOM      8  C   UNL     1     -22.464 -27.039  16.246  1.00  0.00     0.000 C 
BRANCH   8   9
ATOM      9  C   UNL     1     -21.565 -25.793  16.351  1.00  0.00     0.000 C 
BRANCH   9  10
ATOM     10  C   UNL     1     -20.520 -25.714  15.224  1.00  0.00     0.000 C 
BRANCH  10  11
ATOM     11  C   UNL     1     -19.170 -26.326  15.628  1.00  0.00     0.000 C 
BRANCH  11  12
ATOM     12  C   UNL     1     -17.976 -25.455  15.200  1.00  0.00     0.006 C 
BRANCH  12  13
ATOM     13  C   UNL     1     -16.756 -26.299  14.809  1.00  0.00     0.053 C 
BRANCH  13  14
ATOM     14  C   UNL     1     -15.851 -26.540  15.979  1.00  0.00     0.041 C 
ATOM     15  O   UNL     1     -15.262 -25.575  16.534  1.00  0.00    -0.550 OA
ATOM     16  O   UNL     1     -15.685 -27.827  16.475  1.00  0.00    -0.550 OA
ENDBRANCH  13  14
ENDBRANCH  12  13
ENDBRANCH  11  12
ENDBRANCH  10  11
ENDBRANCH   9  10
ENDBRANCH   8   9
ENDBRANCH   7   8
ENDBRANCH   6   7
ENDBRANCH   5   6
ENDBRANCH   4   5
ENDBRANCH   3   4
ENDBRANCH   2   3
ENDBRANCH   1   2
BRANCH   1  17
ATOM     17  C   UNL     1     -18.925 -28.500  12.745  1.00  0.00     0.000 C 
BRANCH  17  18
ATOM     18  C   UNL     1     -17.833 -29.398  12.136  1.00  0.00     0.000 C 
BRANCH  18  19
ATOM     19  C   UNL     1     -18.406 -30.616  11.398  1.00  0.00     0.000 C 
BRANCH  19  20
ATOM     20  C   UNL     1     -18.226 -30.471   9.880  1.00  0.00     0.000 C 
BRANCH  20  21
ATOM     21  C   UNL     1     -19.417 -29.775   9.197  1.00  0.00     0.000 C 
BRANCH  21  22
ATOM     22  C   UNL     1     -19.135 -28.347   8.695  1.00  0.00    -0.000 C 
BRANCH  22  23
ATOM     23  C   UNL     1     -20.005 -27.287   9.385  1.00  0.00    -0.000 C 
BRANCH  23  24
ATOM     24  C   UNL     1     -19.305 -25.923   9.400  1.00  0.00    -0.000 C 
BRANCH  24  25
ATOM     25  C   UNL     1     -17.820 -26.071   9.755  1.00  0.00    -0.000 C 
BRANCH  25  26
ATOM     26  C   UNL     1     -17.540 -25.582  11.181  1.00  0.00    -0.000 C 
BRANCH  26  27
ATOM     27  C   UNL     1     -18.796 -24.961  11.804  1.00  0.00    -0.000 C 
BRANCH  27  28
ATOM     28  C   UNL     1     -18.562 -23.490  12.166  1.00  0.00    -0.000 C 
BRANCH  28  29
ATOM     29  C   UNL     1     -19.873 -22.697  12.122  1.00  0.00    -0.003 C 
ATOM     30  C   UNL     1     -21.066 -23.584  12.463  1.00  0.00     0.004 C 
ENDBRANCH  28  29
ENDBRANCH  27  28
ENDBRANCH  26  27
ENDBRANCH  25  26
ENDBRANCH  24  25
ENDBRANCH  23  24
ENDBRANCH  22  23
ENDBRANCH  21  22
ENDBRANCH  20  21
ENDBRANCH  19  20
ENDBRANCH  18  19
ENDBRANCH  17  18
ENDBRANCH   1  17
TORSDOF 26
ENDMDL
MODEL 7
REMARK VINA RESULT:    -4.880      2.797      6.528
REMARK INTER + INTRA:         -16.740
REMARK INTER:                 -12.464
REMARK INTRA:                  -4.276
REMARK UNBOUND:                -4.444
REMARK SMILES CCCCCCCCCCCCCCCCCCCCCCCCCCCC(=O)[O-]
REMARK SMILES IDX 15 1 16 2 17 3 18 4 19 5 20 6 21 7 22 8 23 9 24 10 25 11
REMARK SMILES IDX 26 12 27 13 28 14 29 15 30 16 14 17 13 18 12 19 11 20 10 21
REMARK SMILES IDX 9 22 8 23 7 24 6 25 5 26 4 27 3 28 2 29 1 30
REMARK H PARENT
REMARK Flexibility Score: inf
ROOT
ATOM      1  C   UNL     1     -17.933 -29.672  10.056  1.00  0.00     0.000 C 
ENDROOT
BRANCH   1   2
ATOM      2  C   UNL     1     -16.916 -28.533   9.853  1.00  0.00     0.000 C 
BRANCH   2   3
ATOM      3  C   UNL     1     -17.583 -27.195   9.491  1.00  0.00     0.000 C 
BRANCH   3   4
ATOM      4  C   UNL     1     -17.233 -26.075  10.483  1.00  0.00     0.000 C 
BRANCH   4   5
ATOM      5  C   UNL     1     -16.835 -26.611  11.870  1.00  0.00     0.000 C 
BRANCH   5   6
ATOM      6  C   UNL     1     -16.051 -25.578  12.696  1.00  0.00     0.000 C 
BRANCH   6   7
ATOM      7  C   UNL     1     -16.272 -25.744  14.210  1.00  0.00     0.000 C 
BRANCH   7   8
ATOM      8  C   UNL     1     -17.483 -26.632  14.544  1.00  0.00     0.000 C 
BRANCH   8   9
ATOM      9  C   UNL     1     -18.631 -25.910  15.275  1.00  0.00     0.000 C 
BRANCH   9  10
ATOM     10  C   UNL     1     -19.230 -24.757  14.451  1.00  0.00     0.000 C 
BRANCH  10  11
ATOM     11  C   UNL     1     -20.036 -25.254  13.241  1.00  0.00     0.000 C 
BRANCH  11  12
ATOM     12  C   UNL     1     -20.118 -24.207  12.116  1.00  0.00     0.006 C 
BRANCH  12  13
ATOM     13  C   UNL     1     -18.959 -23.203  12.175  1.00  0.00     0.053 C 
BRANCH  13  14
ATOM     14  C   UNL     1     -19.243 -21.981  11.356  1.00  0.00     0.041 C 
ATOM     15  O   UNL     1     -18.773 -20.864  11.699  1.00  0.00    -0.550 OA
ATOM     16  O   UNL     1     -20.001 -22.083  10.196  1.00  0.00    -0.550 OA
ENDBRANCH  13  14
ENDBRANCH  12  13
ENDBRANCH  11  12
ENDBRANCH  10  11
ENDBRANCH   9  10
ENDBRANCH   8   9
ENDBRANCH   7   8
ENDBRANCH   6   7
ENDBRANCH   5   6
ENDBRANCH   4   5
ENDBRANCH   3   4
ENDBRANCH   2   3
ENDBRANCH   1   2
BRANCH   1  17
ATOM     17  C   UNL     1     -18.072 -30.180  11.507  1.00  0.00     0.000 C 
BRANCH  17  18
ATOM     18  C   UNL     1     -19.052 -29.383  12.387  1.00  0.00     0.000 C 
BRANCH  18  19
ATOM     19  C   UNL     1     -20.471 -29.334  11.805  1.00  0.00     0.000 C 
BRANCH  19  20
ATOM     20  C   UNL     1     -21.131 -30.720  11.854  1.00  0.00     0.000 C 
BRANCH  20  21
ATOM     21  C   UNL     1     -21.272 -31.268  13.286  1.00  0.00     0.000 C 
BRANCH  21  22
ATOM     22  C   UNL     1     -21.892 -30.288  14.300  1.00  0.00    -0.000 C 
BRANCH  22  23
ATOM     23  C   UNL     1     -22.119 -30.920  15.680  1.00  0.00    -0.000 C 
BRANCH  23  24
ATOM     24  C   UNL     1     -21.492 -30.064  16.788  1.00  0.00    -0.000 C 
BRANCH  24  25
ATOM     25  C   UNL     1     -21.006 -28.718  16.234  1.00  0.00    -0.000 C 
BRANCH  25  26
ATOM     26  C   UNL     1     -21.700 -27.548  16.940  1.00  0.00    -0.000 C 
BRANCH  26  27
ATOM     27  C   UNL     1     -22.221 -26.524  15.924  1.00  0.00    -0.000 C 
BRANCH  27  28
ATOM     28  C   UNL     1     -23.665 -26.117  16.241  1.00  0.00    -0.000 C 
BRANCH  28  29
ATOM     29  C   UNL     1     -24.148 -25.018  15.289  1.00  0.00    -0.003 C 
ATOM     30  C   UNL     1     -25.538 -24.522  15.678  1.00  0.00     0.004 C 
ENDBRANCH  28  29
ENDBRANCH  27  28
ENDBRANCH  26  27
ENDBRANCH  25  26
ENDBRANCH  24  25
ENDBRANCH  23  24
ENDBRANCH  22  23
ENDBRANCH  21  22
ENDBRANCH  20  21
ENDBRANCH  19  20
ENDBRANCH  18  19
ENDBRANCH  17  18
ENDBRANCH   1  17
TORSDOF 26
ENDMDL
MODEL 8
REMARK VINA RESULT:    -4.877      1.694      3.813
REMARK INTER + INTRA:         -16.734
REMARK INTER:                 -12.522
REMARK INTRA:                  -4.213
REMARK UNBOUND:                -4.444
REMARK SMILES CCCCCCCCCCCCCCCCCCCCCCCCCCCC(=O)[O-]
REMARK SMILES IDX 15 1 16 2 17 3 18 4 19 5 20 6 21 7 22 8 23 9 24 10 25 11
REMARK SMILES IDX 26 12 27 13 28 14 29 15 30 16 14 17 13 18 12 19 11 20 10 21
REMARK SMILES IDX 9 22 8 23 7 24 6 25 5 26 4 27 3 28 2 29 1 30
REMARK H PARENT
REMARK Flexibility Score: inf
ROOT
ATOM      1  C   UNL     1     -18.894 -28.001  12.829  1.00  0.00     0.000 C 
ENDROOT
BRANCH   1   2
ATOM      2  C   UNL     1     -20.297 -28.636  12.799  1.00  0.00     0.000 C 
BRANCH   2   3
ATOM      3  C   UNL     1     -20.962 -28.680  14.186  1.00  0.00     0.000 C 
BRANCH   3   4
ATOM      4  C   UNL     1     -21.456 -30.087  14.557  1.00  0.00     0.000 C 
BRANCH   4   5
ATOM      5  C   UNL     1     -21.997 -30.169  15.996  1.00  0.00     0.000 C 
BRANCH   5   6
ATOM      6  C   UNL     1     -21.595 -28.952  16.844  1.00  0.00     0.000 C 
BRANCH   6   7
ATOM      7  C   UNL     1     -22.805 -28.094  17.253  1.00  0.00     0.000 C 
BRANCH   7   8
ATOM      8  C   UNL     1     -22.471 -26.595  17.349  1.00  0.00     0.000 C 
BRANCH   8   9
ATOM      9  C   UNL     1     -23.676 -25.653  17.179  1.00  0.00     0.000 C 
BRANCH   9  10
ATOM     10  C   UNL     1     -24.056 -25.430  15.705  1.00  0.00     0.000 C 
BRANCH  10  11
ATOM     11  C   UNL     1     -25.483 -24.883  15.540  1.00  0.00     0.000 C 
BRANCH  11  12
ATOM     12  C   UNL     1     -26.512 -25.656  16.382  1.00  0.00     0.006 C 
BRANCH  12  13
ATOM     13  C   UNL     1     -27.954 -25.360  15.949  1.00  0.00     0.053 C 
BRANCH  13  14
ATOM     14  C   UNL     1     -28.561 -24.256  16.760  1.00  0.00     0.041 C 
ATOM     15  O   UNL     1     -28.479 -23.063  16.367  1.00  0.00    -0.550 OA
ATOM     16  O   UNL     1     -29.243 -24.551  17.933  1.00  0.00    -0.550 OA
ENDBRANCH  13  14
ENDBRANCH  12  13
ENDBRANCH  11  12
ENDBRANCH  10  11
ENDBRANCH   9  10
ENDBRANCH   8   9
ENDBRANCH   7   8
ENDBRANCH   6   7
ENDBRANCH   5   6
ENDBRANCH   4   5
ENDBRANCH   3   4
ENDBRANCH   2   3
ENDBRANCH   1   2
BRANCH   1  17
ATOM     17  C   UNL     1     -18.284 -27.817  14.235  1.00  0.00     0.000 C 
BRANCH  17  18
ATOM     18  C   UNL     1     -18.096 -26.355  14.679  1.00  0.00     0.000 C 
BRANCH  18  19
ATOM     19  C   UNL     1     -19.166 -25.893  15.678  1.00  0.00     0.000 C 
BRANCH  19  20
ATOM     20  C   UNL     1     -19.823 -24.586  15.212  1.00  0.00     0.000 C 
BRANCH  20  21
ATOM     21  C   UNL     1     -20.977 -24.814  14.219  1.00  0.00     0.000 C 
BRANCH  21  22
ATOM     22  C   UNL     1     -20.998 -23.854  13.015  1.00  0.00    -0.000 C 
BRANCH  22  23
ATOM     23  C   UNL     1     -19.612 -23.288  12.677  1.00  0.00    -0.000 C 
BRANCH  23  24
ATOM     24  C   UNL     1     -19.129 -23.790  11.311  1.00  0.00    -0.000 C 
BRANCH  24  25
ATOM     25  C   UNL     1     -20.187 -24.683  10.648  1.00  0.00    -0.000 C 
BRANCH  25  26
ATOM     26  C   UNL     1     -19.532 -25.840   9.885  1.00  0.00    -0.000 C 
BRANCH  26  27
ATOM     27  C   UNL     1     -18.063 -25.531   9.572  1.00  0.00    -0.000 C 
BRANCH  27  28
ATOM     28  C   UNL     1     -17.273 -26.819   9.310  1.00  0.00    -0.000 C 
BRANCH  28  29
ATOM     29  C   UNL     1     -16.250 -27.072  10.423  1.00  0.00    -0.003 C 
ATOM     30  C   UNL     1     -16.139 -25.870  11.356  1.00  0.00     0.004 C 
ENDBRANCH  28  29
ENDBRANCH  27  28
ENDBRANCH  26  27
ENDBRANCH  25  26
ENDBRANCH  24  25
ENDBRANCH  23  24
ENDBRANCH  22  23
ENDBRANCH  21  22
ENDBRANCH  20  21
ENDBRANCH  19  20
ENDBRANCH  18  19
ENDBRANCH  17  18
ENDBRANCH   1  17
TORSDOF 26
ENDMDL
MODEL 9
REMARK VINA RESULT:    -4.851      2.959      6.769
REMARK INTER + INTRA:         -16.669
REMARK INTER:                 -13.301
REMARK INTRA:                  -3.368
REMARK UNBOUND:                -4.444
REMARK SMILES CCCCCCCCCCCCCCCCCCCCCCCCCCCC(=O)[O-]
REMARK SMILES IDX 15 1 16 2 17 3 18 4 19 5 20 6 21 7 22 8 23 9 24 10 25 11
REMARK SMILES IDX 26 12 27 13 28 14 29 15 30 16 14 17 13 18 12 19 11 20 10 21
REMARK SMILES IDX 9 22 8 23 7 24 6 25 5 26 4 27 3 28 2 29 1 30
REMARK H PARENT
REMARK Flexibility Score: inf
ROOT
ATOM      1  C   UNL     1     -21.762 -30.971  12.275  1.00  0.00     0.000 C 
ENDROOT
BRANCH   1   2
ATOM      2  C   UNL     1     -20.484 -31.367  11.512  1.00  0.00     0.000 C 
BRANCH   2   3
ATOM      3  C   UNL     1     -19.239 -30.605  11.997  1.00  0.00     0.000 C 
BRANCH   3   4
ATOM      4  C   UNL     1     -19.297 -29.107  11.660  1.00  0.00     0.000 C 
BRANCH   4   5
ATOM      5  C   UNL     1     -19.525 -28.225  12.900  1.00  0.00     0.000 C 
BRANCH   5   6
ATOM      6  C   UNL     1     -18.227 -27.962  13.680  1.00  0.00     0.000 C 
BRANCH   6   7
ATOM      7  C   UNL     1     -17.413 -26.796  13.095  1.00  0.00     0.000 C 
BRANCH   7   8
ATOM      8  C   UNL     1     -17.357 -25.575  14.030  1.00  0.00     0.000 C 
BRANCH   8   9
ATOM      9  C   UNL     1     -18.491 -25.505  15.069  1.00  0.00     0.000 C 
BRANCH   9  10
ATOM     10  C   UNL     1     -19.492 -24.371  14.784  1.00  0.00     0.000 C 
BRANCH  10  11
ATOM     11  C   UNL     1     -20.488 -24.729  13.670  1.00  0.00     0.000 C 
BRANCH  11  12
ATOM     12  C   UNL     1     -20.970 -23.494  12.891  1.00  0.00     0.006 C 
BRANCH  12  13
ATOM     13  C   UNL     1     -19.867 -22.438  12.738  1.00  0.00     0.053 C 
BRANCH  13  14
ATOM     14  C   UNL     1     -19.375 -22.351  11.326  1.00  0.00     0.041 C 
ATOM     15  O   UNL     1     -18.854 -21.286  10.901  1.00  0.00    -0.550 OA
ATOM     16  O   UNL     1     -19.464 -23.456  10.490  1.00  0.00    -0.550 OA
ENDBRANCH  13  14
ENDBRANCH  12  13
ENDBRANCH  11  12
ENDBRANCH  10  11
ENDBRANCH   9  10
ENDBRANCH   8   9
ENDBRANCH   7   8
ENDBRANCH   6   7
ENDBRANCH   5   6
ENDBRANCH   4   5
ENDBRANCH   3   4
ENDBRANCH   2   3
ENDBRANCH   1   2
BRANCH   1  17
ATOM     17  C   UNL     1     -21.796 -31.383  13.762  1.00  0.00     0.000 C 
BRANCH  17  18
ATOM     18  C   UNL     1     -21.730 -30.217  14.765  1.00  0.00     0.000 C 
BRANCH  18  19
ATOM     19  C   UNL     1     -22.065 -30.646  16.200  1.00  0.00     0.000 C 
BRANCH  19  20
ATOM     20  C   UNL     1     -21.503 -29.642  17.217  1.00  0.00     0.000 C 
BRANCH  20  21
ATOM     21  C   UNL     1     -20.790 -28.449  16.554  1.00  0.00     0.000 C 
BRANCH  21  22
ATOM     22  C   UNL     1     -21.451 -27.079  16.798  1.00  0.00    -0.000 C 
BRANCH  22  23
ATOM     23  C   UNL     1     -22.496 -26.721  15.732  1.00  0.00    -0.000 C 
BRANCH  23  24
ATOM     24  C   UNL     1     -23.520 -25.719  16.279  1.00  0.00    -0.000 C 
BRANCH  24  25
ATOM     25  C   UNL     1     -24.271 -25.023  15.137  1.00  0.00    -0.000 C 
BRANCH  25  26
ATOM     26  C   UNL     1     -25.615 -24.465  15.620  1.00  0.00    -0.000 C 
BRANCH  26  27
ATOM     27  C   UNL     1     -26.782 -25.112  14.865  1.00  0.00    -0.000 C 
BRANCH  27  28
ATOM     28  C   UNL     1     -28.056 -24.267  14.988  1.00  0.00    -0.000 C 
BRANCH  28  29
ATOM     29  C   UNL     1     -28.225 -23.732  16.414  1.00  0.00    -0.003 C 
ATOM     30  C   UNL     1     -29.694 -23.710  16.825  1.00  0.00     0.004 C 
ENDBRANCH  28  29
ENDBRANCH  27  28
ENDBRANCH  26  27
ENDBRANCH  25  26
ENDBRANCH  24  25
ENDBRANCH  23  24
ENDBRANCH  22  23
ENDBRANCH  21  22
ENDBRANCH  20  21
ENDBRANCH  19  20
ENDBRANCH  18  19
ENDBRANCH  17  18
ENDBRANCH   1  17
TORSDOF 26
ENDMDL
