MODEL 1
REMARK VINA RESULT:    -5.117      0.000      0.000
REMARK INTER + INTRA:          -6.288
REMARK INTER:                  -6.015
REMARK INTRA:                  -0.273
REMARK UNBOUND:                -0.273
REMARK SMILES O=c1cc(-c2ccc(O)c(O)c2)oc2cc(O)cc(O)c12
REMARK SMILES IDX 4 1 3 2 2 3 1 4 21 5 19 6 18 7 16 8 15 9 14 10 13 11 5 12
REMARK SMILES IDX 6 13 7 14 8 15 12 16 10 17 9 18 11 20 20 22 17 24
REMARK H PARENT 9 19 11 21 20 23 17 25
REMARK Flexibility Score: inf
ROOT
ATOM      1  C   UNL     1       0.290  12.367   9.562  1.00  0.00     0.138 A 
ATOM      2  C   UNL     1       1.582  11.943   9.914  1.00  0.00     0.100 A 
ATOM      3  C   UNL     1       1.947  11.894  11.260  1.00  0.00     0.197 A 
ATOM      4  O   UNL     1       3.109  11.514  11.565  1.00  0.00    -0.289 OA
ATOM      5  C   UNL     1       1.015  12.273  12.246  1.00  0.00     0.107 A 
ATOM      6  C   UNL     1       1.303  12.252  13.632  1.00  0.00     0.134 A 
ATOM      7  C   UNL     1       0.320  12.651  14.552  1.00  0.00     0.093 A 
ATOM      8  C   UNL     1      -0.941  13.070  14.111  1.00  0.00     0.123 A 
ATOM      9  C   UNL     1      -1.228  13.092  12.745  1.00  0.00     0.094 A 
ATOM     10  C   UNL     1      -0.264  12.698  11.812  1.00  0.00     0.146 A 
ATOM     11  O   UNL     1      -0.563  12.727  10.518  1.00  0.00    -0.456 OA
ENDROOT
BRANCH   1  12
ATOM     12  C   UNL     1      -0.152  12.439   8.147  1.00  0.00     0.021 A 
ATOM     13  C   UNL     1       0.453  13.363   7.280  1.00  0.00     0.016 A 
ATOM     14  C   UNL     1       0.050  13.454   5.947  1.00  0.00     0.051 A 
ATOM     15  C   UNL     1      -0.969  12.636   5.451  1.00  0.00     0.157 A 
ATOM     16  C   UNL     1      -1.189  11.625   7.652  1.00  0.00     0.062 A 
ATOM     17  C   UNL     1      -1.602  11.713   6.316  1.00  0.00     0.158 A 
BRANCH  15  18
ATOM     18  O   UNL     1      -1.320  12.773   4.106  1.00  0.00    -0.504 OA
ATOM     19  H   UNL     1      -1.673  13.628   3.699  1.00  0.00     0.293 HD
ENDBRANCH  15  18
BRANCH  17  20
ATOM     20  O   UNL     1      -2.637  10.875   5.897  1.00  0.00    -0.504 OA
ATOM     21  H   UNL     1      -2.711  10.490   4.967  1.00  0.00     0.293 HD
ENDBRANCH  17  20
ENDBRANCH   1  12
BRANCH   6  22
ATOM     22  O   UNL     1       2.551  11.840  14.100  1.00  0.00    -0.507 OA
ATOM     23  H   UNL     1       2.728  11.693  15.087  1.00  0.00     0.293 HD
ENDBRANCH   6  22
BRANCH   8  24
ATOM     24  O   UNL     1      -1.916  13.466  15.024  1.00  0.00    -0.508 OA
ATOM     25  H   UNL     1      -2.638  14.131  14.773  1.00  0.00     0.293 HD
ENDBRANCH   8  24
TORSDOF 5
ENDMDL
MODEL 2
REMARK VINA RESULT:    -4.965      0.594      1.461
REMARK INTER + INTRA:          -6.109
REMARK INTER:                  -5.844
REMARK INTRA:                  -0.265
REMARK UNBOUND:                -0.273
REMARK SMILES O=c1cc(-c2ccc(O)c(O)c2)oc2cc(O)cc(O)c12
REMARK SMILES IDX 4 1 3 2 2 3 1 4 21 5 19 6 18 7 16 8 15 9 14 10 13 11 5 12
REMARK SMILES IDX 6 13 7 14 8 15 12 16 10 17 9 18 11 20 20 22 17 24
REMARK H PARENT 9 19 11 21 20 23 17 25
REMARK Flexibility Score: inf
ROOT
ATOM      1  C   UNL     1       0.213  12.366   9.499  1.00  0.00     0.138 A 
ATOM      2  C   UNL     1       1.534  12.023   9.828  1.00  0.00     0.100 A 
ATOM      3  C   UNL     1       1.936  12.042  11.165  1.00  0.00     0.197 A 
ATOM      4  O   UNL     1       3.125  11.734  11.451  1.00  0.00    -0.289 OA
ATOM      5  C   UNL     1       1.011  12.407  12.163  1.00  0.00     0.107 A 
ATOM      6  C   UNL     1       1.337  12.452  13.541  1.00  0.00     0.134 A 
ATOM      7  C   UNL     1       0.359  12.832  14.473  1.00  0.00     0.093 A 
ATOM      8  C   UNL     1      -0.934  13.169  14.053  1.00  0.00     0.123 A 
ATOM      9  C   UNL     1      -1.257  13.127  12.696  1.00  0.00     0.094 A 
ATOM     10  C   UNL     1      -0.299  12.749  11.751  1.00  0.00     0.146 A 
ATOM     11  O   UNL     1      -0.633  12.716  10.465  1.00  0.00    -0.456 OA
ENDROOT
BRANCH   1  12
ATOM     12  C   UNL     1      -0.270  12.364   8.095  1.00  0.00     0.021 A 
ATOM     13  C   UNL     1      -1.093  11.318   7.649  1.00  0.00     0.016 A 
ATOM     14  C   UNL     1      -1.555  11.291   6.332  1.00  0.00     0.051 A 
ATOM     15  C   UNL     1      -1.200  12.298   5.429  1.00  0.00     0.157 A 
ATOM     16  C   UNL     1       0.100  13.370   7.183  1.00  0.00     0.062 A 
ATOM     17  C   UNL     1      -0.356  13.349   5.858  1.00  0.00     0.158 A 
BRANCH  15  18
ATOM     18  O   UNL     1      -1.701  12.214   4.129  1.00  0.00    -0.504 OA
ATOM     19  H   UNL     1      -1.721  12.989   3.480  1.00  0.00     0.293 HD
ENDBRANCH  15  18
BRANCH  17  20
ATOM     20  O   UNL     1       0.054  14.380   5.011  1.00  0.00    -0.504 OA
ATOM     21  H   UNL     1       0.801  15.023   5.225  1.00  0.00     0.293 HD
ENDBRANCH  17  20
ENDBRANCH   1  12
BRANCH   6  22
ATOM     22  O   UNL     1       2.616  12.122  13.987  1.00  0.00    -0.507 OA
ATOM     23  H   UNL     1       2.766  11.428  14.710  1.00  0.00     0.293 HD
ENDBRANCH   6  22
BRANCH   8  24
ATOM     24  O   UNL     1      -1.904  13.547  14.980  1.00  0.00    -0.508 OA
ATOM     25  H   UNL     1      -1.915  14.474  15.387  1.00  0.00     0.293 HD
ENDBRANCH   8  24
TORSDOF 5
ENDMDL
MODEL 3
REMARK VINA RESULT:    -4.900     20.878     22.816
REMARK INTER + INTRA:          -6.033
REMARK INTER:                  -5.742
REMARK INTRA:                  -0.290
REMARK UNBOUND:                -0.273
REMARK SMILES O=c1cc(-c2ccc(O)c(O)c2)oc2cc(O)cc(O)c12
REMARK SMILES IDX 4 1 3 2 2 3 1 4 21 5 19 6 18 7 16 8 15 9 14 10 13 11 5 12
REMARK SMILES IDX 6 13 7 14 8 15 12 16 10 17 9 18 11 20 20 22 17 24
REMARK H PARENT 9 19 11 21 20 23 17 25
REMARK Flexibility Score: inf
ROOT
ATOM      1  C   UNL     1     -12.345  30.127   9.296  1.00  0.00     0.138 A 
ATOM      2  C   UNL     1     -13.629  30.009   9.853  1.00  0.00     0.100 A 
ATOM      3  C   UNL     1     -14.749  30.133   9.029  1.00  0.00     0.197 A 
ATOM      4  O   UNL     1     -15.897  30.027   9.539  1.00  0.00    -0.289 OA
ATOM      5  C   UNL     1     -14.575  30.377   7.653  1.00  0.00     0.107 A 
ATOM      6  C   UNL     1     -15.656  30.516   6.749  1.00  0.00     0.134 A 
ATOM      7  C   UNL     1     -15.399  30.764   5.392  1.00  0.00     0.093 A 
ATOM      8  C   UNL     1     -14.084  30.878   4.924  1.00  0.00     0.123 A 
ATOM      9  C   UNL     1     -13.016  30.743   5.814  1.00  0.00     0.094 A 
ATOM     10  C   UNL     1     -13.250  30.493   7.169  1.00  0.00     0.146 A 
ATOM     11  O   UNL     1     -12.216  30.368   7.994  1.00  0.00    -0.456 OA
ENDROOT
BRANCH   1  12
ATOM     12  C   UNL     1     -11.118  30.005  10.124  1.00  0.00     0.021 A 
ATOM     13  C   UNL     1      -9.938  30.640   9.707  1.00  0.00     0.016 A 
ATOM     14  C   UNL     1      -8.770  30.535  10.465  1.00  0.00     0.051 A 
ATOM     15  C   UNL     1      -8.750  29.789  11.646  1.00  0.00     0.157 A 
ATOM     16  C   UNL     1     -11.095  29.241  11.306  1.00  0.00     0.062 A 
ATOM     17  C   UNL     1      -9.926  29.128  12.071  1.00  0.00     0.158 A 
BRANCH  15  18
ATOM     18  O   UNL     1      -7.551  29.729  12.360  1.00  0.00    -0.504 OA
ATOM     19  H   UNL     1      -6.811  29.069  12.169  1.00  0.00     0.293 HD
ENDBRANCH  15  18
BRANCH  17  20
ATOM     20  O   UNL     1      -9.978  28.351  13.230  1.00  0.00    -0.504 OA
ATOM     21  H   UNL     1     -10.281  28.698  14.128  1.00  0.00     0.293 HD
ENDBRANCH  17  20
ENDBRANCH   1  12
BRANCH   6  22
ATOM     22  O   UNL     1     -16.976  30.407   7.187  1.00  0.00    -0.507 OA
ATOM     23  H   UNL     1     -17.525  29.572   7.022  1.00  0.00     0.293 HD
ENDBRANCH   6  22
BRANCH   8  24
ATOM     24  O   UNL     1     -13.829  31.125   3.577  1.00  0.00    -0.508 OA
ATOM     25  H   UNL     1     -13.609  32.055   3.241  1.00  0.00     0.293 HD
ENDBRANCH   8  24
TORSDOF 5
ENDMDL
MODEL 4
REMARK VINA RESULT:    -4.850      1.733      6.924
REMARK INTER + INTRA:          -5.974
REMARK INTER:                  -5.661
REMARK INTRA:                  -0.313
REMARK UNBOUND:                -0.273
REMARK SMILES O=c1cc(-c2ccc(O)c(O)c2)oc2cc(O)cc(O)c12
REMARK SMILES IDX 4 1 3 2 2 3 1 4 21 5 19 6 18 7 16 8 15 9 14 10 13 11 5 12
REMARK SMILES IDX 6 13 7 14 8 15 12 16 10 17 9 18 11 20 20 22 17 24
REMARK H PARENT 9 19 11 21 20 23 17 25
REMARK Flexibility Score: inf
ROOT
ATOM      1  C   UNL     1       0.437  12.120   8.879  1.00  0.00     0.138 A 
ATOM      2  C   UNL     1       1.463  11.957   7.934  1.00  0.00     0.100 A 
ATOM      3  C   UNL     1       1.141  11.604   6.623  1.00  0.00     0.197 A 
ATOM      4  O   UNL     1       2.069  11.458   5.783  1.00  0.00    -0.289 OA
ATOM      5  C   UNL     1      -0.209  11.413   6.267  1.00  0.00     0.107 A 
ATOM      6  C   UNL     1      -0.622  11.055   4.961  1.00  0.00     0.134 A 
ATOM      7  C   UNL     1      -1.987  10.878   4.688  1.00  0.00     0.093 A 
ATOM      8  C   UNL     1      -2.944  11.051   5.696  1.00  0.00     0.123 A 
ATOM      9  C   UNL     1      -2.540  11.404   6.985  1.00  0.00     0.094 A 
ATOM     10  C   UNL     1      -1.185  11.586   7.277  1.00  0.00     0.146 A 
ATOM     11  O   UNL     1      -0.828  11.923   8.512  1.00  0.00    -0.456 OA
ENDROOT
BRANCH   1  12
ATOM     12  C   UNL     1       0.721  12.494  10.287  1.00  0.00     0.021 A 
ATOM     13  C   UNL     1       2.005  12.285  10.812  1.00  0.00     0.016 A 
ATOM     14  C   UNL     1       2.295  12.624  12.135  1.00  0.00     0.051 A 
ATOM     15  C   UNL     1       1.311  13.167  12.966  1.00  0.00     0.157 A 
ATOM     16  C   UNL     1      -0.276  13.028  11.127  1.00  0.00     0.062 A 
ATOM     17  C   UNL     1       0.006  13.367  12.457  1.00  0.00     0.158 A 
BRANCH  15  18
ATOM     18  O   UNL     1       1.668  13.489  14.277  1.00  0.00    -0.504 OA
ATOM     19  H   UNL     1       2.167  12.866  14.895  1.00  0.00     0.293 HD
ENDBRANCH  15  18
BRANCH  17  20
ATOM     20  O   UNL     1      -1.033  13.890  13.230  1.00  0.00    -0.504 OA
ATOM     21  H   UNL     1      -0.926  14.196  14.186  1.00  0.00     0.293 HD
ENDBRANCH  17  20
ENDBRANCH   1  12
BRANCH   6  22
ATOM     22  O   UNL     1       0.309  10.875   3.938  1.00  0.00    -0.507 OA
ATOM     23  H   UNL     1       0.943  11.615   3.659  1.00  0.00     0.293 HD
ENDBRANCH   6  22
BRANCH   8  24
ATOM     24  O   UNL     1      -4.300  10.875   5.425  1.00  0.00    -0.508 OA
ATOM     25  H   UNL     1      -4.686  11.068   4.509  1.00  0.00     0.293 HD
ENDBRANCH   8  24
TORSDOF 5
ENDMDL
MODEL 5
REMARK VINA RESULT:    -4.742     20.430     22.237
REMARK INTER + INTRA:          -5.847
REMARK INTER:                  -5.542
REMARK INTRA:                  -0.305
REMARK UNBOUND:                -0.273
REMARK SMILES O=c1cc(-c2ccc(O)c(O)c2)oc2cc(O)cc(O)c12
REMARK SMILES IDX 4 1 3 2 2 3 1 4 21 5 19 6 18 7 16 8 15 9 14 10 13 11 5 12
REMARK SMILES IDX 6 13 7 14 8 15 12 16 10 17 9 18 11 20 20 22 17 24
REMARK H PARENT 9 19 11 21 20 23 17 25
REMARK Flexibility Score: inf
ROOT
ATOM      1  C   UNL     1     -11.244  30.264   9.558  1.00  0.00     0.138 A 
ATOM      2  C   UNL     1     -10.932  30.678   8.253  1.00  0.00     0.100 A 
ATOM      3  C   UNL     1     -11.943  30.750   7.294  1.00  0.00     0.197 A 
ATOM      4  O   UNL     1     -11.652  31.121   6.125  1.00  0.00    -0.289 OA
ATOM      5  C   UNL     1     -13.262  30.404   7.649  1.00  0.00     0.107 A 
ATOM      6  C   UNL     1     -14.346  30.449   6.738  1.00  0.00     0.134 A 
ATOM      7  C   UNL     1     -15.630  30.083   7.169  1.00  0.00     0.093 A 
ATOM      8  C   UNL     1     -15.849  29.672   8.489  1.00  0.00     0.123 A 
ATOM      9  C   UNL     1     -14.783  29.625   9.389  1.00  0.00     0.094 A 
ATOM     10  C   UNL     1     -13.496  29.987   8.981  1.00  0.00     0.146 A 
ATOM     11  O   UNL     1     -12.499  29.935   9.858  1.00  0.00    -0.456 OA
ENDROOT
BRANCH   1  12
ATOM     12  C   UNL     1     -10.210  30.168  10.619  1.00  0.00     0.021 A 
ATOM     13  C   UNL     1      -9.114  31.045  10.596  1.00  0.00     0.016 A 
ATOM     14  C   UNL     1      -8.125  30.970  11.578  1.00  0.00     0.051 A 
ATOM     15  C   UNL     1      -8.201  30.017  12.597  1.00  0.00     0.157 A 
ATOM     16  C   UNL     1     -10.279  29.198  11.636  1.00  0.00     0.062 A 
ATOM     17  C   UNL     1      -9.290  29.114  12.624  1.00  0.00     0.158 A 
BRANCH  15  18
ATOM     18  O   UNL     1      -7.182  30.000  13.553  1.00  0.00    -0.504 OA
ATOM     19  H   UNL     1      -7.045  29.253  14.218  1.00  0.00     0.293 HD
ENDBRANCH  15  18
BRANCH  17  20
ATOM     20  O   UNL     1      -9.425  28.125  13.601  1.00  0.00    -0.504 OA
ATOM     21  H   UNL     1      -8.892  28.101  14.457  1.00  0.00     0.293 HD
ENDBRANCH  17  20
ENDBRANCH   1  12
BRANCH   6  22
ATOM     22  O   UNL     1     -14.156  30.855   5.417  1.00  0.00    -0.507 OA
ATOM     23  H   UNL     1     -13.291  31.285   5.111  1.00  0.00     0.293 HD
ENDBRANCH   6  22
BRANCH   8  24
ATOM     24  O   UNL     1     -17.125  29.307   8.916  1.00  0.00    -0.508 OA
ATOM     25  H   UNL     1     -17.264  28.598   9.625  1.00  0.00     0.293 HD
ENDBRANCH   8  24
TORSDOF 5
ENDMDL
MODEL 6
REMARK VINA RESULT:    -4.627     20.841     21.858
REMARK INTER + INTRA:          -5.711
REMARK INTER:                  -5.418
REMARK INTRA:                  -0.293
REMARK UNBOUND:                -0.273
REMARK SMILES O=c1cc(-c2ccc(O)c(O)c2)oc2cc(O)cc(O)c12
REMARK SMILES IDX 4 1 3 2 2 3 1 4 21 5 19 6 18 7 16 8 15 9 14 10 13 11 5 12
REMARK SMILES IDX 6 13 7 14 8 15 12 16 10 17 9 18 11 20 20 22 17 24
REMARK H PARENT 9 19 11 21 20 23 17 25
REMARK Flexibility Score: inf
ROOT
ATOM      1  C   UNL     1     -12.375  30.306   8.378  1.00  0.00     0.138 A 
ATOM      2  C   UNL     1     -11.010  30.163   8.079  1.00  0.00     0.100 A 
ATOM      3  C   UNL     1     -10.084  30.085   9.120  1.00  0.00     0.197 A 
ATOM      4  O   UNL     1      -8.861  29.959   8.842  1.00  0.00    -0.289 OA
ATOM      5  C   UNL     1     -10.531  30.152  10.454  1.00  0.00     0.107 A 
ATOM      6  C   UNL     1      -9.659  30.080  11.568  1.00  0.00     0.134 A 
ATOM      7  C   UNL     1     -10.183  30.160  12.866  1.00  0.00     0.093 A 
ATOM      8  C   UNL     1     -11.559  30.313  13.072  1.00  0.00     0.123 A 
ATOM      9  C   UNL     1     -12.422  30.385  11.977  1.00  0.00     0.094 A 
ATOM     10  C   UNL     1     -11.921  30.306  10.674  1.00  0.00     0.146 A 
ATOM     11  O   UNL     1     -12.763  30.376   9.649  1.00  0.00    -0.456 OA
ENDROOT
BRANCH   1  12
ATOM     12  C   UNL     1     -13.405  30.395   7.312  1.00  0.00     0.021 A 
ATOM     13  C   UNL     1     -14.745  30.117   7.622  1.00  0.00     0.016 A 
ATOM     14  C   UNL     1     -15.731  30.188   6.636  1.00  0.00     0.051 A 
ATOM     15  C   UNL     1     -15.403  30.528   5.320  1.00  0.00     0.157 A 
ATOM     16  C   UNL     1     -13.071  30.723   5.984  1.00  0.00     0.062 A 
ATOM     17  C   UNL     1     -14.054  30.794   4.988  1.00  0.00     0.158 A 
BRANCH  15  18
ATOM     18  O   UNL     1     -16.437  30.588   4.384  1.00  0.00    -0.504 OA
ATOM     19  H   UNL     1     -16.413  30.126   3.486  1.00  0.00     0.293 HD
ENDBRANCH  15  18
BRANCH  17  20
ATOM     20  O   UNL     1     -13.647  31.124   3.694  1.00  0.00    -0.504 OA
ATOM     21  H   UNL     1     -12.824  31.669   3.482  1.00  0.00     0.293 HD
ENDBRANCH  17  20
ENDBRANCH   1  12
BRANCH   6  22
ATOM     22  O   UNL     1      -8.283  29.929  11.392  1.00  0.00    -0.507 OA
ATOM     23  H   UNL     1      -7.901  29.316  10.681  1.00  0.00     0.293 HD
ENDBRANCH   6  22
BRANCH   8  24
ATOM     24  O   UNL     1     -12.079  30.393  14.362  1.00  0.00    -0.508 OA
ATOM     25  H   UNL     1     -11.503  30.221  15.177  1.00  0.00     0.293 HD
ENDBRANCH   8  24
TORSDOF 5
ENDMDL
MODEL 7
REMARK VINA RESULT:    -3.980      1.467      2.415
REMARK INTER + INTRA:          -4.951
REMARK INTER:                  -4.666
REMARK INTRA:                  -0.284
REMARK UNBOUND:                -0.273
REMARK SMILES O=c1cc(-c2ccc(O)c(O)c2)oc2cc(O)cc(O)c12
REMARK SMILES IDX 4 1 3 2 2 3 1 4 21 5 19 6 18 7 16 8 15 9 14 10 13 11 5 12
REMARK SMILES IDX 6 13 7 14 8 15 12 16 10 17 9 18 11 20 20 22 17 24
REMARK H PARENT 9 19 11 21 20 23 17 25
REMARK Flexibility Score: inf
ROOT
ATOM      1  C   UNL     1      -0.480  11.580   8.063  1.00  0.00     0.138 A 
ATOM      2  C   UNL     1       0.863  11.170   8.097  1.00  0.00     0.100 A 
ATOM      3  C   UNL     1       1.607  11.354   9.264  1.00  0.00     0.197 A 
ATOM      4  O   UNL     1       2.812  10.985   9.285  1.00  0.00    -0.289 OA
ATOM      5  C   UNL     1       1.001  11.950  10.388  1.00  0.00     0.107 A 
ATOM      6  C   UNL     1       1.684  12.173  11.608  1.00  0.00     0.134 A 
ATOM      7  C   UNL     1       1.010  12.778  12.680  1.00  0.00     0.093 A 
ATOM      8  C   UNL     1      -0.329  13.165  12.553  1.00  0.00     0.123 A 
ATOM      9  C   UNL     1      -1.005  12.948  11.351  1.00  0.00     0.094 A 
ATOM     10  C   UNL     1      -0.353  12.345  10.271  1.00  0.00     0.146 A 
ATOM     11  O   UNL     1      -1.020  12.148   9.139  1.00  0.00    -0.456 OA
ENDROOT
BRANCH   1  12
ATOM     12  C   UNL     1      -1.320  11.410   6.850  1.00  0.00     0.021 A 
ATOM     13  C   UNL     1      -2.677  11.081   6.990  1.00  0.00     0.016 A 
ATOM     14  C   UNL     1      -3.485  10.910   5.865  1.00  0.00     0.051 A 
ATOM     15  C   UNL     1      -2.958  11.053   4.578  1.00  0.00     0.157 A 
ATOM     16  C   UNL     1      -0.784  11.540   5.554  1.00  0.00     0.062 A 
ATOM     17  C   UNL     1      -1.588  11.367   4.419  1.00  0.00     0.158 A 
BRANCH  15  18
ATOM     18  O   UNL     1      -3.822  10.875   3.495  1.00  0.00    -0.504 OA
ATOM     19  H   UNL     1      -4.829  10.885   3.569  1.00  0.00     0.293 HD
ENDBRANCH  15  18
BRANCH  17  20
ATOM     20  O   UNL     1      -0.987  11.510   3.167  1.00  0.00    -0.504 OA
ATOM     21  H   UNL     1      -1.051  12.343   2.602  1.00  0.00     0.293 HD
ENDBRANCH  17  20
ENDBRANCH   1  12
BRANCH   6  22
ATOM     22  O   UNL     1       3.019  11.798  11.762  1.00  0.00    -0.507 OA
ATOM     23  H   UNL     1       3.778  12.394  11.453  1.00  0.00     0.293 HD
ENDBRANCH   6  22
BRANCH   8  24
ATOM     24  O   UNL     1      -0.998  13.766  13.618  1.00  0.00    -0.508 OA
ATOM     25  H   UNL     1      -1.946  14.109  13.523  1.00  0.00     0.293 HD
ENDBRANCH   8  24
TORSDOF 5
ENDMDL
