MODEL 1
REMARK VINA RESULT:    -2.720      0.000      0.000
REMARK INTER + INTRA:          -4.622
REMARK INTER:                  -3.674
REMARK INTRA:                  -0.948
REMARK UNBOUND:                -0.948
REMARK SMILES O=C[C@@H](O)[C@H](O)[C@@H](O)CO
REMARK SMILES IDX 7 1 9 2 10 3 5 5 3 6 2 7 1 8 4 9 6 11 8 13
REMARK H PARENT 10 4 4 10 6 12 8 14
REMARK Flexibility Score: inf
ROOT
ATOM      1  C   UNL     1      12.586 -20.257  36.418  1.00  0.00     0.171 C 
ENDROOT
BRANCH   1   2
ATOM      2  C   UNL     1      11.967 -19.166  37.312  1.00  0.00     0.190 C 
BRANCH   2   3
ATOM      3  O   UNL     1      12.449 -17.901  36.945  1.00  0.00    -0.394 OA
ATOM      4  H   UNL     1      13.287 -17.757  37.459  1.00  0.00     0.210 HD
ENDBRANCH   2   3
ENDBRANCH   1   2
BRANCH   1   5
ATOM      5  C   UNL     1      11.855 -20.362  35.054  1.00  0.00     0.181 C 
BRANCH   5   6
ATOM      6  C   UNL     1      12.743 -19.882  33.877  1.00  0.00     0.209 C 
BRANCH   6   7
ATOM      7  C   UNL     1      12.070 -20.068  32.540  1.00  0.00     0.258 C 
ATOM      8  O   UNL     1      11.191 -19.306  32.171  1.00  0.00    -0.300 OA
ENDBRANCH   6   7
BRANCH   6   9
ATOM      9  O   UNL     1      13.113 -18.535  34.041  1.00  0.00    -0.383 OA
ATOM     10  H   UNL     1      14.071 -18.514  34.304  1.00  0.00     0.211 HD
ENDBRANCH   6   9
ENDBRANCH   5   6
BRANCH   5  11
ATOM     11  O   UNL     1      10.677 -19.593  35.096  1.00  0.00    -0.387 OA
ATOM     12  H   UNL     1      10.789 -18.927  35.825  1.00  0.00     0.211 HD
ENDBRANCH   5  11
ENDBRANCH   1   5
BRANCH   1  13
ATOM     13  O   UNL     1      13.965 -20.035  36.245  1.00  0.00    -0.388 OA
ATOM     14  H   UNL     1      14.433 -20.401  37.040  1.00  0.00     0.211 HD
ENDBRANCH   1  13
TORSDOF 8
ENDMDL
MODEL 2
REMARK VINA RESULT:    -2.506      1.599      2.396
REMARK INTER + INTRA:          -4.333
REMARK INTER:                  -3.398
REMARK INTRA:                  -0.934
REMARK UNBOUND:                -0.948
REMARK SMILES O=C[C@@H](O)[C@H](O)[C@@H](O)CO
REMARK SMILES IDX 7 1 9 2 10 3 5 5 3 6 2 7 1 8 4 9 6 11 8 13
REMARK H PARENT 10 4 4 10 6 12 8 14
REMARK Flexibility Score: inf
ROOT
ATOM      1  C   UNL     1      12.982 -20.213  35.819  1.00  0.00     0.171 C 
ENDROOT
BRANCH   1   2
ATOM      2  C   UNL     1      12.036 -19.375  36.700  1.00  0.00     0.190 C 
BRANCH   2   3
ATOM      3  O   UNL     1      12.556 -18.086  36.888  1.00  0.00    -0.394 OA
ATOM      4  H   UNL     1      11.836 -17.548  37.309  1.00  0.00     0.210 HD
ENDBRANCH   2   3
ENDBRANCH   1   2
BRANCH   1   5
ATOM      5  C   UNL     1      12.834 -19.853  34.318  1.00  0.00     0.181 C 
BRANCH   5   6
ATOM      6  C   UNL     1      13.736 -20.735  33.414  1.00  0.00     0.209 C 
BRANCH   6   7
ATOM      7  C   UNL     1      14.942 -19.986  32.906  1.00  0.00     0.258 C 
ATOM      8  O   UNL     1      15.794 -19.576  33.678  1.00  0.00    -0.300 OA
ENDBRANCH   6   7
BRANCH   6   9
ATOM      9  O   UNL     1      14.146 -21.897  34.092  1.00  0.00    -0.383 OA
ATOM     10  H   UNL     1      13.345 -22.471  34.221  1.00  0.00     0.211 HD
ENDBRANCH   6   9
ENDBRANCH   5   6
BRANCH   5  11
ATOM     11  O   UNL     1      13.163 -18.498  34.128  1.00  0.00    -0.387 OA
ATOM     12  H   UNL     1      12.457 -17.961  34.575  1.00  0.00     0.211 HD
ENDBRANCH   5  11
ENDBRANCH   1   5
BRANCH   1  13
ATOM     13  O   UNL     1      14.315 -20.078  36.251  1.00  0.00    -0.388 OA
ATOM     14  H   UNL     1      14.369 -19.262  36.814  1.00  0.00     0.211 HD
ENDBRANCH   1  13
TORSDOF 8
ENDMDL
MODEL 3
REMARK VINA RESULT:    -2.443      1.520      1.788
REMARK INTER + INTRA:          -4.247
REMARK INTER:                  -3.579
REMARK INTRA:                  -0.669
REMARK UNBOUND:                -0.948
REMARK SMILES O=C[C@@H](O)[C@H](O)[C@@H](O)CO
REMARK SMILES IDX 7 1 9 2 10 3 5 5 3 6 2 7 1 8 4 9 6 11 8 13
REMARK H PARENT 10 4 4 10 6 12 8 14
REMARK Flexibility Score: inf
ROOT
ATOM      1  C   UNL     1      12.095 -19.245  37.021  1.00  0.00     0.171 C 
ENDROOT
BRANCH   1   2
ATOM      2  C   UNL     1      10.677 -19.266  37.622  1.00  0.00     0.190 C 
BRANCH   2   3
ATOM      3  O   UNL     1       9.954 -18.138  37.208  1.00  0.00    -0.394 OA
ATOM      4  H   UNL     1       9.197 -18.471  36.659  1.00  0.00     0.210 HD
ENDBRANCH   2   3
ENDBRANCH   1   2
BRANCH   1   5
ATOM      5  C   UNL     1      12.162 -20.036  35.688  1.00  0.00     0.181 C 
BRANCH   5   6
ATOM      6  C   UNL     1      13.399 -19.643  34.838  1.00  0.00     0.209 C 
BRANCH   6   7
ATOM      7  C   UNL     1      13.829 -20.751  33.910  1.00  0.00     0.258 C 
ATOM      8  O   UNL     1      13.084 -21.158  33.033  1.00  0.00    -0.300 OA
ENDBRANCH   6   7
BRANCH   6   9
ATOM      9  O   UNL     1      13.151 -18.472  34.100  1.00  0.00    -0.383 OA
ATOM     10  H   UNL     1      12.608 -17.864  34.669  1.00  0.00     0.211 HD
ENDBRANCH   6   9
ENDBRANCH   5   6
BRANCH   5  11
ATOM     11  O   UNL     1      10.990 -19.802  34.947  1.00  0.00    -0.387 OA
ATOM     12  H   UNL     1      10.265 -20.333  35.371  1.00  0.00     0.211 HD
ENDBRANCH   5  11
ENDBRANCH   1   5
BRANCH   1  13
ATOM     13  O   UNL     1      12.547 -17.922  36.856  1.00  0.00    -0.388 OA
ATOM     14  H   UNL     1      12.232 -17.603  35.970  1.00  0.00     0.211 HD
ENDBRANCH   1  13
TORSDOF 8
ENDMDL
MODEL 4
REMARK VINA RESULT:    -2.423      1.614      3.925
REMARK INTER + INTRA:          -4.221
REMARK INTER:                  -3.316
REMARK INTRA:                  -0.904
REMARK UNBOUND:                -0.948
REMARK SMILES O=C[C@@H](O)[C@H](O)[C@@H](O)CO
REMARK SMILES IDX 7 1 9 2 10 3 5 5 3 6 2 7 1 8 4 9 6 11 8 13
REMARK H PARENT 10 4 4 10 6 12 8 14
REMARK Flexibility Score: inf
ROOT
ATOM      1  C   UNL     1      12.182 -20.012  35.713  1.00  0.00     0.171 C 
ENDROOT
BRANCH   1   2
ATOM      2  C   UNL     1      13.417 -19.668  34.859  1.00  0.00     0.190 C 
BRANCH   2   3
ATOM      3  O   UNL     1      13.166 -18.537  34.068  1.00  0.00    -0.394 OA
ATOM      4  H   UNL     1      13.739 -18.620  33.262  1.00  0.00     0.210 HD
ENDBRANCH   2   3
ENDBRANCH   1   2
BRANCH   1   5
ATOM      5  C   UNL     1      12.254 -19.353  37.114  1.00  0.00     0.181 C 
BRANCH   5   6
ATOM      6  C   UNL     1      11.021 -19.701  37.988  1.00  0.00     0.209 C 
BRANCH   6   7
ATOM      7  C   UNL     1      10.044 -18.555  38.079  1.00  0.00     0.258 C 
ATOM      8  O   UNL     1       9.344 -18.252  37.126  1.00  0.00    -0.300 OA
ENDBRANCH   6   7
BRANCH   6   9
ATOM      9  O   UNL     1      10.366 -20.847  37.503  1.00  0.00    -0.383 OA
ATOM     10  H   UNL     1      10.003 -20.631  36.603  1.00  0.00     0.211 HD
ENDBRANCH   6   9
ENDBRANCH   5   6
BRANCH   5  11
ATOM     11  O   UNL     1      12.347 -17.957  36.969  1.00  0.00    -0.387 OA
ATOM     12  H   UNL     1      13.084 -17.649  37.560  1.00  0.00     0.211 HD
ENDBRANCH   5  11
ENDBRANCH   1   5
BRANCH   1  13
ATOM     13  O   UNL     1      10.997 -19.659  35.039  1.00  0.00    -0.388 OA
ATOM     14  H   UNL     1      10.932 -18.668  35.043  1.00  0.00     0.211 HD
ENDBRANCH   1  13
TORSDOF 8
ENDMDL
MODEL 5
REMARK VINA RESULT:    -2.410      1.567      4.050
REMARK INTER + INTRA:          -4.202
REMARK INTER:                  -3.521
REMARK INTRA:                  -0.682
REMARK UNBOUND:                -0.948
REMARK SMILES O=C[C@@H](O)[C@H](O)[C@@H](O)CO
REMARK SMILES IDX 7 1 9 2 10 3 5 5 3 6 2 7 1 8 4 9 6 11 8 13
REMARK H PARENT 10 4 4 10 6 12 8 14
REMARK Flexibility Score: inf
ROOT
ATOM      1  C   UNL     1      13.305 -19.853  33.967  1.00  0.00     0.171 C 
ENDROOT
BRANCH   1   2
ATOM      2  C   UNL     1      14.598 -20.256  33.233  1.00  0.00     0.190 C 
BRANCH   2   3
ATOM      3  O   UNL     1      15.534 -19.213  33.282  1.00  0.00    -0.394 OA
ATOM      4  H   UNL     1      16.267 -19.459  32.659  1.00  0.00     0.210 HD
ENDBRANCH   2   3
ENDBRANCH   1   2
BRANCH   1   5
ATOM      5  C   UNL     1      13.332 -20.292  35.454  1.00  0.00     0.181 C 
BRANCH   5   6
ATOM      6  C   UNL     1      12.322 -19.492  36.318  1.00  0.00     0.209 C 
BRANCH   6   7
ATOM      7  C   UNL     1      12.029 -20.172  37.632  1.00  0.00     0.258 C 
ATOM      8  O   UNL     1      12.855 -20.902  38.155  1.00  0.00    -0.300 OA
ENDBRANCH   6   7
BRANCH   6   9
ATOM      9  O   UNL     1      12.782 -18.183  36.550  1.00  0.00    -0.383 OA
ATOM     10  H   UNL     1      12.005 -17.637  36.843  1.00  0.00     0.211 HD
ENDBRANCH   6   9
ENDBRANCH   5   6
BRANCH   5  11
ATOM     11  O   UNL     1      14.630 -20.117  35.969  1.00  0.00    -0.387 OA
ATOM     12  H   UNL     1      15.242 -20.025  35.192  1.00  0.00     0.211 HD
ENDBRANCH   5  11
ENDBRANCH   1   5
BRANCH   1  13
ATOM     13  O   UNL     1      13.073 -18.470  33.844  1.00  0.00    -0.388 OA
ATOM     14  H   UNL     1      13.950 -18.028  33.697  1.00  0.00     0.211 HD
ENDBRANCH   1  13
TORSDOF 8
ENDMDL
MODEL 6
REMARK VINA RESULT:    -2.303      1.469      3.626
REMARK INTER + INTRA:          -4.059
REMARK INTER:                  -3.410
REMARK INTRA:                  -0.650
REMARK UNBOUND:                -0.948
REMARK SMILES O=C[C@@H](O)[C@H](O)[C@@H](O)CO
REMARK SMILES IDX 7 1 9 2 10 3 5 5 3 6 2 7 1 8 4 9 6 11 8 13
REMARK H PARENT 10 4 4 10 6 12 8 14
REMARK Flexibility Score: inf
ROOT
ATOM      1  C   UNL     1      13.204 -19.714  34.806  1.00  0.00     0.171 C 
ENDROOT
BRANCH   1   2
ATOM      2  C   UNL     1      14.663 -20.196  34.923  1.00  0.00     0.190 C 
BRANCH   2   3
ATOM      3  O   UNL     1      14.989 -20.446  36.264  1.00  0.00    -0.394 OA
ATOM      4  H   UNL     1      14.877 -21.422  36.406  1.00  0.00     0.210 HD
ENDBRANCH   2   3
ENDBRANCH   1   2
BRANCH   1   5
ATOM      5  C   UNL     1      12.537 -19.569  36.198  1.00  0.00     0.181 C 
BRANCH   5   6
ATOM      6  C   UNL     1      11.035 -19.958  36.169  1.00  0.00     0.209 C 
BRANCH   6   7
ATOM      7  C   UNL     1      10.240 -19.245  37.234  1.00  0.00     0.258 C 
ATOM      8  O   UNL     1      10.600 -19.262  38.400  1.00  0.00    -0.300 OA
ENDBRANCH   6   7
BRANCH   6   9
ATOM      9  O   UNL     1      10.474 -19.706  34.905  1.00  0.00    -0.383 OA
ATOM     10  H   UNL     1       9.748 -20.369  34.759  1.00  0.00     0.211 HD
ENDBRANCH   6   9
ENDBRANCH   5   6
BRANCH   5  11
ATOM     11  O   UNL     1      12.668 -18.241  36.643  1.00  0.00    -0.387 OA
ATOM     12  H   UNL     1      12.294 -17.657  35.932  1.00  0.00     0.211 HD
ENDBRANCH   5  11
ENDBRANCH   1   5
BRANCH   1  13
ATOM     13  O   UNL     1      13.134 -18.513  34.075  1.00  0.00    -0.388 OA
ATOM     14  H   UNL     1      12.245 -18.480  33.634  1.00  0.00     0.211 HD
ENDBRANCH   1  13
TORSDOF 8
ENDMDL
MODEL 7
REMARK VINA RESULT:    -2.267     12.543     13.994
REMARK INTER + INTRA:          -4.010
REMARK INTER:                  -3.092
REMARK INTRA:                  -0.917
REMARK UNBOUND:                -0.948
REMARK SMILES O=C[C@@H](O)[C@H](O)[C@@H](O)CO
REMARK SMILES IDX 7 1 9 2 10 3 5 5 3 6 2 7 1 8 4 9 6 11 8 13
REMARK H PARENT 10 4 4 10 6 12 8 14
REMARK Flexibility Score: inf
ROOT
ATOM      1  C   UNL     1      11.557 -10.413  24.734  1.00  0.00     0.171 C 
ENDROOT
BRANCH   1   2
ATOM      2  C   UNL     1      11.236 -11.277  23.501  1.00  0.00     0.190 C 
BRANCH   2   3
ATOM      3  O   UNL     1      11.901 -12.509  23.580  1.00  0.00    -0.394 OA
ATOM      4  H   UNL     1      11.428 -13.044  24.270  1.00  0.00     0.210 HD
ENDBRANCH   2   3
ENDBRANCH   1   2
BRANCH   1   5
ATOM      5  C   UNL     1      12.941 -10.770  25.338  1.00  0.00     0.181 C 
BRANCH   5   6
ATOM      6  C   UNL     1      13.128 -10.177  26.759  1.00  0.00     0.209 C 
BRANCH   6   7
ATOM      7  C   UNL     1      14.002  -8.948  26.755  1.00  0.00     0.258 C 
ATOM      8  O   UNL     1      13.638  -7.924  26.199  1.00  0.00    -0.300 OA
ENDBRANCH   6   7
BRANCH   6   9
ATOM      9  O   UNL     1      11.887  -9.878  27.349  1.00  0.00    -0.383 OA
ATOM     10  H   UNL     1      11.696 -10.581  28.025  1.00  0.00     0.211 HD
ENDBRANCH   6   9
ENDBRANCH   5   6
BRANCH   5  11
ATOM     11  O   UNL     1      13.957 -10.289  24.492  1.00  0.00    -0.387 OA
ATOM     12  H   UNL     1      13.544  -9.608  23.898  1.00  0.00     0.211 HD
ENDBRANCH   5  11
ENDBRANCH   1   5
BRANCH   1  13
ATOM     13  O   UNL     1      11.473  -9.043  24.419  1.00  0.00    -0.388 OA
ATOM     14  H   UNL     1      10.589  -8.885  23.995  1.00  0.00     0.211 HD
ENDBRANCH   1  13
TORSDOF 8
ENDMDL
MODEL 8
REMARK VINA RESULT:    -2.228      1.169      1.999
REMARK INTER + INTRA:          -3.958
REMARK INTER:                  -3.008
REMARK INTRA:                  -0.949
REMARK UNBOUND:                -0.948
REMARK SMILES O=C[C@@H](O)[C@H](O)[C@@H](O)CO
REMARK SMILES IDX 7 1 9 2 10 3 5 5 3 6 2 7 1 8 4 9 6 11 8 13
REMARK H PARENT 10 4 4 10 6 12 8 14
REMARK Flexibility Score: inf
ROOT
ATOM      1  C   UNL     1      12.951 -19.842  34.290  1.00  0.00     0.171 C 
ENDROOT
BRANCH   1   2
ATOM      2  C   UNL     1      13.214 -19.808  35.808  1.00  0.00     0.190 C 
BRANCH   2   3
ATOM      3  O   UNL     1      12.668 -18.645  36.372  1.00  0.00    -0.394 OA
ATOM      4  H   UNL     1      11.848 -18.435  35.853  1.00  0.00     0.210 HD
ENDBRANCH   2   3
ENDBRANCH   1   2
BRANCH   1   5
ATOM      5  C   UNL     1      11.569 -20.466  33.963  1.00  0.00     0.181 C 
BRANCH   5   6
ATOM      6  C   UNL     1      11.383 -20.709  32.442  1.00  0.00     0.209 C 
BRANCH   6   7
ATOM      7  C   UNL     1      10.484 -19.680  31.805  1.00  0.00     0.258 C 
ATOM      8  O   UNL     1      10.811 -18.505  31.759  1.00  0.00    -0.300 OA
ENDBRANCH   6   7
BRANCH   6   9
ATOM      9  O   UNL     1      12.624 -20.733  31.780  1.00  0.00    -0.383 OA
ATOM     10  H   UNL     1      13.112 -21.545  32.081  1.00  0.00     0.211 HD
ENDBRANCH   6   9
ENDBRANCH   5   6
BRANCH   5  11
ATOM     11  O   UNL     1      10.551 -19.614  34.429  1.00  0.00    -0.387 OA
ATOM     12  H   UNL     1       9.689 -19.983  34.101  1.00  0.00     0.211 HD
ENDBRANCH   5  11
ENDBRANCH   1   5
BRANCH   1  13
ATOM     13  O   UNL     1      13.078 -18.556  33.733  1.00  0.00    -0.388 OA
ATOM     14  H   UNL     1      13.427 -18.659  32.809  1.00  0.00     0.211 HD
ENDBRANCH   1  13
TORSDOF 8
ENDMDL
MODEL 9
REMARK VINA RESULT:    -2.191     12.873     13.637
REMARK INTER + INTRA:          -3.907
REMARK INTER:                  -2.973
REMARK INTRA:                  -0.935
REMARK UNBOUND:                -0.948
REMARK SMILES O=C[C@@H](O)[C@H](O)[C@@H](O)CO
REMARK SMILES IDX 7 1 9 2 10 3 5 5 3 6 2 7 1 8 4 9 6 11 8 13
REMARK H PARENT 10 4 4 10 6 12 8 14
REMARK Flexibility Score: inf
ROOT
ATOM      1  C   UNL     1      10.857  -8.621  26.255  1.00  0.00     0.171 C 
ENDROOT
BRANCH   1   2
ATOM      2  C   UNL     1      10.151  -8.016  27.484  1.00  0.00     0.190 C 
BRANCH   2   3
ATOM      3  O   UNL     1       9.926  -9.004  28.454  1.00  0.00    -0.394 OA
ATOM      4  H   UNL     1      10.741  -9.037  29.020  1.00  0.00     0.210 HD
ENDBRANCH   2   3
ENDBRANCH   1   2
BRANCH   1   5
ATOM      5  C   UNL     1      12.324  -9.008  26.572  1.00  0.00     0.181 C 
BRANCH   5   6
ATOM      6  C   UNL     1      13.164  -9.219  25.285  1.00  0.00     0.209 C 
BRANCH   6   7
ATOM      7  C   UNL     1      13.351 -10.679  24.957  1.00  0.00     0.258 C 
ATOM      8  O   UNL     1      12.398 -11.380  24.659  1.00  0.00    -0.300 OA
ENDBRANCH   6   7
BRANCH   6   9
ATOM      9  O   UNL     1      12.582  -8.555  24.190  1.00  0.00    -0.383 OA
ATOM     10  H   UNL     1      13.310  -8.329  23.551  1.00  0.00     0.211 HD
ENDBRANCH   6   9
ENDBRANCH   5   6
BRANCH   5  11
ATOM     11  O   UNL     1      12.341 -10.187  27.339  1.00  0.00    -0.387 OA
ATOM     12  H   UNL     1      13.287 -10.360  27.589  1.00  0.00     0.211 HD
ENDBRANCH   5  11
ENDBRANCH   1   5
BRANCH   1  13
ATOM     13  O   UNL     1      10.132  -9.720  25.756  1.00  0.00    -0.388 OA
ATOM     14  H   UNL     1       9.439  -9.369  25.137  1.00  0.00     0.211 HD
ENDBRANCH   1  13
TORSDOF 8
ENDMDL
