MODEL 1
REMARK VINA RESULT:    -3.399      0.000      0.000
REMARK INTER + INTRA:          -8.349
REMARK INTER:                  -5.983
REMARK INTRA:                  -2.367
REMARK UNBOUND:                -2.367
REMARK SMILES CCCCCCCCCCCCCCC(=O)[O-]
REMARK SMILES IDX 9 1 10 2 11 3 12 4 13 5 14 6 15 7 16 8 17 9 8 10 7 11 6 12
REMARK SMILES IDX 5 13 4 14 3 15 2 16 1 17
REMARK H PARENT
REMARK Flexibility Score: inf
ROOT
ATOM      1  C   UNL     1       0.061   8.059  40.853  1.00  0.00     0.000 C 
ENDROOT
BRANCH   1   2
ATOM      2  C   UNL     1      -0.926   7.958  42.035  1.00  0.00     0.000 C 
BRANCH   2   3
ATOM      3  C   UNL     1      -2.352   7.513  41.658  1.00  0.00     0.000 C 
BRANCH   3   4
ATOM      4  C   UNL     1      -2.667   7.560  40.151  1.00  0.00     0.000 C 
BRANCH   4   5
ATOM      5  C   UNL     1      -2.933   6.170  39.528  1.00  0.00     0.006 C 
BRANCH   5   6
ATOM      6  C   UNL     1      -2.402   5.001  40.373  1.00  0.00     0.053 C 
BRANCH   6   7
ATOM      7  C   UNL     1      -1.088   4.491  39.860  1.00  0.00     0.041 C 
ATOM      8  O   UNL     1      -1.001   4.029  38.693  1.00  0.00    -0.550 OA
ATOM      9  O   UNL     1       0.043   4.549  40.664  1.00  0.00    -0.550 OA
ENDBRANCH   6   7
ENDBRANCH   5   6
ENDBRANCH   4   5
ENDBRANCH   3   4
ENDBRANCH   2   3
ENDBRANCH   1   2
BRANCH   1  10
ATOM     10  C   UNL     1       1.094   9.194  40.958  1.00  0.00     0.000 C 
BRANCH  10  11
ATOM     11  C   UNL     1       1.220  10.010  39.664  1.00  0.00    -0.000 C 
BRANCH  11  12
ATOM     12  C   UNL     1      -0.114  10.049  38.904  1.00  0.00    -0.000 C 
BRANCH  12  13
ATOM     13  C   UNL     1       0.030   9.556  37.448  1.00  0.00    -0.000 C 
BRANCH  13  14
ATOM     14  C   UNL     1      -0.876   8.361  37.107  1.00  0.00    -0.000 C 
BRANCH  14  15
ATOM     15  C   UNL     1      -0.139   7.014  37.179  1.00  0.00    -0.000 C 
BRANCH  15  16
ATOM     16  C   UNL     1       1.389   7.178  37.150  1.00  0.00    -0.003 C 
ATOM     17  C   UNL     1       2.087   6.417  38.278  1.00  0.00     0.004 C 
ENDBRANCH  15  16
ENDBRANCH  14  15
ENDBRANCH  13  14
ENDBRANCH  12  13
ENDBRANCH  11  12
ENDBRANCH  10  11
ENDBRANCH   1  10
TORSDOF 13
ENDMDL
MODEL 2
REMARK VINA RESULT:    -3.348      2.662      4.982
REMARK INTER + INTRA:          -8.260
REMARK INTER:                  -6.283
REMARK INTRA:                  -1.977
REMARK UNBOUND:                -2.367
REMARK SMILES CCCCCCCCCCCCCCC(=O)[O-]
REMARK SMILES IDX 9 1 10 2 11 3 12 4 13 5 14 6 15 7 16 8 17 9 8 10 7 11 6 12
REMARK SMILES IDX 5 13 4 14 3 15 2 16 1 17
REMARK H PARENT
REMARK Flexibility Score: inf
ROOT
ATOM      1  C   UNL     1       1.005   8.722  38.936  1.00  0.00     0.000 C 
ENDROOT
BRANCH   1   2
ATOM      2  C   UNL     1       0.106   9.976  38.903  1.00  0.00     0.000 C 
BRANCH   2   3
ATOM      3  C   UNL     1      -1.231   9.802  38.157  1.00  0.00     0.000 C 
BRANCH   3   4
ATOM      4  C   UNL     1      -1.114   9.153  36.766  1.00  0.00     0.000 C 
BRANCH   4   5
ATOM      5  C   UNL     1      -0.627  10.124  35.666  1.00  0.00     0.006 C 
BRANCH   5   6
ATOM      6  C   UNL     1       0.894  10.101  35.449  1.00  0.00     0.053 C 
BRANCH   6   7
ATOM      7  C   UNL     1       1.342   8.850  34.755  1.00  0.00     0.041 C 
ATOM      8  O   UNL     1       1.575   7.806  35.420  1.00  0.00    -0.550 OA
ATOM      9  O   UNL     1       1.479   8.831  33.373  1.00  0.00    -0.550 OA
ENDBRANCH   6   7
ENDBRANCH   5   6
ENDBRANCH   4   5
ENDBRANCH   3   4
ENDBRANCH   2   3
ENDBRANCH   1   2
BRANCH   1  10
ATOM     10  C   UNL     1       1.110   8.028  40.305  1.00  0.00     0.000 C 
BRANCH  10  11
ATOM     11  C   UNL     1       0.785   8.964  41.478  1.00  0.00    -0.000 C 
BRANCH  11  12
ATOM     12  C   UNL     1      -0.198   8.302  42.455  1.00  0.00    -0.000 C 
BRANCH  12  13
ATOM     13  C   UNL     1      -0.998   7.160  41.794  1.00  0.00    -0.000 C 
BRANCH  13  14
ATOM     14  C   UNL     1      -2.395   7.584  41.307  1.00  0.00    -0.000 C 
BRANCH  14  15
ATOM     15  C   UNL     1      -2.715   7.067  39.895  1.00  0.00    -0.000 C 
BRANCH  15  16
ATOM     16  C   UNL     1      -1.958   5.773  39.556  1.00  0.00    -0.003 C 
ATOM     17  C   UNL     1      -1.379   5.779  38.141  1.00  0.00     0.004 C 
ENDBRANCH  15  16
ENDBRANCH  14  15
ENDBRANCH  13  14
ENDBRANCH  12  13
ENDBRANCH  11  12
ENDBRANCH  10  11
ENDBRANCH   1  10
TORSDOF 13
ENDMDL
MODEL 3
REMARK VINA RESULT:    -3.250      1.952      4.226
REMARK INTER + INTRA:          -8.087
REMARK INTER:                  -5.951
REMARK INTRA:                  -2.137
REMARK UNBOUND:                -2.367
REMARK SMILES CCCCCCCCCCCCCCC(=O)[O-]
REMARK SMILES IDX 9 1 10 2 11 3 12 4 13 5 14 6 15 7 16 8 17 9 8 10 7 11 6 12
REMARK SMILES IDX 5 13 4 14 3 15 2 16 1 17
REMARK H PARENT
REMARK Flexibility Score: inf
ROOT
ATOM      1  C   UNL     1       2.623   9.519  38.561  1.00  0.00     0.000 C 
ENDROOT
BRANCH   1   2
ATOM      2  C   UNL     1       2.240   9.768  37.087  1.00  0.00     0.000 C 
BRANCH   2   3
ATOM      3  C   UNL     1       0.813   9.333  36.700  1.00  0.00     0.000 C 
BRANCH   3   4
ATOM      4  C   UNL     1       0.714   7.930  36.074  1.00  0.00     0.000 C 
BRANCH   4   5
ATOM      5  C   UNL     1       0.212   6.845  37.056  1.00  0.00     0.006 C 
BRANCH   5   6
ATOM      6  C   UNL     1       1.014   5.536  36.994  1.00  0.00     0.053 C 
BRANCH   6   7
ATOM      7  C   UNL     1       2.477   5.764  37.227  1.00  0.00     0.041 C 
ATOM      8  O   UNL     1       3.298   5.624  36.282  1.00  0.00    -0.550 OA
ATOM      9  O   UNL     1       2.931   6.153  38.481  1.00  0.00    -0.550 OA
ENDBRANCH   6   7
ENDBRANCH   5   6
ENDBRANCH   4   5
ENDBRANCH   3   4
ENDBRANCH   2   3
ENDBRANCH   1   2
BRANCH   1  10
ATOM     10  C   UNL     1       1.531   9.867  39.588  1.00  0.00     0.000 C 
BRANCH  10  11
ATOM     11  C   UNL     1       1.344   8.779  40.655  1.00  0.00    -0.000 C 
BRANCH  11  12
ATOM     12  C   UNL     1      -0.019   8.089  40.506  1.00  0.00    -0.000 C 
BRANCH  12  13
ATOM     13  C   UNL     1      -1.049   8.982  39.782  1.00  0.00    -0.000 C 
BRANCH  13  14
ATOM     14  C   UNL     1      -2.330   8.238  39.368  1.00  0.00    -0.000 C 
BRANCH  14  15
ATOM     15  C   UNL     1      -2.553   6.944  40.167  1.00  0.00    -0.000 C 
BRANCH  15  16
ATOM     16  C   UNL     1      -2.670   5.707  39.263  1.00  0.00    -0.003 C 
ATOM     17  C   UNL     1      -1.629   4.635  39.588  1.00  0.00     0.004 C 
ENDBRANCH  15  16
ENDBRANCH  14  15
ENDBRANCH  13  14
ENDBRANCH  12  13
ENDBRANCH  11  12
ENDBRANCH  10  11
ENDBRANCH   1  10
TORSDOF 13
ENDMDL
MODEL 4
REMARK VINA RESULT:    -3.205      2.137      3.247
REMARK INTER + INTRA:          -8.007
REMARK INTER:                  -5.859
REMARK INTRA:                  -2.148
REMARK UNBOUND:                -2.367
REMARK SMILES CCCCCCCCCCCCCCC(=O)[O-]
REMARK SMILES IDX 9 1 10 2 11 3 12 4 13 5 14 6 15 7 16 8 17 9 8 10 7 11 6 12
REMARK SMILES IDX 5 13 4 14 3 15 2 16 1 17
REMARK H PARENT
REMARK Flexibility Score: inf
ROOT
ATOM      1  C   UNL     1      -1.778   8.851  38.766  1.00  0.00     0.000 C 
ENDROOT
BRANCH   1   2
ATOM      2  C   UNL     1      -2.379   7.889  39.813  1.00  0.00     0.000 C 
BRANCH   2   3
ATOM      3  C   UNL     1      -2.307   6.395  39.444  1.00  0.00     0.000 C 
BRANCH   3   4
ATOM      4  C   UNL     1      -1.581   6.091  38.121  1.00  0.00     0.000 C 
BRANCH   4   5
ATOM      5  C   UNL     1      -0.232   5.358  38.307  1.00  0.00     0.006 C 
BRANCH   5   6
ATOM      6  C   UNL     1      -0.122   4.050  37.508  1.00  0.00     0.053 C 
BRANCH   6   7
ATOM      7  C   UNL     1       0.367   4.287  36.111  1.00  0.00     0.041 C 
ATOM      8  O   UNL     1       1.546   4.682  35.912  1.00  0.00    -0.550 OA
ATOM      9  O   UNL     1      -0.471   4.051  35.029  1.00  0.00    -0.550 OA
ENDBRANCH   6   7
ENDBRANCH   5   6
ENDBRANCH   4   5
ENDBRANCH   3   4
ENDBRANCH   2   3
ENDBRANCH   1   2
BRANCH   1  10
ATOM     10  C   UNL     1      -0.564   9.665  39.246  1.00  0.00     0.000 C 
BRANCH  10  11
ATOM     11  C   UNL     1       0.354   8.873  40.188  1.00  0.00    -0.000 C 
BRANCH  11  12
ATOM     12  C   UNL     1       1.696   8.556  39.513  1.00  0.00    -0.000 C 
BRANCH  12  13
ATOM     13  C   UNL     1       2.271   9.773  38.758  1.00  0.00    -0.000 C 
BRANCH  13  14
ATOM     14  C   UNL     1       2.449   9.536  37.248  1.00  0.00    -0.000 C 
BRANCH  14  15
ATOM     15  C   UNL     1       1.991   8.137  36.806  1.00  0.00    -0.000 C 
BRANCH  15  16
ATOM     16  C   UNL     1       0.687   8.174  35.993  1.00  0.00    -0.003 C 
ATOM     17  C   UNL     1       0.478   9.505  35.270  1.00  0.00     0.004 C 
ENDBRANCH  15  16
ENDBRANCH  14  15
ENDBRANCH  13  14
ENDBRANCH  12  13
ENDBRANCH  11  12
ENDBRANCH  10  11
ENDBRANCH   1  10
TORSDOF 13
ENDMDL
MODEL 5
REMARK VINA RESULT:    -3.184      2.692      4.949
REMARK INTER + INTRA:          -7.970
REMARK INTER:                  -6.110
REMARK INTRA:                  -1.860
REMARK UNBOUND:                -2.367
REMARK SMILES CCCCCCCCCCCCCCC(=O)[O-]
REMARK SMILES IDX 9 1 10 2 11 3 12 4 13 5 14 6 15 7 16 8 17 9 8 10 7 11 6 12
REMARK SMILES IDX 5 13 4 14 3 15 2 16 1 17
REMARK H PARENT
REMARK Flexibility Score: inf
ROOT
ATOM      1  C   UNL     1      -2.070   5.324  40.140  1.00  0.00     0.000 C 
ENDROOT
BRANCH   1   2
ATOM      2  C   UNL     1      -1.211   4.697  39.022  1.00  0.00     0.000 C 
BRANCH   2   3
ATOM      3  C   UNL     1      -1.485   5.240  37.606  1.00  0.00     0.000 C 
BRANCH   3   4
ATOM      4  C   UNL     1      -0.230   5.432  36.734  1.00  0.00     0.000 C 
BRANCH   4   5
ATOM      5  C   UNL     1       0.293   6.887  36.708  1.00  0.00     0.006 C 
BRANCH   5   6
ATOM      6  C   UNL     1       1.413   7.124  35.684  1.00  0.00     0.053 C 
BRANCH   6   7
ATOM      7  C   UNL     1       1.272   8.449  34.997  1.00  0.00     0.041 C 
ATOM      8  O   UNL     1       1.436   8.537  33.752  1.00  0.00    -0.550 OA
ATOM      9  O   UNL     1       0.938   9.581  35.729  1.00  0.00    -0.550 OA
ENDBRANCH   6   7
ENDBRANCH   5   6
ENDBRANCH   4   5
ENDBRANCH   3   4
ENDBRANCH   2   3
ENDBRANCH   1   2
BRANCH   1  10
ATOM     10  C   UNL     1      -2.954   6.505  39.701  1.00  0.00     0.000 C 
BRANCH  10  11
ATOM     11  C   UNL     1      -2.414   7.864  40.169  1.00  0.00    -0.000 C 
BRANCH  11  12
ATOM     12  C   UNL     1      -1.941   8.709  38.977  1.00  0.00    -0.000 C 
BRANCH  12  13
ATOM     13  C   UNL     1      -0.580   9.386  39.245  1.00  0.00    -0.000 C 
BRANCH  13  14
ATOM     14  C   UNL     1       0.448   8.462  39.921  1.00  0.00    -0.000 C 
BRANCH  14  15
ATOM     15  C   UNL     1       1.040   9.066  41.204  1.00  0.00    -0.000 C 
BRANCH  15  16
ATOM     16  C   UNL     1       0.502   8.389  42.475  1.00  0.00    -0.003 C 
ATOM     17  C   UNL     1       0.538   6.863  42.393  1.00  0.00     0.004 C 
ENDBRANCH  15  16
ENDBRANCH  14  15
ENDBRANCH  13  14
ENDBRANCH  12  13
ENDBRANCH  11  12
ENDBRANCH  10  11
ENDBRANCH   1  10
TORSDOF 13
ENDMDL
MODEL 6
REMARK VINA RESULT:    -3.178      1.618      4.240
REMARK INTER + INTRA:          -7.961
REMARK INTER:                  -5.979
REMARK INTRA:                  -1.982
REMARK UNBOUND:                -2.367
REMARK SMILES CCCCCCCCCCCCCCC(=O)[O-]
REMARK SMILES IDX 9 1 10 2 11 3 12 4 13 5 14 6 15 7 16 8 17 9 8 10 7 11 6 12
REMARK SMILES IDX 5 13 4 14 3 15 2 16 1 17
REMARK H PARENT
REMARK Flexibility Score: inf
ROOT
ATOM      1  C   UNL     1       1.315   9.590  36.195  1.00  0.00     0.000 C 
ENDROOT
BRANCH   1   2
ATOM      2  C   UNL     1       2.151   9.905  37.454  1.00  0.00     0.000 C 
BRANCH   2   3
ATOM      3  C   UNL     1       2.143   8.807  38.534  1.00  0.00     0.000 C 
BRANCH   3   4
ATOM      4  C   UNL     1       2.279   7.370  37.997  1.00  0.00     0.000 C 
BRANCH   4   5
ATOM      5  C   UNL     1       1.181   6.409  38.507  1.00  0.00     0.006 C 
BRANCH   5   6
ATOM      6  C   UNL     1       0.412   5.696  37.385  1.00  0.00     0.053 C 
BRANCH   6   7
ATOM      7  C   UNL     1      -0.934   5.222  37.842  1.00  0.00     0.041 C 
ATOM      8  O   UNL     1      -1.924   5.281  37.066  1.00  0.00    -0.550 OA
ATOM      9  O   UNL     1      -1.091   4.693  39.117  1.00  0.00    -0.550 OA
ENDBRANCH   6   7
ENDBRANCH   5   6
ENDBRANCH   4   5
ENDBRANCH   3   4
ENDBRANCH   2   3
ENDBRANCH   1   2
BRANCH   1  10
ATOM     10  C   UNL     1      -0.127  10.125  36.217  1.00  0.00     0.000 C 
BRANCH  10  11
ATOM     11  C   UNL     1      -1.135   9.108  36.770  1.00  0.00    -0.000 C 
BRANCH  11  12
ATOM     12  C   UNL     1      -1.771   9.614  38.074  1.00  0.00    -0.000 C 
BRANCH  12  13
ATOM     13  C   UNL     1      -1.412   8.724  39.282  1.00  0.00    -0.000 C 
BRANCH  13  14
ATOM     14  C   UNL     1      -2.598   7.905  39.821  1.00  0.00    -0.000 C 
BRANCH  14  15
ATOM     15  C   UNL     1      -2.458   7.566  41.314  1.00  0.00    -0.000 C 
BRANCH  15  16
ATOM     16  C   UNL     1      -1.023   7.168  41.695  1.00  0.00    -0.003 C 
ATOM     17  C   UNL     1      -0.959   5.849  42.466  1.00  0.00     0.004 C 
ENDBRANCH  15  16
ENDBRANCH  14  15
ENDBRANCH  13  14
ENDBRANCH  12  13
ENDBRANCH  11  12
ENDBRANCH  10  11
ENDBRANCH   1  10
TORSDOF 13
ENDMDL
MODEL 7
REMARK VINA RESULT:    -3.172      2.167      4.816
REMARK INTER + INTRA:          -7.949
REMARK INTER:                  -5.830
REMARK INTRA:                  -2.119
REMARK UNBOUND:                -2.367
REMARK SMILES CCCCCCCCCCCCCCC(=O)[O-]
REMARK SMILES IDX 9 1 10 2 11 3 12 4 13 5 14 6 15 7 16 8 17 9 8 10 7 11 6 12
REMARK SMILES IDX 5 13 4 14 3 15 2 16 1 17
REMARK H PARENT
REMARK Flexibility Score: inf
ROOT
ATOM      1  C   UNL     1      -2.672   7.426  40.200  1.00  0.00     0.000 C 
ENDROOT
BRANCH   1   2
ATOM      2  C   UNL     1      -2.141   8.594  39.342  1.00  0.00     0.000 C 
BRANCH   2   3
ATOM      3  C   UNL     1      -1.304   8.177  38.118  1.00  0.00     0.000 C 
BRANCH   3   4
ATOM      4  C   UNL     1      -1.145   9.267  37.042  1.00  0.00     0.000 C 
BRANCH   4   5
ATOM      5  C   UNL     1       0.184   9.177  36.257  1.00  0.00     0.006 C 
BRANCH   5   6
ATOM      6  C   UNL     1       1.286   8.399  36.993  1.00  0.00     0.053 C 
BRANCH   6   7
ATOM      7  C   UNL     1       1.791   7.243  36.183  1.00  0.00     0.041 C 
ATOM      8  O   UNL     1       1.400   7.082  34.997  1.00  0.00    -0.550 OA
ATOM      9  O   UNL     1       2.710   6.358  36.731  1.00  0.00    -0.550 OA
ENDBRANCH   6   7
ENDBRANCH   5   6
ENDBRANCH   4   5
ENDBRANCH   3   4
ENDBRANCH   2   3
ENDBRANCH   1   2
BRANCH   1  10
ATOM     10  C   UNL     1      -2.819   6.085  39.460  1.00  0.00     0.000 C 
BRANCH  10  11
ATOM     11  C   UNL     1      -2.654   4.870  40.384  1.00  0.00    -0.000 C 
BRANCH  11  12
ATOM     12  C   UNL     1      -1.182   4.673  40.778  1.00  0.00    -0.000 C 
BRANCH  12  13
ATOM     13  C   UNL     1      -0.238   4.737  39.558  1.00  0.00    -0.000 C 
BRANCH  13  14
ATOM     14  C   UNL     1       0.928   5.724  39.730  1.00  0.00    -0.000 C 
BRANCH  14  15
ATOM     15  C   UNL     1       0.787   6.601  40.984  1.00  0.00    -0.000 C 
BRANCH  15  16
ATOM     16  C   UNL     1       1.245   8.049  40.745  1.00  0.00    -0.003 C 
ATOM     17  C   UNL     1       0.806   9.000  41.858  1.00  0.00     0.004 C 
ENDBRANCH  15  16
ENDBRANCH  14  15
ENDBRANCH  13  14
ENDBRANCH  12  13
ENDBRANCH  11  12
ENDBRANCH  10  11
ENDBRANCH   1  10
TORSDOF 13
ENDMDL
MODEL 8
REMARK VINA RESULT:    -3.154      2.370      4.609
REMARK INTER + INTRA:          -7.918
REMARK INTER:                  -5.977
REMARK INTRA:                  -1.941
REMARK UNBOUND:                -2.367
REMARK SMILES CCCCCCCCCCCCCCC(=O)[O-]
REMARK SMILES IDX 9 1 10 2 11 3 12 4 13 5 14 6 15 7 16 8 17 9 8 10 7 11 6 12
REMARK SMILES IDX 5 13 4 14 3 15 2 16 1 17
REMARK H PARENT
REMARK Flexibility Score: inf
ROOT
ATOM      1  C   UNL     1      -2.632   7.854  39.769  1.00  0.00     0.000 C 
ENDROOT
BRANCH   1   2
ATOM      2  C   UNL     1      -1.465   8.676  39.184  1.00  0.00     0.000 C 
BRANCH   2   3
ATOM      3  C   UNL     1      -1.875   9.762  38.171  1.00  0.00     0.000 C 
BRANCH   3   4
ATOM      4  C   UNL     1      -0.852  10.017  37.048  1.00  0.00     0.000 C 
BRANCH   4   5
ATOM      5  C   UNL     1       0.001   8.778  36.691  1.00  0.00     0.006 C 
BRANCH   5   6
ATOM      6  C   UNL     1       1.516   9.032  36.750  1.00  0.00     0.053 C 
BRANCH   6   7
ATOM      7  C   UNL     1       2.040   8.971  38.153  1.00  0.00     0.041 C 
ATOM      8  O   UNL     1       2.443   7.878  38.631  1.00  0.00    -0.550 OA
ATOM      9  O   UNL     1       2.103  10.125  38.923  1.00  0.00    -0.550 OA
ENDBRANCH   6   7
ENDBRANCH   5   6
ENDBRANCH   4   5
ENDBRANCH   3   4
ENDBRANCH   2   3
ENDBRANCH   1   2
BRANCH   1  10
ATOM     10  C   UNL     1      -2.487   7.479  41.255  1.00  0.00     0.000 C 
BRANCH  10  11
ATOM     11  C   UNL     1      -1.134   7.895  41.849  1.00  0.00    -0.000 C 
BRANCH  11  12
ATOM     12  C   UNL     1      -0.353   6.671  42.350  1.00  0.00    -0.000 C 
BRANCH  12  13
ATOM     13  C   UNL     1       0.758   6.245  41.366  1.00  0.00    -0.000 C 
BRANCH  13  14
ATOM     14  C   UNL     1       0.386   5.027  40.503  1.00  0.00    -0.000 C 
BRANCH  14  15
ATOM     15  C   UNL     1       0.134   5.394  39.032  1.00  0.00    -0.000 C 
BRANCH  15  16
ATOM     16  C   UNL     1      -1.097   4.681  38.451  1.00  0.00    -0.003 C 
ATOM     17  C   UNL     1      -1.601   5.325  37.159  1.00  0.00     0.004 C 
ENDBRANCH  15  16
ENDBRANCH  14  15
ENDBRANCH  13  14
ENDBRANCH  12  13
ENDBRANCH  11  12
ENDBRANCH  10  11
ENDBRANCH   1  10
TORSDOF 13
ENDMDL
MODEL 9
REMARK VINA RESULT:    -3.149      2.795      4.786
REMARK INTER + INTRA:          -7.908
REMARK INTER:                  -5.745
REMARK INTRA:                  -2.163
REMARK UNBOUND:                -2.367
REMARK SMILES CCCCCCCCCCCCCCC(=O)[O-]
REMARK SMILES IDX 9 1 10 2 11 3 12 4 13 5 14 6 15 7 16 8 17 9 8 10 7 11 6 12
REMARK SMILES IDX 5 13 4 14 3 15 2 16 1 17
REMARK H PARENT
REMARK Flexibility Score: inf
ROOT
ATOM      1  C   UNL     1       1.518   8.232  39.617  1.00  0.00     0.000 C 
ENDROOT
BRANCH   1   2
ATOM      2  C   UNL     1       0.434   9.313  39.807  1.00  0.00     0.000 C 
BRANCH   2   3
ATOM      3  C   UNL     1      -1.013   8.787  39.846  1.00  0.00     0.000 C 
BRANCH   3   4
ATOM      4  C   UNL     1      -1.871   9.162  38.623  1.00  0.00     0.000 C 
BRANCH   4   5
ATOM      5  C   UNL     1      -1.082   9.892  37.512  1.00  0.00     0.006 C 
BRANCH   5   6
ATOM      6  C   UNL     1      -0.618   8.970  36.374  1.00  0.00     0.053 C 
BRANCH   6   7
ATOM      7  C   UNL     1       0.659   9.448  35.752  1.00  0.00     0.041 C 
ATOM      8  O   UNL     1       1.582   9.909  36.474  1.00  0.00    -0.550 OA
ATOM      9  O   UNL     1       0.839   9.362  34.377  1.00  0.00    -0.550 OA
ENDBRANCH   6   7
ENDBRANCH   5   6
ENDBRANCH   4   5
ENDBRANCH   3   4
ENDBRANCH   2   3
ENDBRANCH   1   2
BRANCH   1  10
ATOM     10  C   UNL     1       1.137   6.827  40.118  1.00  0.00     0.000 C 
BRANCH  10  11
ATOM     11  C   UNL     1       1.497   5.718  39.119  1.00  0.00    -0.000 C 
BRANCH  11  12
ATOM     12  C   UNL     1       0.677   5.851  37.827  1.00  0.00    -0.000 C 
BRANCH  12  13
ATOM     13  C   UNL     1      -0.485   4.838  37.767  1.00  0.00    -0.000 C 
BRANCH  13  14
ATOM     14  C   UNL     1      -1.878   5.491  37.800  1.00  0.00    -0.000 C 
BRANCH  14  15
ATOM     15  C   UNL     1      -2.492   5.513  39.209  1.00  0.00    -0.000 C 
BRANCH  15  16
ATOM     16  C   UNL     1      -1.884   4.446  40.132  1.00  0.00    -0.003 C 
ATOM     17  C   UNL     1      -2.823   4.042  41.269  1.00  0.00     0.004 C 
ENDBRANCH  15  16
ENDBRANCH  14  15
ENDBRANCH  13  14
ENDBRANCH  12  13
ENDBRANCH  11  12
ENDBRANCH  10  11
ENDBRANCH   1  10
TORSDOF 13
ENDMDL
