MODEL 1
REMARK VINA RESULT:    -4.150      0.000      0.000
REMARK INTER + INTRA:          -7.688
REMARK INTER:                  -6.576
REMARK INTRA:                  -1.112
REMARK UNBOUND:                -1.112
REMARK SMILES CCCCCCCCCCCC(=O)[O-]
REMARK SMILES IDX 7 1 8 2 9 3 10 4 11 5 12 6 13 7 14 8 6 9 5 10 4 11 3 12 2 13
REMARK SMILES IDX 1 14
REMARK H PARENT
REMARK Flexibility Score: inf
ROOT
ATOM      1  C   UNL     1      45.555   9.661  19.897  1.00  0.00     0.000 C 
ENDROOT
BRANCH   1   2
ATOM      2  C   UNL     1      46.029   8.867  18.673  1.00  0.00     0.000 C 
BRANCH   2   3
ATOM      3  C   UNL     1      46.394   7.428  19.058  1.00  0.00     0.000 C 
BRANCH   3   4
ATOM      4  C   UNL     1      46.783   6.609  17.823  1.00  0.00     0.006 C 
BRANCH   4   5
ATOM      5  C   UNL     1      46.479   7.380  16.535  1.00  0.00     0.053 C 
BRANCH   5   6
ATOM      6  C   UNL     1      45.446   6.662  15.725  1.00  0.00     0.041 C 
ATOM      7  O   UNL     1      44.236   6.692  16.072  1.00  0.00    -0.550 OA
ATOM      8  O   UNL     1      45.826   5.917  14.616  1.00  0.00    -0.550 OA
ENDBRANCH   5   6
ENDBRANCH   4   5
ENDBRANCH   3   4
ENDBRANCH   2   3
ENDBRANCH   1   2
BRANCH   1   9
ATOM      9  C   UNL     1      44.237   9.098  20.441  1.00  0.00     0.000 C 
BRANCH   9  10
ATOM     10  C   UNL     1      44.366   8.736  21.928  1.00  0.00    -0.000 C 
BRANCH  10  11
ATOM     11  C   UNL     1      45.616   9.347  22.586  1.00  0.00    -0.000 C 
BRANCH  11  12
ATOM     12  C   UNL     1      46.542   8.338  23.294  1.00  0.00    -0.000 C 
BRANCH  12  13
ATOM     13  C   UNL     1      47.862   8.042  22.561  1.00  0.00    -0.003 C 
ATOM     14  C   UNL     1      48.053   6.558  22.255  1.00  0.00     0.004 C 
ENDBRANCH  12  13
ENDBRANCH  11  12
ENDBRANCH  10  11
ENDBRANCH   9  10
ENDBRANCH   1   9
TORSDOF 10
ENDMDL
MODEL 2
REMARK VINA RESULT:    -4.104      1.155      1.967
REMARK INTER + INTRA:          -7.616
REMARK INTER:                  -6.830
REMARK INTRA:                  -0.786
REMARK UNBOUND:                -1.112
REMARK SMILES CCCCCCCCCCCC(=O)[O-]
REMARK SMILES IDX 7 1 8 2 9 3 10 4 11 5 12 6 13 7 14 8 6 9 5 10 4 11 3 12 2 13
REMARK SMILES IDX 1 14
REMARK H PARENT
REMARK Flexibility Score: inf
ROOT
ATOM      1  C   UNL     1      46.683   7.002  19.019  1.00  0.00     0.000 C 
ENDROOT
BRANCH   1   2
ATOM      2  C   UNL     1      46.575   6.623  17.536  1.00  0.00     0.000 C 
BRANCH   2   3
ATOM      3  C   UNL     1      46.745   7.855  16.638  1.00  0.00     0.000 C 
BRANCH   3   4
ATOM      4  C   UNL     1      45.593   7.966  15.633  1.00  0.00     0.006 C 
BRANCH   4   5
ATOM      5  C   UNL     1      44.473   6.978  15.970  1.00  0.00     0.053 C 
BRANCH   5   6
ATOM      6  C   UNL     1      44.000   6.279  14.734  1.00  0.00     0.041 C 
ATOM      7  O   UNL     1      42.963   6.675  14.140  1.00  0.00    -0.550 OA
ATOM      8  O   UNL     1      44.677   5.160  14.266  1.00  0.00    -0.550 OA
ENDBRANCH   5   6
ENDBRANCH   4   5
ENDBRANCH   3   4
ENDBRANCH   2   3
ENDBRANCH   1   2
BRANCH   1   9
ATOM      9  C   UNL     1      45.927   8.304  19.309  1.00  0.00     0.000 C 
BRANCH   9  10
ATOM     10  C   UNL     1      45.421   8.334  20.759  1.00  0.00    -0.000 C 
BRANCH  10  11
ATOM     11  C   UNL     1      46.272   9.237  21.671  1.00  0.00    -0.000 C 
BRANCH  11  12
ATOM     12  C   UNL     1      46.785   8.566  22.960  1.00  0.00    -0.000 C 
BRANCH  12  13
ATOM     13  C   UNL     1      48.185   7.939  22.854  1.00  0.00    -0.003 C 
ATOM     14  C   UNL     1      48.158   6.504  22.331  1.00  0.00     0.004 C 
ENDBRANCH  12  13
ENDBRANCH  11  12
ENDBRANCH  10  11
ENDBRANCH   9  10
ENDBRANCH   1   9
TORSDOF 10
ENDMDL
MODEL 3
REMARK VINA RESULT:    -4.048      1.852      3.350
REMARK INTER + INTRA:          -7.526
REMARK INTER:                  -6.812
REMARK INTRA:                  -0.714
REMARK UNBOUND:                -1.112
REMARK SMILES CCCCCCCCCCCC(=O)[O-]
REMARK SMILES IDX 7 1 8 2 9 3 10 4 11 5 12 6 13 7 14 8 6 9 5 10 4 11 3 12 2 13
REMARK SMILES IDX 1 14
REMARK H PARENT
REMARK Flexibility Score: inf
ROOT
ATOM      1  C   UNL     1      44.502   7.878  17.028  1.00  0.00     0.000 C 
ENDROOT
BRANCH   1   2
ATOM      2  C   UNL     1      44.435   6.925  15.828  1.00  0.00     0.000 C 
BRANCH   2   3
ATOM      3  C   UNL     1      44.955   7.605  14.555  1.00  0.00     0.000 C 
BRANCH   3   4
ATOM      4  C   UNL     1      46.176   6.867  13.997  1.00  0.00     0.006 C 
BRANCH   4   5
ATOM      5  C   UNL     1      46.166   5.393  14.413  1.00  0.00     0.053 C 
BRANCH   5   6
ATOM      6  C   UNL     1      47.481   5.009  15.015  1.00  0.00     0.041 C 
ATOM      7  O   UNL     1      48.310   4.338  14.347  1.00  0.00    -0.550 OA
ATOM      8  O   UNL     1      47.769   5.348  16.331  1.00  0.00    -0.550 OA
ENDBRANCH   5   6
ENDBRANCH   4   5
ENDBRANCH   3   4
ENDBRANCH   2   3
ENDBRANCH   1   2
BRANCH   1   9
ATOM      9  C   UNL     1      45.953   8.246  17.357  1.00  0.00     0.000 C 
BRANCH   9  10
ATOM     10  C   UNL     1      46.376   7.659  18.712  1.00  0.00    -0.000 C 
BRANCH  10  11
ATOM     11  C   UNL     1      45.919   8.517  19.905  1.00  0.00    -0.000 C 
BRANCH  11  12
ATOM     12  C   UNL     1      46.347   7.992  21.290  1.00  0.00    -0.000 C 
BRANCH  12  13
ATOM     13  C   UNL     1      47.276   6.768  21.262  1.00  0.00    -0.003 C 
ATOM     14  C   UNL     1      48.217   6.706  22.464  1.00  0.00     0.004 C 
ENDBRANCH  12  13
ENDBRANCH  11  12
ENDBRANCH  10  11
ENDBRANCH   9  10
ENDBRANCH   1   9
TORSDOF 10
ENDMDL
MODEL 4
REMARK VINA RESULT:    -4.043      3.298      6.244
REMARK INTER + INTRA:          -7.518
REMARK INTER:                  -6.677
REMARK INTRA:                  -0.842
REMARK UNBOUND:                -1.112
REMARK SMILES CCCCCCCCCCCC(=O)[O-]
REMARK SMILES IDX 7 1 8 2 9 3 10 4 11 5 12 6 13 7 14 8 6 9 5 10 4 11 3 12 2 13
REMARK SMILES IDX 1 14
REMARK H PARENT
REMARK Flexibility Score: inf
ROOT
ATOM      1  C   UNL     1      44.176   8.241  17.551  1.00  0.00     0.000 C 
ENDROOT
BRANCH   1   2
ATOM      2  C   UNL     1      45.113   8.408  18.754  1.00  0.00     0.000 C 
BRANCH   2   3
ATOM      3  C   UNL     1      46.344   7.501  18.623  1.00  0.00     0.000 C 
BRANCH   3   4
ATOM      4  C   UNL     1      46.807   7.000  19.995  1.00  0.00     0.006 C 
BRANCH   4   5
ATOM      5  C   UNL     1      46.355   7.951  21.108  1.00  0.00     0.053 C 
BRANCH   5   6
ATOM      6  C   UNL     1      47.287   7.870  22.276  1.00  0.00     0.041 C 
ATOM      7  O   UNL     1      47.314   8.795  23.130  1.00  0.00    -0.550 OA
ATOM      8  O   UNL     1      48.163   6.799  22.394  1.00  0.00    -0.550 OA
ENDBRANCH   5   6
ENDBRANCH   4   5
ENDBRANCH   3   4
ENDBRANCH   2   3
ENDBRANCH   1   2
BRANCH   1   9
ATOM      9  C   UNL     1      44.931   7.686  16.338  1.00  0.00     0.000 C 
BRANCH   9  10
ATOM     10  C   UNL     1      44.110   6.598  15.630  1.00  0.00    -0.000 C 
BRANCH  10  11
ATOM     11  C   UNL     1      44.887   5.906  14.495  1.00  0.00    -0.000 C 
BRANCH  11  12
ATOM     12  C   UNL     1      46.388   6.249  14.426  1.00  0.00    -0.000 C 
BRANCH  12  13
ATOM     13  C   UNL     1      47.335   5.106  14.829  1.00  0.00    -0.003 C 
ATOM     14  C   UNL     1      47.813   5.211  16.276  1.00  0.00     0.004 C 
ENDBRANCH  12  13
ENDBRANCH  11  12
ENDBRANCH  10  11
ENDBRANCH   9  10
ENDBRANCH   1   9
TORSDOF 10
ENDMDL
MODEL 5
REMARK VINA RESULT:    -4.031      3.406      6.215
REMARK INTER + INTRA:          -7.500
REMARK INTER:                  -6.324
REMARK INTRA:                  -1.176
REMARK UNBOUND:                -1.112
REMARK SMILES CCCCCCCCCCCC(=O)[O-]
REMARK SMILES IDX 7 1 8 2 9 3 10 4 11 5 12 6 13 7 14 8 6 9 5 10 4 11 3 12 2 13
REMARK SMILES IDX 1 14
REMARK H PARENT
REMARK Flexibility Score: inf
ROOT
ATOM      1  C   UNL     1      44.130   8.217  17.450  1.00  0.00     0.000 C 
ENDROOT
BRANCH   1   2
ATOM      2  C   UNL     1      45.003   8.404  18.698  1.00  0.00     0.000 C 
BRANCH   2   3
ATOM      3  C   UNL     1      46.367   7.724  18.523  1.00  0.00     0.000 C 
BRANCH   3   4
ATOM      4  C   UNL     1      46.761   6.948  19.785  1.00  0.00     0.006 C 
BRANCH   4   5
ATOM      5  C   UNL     1      46.421   7.745  21.048  1.00  0.00     0.053 C 
BRANCH   5   6
ATOM      6  C   UNL     1      47.508   7.602  22.067  1.00  0.00     0.041 C 
ATOM      7  O   UNL     1      48.207   6.556  22.104  1.00  0.00    -0.550 OA
ATOM      8  O   UNL     1      47.714   8.602  23.008  1.00  0.00    -0.550 OA
ENDBRANCH   5   6
ENDBRANCH   4   5
ENDBRANCH   3   4
ENDBRANCH   2   3
ENDBRANCH   1   2
BRANCH   1   9
ATOM      9  C   UNL     1      44.711   7.138  16.530  1.00  0.00     0.000 C 
BRANCH   9  10
ATOM     10  C   UNL     1      44.503   7.505  15.053  1.00  0.00    -0.000 C 
BRANCH  10  11
ATOM     11  C   UNL     1      45.792   8.001  14.373  1.00  0.00    -0.000 C 
BRANCH  11  12
ATOM     12  C   UNL     1      46.045   9.518  14.477  1.00  0.00    -0.000 C 
BRANCH  12  13
ATOM     13  C   UNL     1      47.033   9.938  15.578  1.00  0.00    -0.003 C 
ATOM     14  C   UNL     1      46.487  11.045  16.478  1.00  0.00     0.004 C 
ENDBRANCH  12  13
ENDBRANCH  11  12
ENDBRANCH  10  11
ENDBRANCH   9  10
ENDBRANCH   1   9
TORSDOF 10
ENDMDL
MODEL 6
REMARK VINA RESULT:    -4.018      3.192      6.572
REMARK INTER + INTRA:          -7.478
REMARK INTER:                  -6.854
REMARK INTRA:                  -0.624
REMARK UNBOUND:                -1.112
REMARK SMILES CCCCCCCCCCCC(=O)[O-]
REMARK SMILES IDX 7 1 8 2 9 3 10 4 11 5 12 6 13 7 14 8 6 9 5 10 4 11 3 12 2 13
REMARK SMILES IDX 1 14
REMARK H PARENT
REMARK Flexibility Score: inf
ROOT
ATOM      1  C   UNL     1      46.149   8.403  20.121  1.00  0.00     0.000 C 
ENDROOT
BRANCH   1   2
ATOM      2  C   UNL     1      46.729   7.204  20.882  1.00  0.00     0.000 C 
BRANCH   2   3
ATOM      3  C   UNL     1      47.514   7.662  22.117  1.00  0.00     0.000 C 
BRANCH   3   4
ATOM      4  C   UNL     1      46.864   8.895  22.756  1.00  0.00     0.006 C 
BRANCH   4   5
ATOM      5  C   UNL     1      45.894   8.490  23.870  1.00  0.00     0.053 C 
BRANCH   5   6
ATOM      6  C   UNL     1      44.517   8.998  23.576  1.00  0.00     0.041 C 
ATOM      7  O   UNL     1      43.996   9.875  24.313  1.00  0.00    -0.550 OA
ATOM      8  O   UNL     1      43.791   8.466  22.519  1.00  0.00    -0.550 OA
ENDBRANCH   5   6
ENDBRANCH   4   5
ENDBRANCH   3   4
ENDBRANCH   2   3
ENDBRANCH   1   2
BRANCH   1   9
ATOM      9  C   UNL     1      45.782   8.016  18.684  1.00  0.00     0.000 C 
BRANCH   9  10
ATOM     10  C   UNL     1      46.709   6.912  18.157  1.00  0.00    -0.000 C 
BRANCH  10  11
ATOM     11  C   UNL     1      46.413   6.527  16.697  1.00  0.00    -0.000 C 
BRANCH  11  12
ATOM     12  C   UNL     1      45.311   7.360  16.011  1.00  0.00    -0.000 C 
BRANCH  12  13
ATOM     13  C   UNL     1      44.088   6.556  15.539  1.00  0.00    -0.003 C 
ATOM     14  C   UNL     1      43.714   6.838  14.085  1.00  0.00     0.004 C 
ENDBRANCH  12  13
ENDBRANCH  11  12
ENDBRANCH  10  11
ENDBRANCH   9  10
ENDBRANCH   1   9
TORSDOF 10
ENDMDL
MODEL 7
REMARK VINA RESULT:    -3.934      3.465      6.703
REMARK INTER + INTRA:          -7.346
REMARK INTER:                  -6.505
REMARK INTRA:                  -0.841
REMARK UNBOUND:                -1.112
REMARK SMILES CCCCCCCCCCCC(=O)[O-]
REMARK SMILES IDX 7 1 8 2 9 3 10 4 11 5 12 6 13 7 14 8 6 9 5 10 4 11 3 12 2 13
REMARK SMILES IDX 1 14
REMARK H PARENT
REMARK Flexibility Score: inf
ROOT
ATOM      1  C   UNL     1      46.816   7.241  17.061  1.00  0.00     0.000 C 
ENDROOT
BRANCH   1   2
ATOM      2  C   UNL     1      46.567   7.044  18.562  1.00  0.00     0.000 C 
BRANCH   2   3
ATOM      3  C   UNL     1      45.923   8.291  19.181  1.00  0.00     0.000 C 
BRANCH   3   4
ATOM      4  C   UNL     1      45.780   8.140  20.700  1.00  0.00     0.006 C 
BRANCH   4   5
ATOM      5  C   UNL     1      47.019   7.471  21.304  1.00  0.00     0.053 C 
BRANCH   5   6
ATOM      6  C   UNL     1      47.388   8.124  22.599  1.00  0.00     0.041 C 
ATOM      7  O   UNL     1      48.598   8.257  22.919  1.00  0.00    -0.550 OA
ATOM      8  O   UNL     1      46.394   8.538  23.476  1.00  0.00    -0.550 OA
ENDBRANCH   5   6
ENDBRANCH   4   5
ENDBRANCH   3   4
ENDBRANCH   2   3
ENDBRANCH   1   2
BRANCH   1   9
ATOM      9  C   UNL     1      46.494   8.678  16.634  1.00  0.00     0.000 C 
BRANCH   9  10
ATOM     10  C   UNL     1      45.533   8.693  15.436  1.00  0.00    -0.000 C 
BRANCH  10  11
ATOM     11  C   UNL     1      44.371   7.695  15.588  1.00  0.00    -0.000 C 
BRANCH  11  12
ATOM     12  C   UNL     1      43.998   6.925  14.305  1.00  0.00    -0.000 C 
BRANCH  12  13
ATOM     13  C   UNL     1      44.452   5.456  14.274  1.00  0.00    -0.003 C 
ATOM     14  C   UNL     1      45.946   5.299  14.000  1.00  0.00     0.004 C 
ENDBRANCH  12  13
ENDBRANCH  11  12
ENDBRANCH  10  11
ENDBRANCH   9  10
ENDBRANCH   1   9
TORSDOF 10
ENDMDL
MODEL 8
REMARK VINA RESULT:    -3.929      1.162      2.390
REMARK INTER + INTRA:          -7.337
REMARK INTER:                  -6.614
REMARK INTRA:                  -0.724
REMARK UNBOUND:                -1.112
REMARK SMILES CCCCCCCCCCCC(=O)[O-]
REMARK SMILES IDX 7 1 8 2 9 3 10 4 11 5 12 6 13 7 14 8 6 9 5 10 4 11 3 12 2 13
REMARK SMILES IDX 1 14
REMARK H PARENT
REMARK Flexibility Score: inf
ROOT
ATOM      1  C   UNL     1      46.077   8.152  20.062  1.00  0.00     0.000 C 
ENDROOT
BRANCH   1   2
ATOM      2  C   UNL     1      46.028   8.011  18.535  1.00  0.00     0.000 C 
BRANCH   2   3
ATOM      3  C   UNL     1      46.642   6.679  18.086  1.00  0.00     0.000 C 
BRANCH   3   4
ATOM      4  C   UNL     1      46.604   6.543  16.560  1.00  0.00     0.006 C 
BRANCH   4   5
ATOM      5  C   UNL     1      45.334   7.175  15.983  1.00  0.00     0.053 C 
BRANCH   5   6
ATOM      6  C   UNL     1      44.693   6.255  14.993  1.00  0.00     0.041 C 
ATOM      7  O   UNL     1      43.466   6.360  14.732  1.00  0.00    -0.550 OA
ATOM      8  O   UNL     1      45.440   5.247  14.396  1.00  0.00    -0.550 OA
ENDBRANCH   5   6
ENDBRANCH   4   5
ENDBRANCH   3   4
ENDBRANCH   2   3
ENDBRANCH   1   2
BRANCH   1   9
ATOM      9  C   UNL     1      46.920   7.037  20.691  1.00  0.00     0.000 C 
BRANCH   9  10
ATOM     10  C   UNL     1      47.478   7.472  22.054  1.00  0.00    -0.000 C 
BRANCH  10  11
ATOM     11  C   UNL     1      46.820   8.758  22.587  1.00  0.00    -0.000 C 
BRANCH  11  12
ATOM     12  C   UNL     1      45.740   8.541  23.665  1.00  0.00    -0.000 C 
BRANCH  12  13
ATOM     13  C   UNL     1      44.296   8.786  23.197  1.00  0.00    -0.003 C 
ATOM     14  C   UNL     1      44.118  10.129  22.492  1.00  0.00     0.004 C 
ENDBRANCH  12  13
ENDBRANCH  11  12
ENDBRANCH  10  11
ENDBRANCH   9  10
ENDBRANCH   1   9
TORSDOF 10
ENDMDL
MODEL 9
REMARK VINA RESULT:    -3.895      3.234      6.419
REMARK INTER + INTRA:          -7.284
REMARK INTER:                  -6.590
REMARK INTRA:                  -0.693
REMARK UNBOUND:                -1.112
REMARK SMILES CCCCCCCCCCCC(=O)[O-]
REMARK SMILES IDX 7 1 8 2 9 3 10 4 11 5 12 6 13 7 14 8 6 9 5 10 4 11 3 12 2 13
REMARK SMILES IDX 1 14
REMARK H PARENT
REMARK Flexibility Score: inf
ROOT
ATOM      1  C   UNL     1      46.434   7.272  18.392  1.00  0.00     0.000 C 
ENDROOT
BRANCH   1   2
ATOM      2  C   UNL     1      46.349   7.781  19.837  1.00  0.00     0.000 C 
BRANCH   2   3
ATOM      3  C   UNL     1      47.119   6.860  20.791  1.00  0.00     0.000 C 
BRANCH   3   4
ATOM      4  C   UNL     1      47.270   7.503  22.174  1.00  0.00     0.006 C 
BRANCH   4   5
ATOM      5  C   UNL     1      46.451   8.794  22.272  1.00  0.00     0.053 C 
BRANCH   5   6
ATOM      6  C   UNL     1      45.287   8.607  23.193  1.00  0.00     0.041 C 
ATOM      7  O   UNL     1      45.467   8.548  24.438  1.00  0.00    -0.550 OA
ATOM      8  O   UNL     1      44.008   8.446  22.674  1.00  0.00    -0.550 OA
ENDBRANCH   5   6
ENDBRANCH   4   5
ENDBRANCH   3   4
ENDBRANCH   2   3
ENDBRANCH   1   2
BRANCH   1   9
ATOM      9  C   UNL     1      45.646   8.181  17.441  1.00  0.00     0.000 C 
BRANCH   9  10
ATOM     10  C   UNL     1      44.494   7.414  16.777  1.00  0.00    -0.000 C 
BRANCH  10  11
ATOM     11  C   UNL     1      44.564   7.442  15.240  1.00  0.00    -0.000 C 
BRANCH  11  12
ATOM     12  C   UNL     1      45.966   7.204  14.645  1.00  0.00    -0.000 C 
BRANCH  12  13
ATOM     13  C   UNL     1      46.355   5.726  14.469  1.00  0.00    -0.003 C 
ATOM     14  C   UNL     1      47.507   5.301  15.378  1.00  0.00     0.004 C 
ENDBRANCH  12  13
ENDBRANCH  11  12
ENDBRANCH  10  11
ENDBRANCH   9  10
ENDBRANCH   1   9
TORSDOF 10
ENDMDL
