MODEL 1
REMARK VINA RESULT:    -3.006      0.000      0.000
REMARK INTER + INTRA:          -5.257
REMARK INTER:                  -4.587
REMARK INTRA:                  -0.670
REMARK UNBOUND:                -0.670
REMARK SMILES O=C([O-])CCCCCCCCC(=O)[O-]
REMARK SMILES IDX 7 1 6 2 5 3 4 4 2 5 1 6 3 7 8 8 9 9 10 10 11 11 12 12 13 13
REMARK SMILES IDX 14 14
REMARK H PARENT
REMARK Flexibility Score: inf
ROOT
ATOM      1  C   UNL     1      -3.497   5.134   6.858  1.00  0.00     0.000 C 
ENDROOT
BRANCH   1   2
ATOM      2  C   UNL     1      -3.377   3.804   7.622  1.00  0.00     0.000 C 
BRANCH   2   3
ATOM      3  C   UNL     1      -4.742   3.141   7.880  1.00  0.00     0.006 C 
BRANCH   3   4
ATOM      4  C   UNL     1      -5.142   3.064   9.363  1.00  0.00     0.053 C 
BRANCH   4   5
ATOM      5  C   UNL     1      -6.140   4.118   9.732  1.00  0.00     0.041 C 
ATOM      6  O   UNL     1      -5.802   5.332   9.753  1.00  0.00    -0.550 OA
ATOM      7  O   UNL     1      -7.435   3.758  10.085  1.00  0.00    -0.550 OA
ENDBRANCH   4   5
ENDBRANCH   3   4
ENDBRANCH   2   3
ENDBRANCH   1   2
BRANCH   1   8
ATOM      8  C   UNL     1      -3.034   6.339   7.694  1.00  0.00     0.000 C 
BRANCH   8   9
ATOM      9  C   UNL     1      -2.349   5.925   9.005  1.00  0.00     0.000 C 
BRANCH   9  10
ATOM     10  C   UNL     1      -2.176   7.130   9.937  1.00  0.00     0.006 C 
BRANCH  10  11
ATOM     11  C   UNL     1      -0.695   7.471  10.125  1.00  0.00     0.053 C 
BRANCH  11  12
ATOM     12  C   UNL     1      -0.457   8.927   9.878  1.00  0.00     0.041 C 
ATOM     13  O   UNL     1       0.700   9.409   9.996  1.00  0.00    -0.550 OA
ATOM     14  O   UNL     1      -1.504   9.743   9.467  1.00  0.00    -0.550 OA
ENDBRANCH  11  12
ENDBRANCH  10  11
ENDBRANCH   9  10
ENDBRANCH   8   9
ENDBRANCH   1   8
TORSDOF 9
ENDMDL
MODEL 2
REMARK VINA RESULT:    -2.365      0.826      6.028
REMARK INTER + INTRA:          -4.280
REMARK INTER:                  -3.834
REMARK INTRA:                  -0.446
REMARK UNBOUND:                -0.670
REMARK SMILES O=C([O-])CCCCCCCCC(=O)[O-]
REMARK SMILES IDX 7 1 6 2 5 3 4 4 2 5 1 6 3 7 8 8 9 9 10 10 11 11 12 12 13 13
REMARK SMILES IDX 14 14
REMARK H PARENT
REMARK Flexibility Score: inf
ROOT
ATOM      1  C   UNL     1      -3.432   5.590   7.162  1.00  0.00     0.000 C 
ENDROOT
BRANCH   1   2
ATOM      2  C   UNL     1      -2.641   6.737   7.813  1.00  0.00     0.000 C 
BRANCH   2   3
ATOM      3  C   UNL     1      -2.125   6.381   9.219  1.00  0.00     0.006 C 
BRANCH   3   4
ATOM      4  C   UNL     1      -1.819   7.597  10.109  1.00  0.00     0.053 C 
BRANCH   4   5
ATOM      5  C   UNL     1      -0.401   8.058   9.964  1.00  0.00     0.041 C 
ATOM      6  O   UNL     1       0.549   7.247  10.125  1.00  0.00    -0.550 OA
ATOM      7  O   UNL     1      -0.128   9.392   9.685  1.00  0.00    -0.550 OA
ENDBRANCH   4   5
ENDBRANCH   3   4
ENDBRANCH   2   3
ENDBRANCH   1   2
BRANCH   1   8
ATOM      8  C   UNL     1      -3.432   4.312   8.018  1.00  0.00     0.000 C 
BRANCH   8   9
ATOM      9  C   UNL     1      -4.328   3.207   7.439  1.00  0.00     0.000 C 
BRANCH   9  10
ATOM     10  C   UNL     1      -5.196   2.575   8.533  1.00  0.00     0.006 C 
BRANCH  10  11
ATOM     11  C   UNL     1      -5.089   3.362   9.843  1.00  0.00     0.053 C 
BRANCH  11  12
ATOM     12  C   UNL     1      -6.205   4.351   9.953  1.00  0.00     0.041 C 
ATOM     13  O   UNL     1      -5.971   5.584   9.859  1.00  0.00    -0.550 OA
ATOM     14  O   UNL     1      -7.513   3.909  10.110  1.00  0.00    -0.550 OA
ENDBRANCH  11  12
ENDBRANCH  10  11
ENDBRANCH   9  10
ENDBRANCH   8   9
ENDBRANCH   1   8
TORSDOF 9
ENDMDL
MODEL 3
REMARK VINA RESULT:    -1.907      1.891      2.555
REMARK INTER + INTRA:          -3.581
REMARK INTER:                  -3.474
REMARK INTRA:                  -0.107
REMARK UNBOUND:                -0.670
REMARK SMILES O=C([O-])CCCCCCCCC(=O)[O-]
REMARK SMILES IDX 7 1 6 2 5 3 4 4 2 5 1 6 3 7 8 8 9 9 10 10 11 11 12 12 13 13
REMARK SMILES IDX 14 14
REMARK H PARENT
REMARK Flexibility Score: inf
ROOT
ATOM      1  C   UNL     1      -4.388   6.077   9.912  1.00  0.00     0.000 C 
ENDROOT
BRANCH   1   2
ATOM      2  C   UNL     1      -5.683   5.266   9.733  1.00  0.00     0.000 C 
BRANCH   2   3
ATOM      3  C   UNL     1      -5.479   3.759   9.971  1.00  0.00     0.006 C 
BRANCH   3   4
ATOM      4  C   UNL     1      -5.653   2.887   8.716  1.00  0.00     0.053 C 
BRANCH   4   5
ATOM      5  C   UNL     1      -4.340   2.555   8.075  1.00  0.00     0.041 C 
ATOM      6  O   UNL     1      -3.321   2.350   8.787  1.00  0.00    -0.550 OA
ATOM      7  O   UNL     1      -4.234   2.505   6.691  1.00  0.00    -0.550 OA
ENDBRANCH   4   5
ENDBRANCH   3   4
ENDBRANCH   2   3
ENDBRANCH   1   2
BRANCH   1   8
ATOM      8  C   UNL     1      -3.255   5.592   8.993  1.00  0.00     0.000 C 
BRANCH   8   9
ATOM      9  C   UNL     1      -2.161   6.650   8.785  1.00  0.00     0.000 C 
BRANCH   9  10
ATOM     10  C   UNL     1      -1.547   7.074  10.125  1.00  0.00     0.006 C 
BRANCH  10  11
ATOM     11  C   UNL     1      -0.111   7.572   9.938  1.00  0.00     0.053 C 
BRANCH  11  12
ATOM     12  C   UNL     1      -0.077   9.066   9.882  1.00  0.00     0.041 C 
ATOM     13  O   UNL     1      -1.133   9.715   9.659  1.00  0.00    -0.550 OA
ATOM     14  O   UNL     1       1.110   9.745  10.125  1.00  0.00    -0.550 OA
ENDBRANCH  11  12
ENDBRANCH  10  11
ENDBRANCH   9  10
ENDBRANCH   8   9
ENDBRANCH   1   8
TORSDOF 9
ENDMDL
MODEL 4
REMARK VINA RESULT:    -1.243      2.072      5.605
REMARK INTER + INTRA:          -2.567
REMARK INTER:                  -2.451
REMARK INTRA:                  -0.116
REMARK UNBOUND:                -0.670
REMARK SMILES O=C([O-])CCCCCCCCC(=O)[O-]
REMARK SMILES IDX 7 1 6 2 5 3 4 4 2 5 1 6 3 7 8 8 9 9 10 10 11 11 12 12 13 13
REMARK SMILES IDX 14 14
REMARK H PARENT
REMARK Flexibility Score: inf
ROOT
ATOM      1  C   UNL     1      -4.574   5.007  10.118  1.00  0.00     0.000 C 
ENDROOT
BRANCH   1   2
ATOM      2  C   UNL     1      -4.264   6.432   9.628  1.00  0.00     0.000 C 
BRANCH   2   3
ATOM      3  C   UNL     1      -2.902   6.948  10.125  1.00  0.00     0.006 C 
BRANCH   3   4
ATOM      4  C   UNL     1      -1.839   7.099   9.023  1.00  0.00     0.053 C 
BRANCH   4   5
ATOM      5  C   UNL     1      -0.715   7.995   9.445  1.00  0.00     0.041 C 
ATOM      6  O   UNL     1       0.465   7.556   9.484  1.00  0.00    -0.550 OA
ATOM      7  O   UNL     1      -0.975   9.305   9.827  1.00  0.00    -0.550 OA
ENDBRANCH   4   5
ENDBRANCH   3   4
ENDBRANCH   2   3
ENDBRANCH   1   2
BRANCH   1   8
ATOM      8  C   UNL     1      -5.613   4.293   9.237  1.00  0.00     0.000 C 
BRANCH   8   9
ATOM      9  C   UNL     1      -5.152   2.899   8.786  1.00  0.00     0.000 C 
BRANCH   9  10
ATOM     10  C   UNL     1      -4.415   2.972   7.443  1.00  0.00     0.006 C 
BRANCH  10  11
ATOM     11  C   UNL     1      -3.225   3.933   7.522  1.00  0.00     0.053 C 
BRANCH  11  12
ATOM     12  C   UNL     1      -3.270   4.915   6.395  1.00  0.00     0.041 C 
ATOM     13  O   UNL     1      -2.615   4.701   5.342  1.00  0.00    -0.550 OA
ATOM     14  O   UNL     1      -4.074   6.044   6.487  1.00  0.00    -0.550 OA
ENDBRANCH  11  12
ENDBRANCH  10  11
ENDBRANCH   9  10
ENDBRANCH   8   9
ENDBRANCH   1   8
TORSDOF 9
ENDMDL
MODEL 5
REMARK VINA RESULT:    -1.170     10.536     12.927
REMARK INTER + INTRA:          -2.456
REMARK INTER:                  -2.220
REMARK INTRA:                  -0.236
REMARK UNBOUND:                -0.670
REMARK SMILES O=C([O-])CCCCCCCCC(=O)[O-]
REMARK SMILES IDX 7 1 6 2 5 3 4 4 2 5 1 6 3 7 8 8 9 9 10 10 11 11 12 12 13 13
REMARK SMILES IDX 14 14
REMARK H PARENT
REMARK Flexibility Score: inf
ROOT
ATOM      1  C   UNL     1       0.162   8.245  -1.669  1.00  0.00     0.000 C 
ENDROOT
BRANCH   1   2
ATOM      2  C   UNL     1       1.074   7.028  -1.434  1.00  0.00     0.000 C 
BRANCH   2   3
ATOM      3  C   UNL     1       2.570   7.380  -1.523  1.00  0.00     0.006 C 
BRANCH   3   4
ATOM      4  C   UNL     1       2.872   8.684  -2.280  1.00  0.00     0.053 C 
BRANCH   4   5
ATOM      5  C   UNL     1       4.036   9.420  -1.692  1.00  0.00     0.041 C 
ATOM      6  O   UNL     1       3.887  10.116  -0.652  1.00  0.00    -0.550 OA
ATOM      7  O   UNL     1       5.279   9.365  -2.310  1.00  0.00    -0.550 OA
ENDBRANCH   4   5
ENDBRANCH   3   4
ENDBRANCH   2   3
ENDBRANCH   1   2
BRANCH   1   8
ATOM      8  C   UNL     1      -1.323   7.921  -1.436  1.00  0.00     0.000 C 
BRANCH   8   9
ATOM      9  C   UNL     1      -1.902   8.637  -0.206  1.00  0.00     0.000 C 
BRANCH   9  10
ATOM     10  C   UNL     1      -3.374   8.262   0.004  1.00  0.00     0.006 C 
BRANCH  10  11
ATOM     11  C   UNL     1      -4.295   9.440  -0.327  1.00  0.00     0.053 C 
BRANCH  11  12
ATOM     12  C   UNL     1      -4.910   9.259  -1.678  1.00  0.00     0.041 C 
ATOM     13  O   UNL     1      -6.154   9.378  -1.828  1.00  0.00    -0.550 OA
ATOM     14  O   UNL     1      -4.105   9.008  -2.782  1.00  0.00    -0.550 OA
ENDBRANCH  11  12
ENDBRANCH  10  11
ENDBRANCH   9  10
ENDBRANCH   8   9
ENDBRANCH   1   8
TORSDOF 9
ENDMDL
MODEL 6
REMARK VINA RESULT:    -1.134      2.987      3.962
REMARK INTER + INTRA:          -2.401
REMARK INTER:                  -1.839
REMARK INTRA:                  -0.562
REMARK UNBOUND:                -0.670
REMARK SMILES O=C([O-])CCCCCCCCC(=O)[O-]
REMARK SMILES IDX 7 1 6 2 5 3 4 4 2 5 1 6 3 7 8 8 9 9 10 10 11 11 12 12 13 13
REMARK SMILES IDX 14 14
REMARK H PARENT
REMARK Flexibility Score: inf
ROOT
ATOM      1  C   UNL     1      -5.471   5.980   9.874  1.00  0.00     0.000 C 
ENDROOT
BRANCH   1   2
ATOM      2  C   UNL     1      -6.442   4.812  10.121  1.00  0.00     0.000 C 
BRANCH   2   3
ATOM      3  C   UNL     1      -5.798   3.438   9.862  1.00  0.00     0.006 C 
BRANCH   3   4
ATOM      4  C   UNL     1      -5.834   2.987   8.392  1.00  0.00     0.053 C 
BRANCH   4   5
ATOM      5  C   UNL     1      -4.513   2.446   7.938  1.00  0.00     0.041 C 
ATOM      6  O   UNL     1      -3.496   2.553   8.675  1.00  0.00    -0.550 OA
ATOM      7  O   UNL     1      -4.396   1.854   6.687  1.00  0.00    -0.550 OA
ENDBRANCH   4   5
ENDBRANCH   3   4
ENDBRANCH   2   3
ENDBRANCH   1   2
BRANCH   1   8
ATOM      8  C   UNL     1      -4.005   5.591  10.125  1.00  0.00     0.000 C 
BRANCH   8   9
ATOM      9  C   UNL     1      -3.044   6.785  10.012  1.00  0.00     0.000 C 
BRANCH   9  10
ATOM     10  C   UNL     1      -2.247   6.725   8.704  1.00  0.00     0.006 C 
BRANCH  10  11
ATOM     11  C   UNL     1      -2.466   5.390   7.986  1.00  0.00     0.053 C 
BRANCH  11  12
ATOM     12  C   UNL     1      -3.171   5.604   6.685  1.00  0.00     0.041 C 
ATOM     13  O   UNL     1      -4.085   6.464   6.594  1.00  0.00    -0.550 OA
ATOM     14  O   UNL     1      -2.784   4.889   5.558  1.00  0.00    -0.550 OA
ENDBRANCH  11  12
ENDBRANCH  10  11
ENDBRANCH   9  10
ENDBRANCH   8   9
ENDBRANCH   1   8
TORSDOF 9
ENDMDL
MODEL 7
REMARK VINA RESULT:    -1.092     10.532     11.689
REMARK INTER + INTRA:          -2.337
REMARK INTER:                  -2.046
REMARK INTRA:                  -0.292
REMARK UNBOUND:                -0.670
REMARK SMILES O=C([O-])CCCCCCCCC(=O)[O-]
REMARK SMILES IDX 7 1 6 2 5 3 4 4 2 5 1 6 3 7 8 8 9 9 10 10 11 11 12 12 13 13
REMARK SMILES IDX 14 14
REMARK H PARENT
REMARK Flexibility Score: inf
ROOT
ATOM      1  C   UNL     1      -1.256   7.989  -1.618  1.00  0.00     0.000 C 
ENDROOT
BRANCH   1   2
ATOM      2  C   UNL     1      -1.801   8.626  -0.328  1.00  0.00     0.000 C 
BRANCH   2   3
ATOM      3  C   UNL     1      -3.272   8.260  -0.058  1.00  0.00     0.006 C 
BRANCH   3   4
ATOM      4  C   UNL     1      -4.268   9.404  -0.313  1.00  0.00     0.053 C 
BRANCH   4   5
ATOM      5  C   UNL     1      -4.937   9.281  -1.648  1.00  0.00     0.041 C 
ATOM      6  O   UNL     1      -6.178   9.468  -1.755  1.00  0.00    -0.550 OA
ATOM      7  O   UNL     1      -4.196   8.925  -2.768  1.00  0.00    -0.550 OA
ENDBRANCH   4   5
ENDBRANCH   3   4
ENDBRANCH   2   3
ENDBRANCH   1   2
BRANCH   1   8
ATOM      8  C   UNL     1       0.253   8.222  -1.798  1.00  0.00     0.000 C 
BRANCH   8   9
ATOM      9  C   UNL     1       1.102   7.058  -1.265  1.00  0.00     0.000 C 
BRANCH   9  10
ATOM     10  C   UNL     1       2.596   7.324  -1.483  1.00  0.00     0.006 C 
BRANCH  10  11
ATOM     11  C   UNL     1       2.815   8.617  -2.274  1.00  0.00     0.053 C 
BRANCH  11  12
ATOM     12  C   UNL     1       3.946   9.403  -1.691  1.00  0.00     0.041 C 
ATOM     13  O   UNL     1       3.760  10.123  -0.676  1.00  0.00    -0.550 OA
ATOM     14  O   UNL     1       5.218   9.303  -2.240  1.00  0.00    -0.550 OA
ENDBRANCH  11  12
ENDBRANCH  10  11
ENDBRANCH   9  10
ENDBRANCH   8   9
ENDBRANCH   1   8
TORSDOF 9
ENDMDL
MODEL 8
REMARK VINA RESULT:    -0.992      2.937      5.709
REMARK INTER + INTRA:          -2.185
REMARK INTER:                  -1.708
REMARK INTRA:                  -0.477
REMARK UNBOUND:                -0.670
REMARK SMILES O=C([O-])CCCCCCCCC(=O)[O-]
REMARK SMILES IDX 7 1 6 2 5 3 4 4 2 5 1 6 3 7 8 8 9 9 10 10 11 11 12 12 13 13
REMARK SMILES IDX 14 14
REMARK H PARENT
REMARK Flexibility Score: inf
ROOT
ATOM      1  C   UNL     1      -4.147   5.477  10.125  1.00  0.00     0.000 C 
ENDROOT
BRANCH   1   2
ATOM      2  C   UNL     1      -3.239   6.719  10.109  1.00  0.00     0.000 C 
BRANCH   2   3
ATOM      3  C   UNL     1      -2.218   6.696   8.956  1.00  0.00     0.006 C 
BRANCH   3   4
ATOM      4  C   UNL     1      -2.256   5.419   8.100  1.00  0.00     0.053 C 
BRANCH   4   5
ATOM      5  C   UNL     1      -3.103   5.587   6.876  1.00  0.00     0.041 C 
ATOM      6  O   UNL     1      -2.783   5.016   5.800  1.00  0.00    -0.550 OA
ATOM      7  O   UNL     1      -4.228   6.401   6.915  1.00  0.00    -0.550 OA
ENDBRANCH   4   5
ENDBRANCH   3   4
ENDBRANCH   2   3
ENDBRANCH   1   2
BRANCH   1   8
ATOM      8  C   UNL     1      -5.641   5.839  10.124  1.00  0.00     0.000 C 
BRANCH   8   9
ATOM      9  C   UNL     1      -6.553   4.604  10.075  1.00  0.00     0.000 C 
BRANCH   9  10
ATOM     10  C   UNL     1      -5.736   3.328   9.841  1.00  0.00     0.006 C 
BRANCH  10  11
ATOM     11  C   UNL     1      -5.855   2.858   8.388  1.00  0.00     0.053 C 
BRANCH  11  12
ATOM     12  C   UNL     1      -4.532   2.375   7.884  1.00  0.00     0.041 C 
ATOM     13  O   UNL     1      -3.503   2.484   8.600  1.00  0.00    -0.550 OA
ATOM     14  O   UNL     1      -4.444   1.757   6.643  1.00  0.00    -0.550 OA
ENDBRANCH  11  12
ENDBRANCH  10  11
ENDBRANCH   9  10
ENDBRANCH   8   9
ENDBRANCH   1   8
TORSDOF 9
ENDMDL
MODEL 9
REMARK VINA RESULT:    -0.893      1.899      6.081
REMARK INTER + INTRA:          -2.033
REMARK INTER:                  -2.031
REMARK INTRA:                  -0.002
REMARK UNBOUND:                -0.670
REMARK SMILES O=C([O-])CCCCCCCCC(=O)[O-]
REMARK SMILES IDX 7 1 6 2 5 3 4 4 2 5 1 6 3 7 8 8 9 9 10 10 11 11 12 12 13 13
REMARK SMILES IDX 14 14
REMARK H PARENT
REMARK Flexibility Score: inf
ROOT
ATOM      1  C   UNL     1      -3.684   5.611   9.476  1.00  0.00     0.000 C 
ENDROOT
BRANCH   1   2
ATOM      2  C   UNL     1      -2.800   6.030   8.288  1.00  0.00     0.000 C 
BRANCH   2   3
ATOM      3  C   UNL     1      -1.432   6.582   8.728  1.00  0.00     0.006 C 
BRANCH   3   4
ATOM      4  C   UNL     1      -1.427   7.226  10.125  1.00  0.00     0.053 C 
BRANCH   4   5
ATOM      5  C   UNL     1      -1.231   8.709  10.059  1.00  0.00     0.041 C 
ATOM      6  O   UNL     1      -2.224   9.476   9.939  1.00  0.00    -0.550 OA
ATOM      7  O   UNL     1       0.051   9.244  10.097  1.00  0.00    -0.550 OA
ENDBRANCH   4   5
ENDBRANCH   3   4
ENDBRANCH   2   3
ENDBRANCH   1   2
BRANCH   1   8
ATOM      8  C   UNL     1      -5.146   5.369   9.067  1.00  0.00     0.000 C 
BRANCH   8   9
ATOM      9  C   UNL     1      -5.920   4.528  10.093  1.00  0.00     0.000 C 
BRANCH   9  10
ATOM     10  C   UNL     1      -5.762   3.030   9.805  1.00  0.00     0.006 C 
BRANCH  10  11
ATOM     11  C   UNL     1      -5.641   2.769   8.301  1.00  0.00     0.053 C 
BRANCH  11  12
ATOM     12  C   UNL     1      -4.204   2.663   7.902  1.00  0.00     0.041 C 
ATOM     13  O   UNL     1      -3.395   2.010   8.613  1.00  0.00    -0.550 OA
ATOM     14  O   UNL     1      -3.765   3.243   6.718  1.00  0.00    -0.550 OA
ENDBRANCH  11  12
ENDBRANCH  10  11
ENDBRANCH   9  10
ENDBRANCH   8   9
ENDBRANCH   1   8
TORSDOF 9
ENDMDL
