MODEL 1
REMARK VINA RESULT:    -4.422      0.000      0.000
REMARK INTER + INTRA:          -7.210
REMARK INTER:                  -6.749
REMARK INTRA:                  -0.461
REMARK UNBOUND:                -0.461
REMARK SMILES O=C([O-])CCCCCCCCC(=O)[O-]
REMARK SMILES IDX 7 1 6 2 5 3 4 4 2 5 1 6 3 7 8 8 9 9 10 10 11 11 12 12 13 13
REMARK SMILES IDX 14 14
REMARK H PARENT
REMARK Flexibility Score: inf
ROOT
ATOM      1  C   UNL     1       3.090 -37.216  19.831  1.00  0.00     0.000 C 
ENDROOT
BRANCH   1   2
ATOM      2  C   UNL     1       2.277 -37.389  18.539  1.00  0.00     0.000 C 
BRANCH   2   3
ATOM      3  C   UNL     1       3.194 -37.352  17.306  1.00  0.00     0.006 C 
BRANCH   3   4
ATOM      4  C   UNL     1       2.874 -36.171  16.379  1.00  0.00     0.053 C 
BRANCH   4   5
ATOM      5  C   UNL     1       3.060 -36.531  14.937  1.00  0.00     0.041 C 
ATOM      6  O   UNL     1       2.201 -36.190  14.082  1.00  0.00    -0.550 OA
ATOM      7  O   UNL     1       4.168 -37.272  14.543  1.00  0.00    -0.550 OA
ENDBRANCH   4   5
ENDBRANCH   3   4
ENDBRANCH   2   3
ENDBRANCH   1   2
BRANCH   1   8
ATOM      8  C   UNL     1       4.584 -36.972  19.564  1.00  0.00     0.000 C 
BRANCH   8   9
ATOM      9  C   UNL     1       5.113 -35.711  20.268  1.00  0.00     0.000 C 
BRANCH   9  10
ATOM     10  C   UNL     1       4.279 -35.330  21.502  1.00  0.00     0.006 C 
BRANCH  10  11
ATOM     11  C   UNL     1       5.125 -35.219  22.778  1.00  0.00     0.053 C 
BRANCH  11  12
ATOM     12  C   UNL     1       5.070 -36.497  23.553  1.00  0.00     0.041 C 
ATOM     13  O   UNL     1       4.966 -36.473  24.808  1.00  0.00    -0.550 OA
ATOM     14  O   UNL     1       5.082 -37.716  22.886  1.00  0.00    -0.550 OA
ENDBRANCH  11  12
ENDBRANCH  10  11
ENDBRANCH   9  10
ENDBRANCH   8   9
ENDBRANCH   1   8
TORSDOF 9
ENDMDL
MODEL 2
REMARK VINA RESULT:    -4.093      1.214      7.463
REMARK INTER + INTRA:          -6.708
REMARK INTER:                  -6.404
REMARK INTRA:                  -0.303
REMARK UNBOUND:                -0.461
REMARK SMILES O=C([O-])CCCCCCCCC(=O)[O-]
REMARK SMILES IDX 7 1 6 2 5 3 4 4 2 5 1 6 3 7 8 8 9 9 10 10 11 11 12 12 13 13
REMARK SMILES IDX 14 14
REMARK H PARENT
REMARK Flexibility Score: inf
ROOT
ATOM      1  C   UNL     1       3.995 -35.955  21.066  1.00  0.00     0.000 C 
ENDROOT
BRANCH   1   2
ATOM      2  C   UNL     1       4.687 -35.011  22.061  1.00  0.00     0.000 C 
BRANCH   2   3
ATOM      3  C   UNL     1       5.125 -35.772  23.323  1.00  0.00     0.006 C 
BRANCH   3   4
ATOM      4  C   UNL     1       5.045 -37.294  23.140  1.00  0.00     0.053 C 
BRANCH   4   5
ATOM      5  C   UNL     1       5.044 -38.011  24.456  1.00  0.00     0.041 C 
ATOM      6  O   UNL     1       4.943 -39.265  24.493  1.00  0.00    -0.550 OA
ATOM      7  O   UNL     1       5.124 -37.291  25.641  1.00  0.00    -0.550 OA
ENDBRANCH   4   5
ENDBRANCH   3   4
ENDBRANCH   2   3
ENDBRANCH   1   2
BRANCH   1   8
ATOM      8  C   UNL     1       4.728 -36.035  19.717  1.00  0.00     0.000 C 
BRANCH   8   9
ATOM      9  C   UNL     1       4.234 -37.201  18.843  1.00  0.00     0.000 C 
BRANCH   9  10
ATOM     10  C   UNL     1       3.041 -36.810  17.957  1.00  0.00     0.006 C 
BRANCH  10  11
ATOM     11  C   UNL     1       3.217 -37.250  16.497  1.00  0.00     0.053 C 
BRANCH  11  12
ATOM     12  C   UNL     1       2.410 -36.377  15.588  1.00  0.00     0.041 C 
ATOM     13  O   UNL     1       1.570 -35.570  16.065  1.00  0.00    -0.550 OA
ATOM     14  O   UNL     1       2.622 -36.419  14.216  1.00  0.00    -0.550 OA
ENDBRANCH  11  12
ENDBRANCH  10  11
ENDBRANCH   9  10
ENDBRANCH   8   9
ENDBRANCH   1   8
TORSDOF 9
ENDMDL
MODEL 3
REMARK VINA RESULT:    -3.979      1.310      2.249
REMARK INTER + INTRA:          -6.533
REMARK INTER:                  -6.282
REMARK INTRA:                  -0.251
REMARK UNBOUND:                -0.461
REMARK SMILES O=C([O-])CCCCCCCCC(=O)[O-]
REMARK SMILES IDX 7 1 6 2 5 3 4 4 2 5 1 6 3 7 8 8 9 9 10 10 11 11 12 12 13 13
REMARK SMILES IDX 14 14
REMARK H PARENT
REMARK Flexibility Score: inf
ROOT
ATOM      1  C   UNL     1       4.936 -35.500  20.054  1.00  0.00     0.000 C 
ENDROOT
BRANCH   1   2
ATOM      2  C   UNL     1       4.638 -36.989  19.819  1.00  0.00     0.000 C 
BRANCH   2   3
ATOM      3  C   UNL     1       3.500 -37.166  18.801  1.00  0.00     0.006 C 
BRANCH   3   4
ATOM      4  C   UNL     1       3.634 -36.207  17.610  1.00  0.00     0.053 C 
BRANCH   4   5
ATOM      5  C   UNL     1       2.846 -36.679  16.427  1.00  0.00     0.041 C 
ATOM      6  O   UNL     1       3.292 -37.600  15.694  1.00  0.00    -0.550 OA
ATOM      7  O   UNL     1       1.633 -36.077  16.114  1.00  0.00    -0.550 OA
ENDBRANCH   4   5
ENDBRANCH   3   4
ENDBRANCH   2   3
ENDBRANCH   1   2
BRANCH   1   8
ATOM      8  C   UNL     1       4.134 -34.913  21.227  1.00  0.00     0.000 C 
BRANCH   8   9
ATOM      9  C   UNL     1       4.938 -34.887  22.539  1.00  0.00     0.000 C 
BRANCH   9  10
ATOM     10  C   UNL     1       5.116 -36.287  23.149  1.00  0.00     0.006 C 
BRANCH  10  11
ATOM     11  C   UNL     1       5.098 -36.271  24.684  1.00  0.00     0.053 C 
BRANCH  11  12
ATOM     12  C   UNL     1       5.086 -37.668  25.220  1.00  0.00     0.041 C 
ATOM     13  O   UNL     1       5.125 -37.871  26.462  1.00  0.00    -0.550 OA
ATOM     14  O   UNL     1       4.983 -38.745  24.349  1.00  0.00    -0.550 OA
ENDBRANCH  11  12
ENDBRANCH  10  11
ENDBRANCH   9  10
ENDBRANCH   8   9
ENDBRANCH   1   8
TORSDOF 9
ENDMDL
MODEL 4
REMARK VINA RESULT:    -3.938      1.146      7.754
REMARK INTER + INTRA:          -6.471
REMARK INTER:                  -6.231
REMARK INTRA:                  -0.240
REMARK UNBOUND:                -0.461
REMARK SMILES O=C([O-])CCCCCCCCC(=O)[O-]
REMARK SMILES IDX 7 1 6 2 5 3 4 4 2 5 1 6 3 7 8 8 9 9 10 10 11 11 12 12 13 13
REMARK SMILES IDX 14 14
REMARK H PARENT
REMARK Flexibility Score: inf
ROOT
ATOM      1  C   UNL     1       4.064 -36.538  20.362  1.00  0.00     0.000 C 
ENDROOT
BRANCH   1   2
ATOM      2  C   UNL     1       5.111 -37.404  21.081  1.00  0.00     0.000 C 
BRANCH   2   3
ATOM      3  C   UNL     1       4.667 -37.718  22.519  1.00  0.00     0.006 C 
BRANCH   3   4
ATOM      4  C   UNL     1       5.047 -36.601  23.500  1.00  0.00     0.053 C 
BRANCH   4   5
ATOM      5  C   UNL     1       5.017 -37.077  24.921  1.00  0.00     0.041 C 
ATOM      6  O   UNL     1       4.942 -36.248  25.865  1.00  0.00    -0.550 OA
ATOM      7  O   UNL     1       5.105 -38.434  25.201  1.00  0.00    -0.550 OA
ENDBRANCH   4   5
ENDBRANCH   3   4
ENDBRANCH   2   3
ENDBRANCH   1   2
BRANCH   1   8
ATOM      8  C   UNL     1       3.892 -36.922  18.884  1.00  0.00     0.000 C 
BRANCH   8   9
ATOM      9  C   UNL     1       2.416 -37.095  18.486  1.00  0.00     0.000 C 
BRANCH   9  10
ATOM     10  C   UNL     1       2.222 -37.180  16.963  1.00  0.00     0.006 C 
BRANCH  10  11
ATOM     11  C   UNL     1       3.188 -36.270  16.191  1.00  0.00     0.053 C 
BRANCH  11  12
ATOM     12  C   UNL     1       3.104 -36.546  14.723  1.00  0.00     0.041 C 
ATOM     13  O   UNL     1       2.050 -36.282  14.088  1.00  0.00    -0.550 OA
ATOM     14  O   UNL     1       4.208 -37.049  14.046  1.00  0.00    -0.550 OA
ENDBRANCH  11  12
ENDBRANCH  10  11
ENDBRANCH   9  10
ENDBRANCH   8   9
ENDBRANCH   1   8
TORSDOF 9
ENDMDL
MODEL 5
REMARK VINA RESULT:    -3.580      1.567      2.149
REMARK INTER + INTRA:          -5.924
REMARK INTER:                  -5.690
REMARK INTRA:                  -0.234
REMARK UNBOUND:                -0.461
REMARK SMILES O=C([O-])CCCCCCCCC(=O)[O-]
REMARK SMILES IDX 7 1 6 2 5 3 4 4 2 5 1 6 3 7 8 8 9 9 10 10 11 11 12 12 13 13
REMARK SMILES IDX 14 14
REMARK H PARENT
REMARK Flexibility Score: inf
ROOT
ATOM      1  C   UNL     1       3.744 -37.525  20.262  1.00  0.00     0.000 C 
ENDROOT
BRANCH   1   2
ATOM      2  C   UNL     1       4.213 -36.701  19.053  1.00  0.00     0.000 C 
BRANCH   2   3
ATOM      3  C   UNL     1       3.444 -37.104  17.784  1.00  0.00     0.006 C 
BRANCH   3   4
ATOM      4  C   UNL     1       3.493 -36.013  16.706  1.00  0.00     0.053 C 
BRANCH   4   5
ATOM      5  C   UNL     1       3.151 -36.556  15.352  1.00  0.00     0.041 C 
ATOM      6  O   UNL     1       2.205 -36.056  14.689  1.00  0.00    -0.550 OA
ATOM      7  O   UNL     1       3.857 -37.635  14.837  1.00  0.00    -0.550 OA
ENDBRANCH   4   5
ENDBRANCH   3   4
ENDBRANCH   2   3
ENDBRANCH   1   2
BRANCH   1   8
ATOM      8  C   UNL     1       4.845 -37.710  21.318  1.00  0.00     0.000 C 
BRANCH   8   9
ATOM      9  C   UNL     1       4.522 -38.830  22.322  1.00  0.00     0.000 C 
BRANCH   9  10
ATOM     10  C   UNL     1       5.108 -38.558  23.717  1.00  0.00     0.006 C 
BRANCH  10  11
ATOM     11  C   UNL     1       5.123 -37.065  24.073  1.00  0.00     0.053 C 
BRANCH  11  12
ATOM     12  C   UNL     1       5.016 -36.881  25.554  1.00  0.00     0.041 C 
ATOM     13  O   UNL     1       5.095 -35.729  26.057  1.00  0.00    -0.550 OA
ATOM     14  O   UNL     1       4.778 -37.976  26.375  1.00  0.00    -0.550 OA
ENDBRANCH  11  12
ENDBRANCH  10  11
ENDBRANCH   9  10
ENDBRANCH   8   9
ENDBRANCH   1   8
TORSDOF 9
ENDMDL
MODEL 6
REMARK VINA RESULT:    -3.116      1.904      7.048
REMARK INTER + INTRA:          -5.216
REMARK INTER:                  -4.728
REMARK INTRA:                  -0.488
REMARK UNBOUND:                -0.461
REMARK SMILES O=C([O-])CCCCCCCCC(=O)[O-]
REMARK SMILES IDX 7 1 6 2 5 3 4 4 2 5 1 6 3 7 8 8 9 9 10 10 11 11 12 12 13 13
REMARK SMILES IDX 14 14
REMARK H PARENT
REMARK Flexibility Score: inf
ROOT
ATOM      1  C   UNL     1       4.290 -35.859  21.348  1.00  0.00     0.000 C 
ENDROOT
BRANCH   1   2
ATOM      2  C   UNL     1       4.311 -37.380  21.125  1.00  0.00     0.000 C 
BRANCH   2   3
ATOM      3  C   UNL     1       5.039 -38.092  22.276  1.00  0.00     0.006 C 
BRANCH   3   4
ATOM      4  C   UNL     1       5.084 -37.238  23.551  1.00  0.00     0.053 C 
BRANCH   4   5
ATOM      5  C   UNL     1       5.098 -38.086  24.786  1.00  0.00     0.041 C 
ATOM      6  O   UNL     1       5.119 -37.548  25.924  1.00  0.00    -0.550 OA
ATOM      7  O   UNL     1       5.122 -39.471  24.679  1.00  0.00    -0.550 OA
ENDBRANCH   4   5
ENDBRANCH   3   4
ENDBRANCH   2   3
ENDBRANCH   1   2
BRANCH   1   8
ATOM      8  C   UNL     1       4.758 -35.073  20.113  1.00  0.00     0.000 C 
BRANCH   8   9
ATOM      9  C   UNL     1       5.077 -35.985  18.916  1.00  0.00     0.000 C 
BRANCH   9  10
ATOM     10  C   UNL     1       4.019 -35.889  17.804  1.00  0.00     0.006 C 
BRANCH  10  11
ATOM     11  C   UNL     1       3.200 -37.179  17.653  1.00  0.00     0.053 C 
BRANCH  11  12
ATOM     12  C   UNL     1       1.794 -36.859  17.251  1.00  0.00     0.041 C 
ATOM     13  O   UNL     1       0.826 -37.368  17.874  1.00  0.00    -0.550 OA
ATOM     14  O   UNL     1       1.554 -35.959  16.220  1.00  0.00    -0.550 OA
ENDBRANCH  11  12
ENDBRANCH  10  11
ENDBRANCH   9  10
ENDBRANCH   8   9
ENDBRANCH   1   8
TORSDOF 9
ENDMDL
MODEL 7
REMARK VINA RESULT:    -3.033      1.563      7.661
REMARK INTER + INTRA:          -5.090
REMARK INTER:                  -4.906
REMARK INTRA:                  -0.184
REMARK UNBOUND:                -0.461
REMARK SMILES O=C([O-])CCCCCCCCC(=O)[O-]
REMARK SMILES IDX 7 1 6 2 5 3 4 4 2 5 1 6 3 7 8 8 9 9 10 10 11 11 12 12 13 13
REMARK SMILES IDX 14 14
REMARK H PARENT
REMARK Flexibility Score: inf
ROOT
ATOM      1  C   UNL     1       3.893 -37.728  21.552  1.00  0.00     0.000 C 
ENDROOT
BRANCH   1   2
ATOM      2  C   UNL     1       4.922 -38.716  22.124  1.00  0.00     0.000 C 
BRANCH   2   3
ATOM      3  C   UNL     1       5.086 -38.518  23.640  1.00  0.00     0.006 C 
BRANCH   3   4
ATOM      4  C   UNL     1       5.124 -37.035  24.030  1.00  0.00     0.053 C 
BRANCH   4   5
ATOM      5  C   UNL     1       4.972 -36.846  25.509  1.00  0.00     0.041 C 
ATOM      6  O   UNL     1       5.067 -35.697  26.015  1.00  0.00    -0.550 OA
ATOM      7  O   UNL     1       4.757 -37.945  26.332  1.00  0.00    -0.550 OA
ENDBRANCH   4   5
ENDBRANCH   3   4
ENDBRANCH   2   3
ENDBRANCH   1   2
BRANCH   1   8
ATOM      8  C   UNL     1       4.539 -36.633  20.688  1.00  0.00     0.000 C 
BRANCH   8   9
ATOM      9  C   UNL     1       4.671 -37.045  19.211  1.00  0.00     0.000 C 
BRANCH   9  10
ATOM     10  C   UNL     1       3.578 -36.424  18.327  1.00  0.00     0.006 C 
BRANCH  10  11
ATOM     11  C   UNL     1       2.997 -37.421  17.314  1.00  0.00     0.053 C 
BRANCH  11  12
ATOM     12  C   UNL     1       2.761 -36.750  15.998  1.00  0.00     0.041 C 
ATOM     13  O   UNL     1       3.560 -36.931  15.042  1.00  0.00    -0.550 OA
ATOM     14  O   UNL     1       1.630 -35.965  15.811  1.00  0.00    -0.550 OA
ENDBRANCH  11  12
ENDBRANCH  10  11
ENDBRANCH   9  10
ENDBRANCH   8   9
ENDBRANCH   1   8
TORSDOF 9
ENDMDL
MODEL 8
REMARK VINA RESULT:    -2.256      1.442      2.002
REMARK INTER + INTRA:          -3.904
REMARK INTER:                  -4.609
REMARK INTRA:                   0.705
REMARK UNBOUND:                -0.461
REMARK SMILES O=C([O-])CCCCCCCCC(=O)[O-]
REMARK SMILES IDX 7 1 6 2 5 3 4 4 2 5 1 6 3 7 8 8 9 9 10 10 11 11 12 12 13 13
REMARK SMILES IDX 14 14
REMARK H PARENT
REMARK Flexibility Score: inf
ROOT
ATOM      1  C   UNL     1       1.583 -37.515  18.845  1.00  0.00     0.000 C 
ENDROOT
BRANCH   1   2
ATOM      2  C   UNL     1       1.816 -37.125  17.378  1.00  0.00     0.000 C 
BRANCH   2   3
ATOM      3  C   UNL     1       3.257 -36.635  17.164  1.00  0.00     0.006 C 
BRANCH   3   4
ATOM      4  C   UNL     1       3.394 -35.769  15.904  1.00  0.00     0.053 C 
BRANCH   4   5
ATOM      5  C   UNL     1       3.166 -36.565  14.656  1.00  0.00     0.041 C 
ATOM      6  O   UNL     1       2.107 -36.414  13.993  1.00  0.00    -0.550 OA
ATOM      7  O   UNL     1       4.110 -37.497  14.243  1.00  0.00    -0.550 OA
ENDBRANCH   4   5
ENDBRANCH   3   4
ENDBRANCH   2   3
ENDBRANCH   1   2
BRANCH   1   8
ATOM      8  C   UNL     1       2.825 -38.144  19.496  1.00  0.00     0.000 C 
BRANCH   8   9
ATOM      9  C   UNL     1       3.569 -37.165  20.421  1.00  0.00     0.000 C 
BRANCH   9  10
ATOM     10  C   UNL     1       4.582 -37.872  21.336  1.00  0.00     0.006 C 
BRANCH  10  11
ATOM     11  C   UNL     1       5.125 -36.955  22.440  1.00  0.00     0.053 C 
BRANCH  11  12
ATOM     12  C   UNL     1       5.003 -35.520  22.034  1.00  0.00     0.041 C 
ATOM     13  O   UNL     1       5.125 -35.191  20.825  1.00  0.00    -0.550 OA
ATOM     14  O   UNL     1       4.704 -34.552  22.985  1.00  0.00    -0.550 OA
ENDBRANCH  11  12
ENDBRANCH  10  11
ENDBRANCH   9  10
ENDBRANCH   8   9
ENDBRANCH   1   8
TORSDOF 9
ENDMDL
