MODEL 1
REMARK VINA RESULT:    -4.982      0.000      0.000
REMARK INTER + INTRA:          -7.387
REMARK INTER:                  -7.020
REMARK INTRA:                  -0.367
REMARK UNBOUND:                -0.367
REMARK SMILES CCCCCCCCC(=O)[O-]
REMARK SMILES IDX 6 1 7 2 8 3 9 4 10 5 11 6 5 7 4 8 3 9 2 10 1 11
REMARK H PARENT
REMARK Flexibility Score: inf
ROOT
ATOM      1  C   UNL     1     -16.580   0.709 -18.892  1.00  0.00     0.000 C 
ENDROOT
BRANCH   1   2
ATOM      2  C   UNL     1     -17.768  -0.260 -18.783  1.00  0.00     0.006 C 
BRANCH   2   3
ATOM      3  C   UNL     1     -17.299  -1.714 -18.886  1.00  0.00     0.053 C 
BRANCH   3   4
ATOM      4  C   UNL     1     -16.999  -2.266 -17.528  1.00  0.00     0.041 C 
ATOM      5  O   UNL     1     -15.816  -2.270 -17.094  1.00  0.00    -0.550 OA
ATOM      6  O   UNL     1     -18.016  -2.821 -16.762  1.00  0.00    -0.550 OA
ENDBRANCH   3   4
ENDBRANCH   2   3
ENDBRANCH   1   2
BRANCH   1   7
ATOM      7  C   UNL     1     -15.592   0.315 -20.001  1.00  0.00     0.000 C 
BRANCH   7   8
ATOM      8  C   UNL     1     -14.422   1.307 -20.127  1.00  0.00    -0.000 C 
BRANCH   8   9
ATOM      9  C   UNL     1     -13.876   1.767 -18.763  1.00  0.00    -0.000 C 
BRANCH   9  10
ATOM     10  C   UNL     1     -13.637   3.283 -18.637  1.00  0.00    -0.003 C 
ATOM     11  C   UNL     1     -12.968   3.677 -17.321  1.00  0.00     0.004 C 
ENDBRANCH   9  10
ENDBRANCH   8   9
ENDBRANCH   7   8
ENDBRANCH   1   7
TORSDOF 7
ENDMDL
MODEL 2
REMARK VINA RESULT:    -4.976      3.423      5.357
REMARK INTER + INTRA:          -7.379
REMARK INTER:                  -6.976
REMARK INTRA:                  -0.403
REMARK UNBOUND:                -0.367
REMARK SMILES CCCCCCCCC(=O)[O-]
REMARK SMILES IDX 6 1 7 2 8 3 9 4 10 5 11 6 5 7 4 8 3 9 2 10 1 11
REMARK H PARENT
REMARK Flexibility Score: inf
ROOT
ATOM      1  C   UNL     1     -12.925   3.698 -16.995  1.00  0.00     0.000 C 
ENDROOT
BRANCH   1   2
ATOM      2  C   UNL     1     -14.225   3.712 -17.815  1.00  0.00     0.006 C 
BRANCH   2   3
ATOM      3  C   UNL     1     -14.072   2.888 -19.097  1.00  0.00     0.053 C 
BRANCH   3   4
ATOM      4  C   UNL     1     -14.577   1.495 -18.890  1.00  0.00     0.041 C 
ATOM      5  O   UNL     1     -15.759   1.197 -19.207  1.00  0.00    -0.550 OA
ATOM      6  O   UNL     1     -13.759   0.540 -18.300  1.00  0.00    -0.550 OA
ENDBRANCH   3   4
ENDBRANCH   2   3
ENDBRANCH   1   2
BRANCH   1   7
ATOM      7  C   UNL     1     -13.075   2.958 -15.657  1.00  0.00     0.000 C 
BRANCH   7   8
ATOM      8  C   UNL     1     -14.534   2.574 -15.355  1.00  0.00    -0.000 C 
BRANCH   8   9
ATOM      9  C   UNL     1     -14.714   1.955 -13.957  1.00  0.00    -0.000 C 
BRANCH   9  10
ATOM     10  C   UNL     1     -15.327   2.895 -12.904  1.00  0.00    -0.003 C 
ATOM     11  C   UNL     1     -15.799   2.163 -11.648  1.00  0.00     0.004 C 
ENDBRANCH   9  10
ENDBRANCH   8   9
ENDBRANCH   7   8
ENDBRANCH   1   7
TORSDOF 7
ENDMDL
MODEL 3
REMARK VINA RESULT:    -4.901      5.222      6.892
REMARK INTER + INTRA:          -7.273
REMARK INTER:                  -6.644
REMARK INTRA:                  -0.630
REMARK UNBOUND:                -0.367
REMARK SMILES CCCCCCCCC(=O)[O-]
REMARK SMILES IDX 6 1 7 2 8 3 9 4 10 5 11 6 5 7 4 8 3 9 2 10 1 11
REMARK H PARENT
REMARK Flexibility Score: inf
ROOT
ATOM      1  C   UNL     1     -15.517   2.676 -13.025  1.00  0.00     0.000 C 
ENDROOT
BRANCH   1   2
ATOM      2  C   UNL     1     -14.748   2.340 -14.312  1.00  0.00     0.006 C 
BRANCH   2   3
ATOM      3  C   UNL     1     -15.599   1.478 -15.249  1.00  0.00     0.053 C 
BRANCH   3   4
ATOM      4  C   UNL     1     -15.966   2.245 -16.480  1.00  0.00     0.041 C 
ATOM      5  O   UNL     1     -15.386   3.332 -16.745  1.00  0.00    -0.550 OA
ATOM      6  O   UNL     1     -16.982   1.786 -17.308  1.00  0.00    -0.550 OA
ENDBRANCH   3   4
ENDBRANCH   2   3
ENDBRANCH   1   2
BRANCH   1   7
ATOM      7  C   UNL     1     -15.430   1.560 -11.973  1.00  0.00     0.000 C 
BRANCH   7   8
ATOM      8  C   UNL     1     -16.673   1.503 -11.068  1.00  0.00    -0.000 C 
BRANCH   8   9
ATOM      9  C   UNL     1     -17.919   0.967 -11.796  1.00  0.00    -0.000 C 
BRANCH   9  10
ATOM     10  C   UNL     1     -17.701  -0.336 -12.585  1.00  0.00    -0.003 C 
ATOM     11  C   UNL     1     -18.508  -0.395 -13.881  1.00  0.00     0.004 C 
ENDBRANCH   9  10
ENDBRANCH   8   9
ENDBRANCH   7   8
ENDBRANCH   1   7
TORSDOF 7
ENDMDL
MODEL 4
REMARK VINA RESULT:    -4.878      2.727      4.942
REMARK INTER + INTRA:          -7.241
REMARK INTER:                  -6.692
REMARK INTRA:                  -0.549
REMARK UNBOUND:                -0.367
REMARK SMILES CCCCCCCCC(=O)[O-]
REMARK SMILES IDX 6 1 7 2 8 3 9 4 10 5 11 6 5 7 4 8 3 9 2 10 1 11
REMARK H PARENT
REMARK Flexibility Score: inf
ROOT
ATOM      1  C   UNL     1     -14.671   1.889 -19.923  1.00  0.00     0.000 C 
ENDROOT
BRANCH   1   2
ATOM      2  C   UNL     1     -13.771   1.591 -18.713  1.00  0.00     0.006 C 
BRANCH   2   3
ATOM      3  C   UNL     1     -13.361   2.885 -18.003  1.00  0.00     0.053 C 
BRANCH   3   4
ATOM      4  C   UNL     1     -14.031   2.986 -16.669  1.00  0.00     0.041 C 
ATOM      5  O   UNL     1     -15.282   3.115 -16.597  1.00  0.00    -0.550 OA
ATOM      6  O   UNL     1     -13.270   2.988 -15.508  1.00  0.00    -0.550 OA
ENDBRANCH   3   4
ENDBRANCH   2   3
ENDBRANCH   1   2
BRANCH   1   7
ATOM      7  C   UNL     1     -15.367   0.633 -20.468  1.00  0.00     0.000 C 
BRANCH   7   8
ATOM      8  C   UNL     1     -15.283  -0.557 -19.497  1.00  0.00    -0.000 C 
BRANCH   8   9
ATOM      9  C   UNL     1     -16.658  -0.982 -18.950  1.00  0.00    -0.000 C 
BRANCH   9  10
ATOM     10  C   UNL     1     -17.768   0.076 -19.088  1.00  0.00    -0.003 C 
ATOM     11  C   UNL     1     -17.994   0.879 -17.808  1.00  0.00     0.004 C 
ENDBRANCH   9  10
ENDBRANCH   8   9
ENDBRANCH   7   8
ENDBRANCH   1   7
TORSDOF 7
ENDMDL
MODEL 5
REMARK VINA RESULT:    -4.868      1.785      2.271
REMARK INTER + INTRA:          -7.227
REMARK INTER:                  -6.584
REMARK INTRA:                  -0.644
REMARK UNBOUND:                -0.367
REMARK SMILES CCCCCCCCC(=O)[O-]
REMARK SMILES IDX 6 1 7 2 8 3 9 4 10 5 11 6 5 7 4 8 3 9 2 10 1 11
REMARK H PARENT
REMARK Flexibility Score: inf
ROOT
ATOM      1  C   UNL     1     -16.521  -0.360 -19.139  1.00  0.00     0.000 C 
ENDROOT
BRANCH   1   2
ATOM      2  C   UNL     1     -17.758   0.380 -18.608  1.00  0.00     0.006 C 
BRANCH   2   3
ATOM      3  C   UNL     1     -17.372   1.378 -17.514  1.00  0.00     0.053 C 
BRANCH   3   4
ATOM      4  C   UNL     1     -17.067   0.663 -16.235  1.00  0.00     0.041 C 
ATOM      5  O   UNL     1     -17.950  -0.040 -15.677  1.00  0.00    -0.550 OA
ATOM      6  O   UNL     1     -15.824   0.814 -15.633  1.00  0.00    -0.550 OA
ENDBRANCH   3   4
ENDBRANCH   2   3
ENDBRANCH   1   2
BRANCH   1   7
ATOM      7  C   UNL     1     -15.587   0.551 -19.952  1.00  0.00     0.000 C 
BRANCH   7   8
ATOM      8  C   UNL     1     -14.107   0.367 -19.572  1.00  0.00    -0.000 C 
BRANCH   8   9
ATOM      9  C   UNL     1     -13.672   1.269 -18.403  1.00  0.00    -0.000 C 
BRANCH   9  10
ATOM     10  C   UNL     1     -13.984   2.765 -18.584  1.00  0.00    -0.003 C 
ATOM     11  C   UNL     1     -12.938   3.678 -17.947  1.00  0.00     0.004 C 
ENDBRANCH   9  10
ENDBRANCH   8   9
ENDBRANCH   7   8
ENDBRANCH   1   7
TORSDOF 7
ENDMDL
MODEL 6
REMARK VINA RESULT:    -4.859     16.575     18.177
REMARK INTER + INTRA:          -7.214
REMARK INTER:                  -6.491
REMARK INTRA:                  -0.723
REMARK UNBOUND:                -0.367
REMARK SMILES CCCCCCCCC(=O)[O-]
REMARK SMILES IDX 6 1 7 2 8 3 9 4 10 5 11 6 5 7 4 8 3 9 2 10 1 11
REMARK H PARENT
REMARK Flexibility Score: inf
ROOT
ATOM      1  C   UNL     1     -29.816  -3.474  -6.137  1.00  0.00     0.000 C 
ENDROOT
BRANCH   1   2
ATOM      2  C   UNL     1     -30.798  -3.024  -7.230  1.00  0.00     0.006 C 
BRANCH   2   3
ATOM      3  C   UNL     1     -31.228  -1.570  -7.015  1.00  0.00     0.053 C 
BRANCH   3   4
ATOM      4  C   UNL     1     -31.763  -0.988  -8.285  1.00  0.00     0.041 C 
ATOM      5  O   UNL     1     -32.084  -1.742  -9.242  1.00  0.00    -0.550 OA
ATOM      6  O   UNL     1     -31.860   0.390  -8.431  1.00  0.00    -0.550 OA
ENDBRANCH   3   4
ENDBRANCH   2   3
ENDBRANCH   1   2
BRANCH   1   7
ATOM      7  C   UNL     1     -28.778  -2.396  -5.790  1.00  0.00     0.000 C 
BRANCH   7   8
ATOM      8  C   UNL     1     -27.432  -2.623  -6.499  1.00  0.00    -0.000 C 
BRANCH   8   9
ATOM      9  C   UNL     1     -26.845  -1.332  -7.098  1.00  0.00    -0.000 C 
BRANCH   9  10
ATOM     10  C   UNL     1     -27.861  -0.197  -7.318  1.00  0.00    -0.003 C 
ATOM     11  C   UNL     1     -28.254  -0.020  -8.784  1.00  0.00     0.004 C 
ENDBRANCH   9  10
ENDBRANCH   8   9
ENDBRANCH   7   8
ENDBRANCH   1   7
TORSDOF 7
ENDMDL
MODEL 7
REMARK VINA RESULT:    -4.842      5.142      6.052
REMARK INTER + INTRA:          -7.191
REMARK INTER:                  -6.594
REMARK INTRA:                  -0.597
REMARK UNBOUND:                -0.367
REMARK SMILES CCCCCCCCC(=O)[O-]
REMARK SMILES IDX 6 1 7 2 8 3 9 4 10 5 11 6 5 7 4 8 3 9 2 10 1 11
REMARK H PARENT
REMARK Flexibility Score: inf
ROOT
ATOM      1  C   UNL     1     -16.291   1.130 -14.883  1.00  0.00     0.000 C 
ENDROOT
BRANCH   1   2
ATOM      2  C   UNL     1     -16.812  -0.302 -14.685  1.00  0.00     0.006 C 
BRANCH   2   3
ATOM      3  C   UNL     1     -18.105  -0.307 -13.865  1.00  0.00     0.053 C 
BRANCH   3   4
ATOM      4  C   UNL     1     -19.236  -0.861 -14.672  1.00  0.00     0.041 C 
ATOM      5  O   UNL     1     -19.473  -2.098 -14.664  1.00  0.00    -0.550 OA
ATOM      6  O   UNL     1     -19.999  -0.019 -15.471  1.00  0.00    -0.550 OA
ENDBRANCH   3   4
ENDBRANCH   2   3
ENDBRANCH   1   2
BRANCH   1   7
ATOM      7  C   UNL     1     -15.084   1.452 -13.988  1.00  0.00     0.000 C 
BRANCH   7   8
ATOM      8  C   UNL     1     -15.372   2.592 -12.996  1.00  0.00    -0.000 C 
BRANCH   8   9
ATOM      9  C   UNL     1     -15.675   2.087 -11.574  1.00  0.00    -0.000 C 
BRANCH   9  10
ATOM     10  C   UNL     1     -17.171   1.985 -11.226  1.00  0.00    -0.003 C 
ATOM     11  C   UNL     1     -17.496   0.802 -10.315  1.00  0.00     0.004 C 
ENDBRANCH   9  10
ENDBRANCH   8   9
ENDBRANCH   7   8
ENDBRANCH   1   7
TORSDOF 7
ENDMDL
MODEL 8
REMARK VINA RESULT:    -4.804      5.102      6.901
REMARK INTER + INTRA:          -7.136
REMARK INTER:                  -6.614
REMARK INTRA:                  -0.523
REMARK UNBOUND:                -0.367
REMARK SMILES CCCCCCCCC(=O)[O-]
REMARK SMILES IDX 6 1 7 2 8 3 9 4 10 5 11 6 5 7 4 8 3 9 2 10 1 11
REMARK H PARENT
REMARK Flexibility Score: inf
ROOT
ATOM      1  C   UNL     1     -14.687   2.114 -14.015  1.00  0.00     0.000 C 
ENDROOT
BRANCH   1   2
ATOM      2  C   UNL     1     -15.488   1.851 -15.300  1.00  0.00     0.006 C 
BRANCH   2   3
ATOM      3  C   UNL     1     -15.254   2.960 -16.329  1.00  0.00     0.053 C 
BRANCH   3   4
ATOM      4  C   UNL     1     -14.028   2.676 -17.137  1.00  0.00     0.041 C 
ATOM      5  O   UNL     1     -13.683   1.487 -17.367  1.00  0.00    -0.550 OA
ATOM      6  O   UNL     1     -13.238   3.723 -17.594  1.00  0.00    -0.550 OA
ENDBRANCH   3   4
ENDBRANCH   2   3
ENDBRANCH   1   2
BRANCH   1   7
ATOM      7  C   UNL     1     -15.448   2.993 -13.010  1.00  0.00     0.000 C 
BRANCH   7   8
ATOM      8  C   UNL     1     -15.708   2.272 -11.675  1.00  0.00    -0.000 C 
BRANCH   8   9
ATOM      9  C   UNL     1     -17.170   1.817 -11.515  1.00  0.00    -0.000 C 
BRANCH   9  10
ATOM     10  C   UNL     1     -17.410   0.313 -11.738  1.00  0.00    -0.003 C 
ATOM     11  C   UNL     1     -18.071   0.004 -13.081  1.00  0.00     0.004 C 
ENDBRANCH   9  10
ENDBRANCH   8   9
ENDBRANCH   7   8
ENDBRANCH   1   7
TORSDOF 7
ENDMDL
MODEL 9
REMARK VINA RESULT:    -4.740      2.317      4.359
REMARK INTER + INTRA:          -7.047
REMARK INTER:                  -6.284
REMARK INTRA:                  -0.763
REMARK UNBOUND:                -0.367
REMARK SMILES CCCCCCCCC(=O)[O-]
REMARK SMILES IDX 6 1 7 2 8 3 9 4 10 5 11 6 5 7 4 8 3 9 2 10 1 11
REMARK H PARENT
REMARK Flexibility Score: inf
ROOT
ATOM      1  C   UNL     1     -17.140  -0.194 -19.230  1.00  0.00     0.000 C 
ENDROOT
BRANCH   1   2
ATOM      2  C   UNL     1     -15.804   0.089 -19.935  1.00  0.00     0.006 C 
BRANCH   2   3
ATOM      3  C   UNL     1     -15.074   1.262 -19.275  1.00  0.00     0.053 C 
BRANCH   3   4
ATOM      4  C   UNL     1     -14.087   0.767 -18.266  1.00  0.00     0.041 C 
ATOM      5  O   UNL     1     -13.635  -0.406 -18.347  1.00  0.00    -0.550 OA
ATOM      6  O   UNL     1     -13.704   1.582 -17.209  1.00  0.00    -0.550 OA
ENDBRANCH   3   4
ENDBRANCH   2   3
ENDBRANCH   1   2
BRANCH   1   7
ATOM      7  C   UNL     1     -17.319  -1.677 -18.869  1.00  0.00     0.000 C 
BRANCH   7   8
ATOM      8  C   UNL     1     -16.687  -2.035 -17.513  1.00  0.00    -0.000 C 
BRANCH   8   9
ATOM      9  C   UNL     1     -17.504  -1.520 -16.315  1.00  0.00    -0.000 C 
BRANCH   9  10
ATOM     10  C   UNL     1     -16.728  -0.619 -15.338  1.00  0.00    -0.003 C 
ATOM     11  C   UNL     1     -16.813   0.865 -15.694  1.00  0.00     0.004 C 
ENDBRANCH   9  10
ENDBRANCH   8   9
ENDBRANCH   7   8
ENDBRANCH   1   7
TORSDOF 7
ENDMDL
