MODEL 1
REMARK VINA RESULT:    -5.262      0.000      0.000
REMARK INTER + INTRA:          -5.416
REMARK INTER:                  -5.416
REMARK INTRA:                   0.000
REMARK UNBOUND:                 0.000
REMARK SMILES Nc1ncnc2nc[nH]c12
REMARK SMILES IDX 8 1 7 2 6 3 5 4 4 5 3 6 2 7 10 8 9 9 1 11
REMARK H PARENT 9 10 1 12 1 13
REMARK Flexibility Score: inf
ROOT
ATOM      1  C   UNL     1      -3.032  11.159  21.757  1.00  0.00     0.199 A 
ATOM      2  N   UNL     1      -1.945  11.911  21.431  1.00  0.00    -0.217 NA
ATOM      3  C   UNL     1      -0.942  11.228  22.006  1.00  0.00     0.182 A 
ATOM      4  N   UNL     1       0.373  11.552  21.984  1.00  0.00    -0.215 NA
ATOM      5  C   UNL     1       1.252  10.728  22.632  1.00  0.00     0.226 A 
ATOM      6  N   UNL     1       0.803   9.605  23.282  1.00  0.00    -0.217 NA
ATOM      7  C   UNL     1      -0.523   9.278  23.305  1.00  0.00     0.152 A 
ATOM      8  C   UNL     1      -1.404  10.127  22.641  1.00  0.00     0.127 A 
ATOM      9  N   UNL     1      -2.734  10.061  22.497  1.00  0.00    -0.340 N 
ATOM     10  H   UNL     1      -3.395   9.342  22.862  1.00  0.00     0.168 HD
ENDROOT
BRANCH   7  11
ATOM     11  N   UNL     1      -0.966   8.104  23.989  1.00  0.00    -0.382 N 
ATOM     12  H   UNL     1      -1.752   7.538  23.600  1.00  0.00     0.158 HD
ATOM     13  H   UNL     1      -0.519   7.794  24.879  1.00  0.00     0.158 HD
ENDBRANCH   7  11
TORSDOF 1
ENDMDL
MODEL 2
REMARK VINA RESULT:    -5.243      3.944      5.870
REMARK INTER + INTRA:          -5.396
REMARK INTER:                  -5.396
REMARK INTRA:                   0.000
REMARK UNBOUND:                 0.000
REMARK SMILES Nc1ncnc2nc[nH]c12
REMARK SMILES IDX 8 1 7 2 6 3 5 4 4 5 3 6 2 7 10 8 9 9 1 11
REMARK H PARENT 9 10 1 12 1 13
REMARK Flexibility Score: inf
ROOT
ATOM      1  C   UNL     1       3.022  13.847  21.749  1.00  0.00     0.199 A 
ATOM      2  N   UNL     1       1.919  13.103  21.460  1.00  0.00    -0.217 NA
ATOM      3  C   UNL     1       0.934  13.822  22.023  1.00  0.00     0.182 A 
ATOM      4  N   UNL     1      -0.387  13.520  22.025  1.00  0.00    -0.215 NA
ATOM      5  C   UNL     1      -1.244  14.380  22.654  1.00  0.00     0.226 A 
ATOM      6  N   UNL     1      -0.770  15.516  23.261  1.00  0.00    -0.217 NA
ATOM      7  C   UNL     1       0.562  15.822  23.259  1.00  0.00     0.152 A 
ATOM      8  C   UNL     1       1.421  14.935  22.616  1.00  0.00     0.127 A 
ATOM      9  N   UNL     1       2.750  14.974  22.456  1.00  0.00    -0.340 N 
ATOM     10  H   UNL     1       3.428  15.694  22.789  1.00  0.00     0.168 HD
ENDROOT
BRANCH   7  11
ATOM     11  N   UNL     1       1.032  17.010  23.899  1.00  0.00    -0.382 N 
ATOM     12  H   UNL     1       2.032  17.087  24.188  1.00  0.00     0.158 HD
ATOM     13  H   UNL     1       0.394  17.813  24.089  1.00  0.00     0.158 HD
ENDBRANCH   7  11
TORSDOF 1
ENDMDL
MODEL 3
REMARK VINA RESULT:    -5.037      4.500      5.632
REMARK INTER + INTRA:          -5.184
REMARK INTER:                  -5.184
REMARK INTRA:                   0.000
REMARK UNBOUND:                 0.000
REMARK SMILES Nc1ncnc2nc[nH]c12
REMARK SMILES IDX 8 1 7 2 6 3 5 4 4 5 3 6 2 7 10 8 9 9 1 11
REMARK H PARENT 9 10 1 12 1 13
REMARK Flexibility Score: inf
ROOT
ATOM      1  C   UNL     1       0.206  16.544  23.194  1.00  0.00     0.199 A 
ATOM      2  N   UNL     1      -0.291  15.647  22.301  1.00  0.00    -0.217 NA
ATOM      3  C   UNL     1       0.758  14.834  22.098  1.00  0.00     0.182 A 
ATOM      4  N   UNL     1       0.798  13.753  21.282  1.00  0.00    -0.215 NA
ATOM      5  C   UNL     1       1.965  13.044  21.207  1.00  0.00     0.226 A 
ATOM      6  N   UNL     1       3.059  13.424  21.943  1.00  0.00    -0.217 NA
ATOM      7  C   UNL     1       3.020  14.513  22.767  1.00  0.00     0.152 A 
ATOM      8  C   UNL     1       1.825  15.225  22.831  1.00  0.00     0.127 A 
ATOM      9  N   UNL     1       1.498  16.314  23.539  1.00  0.00    -0.340 N 
ATOM     10  H   UNL     1       2.088  16.864  24.201  1.00  0.00     0.168 HD
ENDROOT
BRANCH   7  11
ATOM     11  N   UNL     1       4.173  14.890  23.523  1.00  0.00    -0.382 N 
ATOM     12  H   UNL     1       5.091  15.022  23.045  1.00  0.00     0.158 HD
ATOM     13  H   UNL     1       4.121  15.038  24.555  1.00  0.00     0.158 HD
ENDBRANCH   7  11
TORSDOF 1
ENDMDL
MODEL 4
REMARK VINA RESULT:    -4.911      3.784      4.987
REMARK INTER + INTRA:          -5.054
REMARK INTER:                  -5.054
REMARK INTRA:                   0.000
REMARK UNBOUND:                 0.000
REMARK SMILES Nc1ncnc2nc[nH]c12
REMARK SMILES IDX 8 1 7 2 6 3 5 4 4 5 3 6 2 7 10 8 9 9 1 11
REMARK H PARENT 9 10 1 12 1 13
REMARK Flexibility Score: inf
ROOT
ATOM      1  C   UNL     1      -2.540  14.706  22.875  1.00  0.00     0.199 A 
ATOM      2  N   UNL     1      -1.948  13.714  22.156  1.00  0.00    -0.217 NA
ATOM      3  C   UNL     1      -0.645  14.016  22.270  1.00  0.00     0.182 A 
ATOM      4  N   UNL     1       0.394  13.332  21.732  1.00  0.00    -0.215 NA
ATOM      5  C   UNL     1       1.660  13.797  21.960  1.00  0.00     0.226 A 
ATOM      6  N   UNL     1       1.862  14.925  22.716  1.00  0.00    -0.217 NA
ATOM      7  C   UNL     1       0.815  15.615  23.260  1.00  0.00     0.152 A 
ATOM      8  C   UNL     1      -0.467  15.129  23.018  1.00  0.00     0.127 A 
ATOM      9  N   UNL     1      -1.661  15.588  23.414  1.00  0.00    -0.340 N 
ATOM     10  H   UNL     1      -1.877  16.424  24.000  1.00  0.00     0.168 HD
ENDROOT
BRANCH   7  11
ATOM     11  N   UNL     1       1.050  16.786  24.043  1.00  0.00    -0.382 N 
ATOM     12  H   UNL     1       1.631  17.563  23.659  1.00  0.00     0.158 HD
ATOM     13  H   UNL     1       0.652  16.887  25.002  1.00  0.00     0.158 HD
ENDBRANCH   7  11
TORSDOF 1
ENDMDL
MODEL 5
REMARK VINA RESULT:    -4.893      0.967      3.059
REMARK INTER + INTRA:          -5.036
REMARK INTER:                  -5.036
REMARK INTRA:                   0.000
REMARK UNBOUND:                 0.000
REMARK SMILES Nc1ncnc2nc[nH]c12
REMARK SMILES IDX 8 1 7 2 6 3 5 4 4 5 3 6 2 7 10 8 9 9 1 11
REMARK H PARENT 9 10 1 12 1 13
REMARK Flexibility Score: inf
ROOT
ATOM      1  C   UNL     1       2.549  10.387  22.839  1.00  0.00     0.199 A 
ATOM      2  N   UNL     1       1.957  11.366  22.103  1.00  0.00    -0.217 NA
ATOM      3  C   UNL     1       0.653  11.069  22.227  1.00  0.00     0.182 A 
ATOM      4  N   UNL     1      -0.386  11.744  21.679  1.00  0.00    -0.215 NA
ATOM      5  C   UNL     1      -1.652  11.286  21.919  1.00  0.00     0.226 A 
ATOM      6  N   UNL     1      -1.854  10.174  22.698  1.00  0.00    -0.217 NA
ATOM      7  C   UNL     1      -0.807   9.493  23.253  1.00  0.00     0.152 A 
ATOM      8  C   UNL     1       0.475   9.972  22.997  1.00  0.00     0.127 A 
ATOM      9  N   UNL     1       1.669   9.518  23.399  1.00  0.00    -0.340 N 
ATOM     10  H   UNL     1       1.886   8.694  24.001  1.00  0.00     0.168 HD
ENDROOT
BRANCH   7  11
ATOM     11  N   UNL     1      -1.042   8.338  24.060  1.00  0.00    -0.382 N 
ATOM     12  H   UNL     1      -0.242   7.849  24.518  1.00  0.00     0.158 HD
ATOM     13  H   UNL     1      -2.006   7.964  24.205  1.00  0.00     0.158 HD
ENDBRANCH   7  11
TORSDOF 1
ENDMDL
MODEL 6
REMARK VINA RESULT:    -4.880      1.582      3.236
REMARK INTER + INTRA:          -5.022
REMARK INTER:                  -5.022
REMARK INTRA:                   0.000
REMARK UNBOUND:                 0.000
REMARK SMILES Nc1ncnc2nc[nH]c12
REMARK SMILES IDX 8 1 7 2 6 3 5 4 4 5 3 6 2 7 10 8 9 9 1 11
REMARK H PARENT 9 10 1 12 1 13
REMARK Flexibility Score: inf
ROOT
ATOM      1  C   UNL     1       0.826  10.547  21.575  1.00  0.00     0.199 A 
ATOM      2  N   UNL     1       0.839  11.907  21.567  1.00  0.00    -0.217 NA
ATOM      3  C   UNL     1      -0.454  12.207  21.772  1.00  0.00     0.182 A 
ATOM      4  N   UNL     1      -0.993  13.447  21.854  1.00  0.00    -0.215 NA
ATOM      5  C   UNL     1      -2.340  13.553  22.068  1.00  0.00     0.226 A 
ATOM      6  N   UNL     1      -3.114  12.426  22.197  1.00  0.00    -0.217 NA
ATOM      7  C   UNL     1      -2.571  11.175  22.115  1.00  0.00     0.152 A 
ATOM      8  C   UNL     1      -1.199  11.086  21.895  1.00  0.00     0.127 A 
ATOM      9  N   UNL     1      -0.407  10.013  21.773  1.00  0.00    -0.340 N 
ATOM     10  H   UNL     1      -0.662   9.003  21.818  1.00  0.00     0.168 HD
ENDROOT
BRANCH   7  11
ATOM     11  N   UNL     1      -3.398  10.018  22.251  1.00  0.00    -0.382 N 
ATOM     12  H   UNL     1      -2.966   9.069  22.292  1.00  0.00     0.158 HD
ATOM     13  H   UNL     1      -4.437  10.097  22.313  1.00  0.00     0.158 HD
ENDBRANCH   7  11
TORSDOF 1
ENDMDL
MODEL 7
REMARK VINA RESULT:    -4.833      1.133      2.964
REMARK INTER + INTRA:          -4.975
REMARK INTER:                  -4.975
REMARK INTRA:                   0.000
REMARK UNBOUND:                 0.000
REMARK SMILES Nc1ncnc2nc[nH]c12
REMARK SMILES IDX 8 1 7 2 6 3 5 4 4 5 3 6 2 7 10 8 9 9 1 11
REMARK H PARENT 9 10 1 12 1 13
REMARK Flexibility Score: inf
ROOT
ATOM      1  C   UNL     1      -0.699   8.453  23.289  1.00  0.00     0.199 A 
ATOM      2  N   UNL     1       0.396   9.257  23.357  1.00  0.00    -0.217 NA
ATOM      3  C   UNL     1      -0.070  10.418  22.870  1.00  0.00     0.182 A 
ATOM      4  N   UNL     1       0.627  11.570  22.720  1.00  0.00    -0.215 NA
ATOM      5  C   UNL     1      -0.025  12.656  22.203  1.00  0.00     0.226 A 
ATOM      6  N   UNL     1      -1.349  12.571  21.852  1.00  0.00    -0.217 NA
ATOM      7  C   UNL     1      -2.054  11.410  22.005  1.00  0.00     0.152 A 
ATOM      8  C   UNL     1      -1.375  10.314  22.531  1.00  0.00     0.127 A 
ATOM      9  N   UNL     1      -1.799   9.070  22.788  1.00  0.00    -0.340 N 
ATOM     10  H   UNL     1      -2.748   8.660  22.643  1.00  0.00     0.168 HD
ENDROOT
BRANCH   7  11
ATOM     11  N   UNL     1      -3.431  11.346  21.632  1.00  0.00    -0.382 N 
ATOM     12  H   UNL     1      -3.922  10.426  21.602  1.00  0.00     0.158 HD
ATOM     13  H   UNL     1      -3.967  12.207  21.385  1.00  0.00     0.158 HD
ENDBRANCH   7  11
TORSDOF 1
ENDMDL
MODEL 8
REMARK VINA RESULT:    -4.826      2.576      4.415
REMARK INTER + INTRA:          -4.967
REMARK INTER:                  -4.967
REMARK INTRA:                   0.000
REMARK UNBOUND:                 0.000
REMARK SMILES Nc1ncnc2nc[nH]c12
REMARK SMILES IDX 8 1 7 2 6 3 5 4 4 5 3 6 2 7 10 8 9 9 1 11
REMARK H PARENT 9 10 1 12 1 13
REMARK Flexibility Score: inf
ROOT
ATOM      1  C   UNL     1       1.389   9.672  23.269  1.00  0.00     0.199 A 
ATOM      2  N   UNL     1       0.440  10.621  23.045  1.00  0.00    -0.217 NA
ATOM      3  C   UNL     1       1.143  11.592  22.440  1.00  0.00     0.182 A 
ATOM      4  N   UNL     1       0.666  12.780  21.998  1.00  0.00    -0.215 NA
ATOM      5  C   UNL     1       1.541  13.647  21.404  1.00  0.00     0.226 A 
ATOM      6  N   UNL     1       2.865  13.311  21.263  1.00  0.00    -0.217 NA
ATOM      7  C   UNL     1       3.347  12.113  21.707  1.00  0.00     0.152 A 
ATOM      8  C   UNL     1       2.443  11.243  22.311  1.00  0.00     0.127 A 
ATOM      9  N   UNL     1       2.626  10.023  22.832  1.00  0.00    -0.340 N 
ATOM     10  H   UNL     1       3.504   9.464  22.894  1.00  0.00     0.168 HD
ENDROOT
BRANCH   7  11
ATOM     11  N   UNL     1       4.729  11.787  21.549  1.00  0.00    -0.382 N 
ATOM     12  H   UNL     1       5.461  12.384  21.994  1.00  0.00     0.158 HD
ATOM     13  H   UNL     1       5.031  10.957  20.994  1.00  0.00     0.158 HD
ENDBRANCH   7  11
TORSDOF 1
ENDMDL
MODEL 9
REMARK VINA RESULT:    -4.775      4.422      5.674
REMARK INTER + INTRA:          -4.915
REMARK INTER:                  -4.915
REMARK INTRA:                   0.000
REMARK UNBOUND:                 0.000
REMARK SMILES Nc1ncnc2nc[nH]c12
REMARK SMILES IDX 8 1 7 2 6 3 5 4 4 5 3 6 2 7 10 8 9 9 1 11
REMARK H PARENT 9 10 1 12 1 13
REMARK Flexibility Score: inf
ROOT
ATOM      1  C   UNL     1      -0.415  12.936  18.932  1.00  0.00     0.199 A 
ATOM      2  N   UNL     1       0.249  13.084  20.111  1.00  0.00    -0.217 NA
ATOM      3  C   UNL     1      -0.438  14.075  20.703  1.00  0.00     0.182 A 
ATOM      4  N   UNL     1      -0.188  14.616  21.920  1.00  0.00    -0.215 NA
ATOM      5  C   UNL     1      -1.002  15.625  22.357  1.00  0.00     0.226 A 
ATOM      6  N   UNL     1      -2.042  16.067  21.578  1.00  0.00    -0.217 NA
ATOM      7  C   UNL     1      -2.295  15.521  20.351  1.00  0.00     0.152 A 
ATOM      8  C   UNL     1      -1.456  14.497  19.920  1.00  0.00     0.127 A 
ATOM      9  N   UNL     1      -1.463  13.787  18.785  1.00  0.00    -0.340 N 
ATOM     10  H   UNL     1      -2.114  13.859  17.973  1.00  0.00     0.168 HD
ENDROOT
BRANCH   7  11
ATOM     11  N   UNL     1      -3.383  15.999  19.558  1.00  0.00    -0.382 N 
ATOM     12  H   UNL     1      -3.830  15.373  18.852  1.00  0.00     0.158 HD
ATOM     13  H   UNL     1      -3.748  16.971  19.666  1.00  0.00     0.158 HD
ENDBRANCH   7  11
TORSDOF 1
ENDMDL
