MODEL 1
REMARK VINA RESULT:    -4.746      0.000      0.000
REMARK INTER + INTRA:          -7.316
REMARK INTER:                  -6.965
REMARK INTRA:                  -0.351
REMARK UNBOUND:                -0.351
REMARK SMILES O=C([O-])CCCCCCCC(=O)[O-]
REMARK SMILES IDX 7 1 6 2 5 3 4 4 2 5 1 6 3 7 8 8 9 9 10 10 11 11 12 12 13 13
REMARK H PARENT
REMARK Flexibility Score: inf
ROOT
ATOM      1  C   UNL     1      -5.144  36.446  19.953  1.00  0.00     0.000 C 
ENDROOT
BRANCH   1   2
ATOM      2  C   UNL     1      -5.021  37.410  21.142  1.00  0.00     0.000 C 
BRANCH   2   3
ATOM      3  C   UNL     1      -4.953  36.680  22.497  1.00  0.00     0.006 C 
BRANCH   3   4
ATOM      4  C   UNL     1      -5.746  37.363  23.623  1.00  0.00     0.053 C 
BRANCH   4   5
ATOM      5  C   UNL     1      -4.875  38.237  24.472  1.00  0.00     0.041 C 
ATOM      6  O   UNL     1      -4.396  37.798  25.551  1.00  0.00    -0.550 OA
ATOM      7  O   UNL     1      -4.619  39.547  24.087  1.00  0.00    -0.550 OA
ENDBRANCH   4   5
ENDBRANCH   3   4
ENDBRANCH   2   3
ENDBRANCH   1   2
BRANCH   1   8
ATOM      8  C   UNL     1      -3.903  36.522  19.054  1.00  0.00     0.000 C 
BRANCH   8   9
ATOM      9  C   UNL     1      -3.338  37.949  19.016  1.00  0.00     0.006 C 
BRANCH   9  10
ATOM     10  C   UNL     1      -1.985  38.019  18.295  1.00  0.00     0.053 C 
BRANCH  10  11
ATOM     11  C   UNL     1      -2.093  37.582  16.866  1.00  0.00     0.041 C 
ATOM     12  O   UNL     1      -1.450  36.578  16.460  1.00  0.00    -0.550 OA
ATOM     13  O   UNL     1      -2.929  38.263  15.991  1.00  0.00    -0.550 OA
ENDBRANCH  10  11
ENDBRANCH   9  10
ENDBRANCH   8   9
ENDBRANCH   1   8
TORSDOF 8
ENDMDL
MODEL 2
REMARK VINA RESULT:    -4.730      0.099      6.772
REMARK INTER + INTRA:          -7.293
REMARK INTER:                  -6.953
REMARK INTRA:                  -0.340
REMARK UNBOUND:                -0.351
REMARK SMILES O=C([O-])CCCCCCCC(=O)[O-]
REMARK SMILES IDX 7 1 6 2 5 3 4 4 2 5 1 6 3 7 8 8 9 9 10 10 11 11 12 12 13 13
REMARK H PARENT
REMARK Flexibility Score: inf
ROOT
ATOM      1  C   UNL     1      -5.126  36.455  19.977  1.00  0.00     0.000 C 
ENDROOT
BRANCH   1   2
ATOM      2  C   UNL     1      -3.885  36.557  19.079  1.00  0.00     0.000 C 
BRANCH   2   3
ATOM      3  C   UNL     1      -3.250  37.960  19.096  1.00  0.00     0.006 C 
BRANCH   3   4
ATOM      4  C   UNL     1      -1.971  38.085  18.252  1.00  0.00     0.053 C 
BRANCH   4   5
ATOM      5  C   UNL     1      -2.183  37.628  16.842  1.00  0.00     0.041 C 
ATOM      6  O   UNL     1      -1.607  36.591  16.418  1.00  0.00    -0.550 OA
ATOM      7  O   UNL     1      -2.991  38.366  15.986  1.00  0.00    -0.550 OA
ENDBRANCH   4   5
ENDBRANCH   3   4
ENDBRANCH   2   3
ENDBRANCH   1   2
BRANCH   1   8
ATOM      8  C   UNL     1      -5.038  37.440  21.150  1.00  0.00     0.000 C 
BRANCH   8   9
ATOM      9  C   UNL     1      -5.000  36.696  22.492  1.00  0.00     0.006 C 
BRANCH   9  10
ATOM     10  C   UNL     1      -5.799  37.424  23.582  1.00  0.00     0.053 C 
BRANCH  10  11
ATOM     11  C   UNL     1      -4.928  38.330  24.398  1.00  0.00     0.041 C 
ATOM     12  O   UNL     1      -4.718  39.514  24.022  1.00  0.00    -0.550 OA
ATOM     13  O   UNL     1      -4.375  37.878  25.589  1.00  0.00    -0.550 OA
ENDBRANCH  10  11
ENDBRANCH   9  10
ENDBRANCH   8   9
ENDBRANCH   1   8
TORSDOF 8
ENDMDL
MODEL 3
REMARK VINA RESULT:    -4.693      0.611      1.125
REMARK INTER + INTRA:          -7.240
REMARK INTER:                  -6.927
REMARK INTRA:                  -0.313
REMARK UNBOUND:                -0.351
REMARK SMILES O=C([O-])CCCCCCCC(=O)[O-]
REMARK SMILES IDX 7 1 6 2 5 3 4 4 2 5 1 6 3 7 8 8 9 9 10 10 11 11 12 12 13 13
REMARK H PARENT
REMARK Flexibility Score: inf
ROOT
ATOM      1  C   UNL     1      -4.022  36.296  20.305  1.00  0.00     0.000 C 
ENDROOT
BRANCH   1   2
ATOM      2  C   UNL     1      -5.284  37.019  20.799  1.00  0.00     0.000 C 
BRANCH   2   3
ATOM      3  C   UNL     1      -4.993  38.020  21.932  1.00  0.00     0.006 C 
BRANCH   3   4
ATOM      4  C   UNL     1      -5.006  37.403  23.340  1.00  0.00     0.053 C 
BRANCH   4   5
ATOM      5  C   UNL     1      -4.651  38.406  24.394  1.00  0.00     0.041 C 
ATOM      6  O   UNL     1      -4.627  39.634  24.118  1.00  0.00    -0.550 OA
ATOM      7  O   UNL     1      -4.313  37.980  25.673  1.00  0.00    -0.550 OA
ENDBRANCH   4   5
ENDBRANCH   3   4
ENDBRANCH   2   3
ENDBRANCH   1   2
BRANCH   1   8
ATOM      8  C   UNL     1      -3.761  36.596  18.823  1.00  0.00     0.000 C 
BRANCH   8   9
ATOM      9  C   UNL     1      -3.226  38.023  18.637  1.00  0.00     0.006 C 
BRANCH   9  10
ATOM     10  C   UNL     1      -1.906  38.051  17.856  1.00  0.00     0.053 C 
BRANCH  10  11
ATOM     11  C   UNL     1      -2.114  37.766  16.400  1.00  0.00     0.041 C 
ATOM     12  O   UNL     1      -1.444  36.866  15.828  1.00  0.00    -0.550 OA
ATOM     13  O   UNL     1      -3.072  38.472  15.683  1.00  0.00    -0.550 OA
ENDBRANCH  10  11
ENDBRANCH   9  10
ENDBRANCH   8   9
ENDBRANCH   1   8
TORSDOF 8
ENDMDL
MODEL 4
REMARK VINA RESULT:    -4.641      1.180      1.660
REMARK INTER + INTRA:          -7.163
REMARK INTER:                  -6.842
REMARK INTRA:                  -0.321
REMARK UNBOUND:                -0.351
REMARK SMILES O=C([O-])CCCCCCCC(=O)[O-]
REMARK SMILES IDX 7 1 6 2 5 3 4 4 2 5 1 6 3 7 8 8 9 9 10 10 11 11 12 12 13 13
REMARK H PARENT
REMARK Flexibility Score: inf
ROOT
ATOM      1  C   UNL     1      -5.019  37.262  20.835  1.00  0.00     0.000 C 
ENDROOT
BRANCH   1   2
ATOM      2  C   UNL     1      -5.829  36.392  21.808  1.00  0.00     0.000 C 
BRANCH   2   3
ATOM      3  C   UNL     1      -5.094  36.142  23.138  1.00  0.00     0.006 C 
BRANCH   3   4
ATOM      4  C   UNL     1      -5.676  36.910  24.336  1.00  0.00     0.053 C 
BRANCH   4   5
ATOM      5  C   UNL     1      -4.836  38.095  24.702  1.00  0.00     0.041 C 
ATOM      6  O   UNL     1      -4.770  39.089  23.931  1.00  0.00    -0.550 OA
ATOM      7  O   UNL     1      -4.099  38.088  25.880  1.00  0.00    -0.550 OA
ENDBRANCH   4   5
ENDBRANCH   3   4
ENDBRANCH   2   3
ENDBRANCH   1   2
BRANCH   1   8
ATOM      8  C   UNL     1      -4.083  36.401  19.978  1.00  0.00     0.000 C 
BRANCH   8   9
ATOM      9  C   UNL     1      -3.590  37.179  18.749  1.00  0.00     0.006 C 
BRANCH   9  10
ATOM     10  C   UNL     1      -2.533  38.231  19.114  1.00  0.00     0.053 C 
BRANCH  10  11
ATOM     11  C   UNL     1      -1.257  38.023  18.357  1.00  0.00     0.041 C 
ATOM     12  O   UNL     1      -0.150  38.279  18.899  1.00  0.00    -0.550 OA
ATOM     13  O   UNL     1      -1.289  37.516  17.064  1.00  0.00    -0.550 OA
ENDBRANCH  10  11
ENDBRANCH   9  10
ENDBRANCH   8   9
ENDBRANCH   1   8
TORSDOF 8
ENDMDL
MODEL 5
REMARK VINA RESULT:    -4.628      1.176      6.605
REMARK INTER + INTRA:          -7.144
REMARK INTER:                  -6.855
REMARK INTRA:                  -0.289
REMARK UNBOUND:                -0.351
REMARK SMILES O=C([O-])CCCCCCCC(=O)[O-]
REMARK SMILES IDX 7 1 6 2 5 3 4 4 2 5 1 6 3 7 8 8 9 9 10 10 11 11 12 12 13 13
REMARK H PARENT
REMARK Flexibility Score: inf
ROOT
ATOM      1  C   UNL     1      -4.620  36.575  21.538  1.00  0.00     0.000 C 
ENDROOT
BRANCH   1   2
ATOM      2  C   UNL     1      -4.958  37.002  20.102  1.00  0.00     0.000 C 
BRANCH   2   3
ATOM      3  C   UNL     1      -3.761  36.865  19.142  1.00  0.00     0.006 C 
BRANCH   3   4
ATOM      4  C   UNL     1      -3.021  38.183  18.860  1.00  0.00     0.053 C 
BRANCH   4   5
ATOM      5  C   UNL     1      -1.661  37.948  18.280  1.00  0.00     0.041 C 
ATOM      6  O   UNL     1      -1.538  37.435  17.137  1.00  0.00    -0.550 OA
ATOM      7  O   UNL     1      -0.527  38.266  19.017  1.00  0.00    -0.550 OA
ENDBRANCH   4   5
ENDBRANCH   3   4
ENDBRANCH   2   3
ENDBRANCH   1   2
BRANCH   1   8
ATOM      8  C   UNL     1      -5.897  36.369  22.363  1.00  0.00     0.000 C 
BRANCH   8   9
ATOM      9  C   UNL     1      -5.560  36.087  23.835  1.00  0.00     0.006 C 
BRANCH   9  10
ATOM     10  C   UNL     1      -5.990  37.234  24.759  1.00  0.00     0.053 C 
BRANCH  10  11
ATOM     11  C   UNL     1      -4.882  38.221  24.973  1.00  0.00     0.041 C 
ATOM     12  O   UNL     1      -4.078  38.071  25.931  1.00  0.00    -0.550 OA
ATOM     13  O   UNL     1      -4.720  39.286  24.097  1.00  0.00    -0.550 OA
ENDBRANCH  10  11
ENDBRANCH   9  10
ENDBRANCH   8   9
ENDBRANCH   1   8
TORSDOF 8
ENDMDL
MODEL 6
REMARK VINA RESULT:    -4.556      1.366      7.105
REMARK INTER + INTRA:          -7.038
REMARK INTER:                  -6.744
REMARK INTRA:                  -0.293
REMARK UNBOUND:                -0.351
REMARK SMILES O=C([O-])CCCCCCCC(=O)[O-]
REMARK SMILES IDX 7 1 6 2 5 3 4 4 2 5 1 6 3 7 8 8 9 9 10 10 11 11 12 12 13 13
REMARK H PARENT
REMARK Flexibility Score: inf
ROOT
ATOM      1  C   UNL     1      -3.532  38.064  18.764  1.00  0.00     0.000 C 
ENDROOT
BRANCH   1   2
ATOM      2  C   UNL     1      -2.073  38.112  18.289  1.00  0.00     0.000 C 
BRANCH   2   3
ATOM      3  C   UNL     1      -1.833  37.280  17.016  1.00  0.00     0.006 C 
BRANCH   3   4
ATOM      4  C   UNL     1      -3.080  37.092  16.138  1.00  0.00     0.053 C 
BRANCH   4   5
ATOM      5  C   UNL     1      -2.895  37.670  14.769  1.00  0.00     0.041 C 
ATOM      6  O   UNL     1      -1.856  37.411  14.106  1.00  0.00    -0.550 OA
ATOM      7  O   UNL     1      -3.855  38.524  14.239  1.00  0.00    -0.550 OA
ENDBRANCH   4   5
ENDBRANCH   3   4
ENDBRANCH   2   3
ENDBRANCH   1   2
BRANCH   1   8
ATOM      8  C   UNL     1      -3.762  36.882  19.714  1.00  0.00     0.000 C 
BRANCH   8   9
ATOM      9  C   UNL     1      -5.069  37.054  20.501  1.00  0.00     0.006 C 
BRANCH   9  10
ATOM     10  C   UNL     1      -4.975  36.473  21.918  1.00  0.00     0.053 C 
BRANCH  10  11
ATOM     11  C   UNL     1      -4.850  37.549  22.953  1.00  0.00     0.041 C 
ATOM     12  O   UNL     1      -4.950  37.266  24.176  1.00  0.00    -0.550 OA
ATOM     13  O   UNL     1      -4.590  38.859  22.569  1.00  0.00    -0.550 OA
ENDBRANCH  10  11
ENDBRANCH   9  10
ENDBRANCH   8   9
ENDBRANCH   1   8
TORSDOF 8
ENDMDL
MODEL 7
REMARK VINA RESULT:    -4.500      1.912      5.661
REMARK INTER + INTRA:          -6.956
REMARK INTER:                  -6.317
REMARK INTRA:                  -0.639
REMARK UNBOUND:                -0.351
REMARK SMILES O=C([O-])CCCCCCCC(=O)[O-]
REMARK SMILES IDX 7 1 6 2 5 3 4 4 2 5 1 6 3 7 8 8 9 9 10 10 11 11 12 12 13 13
REMARK H PARENT
REMARK Flexibility Score: inf
ROOT
ATOM      1  C   UNL     1      -5.921  35.942  22.868  1.00  0.00     0.000 C 
ENDROOT
BRANCH   1   2
ATOM      2  C   UNL     1      -4.850  36.483  21.909  1.00  0.00     0.000 C 
BRANCH   2   3
ATOM      3  C   UNL     1      -5.409  36.804  20.510  1.00  0.00     0.006 C 
BRANCH   3   4
ATOM      4  C   UNL     1      -4.763  38.025  19.836  1.00  0.00     0.053 C 
BRANCH   4   5
ATOM      5  C   UNL     1      -3.543  37.652  19.052  1.00  0.00     0.041 C 
ATOM      6  O   UNL     1      -3.553  36.636  18.308  1.00  0.00    -0.550 OA
ATOM      7  O   UNL     1      -2.383  38.409  19.169  1.00  0.00    -0.550 OA
ENDBRANCH   4   5
ENDBRANCH   3   4
ENDBRANCH   2   3
ENDBRANCH   1   2
BRANCH   1   8
ATOM      8  C   UNL     1      -6.115  36.883  24.063  1.00  0.00     0.000 C 
BRANCH   8   9
ATOM      9  C   UNL     1      -4.830  37.669  24.359  1.00  0.00     0.006 C 
BRANCH   9  10
ATOM     10  C   UNL     1      -5.077  39.183  24.422  1.00  0.00     0.053 C 
BRANCH  10  11
ATOM     11  C   UNL     1      -4.894  39.833  23.085  1.00  0.00     0.041 C 
ATOM     12  O   UNL     1      -3.745  39.929  22.579  1.00  0.00    -0.550 OA
ATOM     13  O   UNL     1      -5.997  40.303  22.383  1.00  0.00    -0.550 OA
ENDBRANCH  10  11
ENDBRANCH   9  10
ENDBRANCH   8   9
ENDBRANCH   1   8
TORSDOF 8
ENDMDL
MODEL 8
REMARK VINA RESULT:    -4.460      1.495      2.169
REMARK INTER + INTRA:          -6.897
REMARK INTER:                  -6.525
REMARK INTRA:                  -0.372
REMARK UNBOUND:                -0.351
REMARK SMILES O=C([O-])CCCCCCCC(=O)[O-]
REMARK SMILES IDX 7 1 6 2 5 3 4 4 2 5 1 6 3 7 8 8 9 9 10 10 11 11 12 12 13 13
REMARK H PARENT
REMARK Flexibility Score: inf
ROOT
ATOM      1  C   UNL     1      -3.809  38.188  19.080  1.00  0.00     0.000 C 
ENDROOT
BRANCH   1   2
ATOM      2  C   UNL     1      -4.187  36.772  19.538  1.00  0.00     0.000 C 
BRANCH   2   3
ATOM      3  C   UNL     1      -5.319  36.766  20.582  1.00  0.00     0.006 C 
BRANCH   3   4
ATOM      4  C   UNL     1      -4.833  36.733  22.040  1.00  0.00     0.053 C 
BRANCH   4   5
ATOM      5  C   UNL     1      -5.036  38.048  22.728  1.00  0.00     0.041 C 
ATOM      6  O   UNL     1      -5.926  38.172  23.610  1.00  0.00    -0.550 OA
ATOM      7  O   UNL     1      -4.263  39.146  22.370  1.00  0.00    -0.550 OA
ENDBRANCH   4   5
ENDBRANCH   3   4
ENDBRANCH   2   3
ENDBRANCH   1   2
BRANCH   1   8
ATOM      8  C   UNL     1      -2.466  38.185  18.337  1.00  0.00     0.000 C 
BRANCH   8   9
ATOM      9  C   UNL     1      -2.422  37.066  17.286  1.00  0.00     0.006 C 
BRANCH   9  10
ATOM     10  C   UNL     1      -1.882  37.558  15.937  1.00  0.00     0.053 C 
BRANCH  10  11
ATOM     11  C   UNL     1      -2.988  37.937  14.999  1.00  0.00     0.041 C 
ATOM     12  O   UNL     1      -3.511  37.068  14.254  1.00  0.00    -0.550 OA
ATOM     13  O   UNL     1      -3.462  39.242  14.973  1.00  0.00    -0.550 OA
ENDBRANCH  10  11
ENDBRANCH   9  10
ENDBRANCH   8   9
ENDBRANCH   1   8
TORSDOF 8
ENDMDL
MODEL 9
REMARK VINA RESULT:    -4.392      1.450      6.829
REMARK INTER + INTRA:          -6.798
REMARK INTER:                  -6.485
REMARK INTRA:                  -0.313
REMARK UNBOUND:                -0.351
REMARK SMILES O=C([O-])CCCCCCCC(=O)[O-]
REMARK SMILES IDX 7 1 6 2 5 3 4 4 2 5 1 6 3 7 8 8 9 9 10 10 11 11 12 12 13 13
REMARK H PARENT
REMARK Flexibility Score: inf
ROOT
ATOM      1  C   UNL     1      -4.666  37.793  21.489  1.00  0.00     0.000 C 
ENDROOT
BRANCH   1   2
ATOM      2  C   UNL     1      -4.898  37.618  19.981  1.00  0.00     0.000 C 
BRANCH   2   3
ATOM      3  C   UNL     1      -3.653  37.090  19.243  1.00  0.00     0.006 C 
BRANCH   3   4
ATOM      4  C   UNL     1      -3.224  37.942  18.037  1.00  0.00     0.053 C 
BRANCH   4   5
ATOM      5  C   UNL     1      -1.752  37.848  17.780  1.00  0.00     0.041 C 
ATOM      6  O   UNL     1      -1.327  37.464  16.659  1.00  0.00    -0.550 OA
ATOM      7  O   UNL     1      -0.849  38.153  18.791  1.00  0.00    -0.550 OA
ENDBRANCH   4   5
ENDBRANCH   3   4
ENDBRANCH   2   3
ENDBRANCH   1   2
BRANCH   1   8
ATOM      8  C   UNL     1      -4.308  39.246  21.825  1.00  0.00     0.000 C 
BRANCH   8   9
ATOM      9  C   UNL     1      -4.694  39.588  23.271  1.00  0.00     0.006 C 
BRANCH   9  10
ATOM     10  C   UNL     1      -5.863  38.732  23.777  1.00  0.00     0.053 C 
BRANCH  10  11
ATOM     11  C   UNL     1      -5.524  38.025  25.055  1.00  0.00     0.041 C 
ATOM     12  O   UNL     1      -5.296  36.787  25.052  1.00  0.00    -0.550 OA
ATOM     13  O   UNL     1      -5.427  38.741  26.241  1.00  0.00    -0.550 OA
ENDBRANCH  10  11
ENDBRANCH   9  10
ENDBRANCH   8   9
ENDBRANCH   1   8
TORSDOF 8
ENDMDL
