MODEL 1
REMARK VINA RESULT:    -4.607      0.000      0.000
REMARK INTER + INTRA:          -7.426
REMARK INTER:                  -7.030
REMARK INTRA:                  -0.395
REMARK UNBOUND:                -0.395
REMARK SMILES O=C([O-])CCCCCCCCC(=O)[O-]
REMARK SMILES IDX 7 1 6 2 5 3 4 4 2 5 1 6 3 7 8 8 9 9 10 10 11 11 12 12 13 13
REMARK SMILES IDX 14 14
REMARK H PARENT
REMARK Flexibility Score: inf
ROOT
ATOM      1  C   UNL     1      13.268 -30.403  23.526  1.00  0.00     0.000 C 
ENDROOT
BRANCH   1   2
ATOM      2  C   UNL     1      13.539 -28.937  23.154  1.00  0.00     0.000 C 
BRANCH   2   3
ATOM      3  C   UNL     1      12.315 -28.059  23.456  1.00  0.00     0.006 C 
BRANCH   3   4
ATOM      4  C   UNL     1      12.492 -27.236  24.739  1.00  0.00     0.053 C 
BRANCH   4   5
ATOM      5  C   UNL     1      13.452 -26.102  24.546  1.00  0.00     0.041 C 
ATOM      6  O   UNL     1      14.284 -25.818  25.447  1.00  0.00    -0.550 OA
ATOM      7  O   UNL     1      13.450 -25.384  23.358  1.00  0.00    -0.550 OA
ENDBRANCH   4   5
ENDBRANCH   3   4
ENDBRANCH   2   3
ENDBRANCH   1   2
BRANCH   1   8
ATOM      8  C   UNL     1      13.936 -31.391  22.557  1.00  0.00     0.000 C 
BRANCH   8   9
ATOM      9  C   UNL     1      15.472 -31.360  22.646  1.00  0.00     0.000 C 
BRANCH   9  10
ATOM     10  C   UNL     1      16.098 -32.759  22.528  1.00  0.00     0.006 C 
BRANCH  10  11
ATOM     11  C   UNL     1      15.064 -33.841  22.192  1.00  0.00     0.053 C 
BRANCH  11  12
ATOM     12  C   UNL     1      15.285 -34.362  20.807  1.00  0.00     0.041 C 
ATOM     13  O   UNL     1      14.596 -33.924  19.848  1.00  0.00    -0.550 OA
ATOM     14  O   UNL     1      16.284 -35.297  20.567  1.00  0.00    -0.550 OA
ENDBRANCH  11  12
ENDBRANCH  10  11
ENDBRANCH   9  10
ENDBRANCH   8   9
ENDBRANCH   1   8
TORSDOF 9
ENDMDL
MODEL 2
REMARK VINA RESULT:    -4.587      1.598      2.430
REMARK INTER + INTRA:          -7.395
REMARK INTER:                  -6.934
REMARK INTRA:                  -0.461
REMARK UNBOUND:                -0.395
REMARK SMILES O=C([O-])CCCCCCCCC(=O)[O-]
REMARK SMILES IDX 7 1 6 2 5 3 4 4 2 5 1 6 3 7 8 8 9 9 10 10 11 11 12 12 13 13
REMARK SMILES IDX 14 14
REMARK H PARENT
REMARK Flexibility Score: inf
ROOT
ATOM      1  C   UNL     1      14.829 -31.073  23.145  1.00  0.00     0.000 C 
ENDROOT
BRANCH   1   2
ATOM      2  C   UNL     1      13.456 -31.422  22.551  1.00  0.00     0.000 C 
BRANCH   2   3
ATOM      3  C   UNL     1      12.565 -30.174  22.456  1.00  0.00     0.006 C 
BRANCH   3   4
ATOM      4  C   UNL     1      13.168 -28.971  23.196  1.00  0.00     0.053 C 
BRANCH   4   5
ATOM      5  C   UNL     1      12.107 -28.082  23.769  1.00  0.00     0.041 C 
ATOM      6  O   UNL     1      10.953 -28.068  23.265  1.00  0.00    -0.550 OA
ATOM      7  O   UNL     1      12.383 -27.294  24.879  1.00  0.00    -0.550 OA
ENDBRANCH   4   5
ENDBRANCH   3   4
ENDBRANCH   2   3
ENDBRANCH   1   2
BRANCH   1   8
ATOM      8  C   UNL     1      15.712 -32.312  23.359  1.00  0.00     0.000 C 
BRANCH   8   9
ATOM      9  C   UNL     1      15.019 -33.615  22.924  1.00  0.00     0.000 C 
BRANCH   9  10
ATOM     10  C   UNL     1      15.835 -34.398  21.883  1.00  0.00     0.006 C 
BRANCH  10  11
ATOM     11  C   UNL     1      15.145 -34.454  20.514  1.00  0.00     0.053 C 
BRANCH  11  12
ATOM     12  C   UNL     1      16.121 -34.856  19.454  1.00  0.00     0.041 C 
ATOM     13  O   UNL     1      16.719 -33.979  18.778  1.00  0.00    -0.550 OA
ATOM     14  O   UNL     1      16.405 -36.200  19.245  1.00  0.00    -0.550 OA
ENDBRANCH  11  12
ENDBRANCH  10  11
ENDBRANCH   9  10
ENDBRANCH   8   9
ENDBRANCH   1   8
TORSDOF 9
ENDMDL
MODEL 3
REMARK VINA RESULT:    -4.527      3.161      7.095
REMARK INTER + INTRA:          -7.304
REMARK INTER:                  -6.459
REMARK INTRA:                  -0.845
REMARK UNBOUND:                -0.395
REMARK SMILES O=C([O-])CCCCCCCCC(=O)[O-]
REMARK SMILES IDX 7 1 6 2 5 3 4 4 2 5 1 6 3 7 8 8 9 9 10 10 11 11 12 12 13 13
REMARK SMILES IDX 14 14
REMARK H PARENT
REMARK Flexibility Score: inf
ROOT
ATOM      1  C   UNL     1      15.970 -33.941  22.768  1.00  0.00     0.000 C 
ENDROOT
BRANCH   1   2
ATOM      2  C   UNL     1      15.301 -34.029  21.389  1.00  0.00     0.000 C 
BRANCH   2   3
ATOM      3  C   UNL     1      16.112 -33.260  20.335  1.00  0.00     0.006 C 
BRANCH   3   4
ATOM      4  C   UNL     1      16.433 -34.120  19.105  1.00  0.00     0.053 C 
BRANCH   4   5
ATOM      5  C   UNL     1      17.198 -35.355  19.473  1.00  0.00     0.041 C 
ATOM      6  O   UNL     1      18.284 -35.261  20.102  1.00  0.00    -0.550 OA
ATOM      7  O   UNL     1      16.693 -36.608  19.152  1.00  0.00    -0.550 OA
ENDBRANCH   4   5
ENDBRANCH   3   4
ENDBRANCH   2   3
ENDBRANCH   1   2
BRANCH   1   8
ATOM      8  C   UNL     1      15.551 -32.685  23.549  1.00  0.00     0.000 C 
BRANCH   8   9
ATOM      9  C   UNL     1      14.025 -32.495  23.587  1.00  0.00     0.000 C 
BRANCH   9  10
ATOM     10  C   UNL     1      13.616 -31.014  23.658  1.00  0.00     0.006 C 
BRANCH  10  11
ATOM     11  C   UNL     1      12.713 -30.597  22.490  1.00  0.00     0.053 C 
BRANCH  11  12
ATOM     12  C   UNL     1      13.435 -30.756  21.190  1.00  0.00     0.041 C 
ATOM     13  O   UNL     1      14.512 -30.138  20.983  1.00  0.00    -0.550 OA
ATOM     14  O   UNL     1      12.943 -31.625  20.223  1.00  0.00    -0.550 OA
ENDBRANCH  11  12
ENDBRANCH  10  11
ENDBRANCH   9  10
ENDBRANCH   8   9
ENDBRANCH   1   8
TORSDOF 9
ENDMDL
MODEL 4
REMARK VINA RESULT:    -4.516      3.095      4.306
REMARK INTER + INTRA:          -7.287
REMARK INTER:                  -6.520
REMARK INTRA:                  -0.766
REMARK UNBOUND:                -0.395
REMARK SMILES O=C([O-])CCCCCCCCC(=O)[O-]
REMARK SMILES IDX 7 1 6 2 5 3 4 4 2 5 1 6 3 7 8 8 9 9 10 10 11 11 12 12 13 13
REMARK SMILES IDX 14 14
REMARK H PARENT
REMARK Flexibility Score: inf
ROOT
ATOM      1  C   UNL     1      15.389 -33.995  22.698  1.00  0.00     0.000 C 
ENDROOT
BRANCH   1   2
ATOM      2  C   UNL     1      15.328 -32.592  23.319  1.00  0.00     0.000 C 
BRANCH   2   3
ATOM      3  C   UNL     1      13.888 -32.226  23.712  1.00  0.00     0.006 C 
BRANCH   3   4
ATOM      4  C   UNL     1      13.507 -30.807  23.269  1.00  0.00     0.053 C 
BRANCH   4   5
ATOM      5  C   UNL     1      13.577 -30.651  21.780  1.00  0.00     0.041 C 
ATOM      6  O   UNL     1      12.716 -31.202  21.045  1.00  0.00    -0.550 OA
ATOM      7  O   UNL     1      14.572 -29.870  21.208  1.00  0.00    -0.550 OA
ENDBRANCH   4   5
ENDBRANCH   3   4
ENDBRANCH   2   3
ENDBRANCH   1   2
BRANCH   1   8
ATOM      8  C   UNL     1      15.004 -33.999  21.210  1.00  0.00     0.000 C 
BRANCH   8   9
ATOM      9  C   UNL     1      16.008 -33.226  20.338  1.00  0.00     0.000 C 
BRANCH   9  10
ATOM     10  C   UNL     1      16.482 -34.039  19.122  1.00  0.00     0.006 C 
BRANCH  10  11
ATOM     11  C   UNL     1      17.805 -34.771  19.382  1.00  0.00     0.053 C 
BRANCH  11  12
ATOM     12  C   UNL     1      17.554 -36.219  19.659  1.00  0.00     0.041 C 
ATOM     13  O   UNL     1      17.634 -36.662  20.835  1.00  0.00    -0.550 OA
ATOM     14  O   UNL     1      17.186 -37.071  18.626  1.00  0.00    -0.550 OA
ENDBRANCH  11  12
ENDBRANCH  10  11
ENDBRANCH   9  10
ENDBRANCH   8   9
ENDBRANCH   1   8
TORSDOF 9
ENDMDL
MODEL 5
REMARK VINA RESULT:    -4.508      3.313      4.060
REMARK INTER + INTRA:          -7.275
REMARK INTER:                  -6.590
REMARK INTRA:                  -0.686
REMARK UNBOUND:                -0.395
REMARK SMILES O=C([O-])CCCCCCCCC(=O)[O-]
REMARK SMILES IDX 7 1 6 2 5 3 4 4 2 5 1 6 3 7 8 8 9 9 10 10 11 11 12 12 13 13
REMARK SMILES IDX 14 14
REMARK H PARENT
REMARK Flexibility Score: inf
ROOT
ATOM      1  C   UNL     1      13.100 -30.609  21.766  1.00  0.00     0.000 C 
ENDROOT
BRANCH   1   2
ATOM      2  C   UNL     1      14.120 -30.638  22.913  1.00  0.00     0.000 C 
BRANCH   2   3
ATOM      3  C   UNL     1      15.215 -29.581  22.702  1.00  0.00     0.006 C 
BRANCH   3   4
ATOM      4  C   UNL     1      16.623 -30.194  22.702  1.00  0.00     0.053 C 
BRANCH   4   5
ATOM      5  C   UNL     1      17.293 -30.049  21.370  1.00  0.00     0.041 C 
ATOM      6  O   UNL     1      17.280 -31.003  20.548  1.00  0.00    -0.550 OA
ATOM      7  O   UNL     1      17.900 -28.850  21.023  1.00  0.00    -0.550 OA
ENDBRANCH   4   5
ENDBRANCH   3   4
ENDBRANCH   2   3
ENDBRANCH   1   2
BRANCH   1   8
ATOM      8  C   UNL     1      13.415 -31.638  20.668  1.00  0.00     0.000 C 
BRANCH   8   9
ATOM      9  C   UNL     1      14.256 -32.817  21.188  1.00  0.00     0.000 C 
BRANCH   9  10
ATOM     10  C   UNL     1      14.682 -33.777  20.065  1.00  0.00     0.006 C 
BRANCH  10  11
ATOM     11  C   UNL     1      15.839 -34.694  20.482  1.00  0.00     0.053 C 
BRANCH  11  12
ATOM     12  C   UNL     1      16.711 -35.001  19.306  1.00  0.00     0.041 C 
ATOM     13  O   UNL     1      16.854 -36.190  18.917  1.00  0.00    -0.550 OA
ATOM     14  O   UNL     1      17.329 -33.969  18.611  1.00  0.00    -0.550 OA
ENDBRANCH  11  12
ENDBRANCH  10  11
ENDBRANCH   9  10
ENDBRANCH   8   9
ENDBRANCH   1   8
TORSDOF 9
ENDMDL
MODEL 6
REMARK VINA RESULT:    -4.501      3.117      6.839
REMARK INTER + INTRA:          -7.264
REMARK INTER:                  -6.493
REMARK INTRA:                  -0.771
REMARK UNBOUND:                -0.395
REMARK SMILES O=C([O-])CCCCCCCCC(=O)[O-]
REMARK SMILES IDX 7 1 6 2 5 3 4 4 2 5 1 6 3 7 8 8 9 9 10 10 11 11 12 12 13 13
REMARK SMILES IDX 14 14
REMARK H PARENT
REMARK Flexibility Score: inf
ROOT
ATOM      1  C   UNL     1      15.067 -34.467  20.102  1.00  0.00     0.000 C 
ENDROOT
BRANCH   1   2
ATOM      2  C   UNL     1      16.288 -35.044  19.372  1.00  0.00     0.000 C 
BRANCH   2   3
ATOM      3  C   UNL     1      17.171 -33.922  18.805  1.00  0.00     0.006 C 
BRANCH   3   4
ATOM      4  C   UNL     1      18.509 -33.804  19.547  1.00  0.00     0.053 C 
BRANCH   4   5
ATOM      5  C   UNL     1      18.592 -32.542  20.350  1.00  0.00     0.041 C 
ATOM      6  O   UNL     1      19.615 -32.299  21.043  1.00  0.00    -0.550 OA
ATOM      7  O   UNL     1      17.556 -31.619  20.304  1.00  0.00    -0.550 OA
ENDBRANCH   4   5
ENDBRANCH   3   4
ENDBRANCH   2   3
ENDBRANCH   1   2
BRANCH   1   8
ATOM      8  C   UNL     1      15.343 -34.190  21.588  1.00  0.00     0.000 C 
BRANCH   8   9
ATOM      9  C   UNL     1      14.677 -32.894  22.082  1.00  0.00     0.000 C 
BRANCH   9  10
ATOM     10  C   UNL     1      13.922 -32.156  20.964  1.00  0.00     0.006 C 
BRANCH  10  11
ATOM     11  C   UNL     1      13.815 -30.647  21.222  1.00  0.00     0.053 C 
BRANCH  11  12
ATOM     12  C   UNL     1      12.782 -30.369  22.268  1.00  0.00     0.041 C 
ATOM     13  O   UNL     1      13.132 -30.065  23.438  1.00  0.00    -0.550 OA
ATOM     14  O   UNL     1      11.433 -30.398  21.938  1.00  0.00    -0.550 OA
ENDBRANCH  11  12
ENDBRANCH  10  11
ENDBRANCH   9  10
ENDBRANCH   8   9
ENDBRANCH   1   8
TORSDOF 9
ENDMDL
MODEL 7
REMARK VINA RESULT:    -4.491      3.316      6.700
REMARK INTER + INTRA:          -7.250
REMARK INTER:                  -6.353
REMARK INTRA:                  -0.897
REMARK UNBOUND:                -0.395
REMARK SMILES O=C([O-])CCCCCCCCC(=O)[O-]
REMARK SMILES IDX 7 1 6 2 5 3 4 4 2 5 1 6 3 7 8 8 9 9 10 10 11 11 12 12 13 13
REMARK SMILES IDX 14 14
REMARK H PARENT
REMARK Flexibility Score: inf
ROOT
ATOM      1  C   UNL     1      18.822 -32.478  20.603  1.00  0.00     0.000 C 
ENDROOT
BRANCH   1   2
ATOM      2  C   UNL     1      18.489 -33.803  19.902  1.00  0.00     0.000 C 
BRANCH   2   3
ATOM      3  C   UNL     1      17.177 -33.691  19.110  1.00  0.00     0.006 C 
BRANCH   3   4
ATOM      4  C   UNL     1      16.135 -34.723  19.563  1.00  0.00     0.053 C 
BRANCH   4   5
ATOM      5  C   UNL     1      15.072 -34.102  20.417  1.00  0.00     0.041 C 
ATOM      6  O   UNL     1      15.084 -34.270  21.665  1.00  0.00    -0.550 OA
ATOM      7  O   UNL     1      14.088 -33.311  19.838  1.00  0.00    -0.550 OA
ENDBRANCH   4   5
ENDBRANCH   3   4
ENDBRANCH   2   3
ENDBRANCH   1   2
BRANCH   1   8
ATOM      8  C   UNL     1      17.689 -31.446  20.485  1.00  0.00     0.000 C 
BRANCH   8   9
ATOM      9  C   UNL     1      17.106 -31.050  21.853  1.00  0.00     0.000 C 
BRANCH   9  10
ATOM     10  C   UNL     1      15.613 -30.690  21.776  1.00  0.00     0.006 C 
BRANCH  10  11
ATOM     11  C   UNL     1      14.956 -30.605  23.159  1.00  0.00     0.053 C 
BRANCH  11  12
ATOM     12  C   UNL     1      13.691 -31.404  23.187  1.00  0.00     0.041 C 
ATOM     13  O   UNL     1      13.506 -32.265  24.086  1.00  0.00    -0.550 OA
ATOM     14  O   UNL     1      12.697 -31.165  22.247  1.00  0.00    -0.550 OA
ENDBRANCH  11  12
ENDBRANCH  10  11
ENDBRANCH   9  10
ENDBRANCH   8   9
ENDBRANCH   1   8
TORSDOF 9
ENDMDL
MODEL 8
REMARK VINA RESULT:    -4.481      2.739      4.219
REMARK INTER + INTRA:          -7.235
REMARK INTER:                  -6.382
REMARK INTRA:                  -0.853
REMARK UNBOUND:                -0.395
REMARK SMILES O=C([O-])CCCCCCCCC(=O)[O-]
REMARK SMILES IDX 7 1 6 2 5 3 4 4 2 5 1 6 3 7 8 8 9 9 10 10 11 11 12 12 13 13
REMARK SMILES IDX 14 14
REMARK H PARENT
REMARK Flexibility Score: inf
ROOT
ATOM      1  C   UNL     1      14.206 -32.891  20.888  1.00  0.00     0.000 C 
ENDROOT
BRANCH   1   2
ATOM      2  C   UNL     1      14.853 -33.375  22.194  1.00  0.00     0.000 C 
BRANCH   2   3
ATOM      3  C   UNL     1      14.971 -32.226  23.207  1.00  0.00     0.006 C 
BRANCH   3   4
ATOM      4  C   UNL     1      13.606 -31.618  23.557  1.00  0.00     0.053 C 
BRANCH   4   5
ATOM      5  C   UNL     1      13.564 -30.146  23.278  1.00  0.00     0.041 C 
ATOM      6  O   UNL     1      12.794 -29.399  23.937  1.00  0.00    -0.550 OA
ATOM      7  O   UNL     1      14.400 -29.597  22.315  1.00  0.00    -0.550 OA
ENDBRANCH   4   5
ENDBRANCH   3   4
ENDBRANCH   2   3
ENDBRANCH   1   2
BRANCH   1   8
ATOM      8  C   UNL     1      14.573 -33.774  19.684  1.00  0.00     0.000 C 
BRANCH   8   9
ATOM      9  C   UNL     1      15.895 -34.534  19.890  1.00  0.00     0.000 C 
BRANCH   9  10
ATOM     10  C   UNL     1      17.012 -34.038  18.958  1.00  0.00     0.006 C 
BRANCH  10  11
ATOM     11  C   UNL     1      18.312 -33.725  19.711  1.00  0.00     0.053 C 
BRANCH  11  12
ATOM     12  C   UNL     1      18.078 -32.659  20.734  1.00  0.00     0.041 C 
ATOM     13  O   UNL     1      18.422 -32.843  21.931  1.00  0.00    -0.550 OA
ATOM     14  O   UNL     1      17.524 -31.443  20.356  1.00  0.00    -0.550 OA
ENDBRANCH  11  12
ENDBRANCH  10  11
ENDBRANCH   9  10
ENDBRANCH   8   9
ENDBRANCH   1   8
TORSDOF 9
ENDMDL
MODEL 9
REMARK VINA RESULT:    -4.457      1.761      7.776
REMARK INTER + INTRA:          -7.197
REMARK INTER:                  -6.761
REMARK INTRA:                  -0.436
REMARK UNBOUND:                -0.395
REMARK SMILES O=C([O-])CCCCCCCCC(=O)[O-]
REMARK SMILES IDX 7 1 6 2 5 3 4 4 2 5 1 6 3 7 8 8 9 9 10 10 11 11 12 12 13 13
REMARK SMILES IDX 14 14
REMARK H PARENT
REMARK Flexibility Score: inf
ROOT
ATOM      1  C   UNL     1      15.365 -32.287  21.786  1.00  0.00     0.000 C 
ENDROOT
BRANCH   1   2
ATOM      2  C   UNL     1      14.979 -33.753  21.539  1.00  0.00     0.000 C 
BRANCH   2   3
ATOM      3  C   UNL     1      14.883 -34.050  20.034  1.00  0.00     0.006 C 
BRANCH   3   4
ATOM      4  C   UNL     1      16.262 -34.102  19.362  1.00  0.00     0.053 C 
BRANCH   4   5
ATOM      5  C   UNL     1      16.963 -35.399  19.629  1.00  0.00     0.041 C 
ATOM      6  O   UNL     1      16.681 -36.421  18.949  1.00  0.00    -0.550 OA
ATOM      7  O   UNL     1      17.949 -35.470  20.603  1.00  0.00    -0.550 OA
ENDBRANCH   4   5
ENDBRANCH   3   4
ENDBRANCH   2   3
ENDBRANCH   1   2
BRANCH   1   8
ATOM      8  C   UNL     1      15.086 -31.838  23.229  1.00  0.00     0.000 C 
BRANCH   8   9
ATOM      9  C   UNL     1      13.585 -31.653  23.511  1.00  0.00     0.000 C 
BRANCH   9  10
ATOM     10  C   UNL     1      12.968 -30.507  22.694  1.00  0.00     0.006 C 
BRANCH  10  11
ATOM     11  C   UNL     1      13.431 -29.125  23.174  1.00  0.00     0.053 C 
BRANCH  11  12
ATOM     12  C   UNL     1      12.273 -28.344  23.708  1.00  0.00     0.041 C 
ATOM     13  O   UNL     1      12.438 -27.538  24.661  1.00  0.00    -0.550 OA
ATOM     14  O   UNL     1      11.020 -28.469  23.122  1.00  0.00    -0.550 OA
ENDBRANCH  11  12
ENDBRANCH  10  11
ENDBRANCH   9  10
ENDBRANCH   8   9
ENDBRANCH   1   8
TORSDOF 9
ENDMDL
