MODEL 1
REMARK VINA RESULT:    -4.045      0.000      0.000
REMARK INTER + INTRA:          -5.558
REMARK INTER:                  -5.228
REMARK INTRA:                  -0.330
REMARK UNBOUND:                -0.330
REMARK SMILES CCO[C@@H]1O[C@@H](CO)[C@@H](O)[C@@H](O)[C@H]1O
REMARK SMILES IDX 4 1 13 2 11 3 9 4 6 5 5 6 3 7 2 8 1 9 14 10 12 12 7 14 8 15
REMARK SMILES IDX 10 17
REMARK H PARENT 14 11 12 13 8 16 10 18
REMARK Flexibility Score: inf
ROOT
ATOM      1  C   UNL     1       8.137  -6.141  -1.844  1.00  0.00     0.281 C 
ATOM      2  C   UNL     1       9.554  -5.540  -1.965  1.00  0.00     0.202 C 
ATOM      3  C   UNL     1       9.501  -4.193  -2.716  1.00  0.00     0.179 C 
ATOM      4  C   UNL     1       8.434  -3.270  -2.101  1.00  0.00     0.177 C 
ATOM      5  C   UNL     1       7.095  -4.037  -2.014  1.00  0.00     0.178 C 
ATOM      6  O   UNL     1       7.241  -5.219  -1.240  1.00  0.00    -0.341 OA
ENDROOT
BRANCH   1   7
ATOM      7  O   UNL     1       7.647  -6.537  -3.120  1.00  0.00    -0.350 OA
BRANCH   7   8
ATOM      8  C   UNL     1       6.701  -7.580  -3.002  1.00  0.00     0.160 C 
ATOM      9  C   UNL     1       7.199  -8.593  -1.984  1.00  0.00     0.035 C 
ENDBRANCH   7   8
ENDBRANCH   1   7
BRANCH   2  10
ATOM     10  O   UNL     1      10.089  -5.366  -0.676  1.00  0.00    -0.385 OA
ATOM     11  H   UNL     1      11.074  -5.464  -0.754  1.00  0.00     0.211 HD
ENDBRANCH   2  10
BRANCH   3  12
ATOM     12  O   UNL     1      10.753  -3.558  -2.694  1.00  0.00    -0.387 OA
ATOM     13  H   UNL     1      11.090  -3.557  -3.628  1.00  0.00     0.211 HD
ENDBRANCH   3  12
BRANCH   5  14
ATOM     14  C   UNL     1       5.992  -3.175  -1.385  1.00  0.00     0.191 C 
BRANCH  14  15
ATOM     15  O   UNL     1       5.784  -3.549  -0.052  1.00  0.00    -0.394 OA
ATOM     16  H   UNL     1       6.652  -3.905   0.273  1.00  0.00     0.210 HD
ENDBRANCH  14  15
ENDBRANCH   5  14
BRANCH   4  17
ATOM     17  O   UNL     1       8.829  -2.848  -0.818  1.00  0.00    -0.387 OA
ATOM     18  H   UNL     1       8.065  -3.021  -0.208  1.00  0.00     0.211 HD
ENDBRANCH   4  17
TORSDOF 7
ENDMDL
MODEL 2
REMARK VINA RESULT:    -3.583      1.652      3.962
REMARK INTER + INTRA:          -4.960
REMARK INTER:                  -4.593
REMARK INTRA:                  -0.368
REMARK UNBOUND:                -0.330
REMARK SMILES CCO[C@@H]1O[C@@H](CO)[C@@H](O)[C@@H](O)[C@H]1O
REMARK SMILES IDX 4 1 13 2 11 3 9 4 6 5 5 6 3 7 2 8 1 9 14 10 12 12 7 14 8 15
REMARK SMILES IDX 10 17
REMARK H PARENT 14 11 12 13 8 16 10 18
REMARK Flexibility Score: inf
ROOT
ATOM      1  C   UNL     1       6.786  -3.181  -2.447  1.00  0.00     0.281 C 
ATOM      2  C   UNL     1       7.668  -2.681  -1.282  1.00  0.00     0.202 C 
ATOM      3  C   UNL     1       8.009  -3.848  -0.330  1.00  0.00     0.179 C 
ATOM      4  C   UNL     1       8.560  -5.048  -1.119  1.00  0.00     0.177 C 
ATOM      5  C   UNL     1       7.584  -5.389  -2.268  1.00  0.00     0.178 C 
ATOM      6  O   UNL     1       7.401  -4.269  -3.123  1.00  0.00    -0.341 OA
ENDROOT
BRANCH   1   7
ATOM      7  O   UNL     1       5.498  -3.560  -1.977  1.00  0.00    -0.350 OA
BRANCH   7   8
ATOM      8  C   UNL     1       4.675  -2.429  -1.777  1.00  0.00     0.160 C 
ATOM      9  C   UNL     1       3.245  -2.779  -2.155  1.00  0.00     0.035 C 
ENDBRANCH   7   8
ENDBRANCH   1   7
BRANCH   2  10
ATOM     10  O   UNL     1       8.843  -2.114  -1.807  1.00  0.00    -0.385 OA
ATOM     11  H   UNL     1       9.052  -1.316  -1.254  1.00  0.00     0.211 HD
ENDBRANCH   2  10
BRANCH   3  12
ATOM     12  O   UNL     1       8.937  -3.446   0.643  1.00  0.00    -0.387 OA
ATOM     13  H   UNL     1       9.517  -4.231   0.827  1.00  0.00     0.211 HD
ENDBRANCH   3  12
BRANCH   5  14
ATOM     14  C   UNL     1       8.092  -6.567  -3.109  1.00  0.00     0.191 C 
BRANCH  14  15
ATOM     15  O   UNL     1       8.737  -7.504  -2.292  1.00  0.00    -0.394 OA
ATOM     16  H   UNL     1       9.462  -7.011  -1.825  1.00  0.00     0.210 HD
ENDBRANCH  14  15
ENDBRANCH   5  14
BRANCH   4  17
ATOM     17  O   UNL     1       9.831  -4.749  -1.644  1.00  0.00    -0.387 OA
ATOM     18  H   UNL     1       9.695  -4.105  -2.386  1.00  0.00     0.211 HD
ENDBRANCH   4  17
TORSDOF 7
ENDMDL
MODEL 3
REMARK VINA RESULT:    -3.021      1.479      3.346
REMARK INTER + INTRA:          -4.234
REMARK INTER:                  -4.076
REMARK INTRA:                  -0.158
REMARK UNBOUND:                -0.330
REMARK SMILES CCO[C@@H]1O[C@@H](CO)[C@@H](O)[C@@H](O)[C@H]1O
REMARK SMILES IDX 4 1 13 2 11 3 9 4 6 5 5 6 3 7 2 8 1 9 14 10 12 12 7 14 8 15
REMARK SMILES IDX 10 17
REMARK H PARENT 14 11 12 13 8 16 10 18
REMARK Flexibility Score: inf
ROOT
ATOM      1  C   UNL     1       7.654  -6.028  -2.537  1.00  0.00     0.281 C 
ATOM      2  C   UNL     1       6.521  -5.288  -1.792  1.00  0.00     0.202 C 
ATOM      3  C   UNL     1       7.112  -4.305  -0.760  1.00  0.00     0.179 C 
ATOM      4  C   UNL     1       8.180  -3.410  -1.412  1.00  0.00     0.177 C 
ATOM      5  C   UNL     1       9.207  -4.301  -2.146  1.00  0.00     0.178 C 
ATOM      6  O   UNL     1       8.565  -5.108  -3.123  1.00  0.00    -0.341 OA
ENDROOT
BRANCH   1   7
ATOM      7  O   UNL     1       8.343  -6.909  -1.658  1.00  0.00    -0.350 OA
BRANCH   7   8
ATOM      8  C   UNL     1       7.578  -8.066  -1.391  1.00  0.00     0.160 C 
ATOM      9  C   UNL     1       8.456  -9.097  -0.701  1.00  0.00     0.035 C 
ENDBRANCH   7   8
ENDBRANCH   1   7
BRANCH   2  10
ATOM     10  O   UNL     1       5.730  -4.601  -2.730  1.00  0.00    -0.385 OA
ATOM     11  H   UNL     1       4.887  -4.349  -2.270  1.00  0.00     0.211 HD
ENDBRANCH   2  10
BRANCH   3  12
ATOM     12  O   UNL     1       6.104  -3.512  -0.189  1.00  0.00    -0.387 OA
ATOM     13  H   UNL     1       6.453  -2.583  -0.161  1.00  0.00     0.211 HD
ENDBRANCH   3  12
BRANCH   5  14
ATOM     14  C   UNL     1      10.288  -3.462  -2.839  1.00  0.00     0.191 C 
BRANCH  14  15
ATOM     15  O   UNL     1      11.532  -4.099  -2.744  1.00  0.00    -0.394 OA
ATOM     16  H   UNL     1      11.543  -4.553  -1.860  1.00  0.00     0.210 HD
ENDBRANCH  14  15
ENDBRANCH   5  14
BRANCH   4  17
ATOM     17  O   UNL     1       7.584  -2.517  -2.321  1.00  0.00    -0.387 OA
ATOM     18  H   UNL     1       8.291  -2.237  -2.959  1.00  0.00     0.211 HD
ENDBRANCH   4  17
TORSDOF 7
ENDMDL
MODEL 4
REMARK VINA RESULT:    -2.952      3.630      5.193
REMARK INTER + INTRA:          -4.145
REMARK INTER:                  -3.761
REMARK INTRA:                  -0.383
REMARK UNBOUND:                -0.330
REMARK SMILES CCO[C@@H]1O[C@@H](CO)[C@@H](O)[C@@H](O)[C@H]1O
REMARK SMILES IDX 4 1 13 2 11 3 9 4 6 5 5 6 3 7 2 8 1 9 14 10 12 12 7 14 8 15
REMARK SMILES IDX 10 17
REMARK H PARENT 14 11 12 13 8 16 10 18
REMARK Flexibility Score: inf
ROOT
ATOM      1  C   UNL     1      13.179  -7.201  -1.868  1.00  0.00     0.281 C 
ATOM      2  C   UNL     1      13.237  -5.659  -1.904  1.00  0.00     0.202 C 
ATOM      3  C   UNL     1      12.140  -5.104  -2.837  1.00  0.00     0.179 C 
ATOM      4  C   UNL     1      10.771  -5.714  -2.488  1.00  0.00     0.177 C 
ATOM      5  C   UNL     1      10.899  -7.253  -2.452  1.00  0.00     0.178 C 
ATOM      6  O   UNL     1      11.882  -7.656  -1.509  1.00  0.00    -0.341 OA
ENDROOT
BRANCH   1   7
ATOM      7  O   UNL     1      13.561  -7.749  -3.124  1.00  0.00    -0.350 OA
BRANCH   7   8
ATOM      8  C   UNL     1      14.622  -8.670  -2.978  1.00  0.00     0.160 C 
ATOM      9  C   UNL     1      15.945  -7.933  -3.121  1.00  0.00     0.035 C 
ENDBRANCH   7   8
ENDBRANCH   1   7
BRANCH   2  10
ATOM     10  O   UNL     1      13.071  -5.164  -0.598  1.00  0.00    -0.385 OA
ATOM     11  H   UNL     1      12.210  -5.524  -0.259  1.00  0.00     0.211 HD
ENDBRANCH   2  10
BRANCH   3  12
ATOM     12  O   UNL     1      12.076  -3.704  -2.758  1.00  0.00    -0.387 OA
ATOM     13  H   UNL     1      11.139  -3.474  -2.523  1.00  0.00     0.211 HD
ENDBRANCH   3  12
BRANCH   5  14
ATOM     14  C   UNL     1       9.568  -7.922  -2.085  1.00  0.00     0.191 C 
BRANCH  14  15
ATOM     15  O   UNL     1       9.374  -7.888  -0.699  1.00  0.00    -0.394 OA
ATOM     16  H   UNL     1       9.187  -8.824  -0.424  1.00  0.00     0.210 HD
ENDBRANCH  14  15
ENDBRANCH   5  14
BRANCH   4  17
ATOM     17  O   UNL     1      10.326  -5.241  -1.240  1.00  0.00    -0.387 OA
ATOM     18  H   UNL     1       9.951  -4.335  -1.390  1.00  0.00     0.211 HD
ENDBRANCH   4  17
TORSDOF 7
ENDMDL
MODEL 5
REMARK VINA RESULT:    -2.916      1.703      3.612
REMARK INTER + INTRA:          -4.098
REMARK INTER:                  -3.691
REMARK INTRA:                  -0.407
REMARK UNBOUND:                -0.330
REMARK SMILES CCO[C@@H]1O[C@@H](CO)[C@@H](O)[C@@H](O)[C@H]1O
REMARK SMILES IDX 4 1 13 2 11 3 9 4 6 5 5 6 3 7 2 8 1 9 14 10 12 12 7 14 8 15
REMARK SMILES IDX 10 17
REMARK H PARENT 14 11 12 13 8 16 10 18
REMARK Flexibility Score: inf
ROOT
ATOM      1  C   UNL     1       9.885  -4.983  -1.933  1.00  0.00     0.281 C 
ATOM      2  C   UNL     1       9.239  -3.580  -1.927  1.00  0.00     0.202 C 
ATOM      3  C   UNL     1       8.143  -3.491  -3.010  1.00  0.00     0.179 C 
ATOM      4  C   UNL     1       7.169  -4.677  -2.895  1.00  0.00     0.177 C 
ATOM      5  C   UNL     1       7.977  -5.994  -2.872  1.00  0.00     0.178 C 
ATOM      6  O   UNL     1       8.902  -5.999  -1.793  1.00  0.00    -0.341 OA
ENDROOT
BRANCH   1   7
ATOM      7  O   UNL     1      10.636  -5.187  -3.124  1.00  0.00    -0.350 OA
BRANCH   7   8
ATOM      8  C   UNL     1      11.814  -4.407  -3.125  1.00  0.00     0.160 C 
ATOM      9  C   UNL     1      12.893  -5.135  -2.340  1.00  0.00     0.035 C 
ENDBRANCH   7   8
ENDBRANCH   1   7
BRANCH   2  10
ATOM     10  O   UNL     1       8.695  -3.332  -0.654  1.00  0.00    -0.385 OA
ATOM     11  H   UNL     1       7.943  -3.968  -0.530  1.00  0.00     0.211 HD
ENDBRANCH   2  10
BRANCH   3  12
ATOM     12  O   UNL     1       7.439  -2.281  -2.913  1.00  0.00    -0.387 OA
ATOM     13  H   UNL     1       7.192  -2.170  -1.957  1.00  0.00     0.211 HD
ENDBRANCH   3  12
BRANCH   5  14
ATOM     14  C   UNL     1       7.060  -7.216  -2.735  1.00  0.00     0.191 C 
BRANCH  14  15
ATOM     15  O   UNL     1       6.941  -7.585  -1.389  1.00  0.00    -0.394 OA
ATOM     16  H   UNL     1       7.369  -8.478  -1.309  1.00  0.00     0.210 HD
ENDBRANCH  14  15
ENDBRANCH   5  14
BRANCH   4  17
ATOM     17  O   UNL     1       6.398  -4.568  -1.724  1.00  0.00    -0.387 OA
ATOM     18  H   UNL     1       6.468  -5.436  -1.248  1.00  0.00     0.211 HD
ENDBRANCH   4  17
TORSDOF 7
ENDMDL
MODEL 6
REMARK VINA RESULT:    -2.863      2.318      4.627
REMARK INTER + INTRA:          -4.030
REMARK INTER:                  -3.606
REMARK INTRA:                  -0.424
REMARK UNBOUND:                -0.330
REMARK SMILES CCO[C@@H]1O[C@@H](CO)[C@@H](O)[C@@H](O)[C@H]1O
REMARK SMILES IDX 4 1 13 2 11 3 9 4 6 5 5 6 3 7 2 8 1 9 14 10 12 12 7 14 8 15
REMARK SMILES IDX 10 17
REMARK H PARENT 14 11 12 13 8 16 10 18
REMARK Flexibility Score: inf
ROOT
ATOM      1  C   UNL     1       9.445  -5.476  -1.647  1.00  0.00     0.281 C 
ATOM      2  C   UNL     1       9.389  -7.015  -1.762  1.00  0.00     0.202 C 
ATOM      3  C   UNL     1      10.151  -7.486  -3.019  1.00  0.00     0.179 C 
ATOM      4  C   UNL     1      11.557  -6.863  -3.067  1.00  0.00     0.177 C 
ATOM      5  C   UNL     1      11.436  -5.332  -2.896  1.00  0.00     0.178 C 
ATOM      6  O   UNL     1      10.788  -5.011  -1.673  1.00  0.00    -0.341 OA
ENDROOT
BRANCH   1   7
ATOM      7  O   UNL     1       8.694  -4.866  -2.689  1.00  0.00    -0.350 OA
BRANCH   7   8
ATOM      8  C   UNL     1       8.110  -3.654  -2.254  1.00  0.00     0.160 C 
ATOM      9  C   UNL     1       7.488  -3.864  -0.883  1.00  0.00     0.035 C 
ENDBRANCH   7   8
ENDBRANCH   1   7
BRANCH   2  10
ATOM     10  O   UNL     1       9.951  -7.581  -0.603  1.00  0.00    -0.385 OA
ATOM     11  H   UNL     1      10.925  -7.679  -0.771  1.00  0.00     0.211 HD
ENDBRANCH   2  10
BRANCH   3  12
ATOM     12  O   UNL     1      10.245  -8.886  -3.052  1.00  0.00    -0.387 OA
ATOM     13  H   UNL     1       9.327  -9.231  -3.208  1.00  0.00     0.211 HD
ENDBRANCH   3  12
BRANCH   5  14
ATOM     14  C   UNL     1      12.812  -4.652  -2.911  1.00  0.00     0.191 C 
BRANCH  14  15
ATOM     15  O   UNL     1      13.364  -4.643  -1.624  1.00  0.00    -0.394 OA
ATOM     16  H   UNL     1      13.443  -3.687  -1.365  1.00  0.00     0.210 HD
ENDBRANCH  14  15
ENDBRANCH   5  14
BRANCH   4  17
ATOM     17  O   UNL     1      12.366  -7.396  -2.047  1.00  0.00    -0.387 OA
ATOM     18  H   UNL     1      13.238  -7.630  -2.461  1.00  0.00     0.211 HD
ENDBRANCH   4  17
TORSDOF 7
ENDMDL
MODEL 7
REMARK VINA RESULT:    -2.771      2.561      3.831
REMARK INTER + INTRA:          -3.911
REMARK INTER:                  -3.554
REMARK INTRA:                  -0.357
REMARK UNBOUND:                -0.330
REMARK SMILES CCO[C@@H]1O[C@@H](CO)[C@@H](O)[C@@H](O)[C@H]1O
REMARK SMILES IDX 4 1 13 2 11 3 9 4 6 5 5 6 3 7 2 8 1 9 14 10 12 12 7 14 8 15
REMARK SMILES IDX 10 17
REMARK H PARENT 14 11 12 13 8 16 10 18
REMARK Flexibility Score: inf
ROOT
ATOM      1  C   UNL     1      11.089  -7.635  -1.619  1.00  0.00     0.281 C 
ATOM      2  C   UNL     1      11.297  -6.109  -1.504  1.00  0.00     0.202 C 
ATOM      3  C   UNL     1      10.371  -5.367  -2.491  1.00  0.00     0.179 C 
ATOM      4  C   UNL     1       8.920  -5.857  -2.347  1.00  0.00     0.177 C 
ATOM      5  C   UNL     1       8.896  -7.399  -2.443  1.00  0.00     0.178 C 
ATOM      6  O   UNL     1       9.721  -7.979  -1.442  1.00  0.00    -0.341 OA
ENDROOT
BRANCH   1   7
ATOM      7  O   UNL     1      11.557  -8.114  -2.873  1.00  0.00    -0.350 OA
BRANCH   7   8
ATOM      8  C   UNL     1      12.531  -9.124  -2.703  1.00  0.00     0.160 C 
ATOM      9  C   UNL     1      13.883  -8.476  -2.456  1.00  0.00     0.035 C 
ENDBRANCH   7   8
ENDBRANCH   1   7
BRANCH   2  10
ATOM     10  O   UNL     1      11.030  -5.709  -0.182  1.00  0.00    -0.385 OA
ATOM     11  H   UNL     1      10.380  -4.960  -0.231  1.00  0.00     0.211 HD
ENDBRANCH   2  10
BRANCH   3  12
ATOM     12  O   UNL     1      10.432  -3.979  -2.288  1.00  0.00    -0.387 OA
ATOM     13  H   UNL     1       9.545  -3.703  -1.937  1.00  0.00     0.211 HD
ENDBRANCH   3  12
BRANCH   5  14
ATOM     14  C   UNL     1       7.473  -7.952  -2.282  1.00  0.00     0.191 C 
BRANCH  14  15
ATOM     15  O   UNL     1       6.533  -7.000  -2.697  1.00  0.00    -0.394 OA
ATOM     16  H   UNL     1       6.196  -7.312  -3.578  1.00  0.00     0.210 HD
ENDBRANCH  14  15
ENDBRANCH   5  14
BRANCH   4  17
ATOM     17  O   UNL     1       8.382  -5.445  -1.114  1.00  0.00    -0.387 OA
ATOM     18  H   UNL     1       8.223  -6.265  -0.578  1.00  0.00     0.211 HD
ENDBRANCH   4  17
TORSDOF 7
ENDMDL
MODEL 8
REMARK VINA RESULT:    -2.769      4.162      6.250
REMARK INTER + INTRA:          -3.909
REMARK INTER:                  -3.510
REMARK INTRA:                  -0.399
REMARK UNBOUND:                -0.330
REMARK SMILES CCO[C@@H]1O[C@@H](CO)[C@@H](O)[C@@H](O)[C@H]1O
REMARK SMILES IDX 4 1 13 2 11 3 9 4 6 5 5 6 3 7 2 8 1 9 14 10 12 12 7 14 8 15
REMARK SMILES IDX 10 17
REMARK H PARENT 14 11 12 13 8 16 10 18
REMARK Flexibility Score: inf
ROOT
ATOM      1  C   UNL     1      13.481  -7.813  -2.394  1.00  0.00     0.281 C 
ATOM      2  C   UNL     1      12.017  -8.048  -1.964  1.00  0.00     0.202 C 
ATOM      3  C   UNL     1      11.495  -6.839  -1.159  1.00  0.00     0.179 C 
ATOM      4  C   UNL     1      11.768  -5.526  -1.913  1.00  0.00     0.177 C 
ATOM      5  C   UNL     1      13.262  -5.470  -2.305  1.00  0.00     0.178 C 
ATOM      6  O   UNL     1      13.615  -6.590  -3.105  1.00  0.00    -0.341 OA
ENDROOT
BRANCH   1   7
ATOM      7  O   UNL     1      14.346  -7.820  -1.264  1.00  0.00    -0.350 OA
BRANCH   7   8
ATOM      8  C   UNL     1      15.569  -8.462  -1.562  1.00  0.00     0.160 C 
ATOM      9  C   UNL     1      16.702  -7.456  -1.443  1.00  0.00     0.035 C 
ENDBRANCH   7   8
ENDBRANCH   1   7
BRANCH   2  10
ATOM     10  O   UNL     1      11.230  -8.253  -3.112  1.00  0.00    -0.385 OA
ATOM     11  H   UNL     1      11.201  -7.390  -3.602  1.00  0.00     0.211 HD
ENDBRANCH   2  10
BRANCH   3  12
ATOM     12  O   UNL     1      10.122  -6.966  -0.898  1.00  0.00    -0.387 OA
ATOM     13  H   UNL     1       9.658  -6.313  -1.486  1.00  0.00     0.211 HD
ENDBRANCH   3  12
BRANCH   5  14
ATOM     14  C   UNL     1      13.594  -4.190  -3.084  1.00  0.00     0.191 C 
BRANCH  14  15
ATOM     15  O   UNL     1      12.644  -3.197  -2.813  1.00  0.00    -0.394 OA
ATOM     16  H   UNL     1      11.810  -3.481  -3.272  1.00  0.00     0.210 HD
ENDBRANCH  14  15
ENDBRANCH   5  14
BRANCH   4  17
ATOM     17  O   UNL     1      10.967  -5.446  -3.067  1.00  0.00    -0.387 OA
ATOM     18  H   UNL     1      10.376  -6.243  -3.065  1.00  0.00     0.211 HD
ENDBRANCH   4  17
TORSDOF 7
ENDMDL
