MODEL 1
REMARK VINA RESULT:    -1.537      0.000      0.000
REMARK INTER + INTRA:          -1.692
REMARK INTER:                  -2.256
REMARK INTRA:                   0.563
REMARK UNBOUND:                 0.563
REMARK SMILES C=C1CC=CC(C)(C)CC=C(C)CCC1
REMARK SMILES IDX 2 1 1 2 15 3 14 4 13 5 11 6 12 7 10 8 3 10 4 11 5 12 6 13
REMARK SMILES IDX 7 14 8 15 9 16
REMARK H PARENT
REMARK Flexibility Score: 60.00
ROOT
ATOM      1  C   UNL     1     163.590 160.376 141.233  1.00  0.00    -0.074 C 
ATOM      2  C   UNL     1     164.664 161.041 141.689  1.00  0.00     0.008 C 
ENDROOT
BRANCH   1   3
ATOM      3  C   UNL     1     162.539 161.121 140.430  1.00  0.00     0.031 C 
BRANCH   3   4
ATOM      4  C   UNL     1     163.083 161.796 139.146  1.00  0.00     0.009 C 
BRANCH   4   5
ATOM      5  C   UNL     1     163.770 160.867 138.114  1.00  0.00     0.030 C 
BRANCH   5   6
ATOM      6  C   UNL     1     163.034 159.569 137.840  1.00  0.00    -0.077 C 
ATOM      7  C   UNL     1     161.624 159.646 137.307  1.00  0.00     0.039 C 
ATOM      8  C   UNL     1     163.534 158.340 138.112  1.00  0.00    -0.027 CG0
ATOM      9  G   UNL     1     164.952 158.013 138.528  1.00  0.00     0.000 G0
ENDBRANCH   5   6
ENDBRANCH   4   5
ENDBRANCH   3   4
ENDBRANCH   1   3
BRANCH   1  10
ATOM     10  C   UNL     1     163.449 158.890 141.507  1.00  0.00     0.057 C 
BRANCH  10  11
ATOM     11  C   UNL     1     164.807 158.264 141.748  1.00  0.00    -0.026 C 
ATOM     12  C   UNL     1     165.456 157.340 140.995  1.00  0.00    -0.024 C 
BRANCH  12  13
ATOM     13  C   UNL     1     165.136 156.844 139.580  1.00  0.00    -0.014 C 
ATOM     14  C   UNL     1     166.262 155.889 139.115  1.00  0.00     0.016 C 
ATOM     15  C   UNL     1     163.838 156.002 139.644  1.00  0.00     0.016 C 
BRANCH  13  16
ATOM     16  C   UNL     1     164.954 157.993 138.538  1.00  0.00     0.038 CG0
ATOM     17  G   UNL     1     163.536 158.319 138.122  1.00  0.00     0.000 G0
ENDBRANCH  13  16
ENDBRANCH  12  13
ENDBRANCH  10  11
ENDBRANCH   1  10
TORSDOF 0
ENDMDL
MODEL 2
REMARK VINA RESULT:    -1.525      1.613      4.435
REMARK INTER + INTRA:          -1.675
REMARK INTER:                  -2.256
REMARK INTRA:                   0.582
REMARK UNBOUND:                 0.563
REMARK SMILES C=C1CC=CC(C)(C)CC=C(C)CCC1
REMARK SMILES IDX 2 1 1 2 15 3 14 4 13 5 11 6 12 7 10 8 3 10 4 11 5 12 6 13
REMARK SMILES IDX 7 14 8 15 9 16
REMARK H PARENT
REMARK Flexibility Score: 60.00
ROOT
ATOM      1  C   UNL     1     164.926 156.568 139.647  1.00  0.00    -0.074 C 
ATOM      2  C   UNL     1     166.003 155.941 139.146  1.00  0.00     0.008 C 
ENDROOT
BRANCH   1   3
ATOM      3  C   UNL     1     165.024 157.248 141.001  1.00  0.00     0.031 C 
BRANCH   3   4
ATOM      4  C   UNL     1     166.225 158.215 141.139  1.00  0.00     0.009 C 
BRANCH   4   5
ATOM      5  C   UNL     1     165.897 159.674 141.545  1.00  0.00     0.030 C 
BRANCH   5   6
ATOM      6  C   UNL     1     165.723 160.631 140.380  1.00  0.00    -0.077 C 
ATOM      7  C   UNL     1     166.868 161.549 140.033  1.00  0.00     0.039 C 
ATOM      8  C   UNL     1     164.574 160.768 139.675  1.00  0.00    -0.027 CG0
ATOM      9  G   UNL     1     163.351 159.881 139.759  1.00  0.00     0.000 G0
ENDBRANCH   5   6
ENDBRANCH   4   5
ENDBRANCH   3   4
ENDBRANCH   1   3
BRANCH   1  10
ATOM     10  C   UNL     1     163.636 156.608 138.849  1.00  0.00     0.057 C 
BRANCH  10  11
ATOM     11  C   UNL     1     163.783 157.515 137.645  1.00  0.00    -0.026 C 
ATOM     12  C   UNL     1     163.240 158.740 137.440  1.00  0.00    -0.024 C 
BRANCH  12  13
ATOM     13  C   UNL     1     162.532 159.666 138.435  1.00  0.00    -0.014 C 
ATOM     14  C   UNL     1     162.250 161.024 137.748  1.00  0.00     0.016 C 
ATOM     15  C   UNL     1     161.153 159.047 138.777  1.00  0.00     0.016 C 
BRANCH  13  16
ATOM     16  C   UNL     1     163.333 159.899 139.755  1.00  0.00     0.038 CG0
ATOM     17  G   UNL     1     164.557 160.784 139.665  1.00  0.00     0.000 G0
ENDBRANCH  13  16
ENDBRANCH  12  13
ENDBRANCH  10  11
ENDBRANCH   1  10
TORSDOF 0
ENDMDL
MODEL 3
REMARK VINA RESULT:    -1.423     12.980     15.304
REMARK INTER + INTRA:          -1.525
REMARK INTER:                  -1.778
REMARK INTRA:                   0.253
REMARK UNBOUND:                 0.563
REMARK SMILES C=C1CC=CC(C)(C)CC=C(C)CCC1
REMARK SMILES IDX 2 1 1 2 15 3 14 4 13 5 11 6 12 7 10 8 3 10 4 11 5 12 6 13
REMARK SMILES IDX 7 14 8 15 9 16
REMARK H PARENT
REMARK Flexibility Score: 60.00
ROOT
ATOM      1  C   UNL     1     166.400 171.151 140.807  1.00  0.00    -0.074 C 
ATOM      2  C   UNL     1     165.883 170.020 140.301  1.00  0.00     0.008 C 
ENDROOT
BRANCH   1   3
ATOM      3  C   UNL     1     165.485 172.139 141.508  1.00  0.00     0.031 C 
BRANCH   3   4
ATOM      4  C   UNL     1     164.109 172.325 140.823  1.00  0.00     0.009 C 
BRANCH   4   5
ATOM      5  C   UNL     1     164.031 173.399 139.708  1.00  0.00     0.030 C 
BRANCH   5   6
ATOM      6  C   UNL     1     164.670 174.728 140.063  1.00  0.00    -0.077 C 
ATOM      7  C   UNL     1     163.896 175.682 140.940  1.00  0.00     0.039 C 
ATOM      8  C   UNL     1     165.865 175.148 139.583  1.00  0.00    -0.027 CG0
ATOM      9  G   UNL     1     166.864 174.326 138.800  1.00  0.00     0.000 G0
ENDBRANCH   5   6
ENDBRANCH   4   5
ENDBRANCH   3   4
ENDBRANCH   1   3
BRANCH   1  10
ATOM     10  C   UNL     1     167.889 171.419 140.690  1.00  0.00     0.057 C 
BRANCH  10  11
ATOM     11  C   UNL     1     168.244 172.740 141.339  1.00  0.00    -0.026 C 
ATOM     12  C   UNL     1     168.537 173.922 140.742  1.00  0.00    -0.024 C 
BRANCH  12  13
ATOM     13  C   UNL     1     168.363 174.338 139.277  1.00  0.00    -0.014 C 
ATOM     14  C   UNL     1     168.965 175.750 139.079  1.00  0.00     0.016 C 
ATOM     15  C   UNL     1     169.196 173.373 138.397  1.00  0.00     0.016 C 
BRANCH  13  16
ATOM     16  C   UNL     1     166.879 174.324 138.792  1.00  0.00     0.038 CG0
ATOM     17  G   UNL     1     165.891 175.148 139.591  1.00  0.00     0.000 G0
ENDBRANCH  13  16
ENDBRANCH  12  13
ENDBRANCH  10  11
ENDBRANCH   1  10
TORSDOF 0
ENDMDL
MODEL 4
REMARK VINA RESULT:    -1.376     13.062     15.339
REMARK INTER + INTRA:          -1.456
REMARK INTER:                  -1.774
REMARK INTRA:                   0.318
REMARK UNBOUND:                 0.563
REMARK SMILES C=C1CC=CC(C)(C)CC=C(C)CCC1
REMARK SMILES IDX 2 1 1 2 15 3 14 4 13 5 11 6 12 7 10 8 3 10 4 11 5 12 6 13
REMARK SMILES IDX 7 14 8 15 9 16
REMARK H PARENT
REMARK Flexibility Score: 60.00
ROOT
ATOM      1  C   UNL     1     170.066 171.966 140.592  1.00  0.00    -0.074 C 
ATOM      2  C   UNL     1     169.847 170.678 140.907  1.00  0.00     0.008 C 
ENDROOT
BRANCH   1   3
ATOM      3  C   UNL     1     171.140 172.310 139.575  1.00  0.00     0.031 C 
BRANCH   3   4
ATOM      4  C   UNL     1     171.031 171.523 138.246  1.00  0.00     0.009 C 
BRANCH   4   5
ATOM      5  C   UNL     1     170.143 172.150 137.142  1.00  0.00     0.030 C 
BRANCH   5   6
ATOM      6  C   UNL     1     168.665 171.827 137.258  1.00  0.00    -0.077 C 
ATOM      7  C   UNL     1     168.225 170.402 137.032  1.00  0.00     0.039 C 
ATOM      8  C   UNL     1     167.701 172.752 137.482  1.00  0.00    -0.027 CG0
ATOM      9  G   UNL     1     167.910 174.203 137.858  1.00  0.00     0.000 G0
ENDBRANCH   5   6
ENDBRANCH   4   5
ENDBRANCH   3   4
ENDBRANCH   1   3
BRANCH   1  10
ATOM     10  C   UNL     1     169.228 173.054 141.236  1.00  0.00     0.057 C 
BRANCH  10  11
ATOM     11  C   UNL     1     167.758 172.835 140.947  1.00  0.00    -0.026 C 
ATOM     12  C   UNL     1     166.927 173.584 140.180  1.00  0.00    -0.024 C 
BRANCH  12  13
ATOM     13  C   UNL     1     167.267 174.712 139.198  1.00  0.00    -0.014 C 
ATOM     14  C   UNL     1     165.982 175.517 138.891  1.00  0.00     0.016 C 
ATOM     15  C   UNL     1     168.244 175.687 139.900  1.00  0.00     0.016 C 
BRANCH  13  16
ATOM     16  C   UNL     1     167.908 174.211 137.865  1.00  0.00     0.038 CG0
ATOM     17  G   UNL     1     167.689 172.758 137.505  1.00  0.00     0.000 G0
ENDBRANCH  13  16
ENDBRANCH  12  13
ENDBRANCH  10  11
ENDBRANCH   1  10
TORSDOF 0
ENDMDL
MODEL 5
REMARK VINA RESULT:    -1.367     12.656     15.003
REMARK INTER + INTRA:          -1.443
REMARK INTER:                  -1.926
REMARK INTRA:                   0.483
REMARK UNBOUND:                 0.563
REMARK SMILES C=C1CC=CC(C)(C)CC=C(C)CCC1
REMARK SMILES IDX 2 1 1 2 15 3 14 4 13 5 11 6 12 7 10 8 3 10 4 11 5 12 6 13
REMARK SMILES IDX 7 14 8 15 9 16
REMARK H PARENT
REMARK Flexibility Score: 60.00
ROOT
ATOM      1  C   UNL     1     167.507 170.393 138.801  1.00  0.00    -0.074 C 
ATOM      2  C   UNL     1     167.423 169.559 137.751  1.00  0.00     0.008 C 
ENDROOT
BRANCH   1   3
ATOM      3  C   UNL     1     168.335 169.988 140.007  1.00  0.00     0.031 C 
BRANCH   3   4
ATOM      4  C   UNL     1     169.767 169.514 139.663  1.00  0.00     0.009 C 
BRANCH   4   5
ATOM      5  C   UNL     1     170.885 170.586 139.720  1.00  0.00     0.030 C 
BRANCH   5   6
ATOM      6  C   UNL     1     171.052 171.395 138.446  1.00  0.00    -0.077 C 
ATOM      7  C   UNL     1     171.497 170.676 137.197  1.00  0.00     0.039 C 
ATOM      8  C   UNL     1     170.898 172.739 138.375  1.00  0.00    -0.027 CG0
ATOM      9  G   UNL     1     170.342 173.644 139.453  1.00  0.00     0.000 G0
ENDBRANCH   5   6
ENDBRANCH   4   5
ENDBRANCH   3   4
ENDBRANCH   1   3
BRANCH   1  10
ATOM     10  C   UNL     1     166.792 171.731 138.762  1.00  0.00     0.057 C 
BRANCH  10  11
ATOM     11  C   UNL     1     167.442 172.650 137.749  1.00  0.00    -0.026 C 
ATOM     12  C   UNL     1     168.229 173.732 137.972  1.00  0.00    -0.024 C 
BRANCH  12  13
ATOM     13  C   UNL     1     168.890 174.198 139.275  1.00  0.00    -0.014 C 
ATOM     14  C   UNL     1     168.894 175.744 139.313  1.00  0.00     0.016 C 
ATOM     15  C   UNL     1     168.010 173.727 140.460  1.00  0.00     0.016 C 
BRANCH  13  16
ATOM     16  C   UNL     1     170.343 173.660 139.469  1.00  0.00     0.038 CG0
ATOM     17  G   UNL     1     170.884 172.748 138.389  1.00  0.00     0.000 G0
ENDBRANCH  13  16
ENDBRANCH  12  13
ENDBRANCH  10  11
ENDBRANCH   1  10
TORSDOF 0
ENDMDL
MODEL 6
REMARK VINA RESULT:    -1.323      1.759      4.966
REMARK INTER + INTRA:          -1.379
REMARK INTER:                  -1.723
REMARK INTRA:                   0.344
REMARK UNBOUND:                 0.563
REMARK SMILES C=C1CC=CC(C)(C)CC=C(C)CCC1
REMARK SMILES IDX 2 1 1 2 15 3 14 4 13 5 11 6 12 7 10 8 3 10 4 11 5 12 6 13
REMARK SMILES IDX 7 14 8 15 9 16
REMARK H PARENT
REMARK Flexibility Score: 60.00
ROOT
ATOM      1  C   UNL     1     163.937 157.411 138.857  1.00  0.00    -0.074 C 
ATOM      2  C   UNL     1     163.098 156.483 139.345  1.00  0.00     0.008 C 
ENDROOT
BRANCH   1   3
ATOM      3  C   UNL     1     165.435 157.174 138.933  1.00  0.00     0.031 C 
BRANCH   3   4
ATOM      4  C   UNL     1     166.085 157.649 140.255  1.00  0.00     0.009 C 
BRANCH   4   5
ATOM      5  C   UNL     1     166.152 159.181 140.482  1.00  0.00     0.030 C 
BRANCH   5   6
ATOM      6  C   UNL     1     165.218 159.703 141.558  1.00  0.00    -0.077 C 
ATOM      7  C   UNL     1     165.350 159.143 142.953  1.00  0.00     0.039 C 
ATOM      8  C   UNL     1     164.220 160.590 141.331  1.00  0.00    -0.027 CG0
ATOM      9  G   UNL     1     163.977 161.373 140.059  1.00  0.00     0.000 G0
ENDBRANCH   5   6
ENDBRANCH   4   5
ENDBRANCH   3   4
ENDBRANCH   1   3
BRANCH   1  10
ATOM     10  C   UNL     1     163.382 158.672 138.220  1.00  0.00     0.057 C 
BRANCH  10  11
ATOM     11  C   UNL     1     162.062 159.052 138.858  1.00  0.00    -0.026 C 
ATOM     12  C   UNL     1     161.736 160.200 139.503  1.00  0.00    -0.024 C 
BRANCH  12  13
ATOM     13  C   UNL     1     162.500 161.528 139.567  1.00  0.00    -0.014 C 
ATOM     14  C   UNL     1     162.482 162.188 138.167  1.00  0.00     0.016 C 
ATOM     15  C   UNL     1     161.735 162.482 140.517  1.00  0.00     0.016 C 
BRANCH  13  16
ATOM     16  C   UNL     1     163.974 161.380 140.062  1.00  0.00     0.038 CG0
ATOM     17  G   UNL     1     164.193 160.578 141.327  1.00  0.00     0.000 G0
ENDBRANCH  13  16
ENDBRANCH  12  13
ENDBRANCH  10  11
ENDBRANCH   1  10
TORSDOF 0
ENDMDL
MODEL 7
REMARK VINA RESULT:    -1.322     12.377     14.967
REMARK INTER + INTRA:          -1.377
REMARK INTER:                  -1.742
REMARK INTRA:                   0.365
REMARK UNBOUND:                 0.563
REMARK SMILES C=C1CC=CC(C)(C)CC=C(C)CCC1
REMARK SMILES IDX 2 1 1 2 15 3 14 4 13 5 11 6 12 7 10 8 3 10 4 11 5 12 6 13
REMARK SMILES IDX 7 14 8 15 9 16
REMARK H PARENT
REMARK Flexibility Score: 60.00
ROOT
ATOM      1  C   UNL     1     166.214 170.254 139.924  1.00  0.00    -0.074 C 
ATOM      2  C   UNL     1     166.280 169.268 139.015  1.00  0.00     0.008 C 
ENDROOT
BRANCH   1   3
ATOM      3  C   UNL     1     166.656 169.981 141.351  1.00  0.00     0.031 C 
BRANCH   3   4
ATOM      4  C   UNL     1     168.166 170.213 141.602  1.00  0.00     0.009 C 
BRANCH   4   5
ATOM      5  C   UNL     1     168.583 171.639 142.043  1.00  0.00     0.030 C 
BRANCH   5   6
ATOM      6  C   UNL     1     169.460 172.378 141.049  1.00  0.00    -0.077 C 
ATOM      7  C   UNL     1     170.852 171.854 140.796  1.00  0.00     0.039 C 
ATOM      8  C   UNL     1     169.100 173.525 140.425  1.00  0.00    -0.027 CG0
ATOM      9  G   UNL     1     167.727 174.163 140.426  1.00  0.00     0.000 G0
ENDBRANCH   5   6
ENDBRANCH   4   5
ENDBRANCH   3   4
ENDBRANCH   1   3
BRANCH   1  10
ATOM     10  C   UNL     1     165.721 171.629 139.513  1.00  0.00     0.057 C 
BRANCH  10  11
ATOM     11  C   UNL     1     166.488 172.130 138.307  1.00  0.00    -0.026 C 
ATOM     12  C   UNL     1     166.978 173.373 138.074  1.00  0.00    -0.024 C 
BRANCH  12  13
ATOM     13  C   UNL     1     167.121 174.555 139.040  1.00  0.00    -0.014 C 
ATOM     14  C   UNL     1     167.993 175.647 138.375  1.00  0.00     0.016 C 
ATOM     15  C   UNL     1     165.719 175.177 139.255  1.00  0.00     0.016 C 
BRANCH  13  16
ATOM     16  C   UNL     1     167.729 174.165 140.424  1.00  0.00     0.038 CG0
ATOM     17  G   UNL     1     169.100 173.526 140.413  1.00  0.00     0.000 G0
ENDBRANCH  13  16
ENDBRANCH  12  13
ENDBRANCH  10  11
ENDBRANCH   1  10
TORSDOF 0
ENDMDL
MODEL 8
REMARK VINA RESULT:    -1.186     12.904     14.297
REMARK INTER + INTRA:          -1.178
REMARK INTER:                  -1.501
REMARK INTRA:                   0.323
REMARK UNBOUND:                 0.563
REMARK SMILES C=C1CC=CC(C)(C)CC=C(C)CCC1
REMARK SMILES IDX 2 1 1 2 15 3 14 4 13 5 11 6 12 7 10 8 3 10 4 11 5 12 6 13
REMARK SMILES IDX 7 14 8 15 9 16
REMARK H PARENT
REMARK Flexibility Score: 60.00
ROOT
ATOM      1  C   UNL     1     166.483 172.222 141.938  1.00  0.00    -0.074 C 
ATOM      2  C   UNL     1     166.554 173.097 142.955  1.00  0.00     0.008 C 
ENDROOT
BRANCH   1   3
ATOM      3  C   UNL     1     165.286 172.261 141.006  1.00  0.00     0.031 C 
BRANCH   3   4
ATOM      4  C   UNL     1     165.317 173.422 139.982  1.00  0.00     0.009 C 
BRANCH   4   5
ATOM      5  C   UNL     1     166.069 173.154 138.654  1.00  0.00     0.030 C 
BRANCH   5   6
ATOM      6  C   UNL     1     167.418 173.841 138.539  1.00  0.00    -0.077 C 
ATOM      7  C   UNL     1     167.446 175.345 138.424  1.00  0.00     0.039 C 
ATOM      8  C   UNL     1     168.600 173.184 138.460  1.00  0.00    -0.027 CG0
ATOM      9  G   UNL     1     168.827 171.703 138.676  1.00  0.00     0.000 G0
ENDBRANCH   5   6
ENDBRANCH   4   5
ENDBRANCH   3   4
ENDBRANCH   1   3
BRANCH   1  10
ATOM     10  C   UNL     1     167.604 171.222 141.722  1.00  0.00     0.057 C 
BRANCH  10  11
ATOM     11  C   UNL     1     168.952 171.902 141.836  1.00  0.00    -0.026 C 
ATOM     12  C   UNL     1     170.003 171.843 140.982  1.00  0.00    -0.024 C 
BRANCH  12  13
ATOM     13  C   UNL     1     170.063 171.286 139.554  1.00  0.00    -0.014 C 
ATOM     14  C   UNL     1     171.376 171.755 138.884  1.00  0.00     0.016 C 
ATOM     15  C   UNL     1     170.135 169.741 139.640  1.00  0.00     0.016 C 
BRANCH  13  16
ATOM     16  C   UNL     1     168.843 171.695 138.670  1.00  0.00     0.038 CG0
ATOM     17  G   UNL     1     168.617 173.177 138.459  1.00  0.00     0.000 G0
ENDBRANCH  13  16
ENDBRANCH  12  13
ENDBRANCH  10  11
ENDBRANCH   1  10
TORSDOF 0
ENDMDL
MODEL 9
REMARK VINA RESULT:    -1.135      1.738      3.982
REMARK INTER + INTRA:          -1.103
REMARK INTER:                  -1.338
REMARK INTRA:                   0.235
REMARK UNBOUND:                 0.563
REMARK SMILES C=C1CC=CC(C)(C)CC=C(C)CCC1
REMARK SMILES IDX 2 1 1 2 15 3 14 4 13 5 11 6 12 7 10 8 3 10 4 11 5 12 6 13
REMARK SMILES IDX 7 14 8 15 9 16
REMARK H PARENT
REMARK Flexibility Score: 60.00
ROOT
ATOM      1  C   UNL     1     166.406 157.996 141.496  1.00  0.00    -0.074 C 
ATOM      2  C   UNL     1     165.833 157.163 142.379  1.00  0.00     0.008 C 
ENDROOT
BRANCH   1   3
ATOM      3  C   UNL     1     167.108 159.245 141.999  1.00  0.00     0.031 C 
BRANCH   3   4
ATOM      4  C   UNL     1     166.289 160.063 143.026  1.00  0.00     0.009 C 
BRANCH   4   5
ATOM      5  C   UNL     1     165.278 161.086 142.449  1.00  0.00     0.030 C 
BRANCH   5   6
ATOM      6  C   UNL     1     163.874 160.546 142.250  1.00  0.00    -0.077 C 
ATOM      7  C   UNL     1     162.968 160.450 143.452  1.00  0.00     0.039 C 
ATOM      8  C   UNL     1     163.402 160.075 141.071  1.00  0.00    -0.027 CG0
ATOM      9  G   UNL     1     164.075 160.182 139.720  1.00  0.00     0.000 G0
ENDBRANCH   5   6
ENDBRANCH   4   5
ENDBRANCH   3   4
ENDBRANCH   1   3
BRANCH   1  10
ATOM     10  C   UNL     1     166.363 157.673 140.014  1.00  0.00     0.057 C 
BRANCH  10  11
ATOM     11  C   UNL     1     165.034 157.047 139.645  1.00  0.00    -0.026 C 
ATOM     12  C   UNL     1     163.916 157.655 139.176  1.00  0.00    -0.024 C 
BRANCH  12  13
ATOM     13  C   UNL     1     163.736 159.085 138.653  1.00  0.00    -0.014 C 
ATOM     14  C   UNL     1     164.617 159.276 137.395  1.00  0.00     0.016 C 
ATOM     15  C   UNL     1     162.266 159.252 138.195  1.00  0.00     0.016 C 
BRANCH  13  16
ATOM     16  C   UNL     1     164.075 160.186 139.707  1.00  0.00     0.038 CG0
ATOM     17  G   UNL     1     163.403 160.068 141.058  1.00  0.00     0.000 G0
ENDBRANCH  13  16
ENDBRANCH  12  13
ENDBRANCH  10  11
ENDBRANCH   1  10
TORSDOF 0
ENDMDL
