MODEL 1
REMARK VINA RESULT:    -6.820      0.000      0.000
REMARK INTER + INTRA:         -10.961
REMARK INTER:                  -9.412
REMARK INTRA:                  -1.549
REMARK UNBOUND:                -1.549
REMARK SMILES CC[C@H](CC[C@H](C)[C@@H]1CC[C@@H]2[C@H]3CC=C4C[C@@H](O)CC[C@@]4(C)[C@H]3CC[C@]21C)C(C)C
REMARK SMILES IDX 5 1 4 2 3 3 2 4 1 5 28 6 29 7 30 8 6 9 7 10 8 11 9 12 26 13
REMARK SMILES IDX 10 14 11 15 25 16 27 17 12 18 24 19 23 20 13 21 21 22 14 23
REMARK SMILES IDX 15 24 20 25 22 26 16 27 19 28 17 29 18 30
REMARK H PARENT 18 31
REMARK Flexibility Score: inf
ROOT
ATOM      1  C   UNL     1     141.860 135.169 143.093  1.00  0.00     0.004 C 
ENDROOT
BRANCH   1   2
ATOM      2  C   UNL     1     140.767 136.255 143.205  1.00  0.00     0.004 C 
BRANCH   2   3
ATOM      3  C   UNL     1     140.329 136.804 141.810  1.00  0.00    -0.009 C 
BRANCH   3   4
ATOM      4  C   UNL     1     138.815 136.565 141.552  1.00  0.00     0.000 C 
ATOM      5  C   UNL     1     137.930 137.660 142.145  1.00  0.00     0.004 C 
ENDBRANCH   3   4
BRANCH   3   6
ATOM      6  C   UNL     1     140.731 138.306 141.645  1.00  0.00    -0.014 C 
ATOM      7  C   UNL     1     141.244 138.923 142.955  1.00  0.00     0.007 C 
ATOM      8  C   UNL     1     141.743 138.540 140.510  1.00  0.00     0.007 C 
ENDBRANCH   3   6
ENDBRANCH   2   3
ENDBRANCH   1   2
BRANCH   1   9
ATOM      9  C   UNL     1     143.293 135.686 143.411  1.00  0.00    -0.011 C 
ATOM     10  C   UNL     1     143.277 136.484 144.731  1.00  0.00     0.008 C 
BRANCH   9  11
ATOM     11  C   UNL     1     143.838 136.553 142.222  1.00  0.00    -0.002 C 
ATOM     12  C   UNL     1     143.945 135.754 140.898  1.00  0.00     0.005 C 
ATOM     13  C   UNL     1     145.248 137.210 142.367  1.00  0.00    -0.026 C 
ATOM     14  C   UNL     1     145.098 136.364 140.094  1.00  0.00     0.005 C 
ATOM     15  C   UNL     1     145.530 137.582 140.905  1.00  0.00    -0.001 C 
ATOM     16  C   UNL     1     145.279 138.521 143.208  1.00  0.00     0.007 C 
ATOM     17  C   UNL     1     146.276 136.174 142.928  1.00  0.00     0.012 C 
ATOM     18  C   UNL     1     146.961 138.136 140.662  1.00  0.00     0.000 C 
ATOM     19  C   UNL     1     146.158 139.654 142.610  1.00  0.00     0.005 C 
ATOM     20  C   UNL     1     147.399 139.149 141.804  1.00  0.00     0.003 C 
ATOM     21  C   UNL     1     147.065 138.705 139.219  1.00  0.00     0.031 C 
ATOM     22  C   UNL     1     148.362 140.296 141.274  1.00  0.00    -0.008 C 
ATOM     23  C   UNL     1     147.100 140.203 139.134  1.00  0.00    -0.027 C 
ATOM     24  C   UNL     1     147.764 140.954 140.030  1.00  0.00    -0.065 C 
ATOM     25  C   UNL     1     148.625 141.383 142.370  1.00  0.00     0.014 C 
ATOM     26  C   UNL     1     149.730 139.664 140.899  1.00  0.00     0.016 C 
ATOM     27  C   UNL     1     148.210 142.341 139.589  1.00  0.00     0.063 C 
ATOM     28  C   UNL     1     149.335 142.631 141.831  1.00  0.00     0.033 C 
ATOM     29  C   UNL     1     148.478 143.305 140.749  1.00  0.00     0.118 C 
BRANCH  29  30
ATOM     30  O   UNL     1     147.257 143.748 141.283  1.00  0.00    -0.393 OA
ATOM     31  H   UNL     1     146.566 143.583 140.588  1.00  0.00     0.210 HD
ENDBRANCH  29  30
ENDBRANCH   9  11
ENDBRANCH   1   9
TORSDOF 7
ENDMDL
MODEL 2
REMARK VINA RESULT:    -6.523      2.310      8.016
REMARK INTER + INTRA:         -10.550
REMARK INTER:                  -8.762
REMARK INTRA:                  -1.788
REMARK UNBOUND:                -1.549
REMARK SMILES CC[C@H](CC[C@H](C)[C@@H]1CC[C@@H]2[C@H]3CC=C4C[C@@H](O)CC[C@@]4(C)[C@H]3CC[C@]21C)C(C)C
REMARK SMILES IDX 5 1 4 2 3 3 2 4 1 5 28 6 29 7 30 8 6 9 7 10 8 11 9 12 26 13
REMARK SMILES IDX 10 14 11 15 25 16 27 17 12 18 24 19 23 20 13 21 21 22 14 23
REMARK SMILES IDX 15 24 20 25 22 26 16 27 19 28 17 29 18 30
REMARK H PARENT 18 31
REMARK Flexibility Score: inf
ROOT
ATOM      1  C   UNL     1     149.365 139.583 141.037  1.00  0.00     0.004 C 
ENDROOT
BRANCH   1   2
ATOM      2  C   UNL     1     149.785 140.285 139.727  1.00  0.00     0.004 C 
BRANCH   2   3
ATOM      3  C   UNL     1     149.061 141.654 139.527  1.00  0.00    -0.009 C 
BRANCH   3   4
ATOM      4  C   UNL     1     147.720 141.484 138.761  1.00  0.00     0.000 C 
ATOM      5  C   UNL     1     147.905 140.902 137.359  1.00  0.00     0.004 C 
ENDBRANCH   3   4
BRANCH   3   6
ATOM      6  C   UNL     1     148.877 142.397 140.891  1.00  0.00    -0.014 C 
ATOM      7  C   UNL     1     149.907 143.520 141.091  1.00  0.00     0.007 C 
ATOM      8  C   UNL     1     147.451 142.935 141.099  1.00  0.00     0.007 C 
ENDBRANCH   3   6
ENDBRANCH   2   3
ENDBRANCH   1   2
BRANCH   1   9
ATOM      9  C   UNL     1     148.405 138.377 140.822  1.00  0.00    -0.011 C 
ATOM     10  C   UNL     1     148.504 137.887 139.363  1.00  0.00     0.008 C 
BRANCH   9  11
ATOM     11  C   UNL     1     146.933 138.776 141.197  1.00  0.00    -0.002 C 
ATOM     12  C   UNL     1     146.858 139.663 142.464  1.00  0.00     0.005 C 
ATOM     13  C   UNL     1     145.906 137.635 141.487  1.00  0.00    -0.026 C 
ATOM     14  C   UNL     1     145.514 139.372 143.141  1.00  0.00     0.005 C 
ATOM     15  C   UNL     1     144.793 138.436 142.176  1.00  0.00    -0.001 C 
ATOM     16  C   UNL     1     145.297 136.960 140.221  1.00  0.00     0.007 C 
ATOM     17  C   UNL     1     146.539 136.560 142.431  1.00  0.00     0.012 C 
ATOM     18  C   UNL     1     143.647 137.556 142.747  1.00  0.00     0.000 C 
ATOM     19  C   UNL     1     143.768 136.694 140.301  1.00  0.00     0.005 C 
ATOM     20  C   UNL     1     143.241 136.396 141.743  1.00  0.00     0.003 C 
ATOM     21  C   UNL     1     142.466 138.463 143.200  1.00  0.00     0.031 C 
ATOM     22  C   UNL     1     141.699 136.022 141.824  1.00  0.00    -0.008 C 
ATOM     23  C   UNL     1     141.264 138.422 142.303  1.00  0.00    -0.027 C 
ATOM     24  C   UNL     1     140.843 137.285 141.723  1.00  0.00    -0.065 C 
ATOM     25  C   UNL     1     141.287 135.015 140.698  1.00  0.00     0.014 C 
ATOM     26  C   UNL     1     141.424 135.339 143.192  1.00  0.00     0.016 C 
ATOM     27  C   UNL     1     139.379 137.207 141.314  1.00  0.00     0.063 C 
ATOM     28  C   UNL     1     139.770 134.822 140.579  1.00  0.00     0.033 C 
ATOM     29  C   UNL     1     139.091 136.156 140.236  1.00  0.00     0.118 C 
BRANCH  29  30
ATOM     30  O   UNL     1     139.526 136.633 138.989  1.00  0.00    -0.393 OA
ATOM     31  H   UNL     1     140.263 137.276 139.170  1.00  0.00     0.210 HD
ENDBRANCH  29  30
ENDBRANCH   9  11
ENDBRANCH   1   9
TORSDOF 7
ENDMDL
MODEL 3
REMARK VINA RESULT:    -6.113      2.615      7.874
REMARK INTER + INTRA:          -9.984
REMARK INTER:                  -8.188
REMARK INTRA:                  -1.797
REMARK UNBOUND:                -1.549
REMARK SMILES CC[C@H](CC[C@H](C)[C@@H]1CC[C@@H]2[C@H]3CC=C4C[C@@H](O)CC[C@@]4(C)[C@H]3CC[C@]21C)C(C)C
REMARK SMILES IDX 5 1 4 2 3 3 2 4 1 5 28 6 29 7 30 8 6 9 7 10 8 11 9 12 26 13
REMARK SMILES IDX 10 14 11 15 25 16 27 17 12 18 24 19 23 20 13 21 21 22 14 23
REMARK SMILES IDX 15 24 20 25 22 26 16 27 19 28 17 29 18 30
REMARK H PARENT 18 31
REMARK Flexibility Score: inf
ROOT
ATOM      1  C   UNL     1     149.281 138.246 139.523  1.00  0.00     0.004 C 
ENDROOT
BRANCH   1   2
ATOM      2  C   UNL     1     149.786 139.268 140.565  1.00  0.00     0.004 C 
BRANCH   2   3
ATOM      3  C   UNL     1     149.631 140.743 140.075  1.00  0.00    -0.009 C 
BRANCH   3   4
ATOM      4  C   UNL     1     148.852 140.820 138.733  1.00  0.00     0.000 C 
ATOM      5  C   UNL     1     147.499 141.518 138.868  1.00  0.00     0.004 C 
ENDBRANCH   3   4
BRANCH   3   6
ATOM      6  C   UNL     1     148.994 141.641 141.186  1.00  0.00    -0.014 C 
ATOM      7  C   UNL     1     148.992 140.958 142.562  1.00  0.00     0.007 C 
ATOM      8  C   UNL     1     149.638 143.034 141.280  1.00  0.00     0.007 C 
ENDBRANCH   3   6
ENDBRANCH   2   3
ENDBRANCH   1   2
BRANCH   1   9
ATOM      9  C   UNL     1     148.518 137.041 140.145  1.00  0.00    -0.011 C 
ATOM     10  C   UNL     1     149.236 135.726 139.780  1.00  0.00     0.008 C 
BRANCH   9  11
ATOM     11  C   UNL     1     147.024 137.032 139.664  1.00  0.00    -0.002 C 
ATOM     12  C   UNL     1     146.764 138.019 138.498  1.00  0.00     0.005 C 
ATOM     13  C   UNL     1     145.909 137.388 140.699  1.00  0.00    -0.026 C 
ATOM     14  C   UNL     1     145.309 138.485 138.615  1.00  0.00     0.005 C 
ATOM     15  C   UNL     1     144.729 137.651 139.753  1.00  0.00    -0.001 C 
ATOM     16  C   UNL     1     145.505 136.226 141.656  1.00  0.00     0.007 C 
ATOM     17  C   UNL     1     146.311 138.658 141.518  1.00  0.00     0.012 C 
ATOM     18  C   UNL     1     143.459 138.192 140.467  1.00  0.00     0.000 C 
ATOM     19  C   UNL     1     143.975 136.083 141.892  1.00  0.00     0.005 C 
ATOM     20  C   UNL     1     143.185 137.431 141.834  1.00  0.00     0.003 C 
ATOM     21  C   UNL     1     142.261 138.192 139.476  1.00  0.00     0.031 C 
ATOM     22  C   UNL     1     141.638 137.312 142.173  1.00  0.00    -0.008 C 
ATOM     23  C   UNL     1     141.237 137.124 139.727  1.00  0.00    -0.027 C 
ATOM     24  C   UNL     1     140.874 136.760 140.969  1.00  0.00    -0.065 C 
ATOM     25  C   UNL     1     141.388 136.399 143.420  1.00  0.00     0.014 C 
ATOM     26  C   UNL     1     141.092 138.727 142.508  1.00  0.00     0.016 C 
ATOM     27  C   UNL     1     139.504 136.118 141.139  1.00  0.00     0.063 C 
ATOM     28  C   UNL     1     139.909 136.049 143.631  1.00  0.00     0.033 C 
ATOM     29  C   UNL     1     139.365 135.284 142.417  1.00  0.00     0.118 C 
BRANCH  29  30
ATOM     30  O   UNL     1     140.038 134.061 142.254  1.00  0.00    -0.393 OA
ATOM     31  H   UNL     1     140.430 134.071 141.341  1.00  0.00     0.210 HD
ENDBRANCH  29  30
ENDBRANCH   9  11
ENDBRANCH   1   9
TORSDOF 7
ENDMDL
MODEL 4
REMARK VINA RESULT:    -6.080      3.415      8.374
REMARK INTER + INTRA:          -9.939
REMARK INTER:                  -8.144
REMARK INTRA:                  -1.795
REMARK UNBOUND:                -1.549
REMARK SMILES CC[C@H](CC[C@H](C)[C@@H]1CC[C@@H]2[C@H]3CC=C4C[C@@H](O)CC[C@@]4(C)[C@H]3CC[C@]21C)C(C)C
REMARK SMILES IDX 5 1 4 2 3 3 2 4 1 5 28 6 29 7 30 8 6 9 7 10 8 11 9 12 26 13
REMARK SMILES IDX 10 14 11 15 25 16 27 17 12 18 24 19 23 20 13 21 21 22 14 23
REMARK SMILES IDX 15 24 20 25 22 26 16 27 19 28 17 29 18 30
REMARK H PARENT 18 31
REMARK Flexibility Score: inf
ROOT
ATOM      1  C   UNL     1     149.723 140.100 138.446  1.00  0.00     0.004 C 
ENDROOT
BRANCH   1   2
ATOM      2  C   UNL     1     150.125 140.748 139.789  1.00  0.00     0.004 C 
BRANCH   2   3
ATOM      3  C   UNL     1     148.886 141.126 140.661  1.00  0.00    -0.009 C 
BRANCH   3   4
ATOM      4  C   UNL     1     149.046 140.630 142.125  1.00  0.00     0.000 C 
ATOM      5  C   UNL     1     149.358 139.137 142.217  1.00  0.00     0.004 C 
ENDBRANCH   3   4
BRANCH   3   6
ATOM      6  C   UNL     1     148.589 142.660 140.581  1.00  0.00    -0.014 C 
ATOM      7  C   UNL     1     147.150 143.001 140.997  1.00  0.00     0.007 C 
ATOM      8  C   UNL     1     149.593 143.513 141.375  1.00  0.00     0.007 C 
ENDBRANCH   3   6
ENDBRANCH   2   3
ENDBRANCH   1   2
BRANCH   1   9
ATOM      9  C   UNL     1     149.015 138.723 138.602  1.00  0.00    -0.011 C 
ATOM     10  C   UNL     1     149.901 137.611 138.004  1.00  0.00     0.008 C 
BRANCH   9  11
ATOM     11  C   UNL     1     147.599 138.756 137.924  1.00  0.00    -0.002 C 
ATOM     12  C   UNL     1     147.154 140.189 137.540  1.00  0.00     0.005 C 
ATOM     13  C   UNL     1     146.380 138.197 138.724  1.00  0.00    -0.026 C 
ATOM     14  C   UNL     1     145.623 140.224 137.618  1.00  0.00     0.005 C 
ATOM     15  C   UNL     1     145.221 138.780 137.904  1.00  0.00    -0.001 C 
ATOM     16  C   UNL     1     146.241 136.644 138.711  1.00  0.00     0.007 C 
ATOM     17  C   UNL     1     146.401 138.733 140.193  1.00  0.00     0.012 C 
ATOM     18  C   UNL     1     143.821 138.534 138.531  1.00  0.00     0.000 C 
ATOM     19  C   UNL     1     144.790 136.125 138.509  1.00  0.00     0.005 C 
ATOM     20  C   UNL     1     143.684 137.058 139.101  1.00  0.00     0.003 C 
ATOM     21  C   UNL     1     142.714 138.941 137.517  1.00  0.00     0.031 C 
ATOM     22  C   UNL     1     142.204 136.490 138.991  1.00  0.00    -0.008 C 
ATOM     23  C   UNL     1     141.989 137.791 136.883  1.00  0.00    -0.027 C 
ATOM     24  C   UNL     1     141.670 136.681 137.571  1.00  0.00    -0.065 C 
ATOM     25  C   UNL     1     142.135 134.976 139.381  1.00  0.00     0.014 C 
ATOM     26  C   UNL     1     141.296 137.274 139.978  1.00  0.00     0.016 C 
ATOM     27  C   UNL     1     140.505 135.848 137.056  1.00  0.00     0.063 C 
ATOM     28  C   UNL     1     140.788 134.323 139.049  1.00  0.00     0.033 C 
ATOM     29  C   UNL     1     140.521 134.394 137.539  1.00  0.00     0.118 C 
BRANCH  29  30
ATOM     30  O   UNL     1     141.493 133.673 136.825  1.00  0.00    -0.393 OA
ATOM     31  H   UNL     1     142.354 134.153 136.953  1.00  0.00     0.210 HD
ENDBRANCH  29  30
ENDBRANCH   9  11
ENDBRANCH   1   9
TORSDOF 7
ENDMDL
MODEL 5
REMARK VINA RESULT:    -6.076      2.534      5.600
REMARK INTER + INTRA:          -9.935
REMARK INTER:                  -8.311
REMARK INTRA:                  -1.624
REMARK UNBOUND:                -1.549
REMARK SMILES CC[C@H](CC[C@H](C)[C@@H]1CC[C@@H]2[C@H]3CC=C4C[C@@H](O)CC[C@@]4(C)[C@H]3CC[C@]21C)C(C)C
REMARK SMILES IDX 5 1 4 2 3 3 2 4 1 5 28 6 29 7 30 8 6 9 7 10 8 11 9 12 26 13
REMARK SMILES IDX 10 14 11 15 25 16 27 17 12 18 24 19 23 20 13 21 21 22 14 23
REMARK SMILES IDX 15 24 20 25 22 26 16 27 19 28 17 29 18 30
REMARK H PARENT 18 31
REMARK Flexibility Score: inf
ROOT
ATOM      1  C   UNL     1     136.904 136.499 142.201  1.00  0.00     0.004 C 
ENDROOT
BRANCH   1   2
ATOM      2  C   UNL     1     136.228 137.873 142.404  1.00  0.00     0.004 C 
BRANCH   2   3
ATOM      3  C   UNL     1     136.286 138.351 143.889  1.00  0.00    -0.009 C 
BRANCH   3   4
ATOM      4  C   UNL     1     135.218 139.442 144.180  1.00  0.00     0.000 C 
ATOM      5  C   UNL     1     134.262 139.667 143.009  1.00  0.00     0.004 C 
ENDBRANCH   3   4
BRANCH   3   6
ATOM      6  C   UNL     1     136.185 137.140 144.875  1.00  0.00    -0.014 C 
ATOM      7  C   UNL     1     137.083 137.313 146.109  1.00  0.00     0.007 C 
ATOM      8  C   UNL     1     134.742 136.827 145.301  1.00  0.00     0.007 C 
ENDBRANCH   3   6
ENDBRANCH   2   3
ENDBRANCH   1   2
BRANCH   1   9
ATOM      9  C   UNL     1     138.063 136.518 141.162  1.00  0.00    -0.011 C 
ATOM     10  C   UNL     1     137.703 135.615 139.965  1.00  0.00     0.008 C 
BRANCH   9  11
ATOM     11  C   UNL     1     139.408 136.070 141.836  1.00  0.00    -0.002 C 
ATOM     12  C   UNL     1     139.232 135.678 143.324  1.00  0.00     0.005 C 
ATOM     13  C   UNL     1     140.598 137.082 141.863  1.00  0.00    -0.026 C 
ATOM     14  C   UNL     1     140.552 135.993 144.035  1.00  0.00     0.005 C 
ATOM     15  C   UNL     1     141.497 136.422 142.917  1.00  0.00    -0.001 C 
ATOM     16  C   UNL     1     141.409 137.180 140.536  1.00  0.00     0.007 C 
ATOM     17  C   UNL     1     140.099 138.497 142.306  1.00  0.00     0.012 C 
ATOM     18  C   UNL     1     142.737 137.274 143.309  1.00  0.00     0.000 C 
ATOM     19  C   UNL     1     142.951 137.238 140.721  1.00  0.00     0.005 C 
ATOM     20  C   UNL     1     143.415 137.942 142.038  1.00  0.00     0.003 C 
ATOM     21  C   UNL     1     143.700 136.424 144.185  1.00  0.00     0.031 C 
ATOM     22  C   UNL     1     144.989 138.098 142.191  1.00  0.00    -0.008 C 
ATOM     23  C   UNL     1     144.953 135.979 143.491  1.00  0.00    -0.027 C 
ATOM     24  C   UNL     1     145.611 136.770 142.626  1.00  0.00    -0.065 C 
ATOM     25  C   UNL     1     145.654 138.581 140.859  1.00  0.00     0.014 C 
ATOM     26  C   UNL     1     145.279 139.168 143.278  1.00  0.00     0.016 C 
ATOM     27  C   UNL     1     147.092 136.493 142.409  1.00  0.00     0.063 C 
ATOM     28  C   UNL     1     147.186 138.502 140.880  1.00  0.00     0.033 C 
ATOM     29  C   UNL     1     147.641 137.050 141.091  1.00  0.00     0.118 C 
BRANCH  29  30
ATOM     30  O   UNL     1     147.221 136.236 140.027  1.00  0.00    -0.393 OA
ATOM     31  H   UNL     1     148.003 136.131 139.422  1.00  0.00     0.210 HD
ENDBRANCH  29  30
ENDBRANCH   9  11
ENDBRANCH   1   9
TORSDOF 7
ENDMDL
MODEL 6
REMARK VINA RESULT:    -6.014      3.049      7.486
REMARK INTER + INTRA:          -9.849
REMARK INTER:                  -7.983
REMARK INTRA:                  -1.866
REMARK UNBOUND:                -1.549
REMARK SMILES CC[C@H](CC[C@H](C)[C@@H]1CC[C@@H]2[C@H]3CC=C4C[C@@H](O)CC[C@@]4(C)[C@H]3CC[C@]21C)C(C)C
REMARK SMILES IDX 5 1 4 2 3 3 2 4 1 5 28 6 29 7 30 8 6 9 7 10 8 11 9 12 26 13
REMARK SMILES IDX 10 14 11 15 25 16 27 17 12 18 24 19 23 20 13 21 21 22 14 23
REMARK SMILES IDX 15 24 20 25 22 26 16 27 19 28 17 29 18 30
REMARK H PARENT 18 31
REMARK Flexibility Score: inf
ROOT
ATOM      1  C   UNL     1     148.176 140.712 139.289  1.00  0.00     0.004 C 
ENDROOT
BRANCH   1   2
ATOM      2  C   UNL     1     147.126 140.910 138.174  1.00  0.00     0.004 C 
BRANCH   2   3
ATOM      3  C   UNL     1     147.262 139.852 137.034  1.00  0.00    -0.009 C 
BRANCH   3   4
ATOM      4  C   UNL     1     148.239 138.709 137.430  1.00  0.00     0.000 C 
ATOM      5  C   UNL     1     147.535 137.367 137.633  1.00  0.00     0.004 C 
ENDBRANCH   3   4
BRANCH   3   6
ATOM      6  C   UNL     1     145.860 139.312 136.597  1.00  0.00    -0.014 C 
ATOM      7  C   UNL     1     144.705 140.088 137.248  1.00  0.00     0.007 C 
ATOM      8  C   UNL     1     145.680 139.263 135.071  1.00  0.00     0.007 C 
ENDBRANCH   3   6
ENDBRANCH   2   3
ENDBRANCH   1   2
BRANCH   1   9
ATOM      9  C   UNL     1     147.616 140.933 140.724  1.00  0.00    -0.011 C 
ATOM     10  C   UNL     1     148.373 142.090 141.406  1.00  0.00     0.008 C 
BRANCH   9  11
ATOM     11  C   UNL     1     147.717 139.608 141.560  1.00  0.00    -0.002 C 
ATOM     12  C   UNL     1     148.692 138.579 140.935  1.00  0.00     0.005 C 
ATOM     13  C   UNL     1     146.415 138.779 141.798  1.00  0.00    -0.026 C 
ATOM     14  C   UNL     1     148.184 137.184 141.316  1.00  0.00     0.005 C 
ATOM     15  C   UNL     1     147.017 137.446 142.264  1.00  0.00    -0.001 C 
ATOM     16  C   UNL     1     145.495 139.312 142.938  1.00  0.00     0.007 C 
ATOM     17  C   UNL     1     145.609 138.636 140.465  1.00  0.00     0.012 C 
ATOM     18  C   UNL     1     145.971 136.313 142.448  1.00  0.00     0.000 C 
ATOM     19  C   UNL     1     144.908 138.212 143.865  1.00  0.00     0.005 C 
ATOM     20  C   UNL     1     144.652 136.841 143.156  1.00  0.00     0.003 C 
ATOM     21  C   UNL     1     146.636 135.093 143.147  1.00  0.00     0.031 C 
ATOM     22  C   UNL     1     143.958 135.740 144.067  1.00  0.00    -0.008 C 
ATOM     23  C   UNL     1     146.239 134.897 144.581  1.00  0.00    -0.027 C 
ATOM     24  C   UNL     1     144.984 135.111 145.010  1.00  0.00    -0.065 C 
ATOM     25  C   UNL     1     142.774 136.338 144.898  1.00  0.00     0.014 C 
ATOM     26  C   UNL     1     143.376 134.630 143.148  1.00  0.00     0.016 C 
ATOM     27  C   UNL     1     144.543 134.389 146.275  1.00  0.00     0.063 C 
ATOM     28  C   UNL     1     142.240 135.382 145.972  1.00  0.00     0.033 C 
ATOM     29  C   UNL     1     143.349 135.043 146.979  1.00  0.00     0.118 C 
BRANCH  29  30
ATOM     30  O   UNL     1     143.778 136.195 147.657  1.00  0.00    -0.393 OA
ATOM     31  H   UNL     1     143.809 136.927 146.985  1.00  0.00     0.210 HD
ENDBRANCH  29  30
ENDBRANCH   9  11
ENDBRANCH   1   9
TORSDOF 7
ENDMDL
MODEL 7
REMARK VINA RESULT:    -5.992      1.775      3.565
REMARK INTER + INTRA:          -9.818
REMARK INTER:                  -7.641
REMARK INTRA:                  -2.176
REMARK UNBOUND:                -1.549
REMARK SMILES CC[C@H](CC[C@H](C)[C@@H]1CC[C@@H]2[C@H]3CC=C4C[C@@H](O)CC[C@@]4(C)[C@H]3CC[C@]21C)C(C)C
REMARK SMILES IDX 5 1 4 2 3 3 2 4 1 5 28 6 29 7 30 8 6 9 7 10 8 11 9 12 26 13
REMARK SMILES IDX 10 14 11 15 25 16 27 17 12 18 24 19 23 20 13 21 21 22 14 23
REMARK SMILES IDX 15 24 20 25 22 26 16 27 19 28 17 29 18 30
REMARK H PARENT 18 31
REMARK Flexibility Score: inf
ROOT
ATOM      1  C   UNL     1     142.552 134.422 142.712  1.00  0.00     0.004 C 
ENDROOT
BRANCH   1   2
ATOM      2  C   UNL     1     143.085 133.069 143.236  1.00  0.00     0.004 C 
BRANCH   2   3
ATOM      3  C   UNL     1     144.644 133.032 143.308  1.00  0.00    -0.009 C 
BRANCH   3   4
ATOM      4  C   UNL     1     145.140 132.642 144.728  1.00  0.00     0.000 C 
ATOM      5  C   UNL     1     145.456 133.855 145.604  1.00  0.00     0.004 C 
ENDBRANCH   3   4
BRANCH   3   6
ATOM      6  C   UNL     1     145.236 132.106 142.195  1.00  0.00    -0.014 C 
ATOM      7  C   UNL     1     144.145 131.367 141.405  1.00  0.00     0.007 C 
ATOM      8  C   UNL     1     146.185 132.844 141.237  1.00  0.00     0.007 C 
ENDBRANCH   3   6
ENDBRANCH   2   3
ENDBRANCH   1   2
BRANCH   1   9
ATOM      9  C   UNL     1     143.317 135.656 143.272  1.00  0.00    -0.011 C 
ATOM     10  C   UNL     1     142.393 136.458 144.211  1.00  0.00     0.008 C 
BRANCH   9  11
ATOM     11  C   UNL     1     143.854 136.546 142.096  1.00  0.00    -0.002 C 
ATOM     12  C   UNL     1     143.955 135.772 140.757  1.00  0.00     0.005 C 
ATOM     13  C   UNL     1     145.263 137.203 142.245  1.00  0.00    -0.026 C 
ATOM     14  C   UNL     1     145.103 136.399 139.958  1.00  0.00     0.005 C 
ATOM     15  C   UNL     1     145.538 137.602 140.789  1.00  0.00    -0.001 C 
ATOM     16  C   UNL     1     145.296 138.499 143.111  1.00  0.00     0.007 C 
ATOM     17  C   UNL     1     146.296 136.159 142.783  1.00  0.00     0.012 C 
ATOM     18  C   UNL     1     146.966 138.165 140.550  1.00  0.00     0.000 C 
ATOM     19  C   UNL     1     146.170 139.644 142.530  1.00  0.00     0.005 C 
ATOM     20  C   UNL     1     147.408 139.157 141.708  1.00  0.00     0.003 C 
ATOM     21  C   UNL     1     147.061 138.760 139.116  1.00  0.00     0.031 C 
ATOM     22  C   UNL     1     148.366 140.315 141.194  1.00  0.00    -0.008 C 
ATOM     23  C   UNL     1     147.093 140.259 139.060  1.00  0.00    -0.027 C 
ATOM     24  C   UNL     1     147.760 140.995 139.965  1.00  0.00    -0.065 C 
ATOM     25  C   UNL     1     148.633 141.382 142.308  1.00  0.00     0.014 C 
ATOM     26  C   UNL     1     149.733 139.693 140.800  1.00  0.00     0.016 C 
ATOM     27  C   UNL     1     148.201 142.391 139.547  1.00  0.00     0.063 C 
ATOM     28  C   UNL     1     149.338 142.641 141.789  1.00  0.00     0.033 C 
ATOM     29  C   UNL     1     148.474 143.333 140.725  1.00  0.00     0.118 C 
BRANCH  29  30
ATOM     30  O   UNL     1     147.255 143.764 141.273  1.00  0.00    -0.393 OA
ATOM     31  H   UNL     1     146.593 143.765 140.531  1.00  0.00     0.210 HD
ENDBRANCH  29  30
ENDBRANCH   9  11
ENDBRANCH   1   9
TORSDOF 7
ENDMDL
MODEL 8
REMARK VINA RESULT:    -5.952      2.585      8.451
REMARK INTER + INTRA:          -9.763
REMARK INTER:                  -8.290
REMARK INTRA:                  -1.474
REMARK UNBOUND:                -1.549
REMARK SMILES CC[C@H](CC[C@H](C)[C@@H]1CC[C@@H]2[C@H]3CC=C4C[C@@H](O)CC[C@@]4(C)[C@H]3CC[C@]21C)C(C)C
REMARK SMILES IDX 5 1 4 2 3 3 2 4 1 5 28 6 29 7 30 8 6 9 7 10 8 11 9 12 26 13
REMARK SMILES IDX 10 14 11 15 25 16 27 17 12 18 24 19 23 20 13 21 21 22 14 23
REMARK SMILES IDX 15 24 20 25 22 26 16 27 19 28 17 29 18 30
REMARK H PARENT 18 31
REMARK Flexibility Score: inf
ROOT
ATOM      1  C   UNL     1     147.687 137.798 142.052  1.00  0.00     0.004 C 
ENDROOT
BRANCH   1   2
ATOM      2  C   UNL     1     148.906 138.746 142.000  1.00  0.00     0.004 C 
BRANCH   2   3
ATOM      3  C   UNL     1     149.538 138.825 140.574  1.00  0.00    -0.009 C 
BRANCH   3   4
ATOM      4  C   UNL     1     149.074 137.643 139.678  1.00  0.00     0.000 C 
ATOM      5  C   UNL     1     150.125 137.228 138.648  1.00  0.00     0.004 C 
ENDBRANCH   3   4
BRANCH   3   6
ATOM      6  C   UNL     1     149.263 140.216 139.914  1.00  0.00    -0.014 C 
ATOM      7  C   UNL     1     147.921 140.256 139.166  1.00  0.00     0.007 C 
ATOM      8  C   UNL     1     149.358 141.386 140.907  1.00  0.00     0.007 C 
ENDBRANCH   3   6
ENDBRANCH   2   3
ENDBRANCH   1   2
BRANCH   1   9
ATOM      9  C   UNL     1     146.318 138.536 142.053  1.00  0.00    -0.011 C 
ATOM     10  C   UNL     1     146.454 139.885 142.787  1.00  0.00     0.008 C 
BRANCH   9  11
ATOM     11  C   UNL     1     145.211 137.635 142.707  1.00  0.00    -0.002 C 
ATOM     12  C   UNL     1     145.550 136.125 142.636  1.00  0.00     0.005 C 
ATOM     13  C   UNL     1     143.759 137.711 142.137  1.00  0.00    -0.026 C 
ATOM     14  C   UNL     1     144.220 135.365 142.573  1.00  0.00     0.005 C 
ATOM     15  C   UNL     1     143.154 136.442 142.753  1.00  0.00    -0.001 C 
ATOM     16  C   UNL     1     142.921 138.928 142.632  1.00  0.00     0.007 C 
ATOM     17  C   UNL     1     143.784 137.662 140.574  1.00  0.00     0.012 C 
ATOM     18  C   UNL     1     141.718 136.123 142.254  1.00  0.00     0.000 C 
ATOM     19  C   UNL     1     141.450 138.594 143.006  1.00  0.00     0.005 C 
ATOM     20  C   UNL     1     140.822 137.431 142.171  1.00  0.00     0.003 C 
ATOM     21  C   UNL     1     141.109 134.975 143.108  1.00  0.00     0.031 C 
ATOM     22  C   UNL     1     139.288 137.147 142.473  1.00  0.00    -0.008 C 
ATOM     23  C   UNL     1     140.049 135.407 144.077  1.00  0.00    -0.027 C 
ATOM     24  C   UNL     1     139.144 136.353 143.772  1.00  0.00    -0.065 C 
ATOM     25  C   UNL     1     138.462 138.474 142.571  1.00  0.00     0.014 C 
ATOM     26  C   UNL     1     138.698 136.310 141.305  1.00  0.00     0.016 C 
ATOM     27  C   UNL     1     137.828 136.337 144.536  1.00  0.00     0.063 C 
ATOM     28  C   UNL     1     137.041 138.267 143.109  1.00  0.00     0.033 C 
ATOM     29  C   UNL     1     137.089 137.680 144.527  1.00  0.00     0.118 C 
BRANCH  29  30
ATOM     30  O   UNL     1     137.719 138.568 145.414  1.00  0.00    -0.393 OA
ATOM     31  H   UNL     1     138.335 139.126 144.870  1.00  0.00     0.210 HD
ENDBRANCH  29  30
ENDBRANCH   9  11
ENDBRANCH   1   9
TORSDOF 7
ENDMDL
MODEL 9
REMARK VINA RESULT:    -5.852      1.707      3.034
REMARK INTER + INTRA:          -9.625
REMARK INTER:                  -8.708
REMARK INTRA:                  -0.917
REMARK UNBOUND:                -1.549
REMARK SMILES CC[C@H](CC[C@H](C)[C@@H]1CC[C@@H]2[C@H]3CC=C4C[C@@H](O)CC[C@@]4(C)[C@H]3CC[C@]21C)C(C)C
REMARK SMILES IDX 5 1 4 2 3 3 2 4 1 5 28 6 29 7 30 8 6 9 7 10 8 11 9 12 26 13
REMARK SMILES IDX 10 14 11 15 25 16 27 17 12 18 24 19 23 20 13 21 21 22 14 23
REMARK SMILES IDX 15 24 20 25 22 26 16 27 19 28 17 29 18 30
REMARK H PARENT 18 31
REMARK Flexibility Score: inf
ROOT
ATOM      1  C   UNL     1     139.742 136.913 141.939  1.00  0.00     0.004 C 
ENDROOT
BRANCH   1   2
ATOM      2  C   UNL     1     139.207 138.113 142.751  1.00  0.00     0.004 C 
BRANCH   2   3
ATOM      3  C   UNL     1     137.648 138.133 142.827  1.00  0.00    -0.009 C 
BRANCH   3   4
ATOM      4  C   UNL     1     137.037 136.783 142.358  1.00  0.00     0.000 C 
ATOM      5  C   UNL     1     135.887 136.963 141.366  1.00  0.00     0.004 C 
ENDBRANCH   3   4
BRANCH   3   6
ATOM      6  C   UNL     1     137.160 138.542 144.256  1.00  0.00    -0.014 C 
ATOM      7  C   UNL     1     135.740 139.129 144.244  1.00  0.00     0.007 C 
ATOM      8  C   UNL     1     137.260 137.400 145.280  1.00  0.00     0.007 C 
ENDBRANCH   3   6
ENDBRANCH   2   3
ENDBRANCH   1   2
BRANCH   1   9
ATOM      9  C   UNL     1     141.268 136.663 142.119  1.00  0.00    -0.011 C 
ATOM     10  C   UNL     1     141.659 136.881 143.594  1.00  0.00     0.008 C 
BRANCH   9  11
ATOM     11  C   UNL     1     142.091 137.596 141.161  1.00  0.00    -0.002 C 
ATOM     12  C   UNL     1     141.497 137.661 139.732  1.00  0.00     0.005 C 
ATOM     13  C   UNL     1     143.597 137.264 140.916  1.00  0.00    -0.026 C 
ATOM     14  C   UNL     1     142.662 137.910 138.768  1.00  0.00     0.005 C 
ATOM     15  C   UNL     1     143.871 138.124 139.675  1.00  0.00    -0.001 C 
ATOM     16  C   UNL     1     144.566 137.731 142.044  1.00  0.00     0.007 C 
ATOM     17  C   UNL     1     143.779 135.736 140.635  1.00  0.00     0.012 C 
ATOM     18  C   UNL     1     145.280 137.908 139.058  1.00  0.00     0.000 C 
ATOM     19  C   UNL     1     145.886 138.378 141.539  1.00  0.00     0.005 C 
ATOM     20  C   UNL     1     146.402 137.808 140.177  1.00  0.00     0.003 C 
ATOM     21  C   UNL     1     145.547 138.987 137.969  1.00  0.00     0.031 C 
ATOM     22  C   UNL     1     147.802 138.387 139.700  1.00  0.00    -0.008 C 
ATOM     23  C   UNL     1     146.524 140.053 138.368  1.00  0.00    -0.027 C 
ATOM     24  C   UNL     1     147.619 139.782 139.099  1.00  0.00    -0.065 C 
ATOM     25  C   UNL     1     148.833 138.451 140.876  1.00  0.00     0.014 C 
ATOM     26  C   UNL     1     148.385 137.445 138.611  1.00  0.00     0.016 C 
ATOM     27  C   UNL     1     148.792 140.745 138.988  1.00  0.00     0.063 C 
ATOM     28  C   UNL     1     150.106 139.233 140.528  1.00  0.00     0.033 C 
ATOM     29  C   UNL     1     149.757 140.687 140.178  1.00  0.00     0.118 C 
BRANCH  29  30
ATOM     30  O   UNL     1     149.182 141.342 141.279  1.00  0.00    -0.393 OA
ATOM     31  H   UNL     1     148.242 141.024 141.342  1.00  0.00     0.210 HD
ENDBRANCH  29  30
ENDBRANCH   9  11
ENDBRANCH   1   9
TORSDOF 7
ENDMDL
