MODEL 1
REMARK VINA RESULT:    -3.280      0.000      0.000
REMARK INTER + INTRA:          -5.153
REMARK INTER:                  -4.430
REMARK INTRA:                  -0.723
REMARK UNBOUND:                -0.723
REMARK SMILES CCCCCCC=CC(=O)[O-]
REMARK SMILES IDX 5 1 6 2 7 3 8 4 9 5 10 6 11 7 4 8 3 9 2 10 1 11
REMARK H PARENT
REMARK Flexibility Score: inf
ROOT
ATOM      1  C   UNL     1      60.619  30.913  60.152  1.00  0.00     0.004 C 
ENDROOT
BRANCH   1   2
ATOM      2  C   UNL     1      60.638  32.345  59.596  1.00  0.00     0.027 C 
BRANCH   2   3
ATOM      3  C   UNL     1      61.402  33.291  60.479  1.00  0.00    -0.025 C 
ATOM      4  C   UNL     1      62.542  33.862  60.072  1.00  0.00     0.020 C 
BRANCH   4   5
ATOM      5  C   UNL     1      63.308  34.786  60.923  1.00  0.00     0.064 C 
ATOM      6  O   UNL     1      62.836  35.904  61.262  1.00  0.00    -0.545 OA
ATOM      7  O   UNL     1      64.574  34.420  61.361  1.00  0.00    -0.545 OA
ENDBRANCH   4   5
ENDBRANCH   2   3
ENDBRANCH   1   2
BRANCH   1   8
ATOM      8  C   UNL     1      61.053  30.856  61.624  1.00  0.00     0.000 C 
BRANCH   8   9
ATOM      9  C   UNL     1      62.237  29.897  61.812  1.00  0.00    -0.000 C 
BRANCH   9  10
ATOM     10  C   UNL     1      63.217  29.930  60.629  1.00  0.00    -0.003 C 
ATOM     11  C   UNL     1      64.446  30.797  60.902  1.00  0.00     0.004 C 
ENDBRANCH   9  10
ENDBRANCH   8   9
ENDBRANCH   1   8
TORSDOF 6
ENDMDL
MODEL 2
REMARK VINA RESULT:    -3.253     12.471     13.593
REMARK INTER + INTRA:          -5.116
REMARK INTER:                  -4.522
REMARK INTRA:                  -0.594
REMARK UNBOUND:                -0.723
REMARK SMILES CCCCCCC=CC(=O)[O-]
REMARK SMILES IDX 5 1 6 2 7 3 8 4 9 5 10 6 11 7 4 8 3 9 2 10 1 11
REMARK H PARENT
REMARK Flexibility Score: inf
ROOT
ATOM      1  C   UNL     1      57.827  28.875  50.946  1.00  0.00     0.004 C 
ENDROOT
BRANCH   1   2
ATOM      2  C   UNL     1      56.357  29.275  50.754  1.00  0.00     0.027 C 
BRANCH   2   3
ATOM      3  C   UNL     1      55.447  28.081  50.667  1.00  0.00    -0.025 C 
ATOM      4  C   UNL     1      55.924  26.853  50.437  1.00  0.00     0.020 C 
BRANCH   4   5
ATOM      5  C   UNL     1      55.050  25.673  50.343  1.00  0.00     0.064 C 
ATOM      6  O   UNL     1      54.564  25.308  49.240  1.00  0.00    -0.545 OA
ATOM      7  O   UNL     1      54.755  24.948  51.491  1.00  0.00    -0.545 OA
ENDBRANCH   4   5
ENDBRANCH   2   3
ENDBRANCH   1   2
BRANCH   1   8
ATOM      8  C   UNL     1      58.687  29.216  49.720  1.00  0.00     0.000 C 
BRANCH   8   9
ATOM      9  C   UNL     1      59.519  28.003  49.278  1.00  0.00    -0.000 C 
BRANCH   9  10
ATOM     10  C   UNL     1      59.765  27.008  50.422  1.00  0.00    -0.003 C 
ATOM     11  C   UNL     1      59.533  25.556  50.003  1.00  0.00     0.004 C 
ENDBRANCH   9  10
ENDBRANCH   8   9
ENDBRANCH   1   8
TORSDOF 6
ENDMDL
MODEL 3
REMARK VINA RESULT:    -3.248     12.279     13.410
REMARK INTER + INTRA:          -5.110
REMARK INTER:                  -4.711
REMARK INTRA:                  -0.399
REMARK UNBOUND:                -0.723
REMARK SMILES CCCCCCC=CC(=O)[O-]
REMARK SMILES IDX 5 1 6 2 7 3 8 4 9 5 10 6 11 7 4 8 3 9 2 10 1 11
REMARK H PARENT
REMARK Flexibility Score: inf
ROOT
ATOM      1  C   UNL     1      55.551  28.840  51.458  1.00  0.00     0.004 C 
ENDROOT
BRANCH   1   2
ATOM      2  C   UNL     1      56.762  29.287  50.624  1.00  0.00     0.027 C 
BRANCH   2   3
ATOM      3  C   UNL     1      57.803  28.209  50.505  1.00  0.00    -0.025 C 
ATOM      4  C   UNL     1      58.889  28.367  49.740  1.00  0.00     0.020 C 
BRANCH   4   5
ATOM      5  C   UNL     1      59.916  27.322  49.604  1.00  0.00     0.064 C 
ATOM      6  O   UNL     1      61.134  27.617  49.486  1.00  0.00    -0.545 OA
ATOM      7  O   UNL     1      59.535  25.986  49.608  1.00  0.00    -0.545 OA
ENDBRANCH   4   5
ENDBRANCH   2   3
ENDBRANCH   1   2
BRANCH   1   8
ATOM      8  C   UNL     1      54.220  29.112  50.742  1.00  0.00     0.000 C 
BRANCH   8   9
ATOM      9  C   UNL     1      53.752  27.875  49.963  1.00  0.00    -0.000 C 
BRANCH   9  10
ATOM     10  C   UNL     1      54.355  26.571  50.508  1.00  0.00    -0.003 C 
ATOM     11  C   UNL     1      54.283  25.420  49.504  1.00  0.00     0.004 C 
ENDBRANCH   9  10
ENDBRANCH   8   9
ENDBRANCH   1   8
TORSDOF 6
ENDMDL
MODEL 4
REMARK VINA RESULT:    -3.235     12.360     13.651
REMARK INTER + INTRA:          -5.093
REMARK INTER:                  -4.456
REMARK INTRA:                  -0.637
REMARK UNBOUND:                -0.723
REMARK SMILES CCCCCCC=CC(=O)[O-]
REMARK SMILES IDX 5 1 6 2 7 3 8 4 9 5 10 6 11 7 4 8 3 9 2 10 1 11
REMARK H PARENT
REMARK Flexibility Score: inf
ROOT
ATOM      1  C   UNL     1      58.550  25.658  50.114  1.00  0.00     0.004 C 
ENDROOT
BRANCH   1   2
ATOM      2  C   UNL     1      57.282  25.462  50.959  1.00  0.00     0.027 C 
BRANCH   2   3
ATOM      3  C   UNL     1      56.059  26.033  50.296  1.00  0.00    -0.025 C 
ATOM      4  C   UNL     1      55.402  27.074  50.817  1.00  0.00     0.020 C 
BRANCH   4   5
ATOM      5  C   UNL     1      54.200  27.643  50.187  1.00  0.00     0.064 C 
ATOM      6  O   UNL     1      53.378  26.913  49.573  1.00  0.00    -0.545 OA
ATOM      7  O   UNL     1      53.967  29.011  50.272  1.00  0.00    -0.545 OA
ENDBRANCH   4   5
ENDBRANCH   2   3
ENDBRANCH   1   2
BRANCH   1   8
ATOM      8  C   UNL     1      59.374  26.869  50.575  1.00  0.00     0.000 C 
BRANCH   8   9
ATOM      9  C   UNL     1      59.719  27.782  49.390  1.00  0.00    -0.000 C 
BRANCH   9  10
ATOM     10  C   UNL     1      58.872  29.064  49.366  1.00  0.00    -0.003 C 
ATOM     11  C   UNL     1      58.296  29.418  50.736  1.00  0.00     0.004 C 
ENDBRANCH   9  10
ENDBRANCH   8   9
ENDBRANCH   1   8
TORSDOF 6
ENDMDL
MODEL 5
REMARK VINA RESULT:    -3.223      1.443      2.801
REMARK INTER + INTRA:          -5.077
REMARK INTER:                  -4.580
REMARK INTRA:                  -0.497
REMARK UNBOUND:                -0.723
REMARK SMILES CCCCCCC=CC(=O)[O-]
REMARK SMILES IDX 5 1 6 2 7 3 8 4 9 5 10 6 11 7 4 8 3 9 2 10 1 11
REMARK H PARENT
REMARK Flexibility Score: inf
ROOT
ATOM      1  C   UNL     1      63.508  31.776  60.292  1.00  0.00     0.004 C 
ENDROOT
BRANCH   1   2
ATOM      2  C   UNL     1      64.432  32.964  60.601  1.00  0.00     0.027 C 
BRANCH   2   3
ATOM      3  C   UNL     1      63.666  34.223  60.898  1.00  0.00    -0.025 C 
ATOM      4  C   UNL     1      62.410  34.395  60.471  1.00  0.00     0.020 C 
BRANCH   4   5
ATOM      5  C   UNL     1      61.645  35.621  60.746  1.00  0.00     0.064 C 
ATOM      6  O   UNL     1      60.415  35.695  60.485  1.00  0.00    -0.545 OA
ATOM      7  O   UNL     1      62.291  36.718  61.304  1.00  0.00    -0.545 OA
ENDBRANCH   4   5
ENDBRANCH   2   3
ENDBRANCH   1   2
BRANCH   1   8
ATOM      8  C   UNL     1      63.652  30.646  61.321  1.00  0.00     0.000 C 
BRANCH   8   9
ATOM      9  C   UNL     1      62.276  30.141  61.779  1.00  0.00    -0.000 C 
BRANCH   9  10
ATOM     10  C   UNL     1      61.120  30.970  61.200  1.00  0.00    -0.003 C 
ATOM     11  C   UNL     1      59.856  30.143  60.970  1.00  0.00     0.004 C 
ENDBRANCH   9  10
ENDBRANCH   8   9
ENDBRANCH   1   8
TORSDOF 6
ENDMDL
MODEL 6
REMARK VINA RESULT:    -3.219      2.837      4.707
REMARK INTER + INTRA:          -5.071
REMARK INTER:                  -4.675
REMARK INTRA:                  -0.395
REMARK UNBOUND:                -0.723
REMARK SMILES CCCCCCC=CC(=O)[O-]
REMARK SMILES IDX 5 1 6 2 7 3 8 4 9 5 10 6 11 7 4 8 3 9 2 10 1 11
REMARK H PARENT
REMARK Flexibility Score: inf
ROOT
ATOM      1  C   UNL     1      61.260  35.032  60.530  1.00  0.00     0.004 C 
ENDROOT
BRANCH   1   2
ATOM      2  C   UNL     1      61.467  34.002  59.409  1.00  0.00     0.027 C 
BRANCH   2   3
ATOM      3  C   UNL     1      61.029  32.622  59.812  1.00  0.00    -0.025 C 
ATOM      4  C   UNL     1      61.504  32.031  60.914  1.00  0.00     0.020 C 
BRANCH   4   5
ATOM      5  C   UNL     1      61.092  30.678  61.323  1.00  0.00     0.064 C 
ATOM      6  O   UNL     1      59.922  30.262  61.114  1.00  0.00    -0.545 OA
ATOM      7  O   UNL     1      62.011  29.846  61.950  1.00  0.00    -0.545 OA
ENDBRANCH   4   5
ENDBRANCH   2   3
ENDBRANCH   1   2
BRANCH   1   8
ATOM      8  C   UNL     1      62.545  35.808  60.851  1.00  0.00     0.000 C 
BRANCH   8   9
ATOM      9  C   UNL     1      63.779  34.902  60.733  1.00  0.00    -0.000 C 
BRANCH   9  10
ATOM     10  C   UNL     1      64.910  35.316  61.687  1.00  0.00    -0.003 C 
ATOM     11  C   UNL     1      64.861  36.799  62.054  1.00  0.00     0.004 C 
ENDBRANCH   9  10
ENDBRANCH   8   9
ENDBRANCH   1   8
TORSDOF 6
ENDMDL
MODEL 7
REMARK VINA RESULT:    -3.191     12.097     13.275
REMARK INTER + INTRA:          -5.033
REMARK INTER:                  -4.325
REMARK INTRA:                  -0.708
REMARK UNBOUND:                -0.723
REMARK SMILES CCCCCCC=CC(=O)[O-]
REMARK SMILES IDX 5 1 6 2 7 3 8 4 9 5 10 6 11 7 4 8 3 9 2 10 1 11
REMARK H PARENT
REMARK Flexibility Score: inf
ROOT
ATOM      1  C   UNL     1      58.745  29.452  51.090  1.00  0.00     0.004 C 
ENDROOT
BRANCH   1   2
ATOM      2  C   UNL     1      57.287  29.664  51.525  1.00  0.00     0.027 C 
BRANCH   2   3
ATOM      3  C   UNL     1      56.317  28.911  50.658  1.00  0.00    -0.025 C 
ATOM      4  C   UNL     1      55.853  27.706  51.010  1.00  0.00     0.020 C 
BRANCH   4   5
ATOM      5  C   UNL     1      54.908  26.950  50.172  1.00  0.00     0.064 C 
ATOM      6  O   UNL     1      55.183  25.791  49.764  1.00  0.00    -0.545 OA
ATOM      7  O   UNL     1      53.692  27.525  49.826  1.00  0.00    -0.545 OA
ENDBRANCH   4   5
ENDBRANCH   2   3
ENDBRANCH   1   2
BRANCH   1   8
ATOM      8  C   UNL     1      58.871  29.206  49.579  1.00  0.00     0.000 C 
BRANCH   8   9
ATOM      9  C   UNL     1      59.595  27.882  49.297  1.00  0.00    -0.000 C 
BRANCH   9  10
ATOM     10  C   UNL     1      59.517  26.903  50.478  1.00  0.00    -0.003 C 
ATOM     11  C   UNL     1      58.815  25.594  50.118  1.00  0.00     0.004 C 
ENDBRANCH   9  10
ENDBRANCH   8   9
ENDBRANCH   1   8
TORSDOF 6
ENDMDL
MODEL 8
REMARK VINA RESULT:    -3.166     12.387     13.408
REMARK INTER + INTRA:          -4.999
REMARK INTER:                  -4.526
REMARK INTRA:                  -0.474
REMARK UNBOUND:                -0.723
REMARK SMILES CCCCCCC=CC(=O)[O-]
REMARK SMILES IDX 5 1 6 2 7 3 8 4 9 5 10 6 11 7 4 8 3 9 2 10 1 11
REMARK H PARENT
REMARK Flexibility Score: inf
ROOT
ATOM      1  C   UNL     1      58.487  29.197  49.937  1.00  0.00     0.004 C 
ENDROOT
BRANCH   1   2
ATOM      2  C   UNL     1      59.414  28.148  49.304  1.00  0.00     0.027 C 
BRANCH   2   3
ATOM      3  C   UNL     1      59.125  26.758  49.797  1.00  0.00    -0.025 C 
ATOM      4  C   UNL     1      60.109  25.899  50.086  1.00  0.00     0.020 C 
BRANCH   4   5
ATOM      5  C   UNL     1      59.846  24.532  50.564  1.00  0.00     0.064 C 
ATOM      6  O   UNL     1      58.925  24.295  51.388  1.00  0.00    -0.545 OA
ATOM      7  O   UNL     1      60.630  23.484  50.097  1.00  0.00    -0.545 OA
ENDBRANCH   4   5
ENDBRANCH   2   3
ENDBRANCH   1   2
BRANCH   1   8
ATOM      8  C   UNL     1      57.453  28.565  50.880  1.00  0.00     0.000 C 
BRANCH   8   9
ATOM      9  C   UNL     1      56.072  29.207  50.691  1.00  0.00    -0.000 C 
BRANCH   9  10
ATOM     10  C   UNL     1      54.942  28.168  50.620  1.00  0.00    -0.003 C 
ATOM     11  C   UNL     1      55.457  26.750  50.376  1.00  0.00     0.004 C 
ENDBRANCH   9  10
ENDBRANCH   8   9
ENDBRANCH   1   8
TORSDOF 6
ENDMDL
MODEL 9
REMARK VINA RESULT:    -3.153      2.822      5.321
REMARK INTER + INTRA:          -4.982
REMARK INTER:                  -4.610
REMARK INTRA:                  -0.372
REMARK UNBOUND:                -0.723
REMARK SMILES CCCCCCC=CC(=O)[O-]
REMARK SMILES IDX 5 1 6 2 7 3 8 4 9 5 10 6 11 7 4 8 3 9 2 10 1 11
REMARK H PARENT
REMARK Flexibility Score: inf
ROOT
ATOM      1  C   UNL     1      64.521  34.013  59.945  1.00  0.00     0.004 C 
ENDROOT
BRANCH   1   2
ATOM      2  C   UNL     1      64.684  32.496  60.129  1.00  0.00     0.027 C 
BRANCH   2   3
ATOM      3  C   UNL     1      63.480  31.865  60.769  1.00  0.00    -0.025 C 
ATOM      4  C   UNL     1      63.428  30.551  61.017  1.00  0.00     0.020 C 
BRANCH   4   5
ATOM      5  C   UNL     1      62.256  29.912  61.638  1.00  0.00     0.064 C 
ATOM      6  O   UNL     1      62.221  28.670  61.837  1.00  0.00    -0.545 OA
ATOM      7  O   UNL     1      61.170  30.695  62.011  1.00  0.00    -0.545 OA
ENDBRANCH   4   5
ENDBRANCH   2   3
ENDBRANCH   1   2
BRANCH   1   8
ATOM      8  C   UNL     1      64.734  34.783  61.257  1.00  0.00     0.000 C 
BRANCH   8   9
ATOM      9  C   UNL     1      63.750  35.956  61.371  1.00  0.00    -0.000 C 
BRANCH   9  10
ATOM     10  C   UNL     1      62.344  35.599  60.866  1.00  0.00    -0.003 C 
ATOM     11  C   UNL     1      61.390  36.794  60.877  1.00  0.00     0.004 C 
ENDBRANCH   9  10
ENDBRANCH   8   9
ENDBRANCH   1   8
TORSDOF 6
ENDMDL
