MODEL 1
REMARK VINA RESULT:    -3.719      0.000      0.000
REMARK INTER + INTRA:          -4.684
REMARK INTER:                  -4.589
REMARK INTRA:                  -0.095
REMARK UNBOUND:                -0.095
REMARK SMILES CCCCCC=O
REMARK SMILES IDX 4 1 3 2 2 3 1 4 5 5 6 6 7 7
REMARK H PARENT
REMARK Flexibility Score: inf
ROOT
ATOM      1  C   UNL     1      39.996 -29.702  -0.646  1.00  0.00     0.008 C 
ENDROOT
BRANCH   1   2
ATOM      2  C   UNL     1      38.558 -29.163  -0.664  1.00  0.00     0.000 C 
BRANCH   2   3
ATOM      3  C   UNL     1      37.564 -30.267  -1.042  1.00  0.00    -0.003 C 
ATOM      4  C   UNL     1      36.403 -29.707  -1.860  1.00  0.00     0.004 C 
ENDBRANCH   2   3
ENDBRANCH   1   2
BRANCH   1   5
ATOM      5  C   UNL     1      40.681 -29.478   0.709  1.00  0.00     0.072 C 
BRANCH   5   6
ATOM      6  C   UNL     1      39.737 -29.681   1.859  1.00  0.00     0.224 C 
ATOM      7  O   UNL     1      39.570 -30.793   2.333  1.00  0.00    -0.303 OA
ENDBRANCH   5   6
ENDBRANCH   1   5
TORSDOF 4
ENDMDL
MODEL 2
REMARK VINA RESULT:    -3.557      1.762      2.072
REMARK INTER + INTRA:          -4.485
REMARK INTER:                  -4.446
REMARK INTRA:                  -0.039
REMARK UNBOUND:                -0.095
REMARK SMILES CCCCCC=O
REMARK SMILES IDX 4 1 3 2 2 3 1 4 5 5 6 6 7 7
REMARK H PARENT
REMARK Flexibility Score: inf
ROOT
ATOM      1  C   UNL     1      39.367 -29.333   1.215  1.00  0.00     0.008 C 
ENDROOT
BRANCH   1   2
ATOM      2  C   UNL     1      38.774 -28.919  -0.140  1.00  0.00     0.000 C 
BRANCH   2   3
ATOM      3  C   UNL     1      38.068 -30.102  -0.814  1.00  0.00    -0.003 C 
ATOM      4  C   UNL     1      36.757 -29.665  -1.461  1.00  0.00     0.004 C 
ENDBRANCH   2   3
ENDBRANCH   1   2
BRANCH   1   5
ATOM      5  C   UNL     1      40.871 -29.625   1.124  1.00  0.00     0.072 C 
BRANCH   5   6
ATOM      6  C   UNL     1      41.478 -29.072  -0.132  1.00  0.00     0.224 C 
ATOM      7  O   UNL     1      41.896 -29.822  -1.000  1.00  0.00    -0.303 OA
ENDBRANCH   5   6
ENDBRANCH   1   5
TORSDOF 4
ENDMDL
MODEL 3
REMARK VINA RESULT:    -3.461      2.201      3.867
REMARK INTER + INTRA:          -4.366
REMARK INTER:                  -4.270
REMARK INTRA:                  -0.096
REMARK UNBOUND:                -0.095
REMARK SMILES CCCCCC=O
REMARK SMILES IDX 4 1 3 2 2 3 1 4 5 5 6 6 7 7
REMARK H PARENT
REMARK Flexibility Score: inf
ROOT
ATOM      1  C   UNL     1      39.521 -29.815  -0.622  1.00  0.00     0.008 C 
ENDROOT
BRANCH   1   2
ATOM      2  C   UNL     1      40.471 -29.059   0.318  1.00  0.00     0.000 C 
BRANCH   2   3
ATOM      3  C   UNL     1      39.977 -29.129   1.768  1.00  0.00    -0.003 C 
ATOM      4  C   UNL     1      39.714 -30.571   2.192  1.00  0.00     0.004 C 
ENDBRANCH   2   3
ENDBRANCH   1   2
BRANCH   1   5
ATOM      5  C   UNL     1      38.183 -29.086  -0.803  1.00  0.00     0.072 C 
BRANCH   5   6
ATOM      6  C   UNL     1      37.078 -30.023  -1.198  1.00  0.00     0.224 C 
ATOM      7  O   UNL     1      36.462 -29.850  -2.238  1.00  0.00    -0.303 OA
ENDBRANCH   5   6
ENDBRANCH   1   5
TORSDOF 4
ENDMDL
MODEL 4
REMARK VINA RESULT:    -3.350     14.676     15.334
REMARK INTER + INTRA:          -4.229
REMARK INTER:                  -4.149
REMARK INTRA:                  -0.080
REMARK UNBOUND:                -0.095
REMARK SMILES CCCCCC=O
REMARK SMILES IDX 4 1 3 2 2 3 1 4 5 5 6 6 7 7
REMARK H PARENT
REMARK Flexibility Score: inf
ROOT
ATOM      1  C   UNL     1      27.339 -38.868  -1.107  1.00  0.00     0.008 C 
ENDROOT
BRANCH   1   2
ATOM      2  C   UNL     1      26.506 -39.010  -2.389  1.00  0.00     0.000 C 
BRANCH   2   3
ATOM      3  C   UNL     1      27.255 -39.835  -3.441  1.00  0.00    -0.003 C 
ATOM      4  C   UNL     1      26.560 -41.171  -3.691  1.00  0.00     0.004 C 
ENDBRANCH   2   3
ENDBRANCH   1   2
BRANCH   1   5
ATOM      5  C   UNL     1      26.461 -38.659   0.134  1.00  0.00     0.072 C 
BRANCH   5   6
ATOM      6  C   UNL     1      26.243 -37.204   0.433  1.00  0.00     0.224 C 
ATOM      7  O   UNL     1      27.032 -36.365   0.030  1.00  0.00    -0.303 OA
ENDBRANCH   5   6
ENDBRANCH   1   5
TORSDOF 4
ENDMDL
MODEL 5
REMARK VINA RESULT:    -3.196     14.456     15.714
REMARK INTER + INTRA:          -4.039
REMARK INTER:                  -3.955
REMARK INTRA:                  -0.084
REMARK UNBOUND:                -0.095
REMARK SMILES CCCCCC=O
REMARK SMILES IDX 4 1 3 2 2 3 1 4 5 5 6 6 7 7
REMARK H PARENT
REMARK Flexibility Score: inf
ROOT
ATOM      1  C   UNL     1      27.087 -39.737  -2.666  1.00  0.00     0.008 C 
ENDROOT
BRANCH   1   2
ATOM      2  C   UNL     1      27.529 -38.994  -1.396  1.00  0.00     0.000 C 
BRANCH   2   3
ATOM      3  C   UNL     1      26.370 -38.188  -0.801  1.00  0.00    -0.003 C 
ATOM      4  C   UNL     1      26.868 -36.893  -0.166  1.00  0.00     0.004 C 
ENDBRANCH   2   3
ENDBRANCH   1   2
BRANCH   1   5
ATOM      5  C   UNL     1      27.039 -41.257  -2.461  1.00  0.00     0.072 C 
BRANCH   5   6
ATOM      6  C   UNL     1      27.558 -41.661  -1.111  1.00  0.00     0.224 C 
ATOM      7  O   UNL     1      28.501 -42.430  -1.016  1.00  0.00    -0.303 OA
ENDBRANCH   5   6
ENDBRANCH   1   5
TORSDOF 4
ENDMDL
MODEL 6
REMARK VINA RESULT:    -2.994     15.676     16.527
REMARK INTER + INTRA:          -3.789
REMARK INTER:                  -3.570
REMARK INTRA:                  -0.219
REMARK UNBOUND:                -0.095
REMARK SMILES CCCCCC=O
REMARK SMILES IDX 4 1 3 2 2 3 1 4 5 5 6 6 7 7
REMARK H PARENT
REMARK Flexibility Score: inf
ROOT
ATOM      1  C   UNL     1      27.409 -39.914  -1.138  1.00  0.00     0.008 C 
ENDROOT
BRANCH   1   2
ATOM      2  C   UNL     1      27.028 -39.020  -2.327  1.00  0.00     0.000 C 
BRANCH   2   3
ATOM      3  C   UNL     1      26.067 -39.747  -3.274  1.00  0.00    -0.003 C 
ATOM      4  C   UNL     1      26.590 -41.135  -3.631  1.00  0.00     0.004 C 
ENDBRANCH   2   3
ENDBRANCH   1   2
BRANCH   1   5
ATOM      5  C   UNL     1      26.321 -39.935  -0.057  1.00  0.00     0.072 C 
BRANCH   5   6
ATOM      6  C   UNL     1      25.891 -41.333   0.284  1.00  0.00     0.224 C 
ATOM      7  O   UNL     1      26.382 -42.289  -0.295  1.00  0.00    -0.303 OA
ENDBRANCH   5   6
ENDBRANCH   1   5
TORSDOF 4
ENDMDL
MODEL 7
REMARK VINA RESULT:    -2.904     14.715     15.917
REMARK INTER + INTRA:          -3.678
REMARK INTER:                  -3.501
REMARK INTRA:                  -0.178
REMARK UNBOUND:                -0.095
REMARK SMILES CCCCCC=O
REMARK SMILES IDX 4 1 3 2 2 3 1 4 5 5 6 6 7 7
REMARK H PARENT
REMARK Flexibility Score: inf
ROOT
ATOM      1  C   UNL     1      26.459 -39.834  -1.853  1.00  0.00     0.008 C 
ENDROOT
BRANCH   1   2
ATOM      2  C   UNL     1      27.254 -41.045  -2.361  1.00  0.00     0.000 C 
BRANCH   2   3
ATOM      3  C   UNL     1      27.759 -41.899  -1.192  1.00  0.00    -0.003 C 
ATOM      4  C   UNL     1      26.685 -42.056  -0.120  1.00  0.00     0.004 C 
ENDBRANCH   2   3
ENDBRANCH   1   2
BRANCH   1   5
ATOM      5  C   UNL     1      27.371 -38.654  -1.489  1.00  0.00     0.072 C 
BRANCH   5   6
ATOM      6  C   UNL     1      26.880 -37.914  -0.278  1.00  0.00     0.224 C 
ATOM      7  O   UNL     1      26.646 -38.514   0.760  1.00  0.00    -0.303 OA
ENDBRANCH   5   6
ENDBRANCH   1   5
TORSDOF 4
ENDMDL
MODEL 8
REMARK VINA RESULT:    -2.778     15.014     15.778
REMARK INTER + INTRA:          -3.523
REMARK INTER:                  -3.380
REMARK INTRA:                  -0.143
REMARK UNBOUND:                -0.095
REMARK SMILES CCCCCC=O
REMARK SMILES IDX 4 1 3 2 2 3 1 4 5 5 6 6 7 7
REMARK H PARENT
REMARK Flexibility Score: inf
ROOT
ATOM      1  C   UNL     1      29.581 -35.672  12.685  1.00  0.00     0.008 C 
ENDROOT
BRANCH   1   2
ATOM      2  C   UNL     1      28.711 -36.063  11.482  1.00  0.00     0.000 C 
BRANCH   2   3
ATOM      3  C   UNL     1      29.176 -35.344  10.211  1.00  0.00    -0.003 C 
ATOM      4  C   UNL     1      29.095 -36.264   8.996  1.00  0.00     0.004 C 
ENDBRANCH   2   3
ENDBRANCH   1   2
BRANCH   1   5
ATOM      5  C   UNL     1      30.580 -34.559  12.339  1.00  0.00     0.072 C 
BRANCH   5   6
ATOM      6  C   UNL     1      30.254 -33.271  13.036  1.00  0.00     0.224 C 
ATOM      7  O   UNL     1      29.743 -32.347  12.423  1.00  0.00    -0.303 OA
ENDBRANCH   5   6
ENDBRANCH   1   5
TORSDOF 4
ENDMDL
MODEL 9
REMARK VINA RESULT:    -2.706     15.374     16.767
REMARK INTER + INTRA:          -3.434
REMARK INTER:                  -3.357
REMARK INTRA:                  -0.077
REMARK UNBOUND:                -0.095
REMARK SMILES CCCCCC=O
REMARK SMILES IDX 4 1 3 2 2 3 1 4 5 5 6 6 7 7
REMARK H PARENT
REMARK Flexibility Score: inf
ROOT
ATOM      1  C   UNL     1      27.148 -41.464  -1.204  1.00  0.00     0.008 C 
ENDROOT
BRANCH   1   2
ATOM      2  C   UNL     1      26.812 -41.035  -2.639  1.00  0.00     0.000 C 
BRANCH   2   3
ATOM      3  C   UNL     1      26.410 -39.557  -2.690  1.00  0.00    -0.003 C 
ATOM      4  C   UNL     1      27.013 -38.781  -1.523  1.00  0.00     0.004 C 
ENDBRANCH   2   3
ENDBRANCH   1   2
BRANCH   1   5
ATOM      5  C   UNL     1      25.911 -41.962  -0.443  1.00  0.00     0.072 C 
BRANCH   5   6
ATOM      6  C   UNL     1      26.068 -41.820   1.043  1.00  0.00     0.224 C 
ATOM      7  O   UNL     1      25.875 -40.743   1.585  1.00  0.00    -0.303 OA
ENDBRANCH   5   6
ENDBRANCH   1   5
TORSDOF 4
ENDMDL
