MODEL 1
REMARK VINA RESULT:    -3.358      0.000      0.000
REMARK INTER + INTRA:          -4.046
REMARK INTER:                  -3.947
REMARK INTRA:                  -0.099
REMARK UNBOUND:                -0.099
REMARK SMILES O=C([O-])CCC(=O)[O-]
REMARK SMILES IDX 4 1 2 2 1 3 3 4 5 5 6 6 7 7 8 8
REMARK H PARENT
REMARK Flexibility Score: inf
ROOT
ATOM      1  C   UNL     1     -19.623  14.030  -5.601  1.00  0.00     0.059 C 
ENDROOT
BRANCH   1   2
ATOM      2  C   UNL     1     -19.594  15.062  -4.515  1.00  0.00     0.042 C 
ATOM      3  O   UNL     1     -20.439  15.024  -3.583  1.00  0.00    -0.550 OA
ATOM      4  O   UNL     1     -18.607  16.040  -4.510  1.00  0.00    -0.550 OA
ENDBRANCH   1   2
BRANCH   1   5
ATOM      5  C   UNL     1     -18.300  13.986  -6.374  1.00  0.00     0.059 C 
BRANCH   5   6
ATOM      6  C   UNL     1     -17.285  13.130  -5.681  1.00  0.00     0.042 C 
ATOM      7  O   UNL     1     -17.389  11.875  -5.708  1.00  0.00    -0.550 OA
ATOM      8  O   UNL     1     -16.247  13.719  -4.972  1.00  0.00    -0.550 OA
ENDBRANCH   5   6
ENDBRANCH   1   5
TORSDOF 3
ENDMDL
MODEL 2
REMARK VINA RESULT:    -3.334      0.172      3.496
REMARK INTER + INTRA:          -4.019
REMARK INTER:                  -3.926
REMARK INTRA:                  -0.092
REMARK UNBOUND:                -0.099
REMARK SMILES O=C([O-])CCC(=O)[O-]
REMARK SMILES IDX 4 1 2 2 1 3 3 4 5 5 6 6 7 7 8 8
REMARK H PARENT
REMARK Flexibility Score: inf
ROOT
ATOM      1  C   UNL     1     -18.387  14.006  -6.315  1.00  0.00     0.059 C 
ENDROOT
BRANCH   1   2
ATOM      2  C   UNL     1     -17.314  13.148  -5.718  1.00  0.00     0.042 C 
ATOM      3  O   UNL     1     -17.356  11.897  -5.853  1.00  0.00    -0.550 OA
ATOM      4  O   UNL     1     -16.246  13.732  -5.049  1.00  0.00    -0.550 OA
ENDBRANCH   1   2
BRANCH   1   5
ATOM      5  C   UNL     1     -19.619  14.083  -5.408  1.00  0.00     0.059 C 
BRANCH   5   6
ATOM      6  C   UNL     1     -19.497  15.186  -4.402  1.00  0.00     0.042 C 
ATOM      7  O   UNL     1     -20.337  15.289  -3.469  1.00  0.00    -0.550 OA
ATOM      8  O   UNL     1     -18.481  16.125  -4.520  1.00  0.00    -0.550 OA
ENDBRANCH   5   6
ENDBRANCH   1   5
TORSDOF 3
ENDMDL
MODEL 3
REMARK VINA RESULT:    -3.247      1.351      1.603
REMARK INTER + INTRA:          -3.916
REMARK INTER:                  -3.793
REMARK INTRA:                  -0.122
REMARK UNBOUND:                -0.099
REMARK SMILES O=C([O-])CCC(=O)[O-]
REMARK SMILES IDX 4 1 2 2 1 3 3 4 5 5 6 6 7 7 8 8
REMARK H PARENT
REMARK Flexibility Score: inf
ROOT
ATOM      1  C   UNL     1     -19.416  14.744  -5.108  1.00  0.00     0.059 C 
ENDROOT
BRANCH   1   2
ATOM      2  C   UNL     1     -20.442  13.849  -4.483  1.00  0.00     0.042 C 
ATOM      3  O   UNL     1     -21.582  13.732  -5.004  1.00  0.00    -0.550 OA
ATOM      4  O   UNL     1     -20.125  13.110  -3.350  1.00  0.00    -0.550 OA
ENDBRANCH   1   2
BRANCH   1   5
ATOM      5  C   UNL     1     -18.644  14.028  -6.221  1.00  0.00     0.059 C 
BRANCH   5   6
ATOM      6  C   UNL     1     -17.455  13.293  -5.683  1.00  0.00     0.042 C 
ATOM      7  O   UNL     1     -17.385  12.040  -5.786  1.00  0.00    -0.550 OA
ATOM      8  O   UNL     1     -16.444  13.988  -5.034  1.00  0.00    -0.550 OA
ENDBRANCH   5   6
ENDBRANCH   1   5
TORSDOF 3
ENDMDL
MODEL 4
REMARK VINA RESULT:    -3.227      0.325      3.695
REMARK INTER + INTRA:          -3.892
REMARK INTER:                  -3.769
REMARK INTRA:                  -0.124
REMARK UNBOUND:                -0.099
REMARK SMILES O=C([O-])CCC(=O)[O-]
REMARK SMILES IDX 4 1 2 2 1 3 3 4 5 5 6 6 7 7 8 8
REMARK H PARENT
REMARK Flexibility Score: inf
ROOT
ATOM      1  C   UNL     1     -18.361  14.192  -6.199  1.00  0.00     0.059 C 
ENDROOT
BRANCH   1   2
ATOM      2  C   UNL     1     -17.303  13.329  -5.582  1.00  0.00     0.042 C 
ATOM      3  O   UNL     1     -16.360  13.851  -4.931  1.00  0.00    -0.550 OA
ATOM      4  O   UNL     1     -17.384  11.946  -5.689  1.00  0.00    -0.550 OA
ENDBRANCH   1   2
BRANCH   1   5
ATOM      5  C   UNL     1     -19.682  14.105  -5.429  1.00  0.00     0.059 C 
BRANCH   5   6
ATOM      6  C   UNL     1     -19.689  15.014  -4.239  1.00  0.00     0.042 C 
ATOM      7  O   UNL     1     -18.990  16.062  -4.238  1.00  0.00    -0.550 OA
ATOM      8  O   UNL     1     -20.436  14.685  -3.116  1.00  0.00    -0.550 OA
ENDBRANCH   5   6
ENDBRANCH   1   5
TORSDOF 3
ENDMDL
MODEL 5
REMARK VINA RESULT:    -3.136      1.654      2.037
REMARK INTER + INTRA:          -3.785
REMARK INTER:                  -3.703
REMARK INTRA:                  -0.082
REMARK UNBOUND:                -0.099
REMARK SMILES O=C([O-])CCC(=O)[O-]
REMARK SMILES IDX 4 1 2 2 1 3 3 4 5 5 6 6 7 7 8 8
REMARK H PARENT
REMARK Flexibility Score: inf
ROOT
ATOM      1  C   UNL     1     -17.690  13.346  -6.236  1.00  0.00     0.059 C 
ENDROOT
BRANCH   1   2
ATOM      2  C   UNL     1     -18.669  14.362  -5.732  1.00  0.00     0.042 C 
ATOM      3  O   UNL     1     -19.890  14.070  -5.635  1.00  0.00    -0.550 OA
ATOM      4  O   UNL     1     -18.228  15.617  -5.331  1.00  0.00    -0.550 OA
ENDBRANCH   1   2
BRANCH   1   5
ATOM      5  C   UNL     1     -17.465  12.225  -5.216  1.00  0.00     0.059 C 
BRANCH   5   6
ATOM      6  C   UNL     1     -16.495  12.634  -4.151  1.00  0.00     0.042 C 
ATOM      7  O   UNL     1     -15.292  12.264  -4.213  1.00  0.00    -0.550 OA
ATOM      8  O   UNL     1     -16.927  13.388  -3.069  1.00  0.00    -0.550 OA
ENDBRANCH   5   6
ENDBRANCH   1   5
TORSDOF 3
ENDMDL
MODEL 6
REMARK VINA RESULT:    -3.070      1.659      3.618
REMARK INTER + INTRA:          -3.708
REMARK INTER:                  -3.588
REMARK INTRA:                  -0.120
REMARK UNBOUND:                -0.099
REMARK SMILES O=C([O-])CCC(=O)[O-]
REMARK SMILES IDX 4 1 2 2 1 3 3 4 5 5 6 6 7 7 8 8
REMARK H PARENT
REMARK Flexibility Score: inf
ROOT
ATOM      1  C   UNL     1     -17.488  12.218  -5.075  1.00  0.00     0.059 C 
ENDROOT
BRANCH   1   2
ATOM      2  C   UNL     1     -16.502  12.548  -3.997  1.00  0.00     0.042 C 
ATOM      3  O   UNL     1     -15.286  12.259  -4.141  1.00  0.00    -0.550 OA
ATOM      4  O   UNL     1     -16.920  13.213  -2.851  1.00  0.00    -0.550 OA
ENDBRANCH   1   2
BRANCH   1   5
ATOM      5  C   UNL     1     -17.598  13.347  -6.106  1.00  0.00     0.059 C 
BRANCH   5   6
ATOM      6  C   UNL     1     -18.557  14.408  -5.662  1.00  0.00     0.042 C 
ATOM      7  O   UNL     1     -18.140  15.564  -5.385  1.00  0.00    -0.550 OA
ATOM      8  O   UNL     1     -19.905  14.109  -5.514  1.00  0.00    -0.550 OA
ENDBRANCH   5   6
ENDBRANCH   1   5
TORSDOF 3
ENDMDL
MODEL 7
REMARK VINA RESULT:    -3.058      1.885      2.457
REMARK INTER + INTRA:          -3.694
REMARK INTER:                  -3.520
REMARK INTRA:                  -0.174
REMARK UNBOUND:                -0.099
REMARK SMILES O=C([O-])CCC(=O)[O-]
REMARK SMILES IDX 4 1 2 2 1 3 3 4 5 5 6 6 7 7 8 8
REMARK H PARENT
REMARK Flexibility Score: inf
ROOT
ATOM      1  C   UNL     1     -18.054  15.292  -5.124  1.00  0.00     0.059 C 
ENDROOT
BRANCH   1   2
ATOM      2  C   UNL     1     -19.022  14.336  -5.752  1.00  0.00     0.042 C 
ATOM      3  O   UNL     1     -18.721  13.742  -6.820  1.00  0.00    -0.550 OA
ATOM      4  O   UNL     1     -20.238  14.069  -5.134  1.00  0.00    -0.550 OA
ENDBRANCH   1   2
BRANCH   1   5
ATOM      5  C   UNL     1     -17.598  14.809  -3.743  1.00  0.00     0.059 C 
BRANCH   5   6
ATOM      6  C   UNL     1     -16.997  13.439  -3.808  1.00  0.00     0.042 C 
ATOM      7  O   UNL     1     -17.437  12.518  -3.069  1.00  0.00    -0.550 OA
ATOM      8  O   UNL     1     -15.926  13.189  -4.655  1.00  0.00    -0.550 OA
ENDBRANCH   5   6
ENDBRANCH   1   5
TORSDOF 3
ENDMDL
MODEL 8
REMARK VINA RESULT:    -2.997      2.374      2.924
REMARK INTER + INTRA:          -3.622
REMARK INTER:                  -3.500
REMARK INTRA:                  -0.122
REMARK UNBOUND:                -0.099
REMARK SMILES O=C([O-])CCC(=O)[O-]
REMARK SMILES IDX 4 1 2 2 1 3 3 4 5 5 6 6 7 7 8 8
REMARK H PARENT
REMARK Flexibility Score: inf
ROOT
ATOM      1  C   UNL     1     -17.878  16.761  -4.192  1.00  0.00     0.059 C 
ENDROOT
BRANCH   1   2
ATOM      2  C   UNL     1     -17.470  16.797  -2.751  1.00  0.00     0.042 C 
ATOM      3  O   UNL     1     -17.216  17.897  -2.193  1.00  0.00    -0.550 OA
ATOM      4  O   UNL     1     -17.411  15.621  -2.014  1.00  0.00    -0.550 OA
ENDBRANCH   1   2
BRANCH   1   5
ATOM      5  C   UNL     1     -18.792  15.568  -4.491  1.00  0.00     0.059 C 
BRANCH   5   6
ATOM      6  C   UNL     1     -18.127  14.575  -5.394  1.00  0.00     0.042 C 
ATOM      7  O   UNL     1     -18.758  14.077  -6.364  1.00  0.00    -0.550 OA
ATOM      8  O   UNL     1     -16.823  14.169  -5.140  1.00  0.00    -0.550 OA
ENDBRANCH   5   6
ENDBRANCH   1   5
TORSDOF 3
ENDMDL
MODEL 9
REMARK VINA RESULT:    -2.972      2.018      4.005
REMARK INTER + INTRA:          -3.593
REMARK INTER:                  -3.558
REMARK INTRA:                  -0.035
REMARK UNBOUND:                -0.099
REMARK SMILES O=C([O-])CCC(=O)[O-]
REMARK SMILES IDX 4 1 2 2 1 3 3 4 5 5 6 6 7 7 8 8
REMARK H PARENT
REMARK Flexibility Score: inf
ROOT
ATOM      1  C   UNL     1     -18.878  15.228  -4.874  1.00  0.00     0.059 C 
ENDROOT
BRANCH   1   2
ATOM      2  C   UNL     1     -18.114  14.243  -5.705  1.00  0.00     0.042 C 
ATOM      3  O   UNL     1     -18.590  13.831  -6.795  1.00  0.00    -0.550 OA
ATOM      4  O   UNL     1     -16.857  13.813  -5.296  1.00  0.00    -0.550 OA
ENDBRANCH   1   2
BRANCH   1   5
ATOM      5  C   UNL     1     -17.997  16.404  -4.439  1.00  0.00     0.059 C 
BRANCH   5   6
ATOM      6  C   UNL     1     -18.518  17.052  -3.193  1.00  0.00     0.042 C 
ATOM      7  O   UNL     1     -19.759  17.142  -2.997  1.00  0.00    -0.550 OA
ATOM      8  O   UNL     1     -17.634  17.593  -2.269  1.00  0.00    -0.550 OA
ENDBRANCH   5   6
ENDBRANCH   1   5
TORSDOF 3
ENDMDL
