MODEL 1
REMARK VINA RESULT:    -1.671      0.000      0.000
REMARK INTER + INTRA:          -4.504
REMARK INTER:                  -3.136
REMARK INTRA:                  -1.369
REMARK UNBOUND:                -1.369
REMARK SMILES CCCCCCCCC=CCCCCCCCC(=O)[O-]
REMARK SMILES IDX 10 1 9 2 11 3 12 4 13 5 14 6 15 7 16 8 17 9 18 10 19 11
REMARK SMILES IDX 20 12 8 13 7 14 6 15 5 16 4 17 3 18 2 19 1 20
REMARK H PARENT
REMARK Flexibility Score: inf
ROOT
ATOM      1  C   UNL     1      -0.460 -15.464 -18.030  1.00  0.00    -0.031 C 
ATOM      2  C   UNL     1      -1.572 -16.028 -18.534  1.00  0.00    -0.031 C 
ENDROOT
BRANCH   1   3
ATOM      3  C   UNL     1       0.566 -14.714 -18.844  1.00  0.00     0.027 C 
BRANCH   3   4
ATOM      4  C   UNL     1       1.727 -14.207 -17.975  1.00  0.00     0.004 C 
BRANCH   4   5
ATOM      5  C   UNL     1       2.777 -13.446 -18.797  1.00  0.00     0.000 C 
BRANCH   5   6
ATOM      6  C   UNL     1       2.274 -12.049 -19.176  1.00  0.00     0.000 C 
BRANCH   6   7
ATOM      7  C   UNL     1       2.832 -10.984 -18.219  1.00  0.00     0.000 C 
BRANCH   7   8
ATOM      8  C   UNL     1       3.766  -9.986 -18.922  1.00  0.00     0.006 C 
BRANCH   8   9
ATOM      9  C   UNL     1       4.555 -10.626 -20.072  1.00  0.00     0.053 C 
BRANCH   9  10
ATOM     10  C   UNL     1       5.930 -10.999 -19.617  1.00  0.00     0.041 C 
ATOM     11  O   UNL     1       6.093 -11.605 -18.525  1.00  0.00    -0.550 OA
ATOM     12  O   UNL     1       7.029 -10.724 -20.422  1.00  0.00    -0.550 OA
ENDBRANCH   9  10
ENDBRANCH   8   9
ENDBRANCH   7   8
ENDBRANCH   6   7
ENDBRANCH   5   6
ENDBRANCH   4   5
ENDBRANCH   3   4
ENDBRANCH   1   3
BRANCH   2  13
ATOM     13  C   UNL     1      -2.010 -15.926 -19.972  1.00  0.00     0.027 C 
BRANCH  13  14
ATOM     14  C   UNL     1      -2.117 -17.319 -20.608  1.00  0.00     0.004 C 
BRANCH  14  15
ATOM     15  C   UNL     1      -1.865 -18.449 -19.598  1.00  0.00     0.000 C 
BRANCH  15  16
ATOM     16  C   UNL     1      -1.264 -19.702 -20.253  1.00  0.00     0.000 C 
BRANCH  16  17
ATOM     17  C   UNL     1       0.138 -19.993 -19.701  1.00  0.00    -0.000 C 
BRANCH  17  18
ATOM     18  C   UNL     1       0.553 -18.933 -18.670  1.00  0.00    -0.000 C 
BRANCH  18  19
ATOM     19  C   UNL     1       0.918 -19.545 -17.307  1.00  0.00    -0.003 C 
ATOM     20  C   UNL     1      -0.294 -20.119 -16.574  1.00  0.00     0.004 C 
ENDBRANCH  18  19
ENDBRANCH  17  18
ENDBRANCH  16  17
ENDBRANCH  15  16
ENDBRANCH  14  15
ENDBRANCH  13  14
ENDBRANCH   2  13
TORSDOF 15
ENDMDL
MODEL 2
REMARK VINA RESULT:    -1.507      3.589      8.810
REMARK INTER + INTRA:          -4.198
REMARK INTER:                  -3.892
REMARK INTRA:                  -0.306
REMARK UNBOUND:                -1.369
REMARK SMILES CCCCCCCCC=CCCCCCCCC(=O)[O-]
REMARK SMILES IDX 10 1 9 2 11 3 12 4 13 5 14 6 15 7 16 8 17 9 18 10 19 11
REMARK SMILES IDX 20 12 8 13 7 14 6 15 5 16 4 17 3 18 2 19 1 20
REMARK H PARENT
REMARK Flexibility Score: inf
ROOT
ATOM      1  C   UNL     1      -0.077 -16.325 -18.295  1.00  0.00    -0.031 C 
ATOM      2  C   UNL     1       1.047 -15.590 -18.231  1.00  0.00    -0.031 C 
ENDROOT
BRANCH   1   3
ATOM      3  C   UNL     1      -1.471 -15.756 -18.394  1.00  0.00     0.027 C 
BRANCH   3   4
ATOM      4  C   UNL     1      -2.123 -16.068 -19.749  1.00  0.00     0.004 C 
BRANCH   4   5
ATOM      5  C   UNL     1      -1.736 -17.458 -20.274  1.00  0.00     0.000 C 
BRANCH   5   6
ATOM      6  C   UNL     1      -1.706 -18.487 -19.140  1.00  0.00     0.000 C 
BRANCH   6   7
ATOM      7  C   UNL     1      -0.693 -19.604 -19.436  1.00  0.00     0.000 C 
BRANCH   7   8
ATOM      8  C   UNL     1       0.053 -20.075 -18.178  1.00  0.00     0.006 C 
BRANCH   8   9
ATOM      9  C   UNL     1      -0.850 -20.125 -16.939  1.00  0.00     0.053 C 
BRANCH   9  10
ATOM     10  C   UNL     1      -0.026 -20.075 -15.691  1.00  0.00     0.041 C 
ATOM     11  O   UNL     1       1.231 -20.125 -15.759  1.00  0.00    -0.550 OA
ATOM     12  O   UNL     1      -0.642 -19.923 -14.455  1.00  0.00    -0.550 OA
ENDBRANCH   9  10
ENDBRANCH   8   9
ENDBRANCH   7   8
ENDBRANCH   6   7
ENDBRANCH   5   6
ENDBRANCH   4   5
ENDBRANCH   3   4
ENDBRANCH   1   3
BRANCH   2  13
ATOM     13  C   UNL     1       1.096 -14.087 -18.335  1.00  0.00     0.027 C 
BRANCH  13  14
ATOM     14  C   UNL     1       2.544 -13.583 -18.248  1.00  0.00     0.004 C 
BRANCH  14  15
ATOM     15  C   UNL     1       2.795 -12.356 -19.137  1.00  0.00     0.000 C 
BRANCH  15  16
ATOM     16  C   UNL     1       2.754 -11.039 -18.348  1.00  0.00     0.000 C 
BRANCH  16  17
ATOM     17  C   UNL     1       3.722 -10.009 -18.945  1.00  0.00    -0.000 C 
BRANCH  17  18
ATOM     18  C   UNL     1       4.653 -10.664 -19.978  1.00  0.00    -0.000 C 
BRANCH  18  19
ATOM     19  C   UNL     1       6.015 -11.053 -19.381  1.00  0.00    -0.003 C 
ATOM     20  C   UNL     1       7.185 -10.710 -20.304  1.00  0.00     0.004 C 
ENDBRANCH  18  19
ENDBRANCH  17  18
ENDBRANCH  16  17
ENDBRANCH  15  16
ENDBRANCH  14  15
ENDBRANCH  13  14
ENDBRANCH   2  13
TORSDOF 15
ENDMDL
MODEL 3
REMARK VINA RESULT:    -1.461      2.893      3.647
REMARK INTER + INTRA:          -4.112
REMARK INTER:                  -3.154
REMARK INTRA:                  -0.958
REMARK UNBOUND:                -1.369
REMARK SMILES CCCCCCCCC=CCCCCCCCC(=O)[O-]
REMARK SMILES IDX 10 1 9 2 11 3 12 4 13 5 14 6 15 7 16 8 17 9 18 10 19 11
REMARK SMILES IDX 20 12 8 13 7 14 6 15 5 16 4 17 3 18 2 19 1 20
REMARK H PARENT
REMARK Flexibility Score: inf
ROOT
ATOM      1  C   UNL     1       1.645 -14.638 -18.084  1.00  0.00    -0.031 C 
ATOM      2  C   UNL     1       0.562 -15.431 -17.993  1.00  0.00    -0.031 C 
ENDROOT
BRANCH   1   3
ATOM      3  C   UNL     1       1.772 -13.462 -19.020  1.00  0.00     0.027 C 
BRANCH   3   4
ATOM      4  C   UNL     1       2.819 -12.450 -18.531  1.00  0.00     0.004 C 
BRANCH   4   5
ATOM      5  C   UNL     1       2.407 -11.001 -18.824  1.00  0.00     0.000 C 
BRANCH   5   6
ATOM      6  C   UNL     1       3.455 -10.013 -18.299  1.00  0.00     0.000 C 
BRANCH   6   7
ATOM      7  C   UNL     1       2.811  -8.965 -17.378  1.00  0.00     0.000 C 
BRANCH   7   8
ATOM      8  C   UNL     1       3.250  -9.115 -15.913  1.00  0.00     0.006 C 
BRANCH   8   9
ATOM      9  C   UNL     1       3.202  -7.789 -15.143  1.00  0.00     0.053 C 
BRANCH   9  10
ATOM     10  C   UNL     1       3.665  -7.985 -13.735  1.00  0.00     0.041 C 
ATOM     11  O   UNL     1       4.115  -7.012 -13.074  1.00  0.00    -0.550 OA
ATOM     12  O   UNL     1       3.555  -9.232 -13.132  1.00  0.00    -0.550 OA
ENDBRANCH   9  10
ENDBRANCH   8   9
ENDBRANCH   7   8
ENDBRANCH   6   7
ENDBRANCH   5   6
ENDBRANCH   4   5
ENDBRANCH   3   4
ENDBRANCH   1   3
BRANCH   2  13
ATOM     13  C   UNL     1      -0.724 -15.216 -18.750  1.00  0.00     0.027 C 
BRANCH  13  14
ATOM     14  C   UNL     1      -1.568 -16.499 -18.762  1.00  0.00     0.004 C 
BRANCH  14  15
ATOM     15  C   UNL     1      -1.108 -17.496 -19.837  1.00  0.00     0.000 C 
BRANCH  15  16
ATOM     16  C   UNL     1      -2.053 -18.701 -19.965  1.00  0.00     0.000 C 
BRANCH  16  17
ATOM     17  C   UNL     1      -1.409 -19.968 -19.388  1.00  0.00    -0.000 C 
BRANCH  17  18
ATOM     18  C   UNL     1       0.085 -19.746 -19.106  1.00  0.00    -0.000 C 
BRANCH  18  19
ATOM     19  C   UNL     1       0.452 -20.000 -17.635  1.00  0.00    -0.003 C 
ATOM     20  C   UNL     1      -0.772 -20.056 -16.720  1.00  0.00     0.004 C 
ENDBRANCH  18  19
ENDBRANCH  17  18
ENDBRANCH  16  17
ENDBRANCH  15  16
ENDBRANCH  14  15
ENDBRANCH  13  14
ENDBRANCH   2  13
TORSDOF 15
ENDMDL
MODEL 4
REMARK VINA RESULT:    -1.325      3.452      8.896
REMARK INTER + INTRA:          -3.856
REMARK INTER:                  -2.885
REMARK INTRA:                  -0.971
REMARK UNBOUND:                -1.369
REMARK SMILES CCCCCCCCC=CCCCCCCCC(=O)[O-]
REMARK SMILES IDX 10 1 9 2 11 3 12 4 13 5 14 6 15 7 16 8 17 9 18 10 19 11
REMARK SMILES IDX 20 12 8 13 7 14 6 15 5 16 4 17 3 18 2 19 1 20
REMARK H PARENT
REMARK Flexibility Score: inf
ROOT
ATOM      1  C   UNL     1       1.367 -14.831 -18.147  1.00  0.00    -0.031 C 
ATOM      2  C   UNL     1       2.376 -13.941 -18.165  1.00  0.00    -0.031 C 
ENDROOT
BRANCH   1   3
ATOM      3  C   UNL     1       0.022 -14.618 -18.796  1.00  0.00     0.027 C 
BRANCH   3   4
ATOM      4  C   UNL     1      -0.991 -15.697 -18.385  1.00  0.00     0.004 C 
BRANCH   4   5
ATOM      5  C   UNL     1      -1.444 -16.552 -19.576  1.00  0.00     0.000 C 
BRANCH   5   6
ATOM      6  C   UNL     1      -1.890 -17.945 -19.117  1.00  0.00     0.000 C 
BRANCH   6   7
ATOM      7  C   UNL     1      -1.468 -19.020 -20.131  1.00  0.00     0.000 C 
BRANCH   7   8
ATOM      8  C   UNL     1      -0.254 -19.835 -19.658  1.00  0.00     0.006 C 
BRANCH   8   9
ATOM      9  C   UNL     1      -0.281 -20.114 -18.150  1.00  0.00     0.053 C 
BRANCH   9  10
ATOM     10  C   UNL     1       0.893 -19.471 -17.480  1.00  0.00     0.041 C 
ATOM     11  O   UNL     1       1.403 -19.997 -16.455  1.00  0.00    -0.550 OA
ATOM     12  O   UNL     1       1.457 -18.320 -18.015  1.00  0.00    -0.550 OA
ENDBRANCH   9  10
ENDBRANCH   8   9
ENDBRANCH   7   8
ENDBRANCH   6   7
ENDBRANCH   5   6
ENDBRANCH   4   5
ENDBRANCH   3   4
ENDBRANCH   1   3
BRANCH   2  13
ATOM     13  C   UNL     1       2.350 -12.631 -18.910  1.00  0.00     0.027 C 
BRANCH  13  14
ATOM     14  C   UNL     1       3.710 -11.925 -18.814  1.00  0.00     0.004 C 
BRANCH  14  15
ATOM     15  C   UNL     1       3.573 -10.403 -18.649  1.00  0.00     0.000 C 
BRANCH  15  16
ATOM     16  C   UNL     1       2.233  -9.997 -18.018  1.00  0.00     0.000 C 
BRANCH  16  17
ATOM     17  C   UNL     1       2.405  -8.784 -17.094  1.00  0.00    -0.000 C 
BRANCH  17  18
ATOM     18  C   UNL     1       3.437  -9.074 -15.993  1.00  0.00    -0.000 C 
BRANCH  18  19
ATOM     19  C   UNL     1       3.425  -8.015 -14.880  1.00  0.00    -0.003 C 
ATOM     20  C   UNL     1       3.788  -8.591 -13.511  1.00  0.00     0.004 C 
ENDBRANCH  18  19
ENDBRANCH  17  18
ENDBRANCH  16  17
ENDBRANCH  15  16
ENDBRANCH  14  15
ENDBRANCH  13  14
ENDBRANCH   2  13
TORSDOF 15
ENDMDL
MODEL 5
REMARK VINA RESULT:    -1.154      3.003      4.387
REMARK INTER + INTRA:          -3.535
REMARK INTER:                  -3.013
REMARK INTRA:                  -0.522
REMARK UNBOUND:                -1.369
REMARK SMILES CCCCCCCCC=CCCCCCCCC(=O)[O-]
REMARK SMILES IDX 10 1 9 2 11 3 12 4 13 5 14 6 15 7 16 8 17 9 18 10 19 11
REMARK SMILES IDX 20 12 8 13 7 14 6 15 5 16 4 17 3 18 2 19 1 20
REMARK H PARENT
REMARK Flexibility Score: inf
ROOT
ATOM      1  C   UNL     1       2.364 -12.734 -19.140  1.00  0.00    -0.031 C 
ATOM      2  C   UNL     1       1.521 -13.754 -18.900  1.00  0.00    -0.031 C 
ENDROOT
BRANCH   1   3
ATOM      3  C   UNL     1       3.663 -12.503 -18.407  1.00  0.00     0.027 C 
BRANCH   3   4
ATOM      4  C   UNL     1       4.505 -11.400 -19.066  1.00  0.00     0.004 C 
BRANCH   4   5
ATOM      5  C   UNL     1       3.820 -10.028 -19.000  1.00  0.00     0.000 C 
BRANCH   5   6
ATOM      6  C   UNL     1       2.586 -10.071 -18.092  1.00  0.00     0.000 C 
BRANCH   6   7
ATOM      7  C   UNL     1       2.487  -8.799 -17.237  1.00  0.00     0.000 C 
BRANCH   7   8
ATOM      8  C   UNL     1       3.172  -8.950 -15.869  1.00  0.00     0.006 C 
BRANCH   8   9
ATOM      9  C   UNL     1       3.303  -7.616 -15.123  1.00  0.00     0.053 C 
BRANCH   9  10
ATOM     10  C   UNL     1       3.646  -7.853 -13.686  1.00  0.00     0.041 C 
ATOM     11  O   UNL     1       4.283  -8.887 -13.349  1.00  0.00    -0.550 OA
ATOM     12  O   UNL     1       3.308  -6.910 -12.723  1.00  0.00    -0.550 OA
ENDBRANCH   9  10
ENDBRANCH   8   9
ENDBRANCH   7   8
ENDBRANCH   6   7
ENDBRANCH   5   6
ENDBRANCH   4   5
ENDBRANCH   3   4
ENDBRANCH   1   3
BRANCH   2  13
ATOM     13  C   UNL     1       1.784 -14.872 -17.923  1.00  0.00     0.027 C 
BRANCH  13  14
ATOM     14  C   UNL     1       0.686 -15.942 -18.015  1.00  0.00     0.004 C 
BRANCH  14  15
ATOM     15  C   UNL     1      -0.646 -15.378 -18.533  1.00  0.00     0.000 C 
BRANCH  15  16
ATOM     16  C   UNL     1      -1.434 -16.400 -19.366  1.00  0.00     0.000 C 
BRANCH  16  17
ATOM     17  C   UNL     1      -1.327 -17.804 -18.758  1.00  0.00    -0.000 C 
BRANCH  17  18
ATOM     18  C   UNL     1      -0.780 -18.808 -19.786  1.00  0.00    -0.000 C 
BRANCH  18  19
ATOM     19  C   UNL     1       0.351 -19.680 -19.217  1.00  0.00    -0.003 C 
ATOM     20  C   UNL     1       0.409 -19.651 -17.689  1.00  0.00     0.004 C 
ENDBRANCH  18  19
ENDBRANCH  17  18
ENDBRANCH  16  17
ENDBRANCH  15  16
ENDBRANCH  14  15
ENDBRANCH  13  14
ENDBRANCH   2  13
TORSDOF 15
ENDMDL
MODEL 6
REMARK VINA RESULT:    -1.078      3.478      8.923
REMARK INTER + INTRA:          -3.392
REMARK INTER:                  -2.622
REMARK INTRA:                  -0.770
REMARK UNBOUND:                -1.369
REMARK SMILES CCCCCCCCC=CCCCCCCCC(=O)[O-]
REMARK SMILES IDX 10 1 9 2 11 3 12 4 13 5 14 6 15 7 16 8 17 9 18 10 19 11
REMARK SMILES IDX 20 12 8 13 7 14 6 15 5 16 4 17 3 18 2 19 1 20
REMARK H PARENT
REMARK Flexibility Score: inf
ROOT
ATOM      1  C   UNL     1       1.373 -15.354 -18.226  1.00  0.00    -0.031 C 
ATOM      2  C   UNL     1       2.283 -14.446 -18.623  1.00  0.00    -0.031 C 
ENDROOT
BRANCH   1   3
ATOM      3  C   UNL     1      -0.084 -15.057 -17.976  1.00  0.00     0.027 C 
BRANCH   3   4
ATOM      4  C   UNL     1      -0.987 -15.664 -19.060  1.00  0.00     0.004 C 
BRANCH   4   5
ATOM      5  C   UNL     1      -2.065 -16.585 -18.471  1.00  0.00     0.000 C 
BRANCH   5   6
ATOM      6  C   UNL     1      -1.763 -18.056 -18.781  1.00  0.00     0.000 C 
BRANCH   6   7
ATOM      7  C   UNL     1      -0.300 -18.238 -19.214  1.00  0.00     0.000 C 
BRANCH   7   8
ATOM      8  C   UNL     1       0.313 -19.547 -18.694  1.00  0.00     0.006 C 
BRANCH   8   9
ATOM      9  C   UNL     1      -0.415 -20.090 -17.457  1.00  0.00     0.053 C 
BRANCH   9  10
ATOM     10  C   UNL     1       0.479 -20.032 -16.258  1.00  0.00     0.041 C 
ATOM     11  O   UNL     1      -0.014 -20.056 -15.099  1.00  0.00    -0.550 OA
ATOM     12  O   UNL     1       1.859 -20.003 -16.418  1.00  0.00    -0.550 OA
ENDBRANCH   9  10
ENDBRANCH   8   9
ENDBRANCH   7   8
ENDBRANCH   6   7
ENDBRANCH   5   6
ENDBRANCH   4   5
ENDBRANCH   3   4
ENDBRANCH   1   3
BRANCH   2  13
ATOM     13  C   UNL     1       1.969 -13.011 -18.963  1.00  0.00     0.027 C 
BRANCH  13  14
ATOM     14  C   UNL     1       3.048 -12.073 -18.402  1.00  0.00     0.004 C 
BRANCH  14  15
ATOM     15  C   UNL     1       2.660 -10.591 -18.523  1.00  0.00     0.000 C 
BRANCH  15  16
ATOM     16  C   UNL     1       3.789  -9.733 -19.114  1.00  0.00     0.000 C 
BRANCH  16  17
ATOM     17  C   UNL     1       4.559 -10.505 -20.193  1.00  0.00    -0.000 C 
BRANCH  17  18
ATOM     18  C   UNL     1       5.966 -10.878 -19.702  1.00  0.00    -0.000 C 
BRANCH  18  19
ATOM     19  C   UNL     1       7.036 -10.714 -20.794  1.00  0.00    -0.003 C 
ATOM     20  C   UNL     1       8.362 -10.185 -20.249  1.00  0.00     0.004 C 
ENDBRANCH  18  19
ENDBRANCH  17  18
ENDBRANCH  16  17
ENDBRANCH  15  16
ENDBRANCH  14  15
ENDBRANCH  13  14
ENDBRANCH   2  13
TORSDOF 15
ENDMDL
MODEL 7
REMARK VINA RESULT:    -1.059      0.930      1.901
REMARK INTER + INTRA:          -3.357
REMARK INTER:                  -2.689
REMARK INTRA:                  -0.668
REMARK UNBOUND:                -1.369
REMARK SMILES CCCCCCCCC=CCCCCCCCC(=O)[O-]
REMARK SMILES IDX 10 1 9 2 11 3 12 4 13 5 14 6 15 7 16 8 17 9 18 10 19 11
REMARK SMILES IDX 20 12 8 13 7 14 6 15 5 16 4 17 3 18 2 19 1 20
REMARK H PARENT
REMARK Flexibility Score: inf
ROOT
ATOM      1  C   UNL     1       1.540 -14.738 -17.984  1.00  0.00    -0.031 C 
ATOM      2  C   UNL     1       0.367 -15.394 -17.957  1.00  0.00    -0.031 C 
ENDROOT
BRANCH   1   3
ATOM      3  C   UNL     1       1.972 -13.796 -19.080  1.00  0.00     0.027 C 
BRANCH   3   4
ATOM      4  C   UNL     1       2.761 -12.599 -18.528  1.00  0.00     0.004 C 
BRANCH   4   5
ATOM      5  C   UNL     1       2.086 -11.259 -18.851  1.00  0.00     0.000 C 
BRANCH   5   6
ATOM      6  C   UNL     1       2.859 -10.089 -18.234  1.00  0.00     0.000 C 
BRANCH   6   7
ATOM      7  C   UNL     1       4.283 -10.008 -18.804  1.00  0.00     0.000 C 
BRANCH   7   8
ATOM      8  C   UNL     1       4.306 -10.003 -20.341  1.00  0.00     0.006 C 
BRANCH   8   9
ATOM      9  C   UNL     1       5.513 -10.754 -20.916  1.00  0.00     0.053 C 
BRANCH   9  10
ATOM     10  C   UNL     1       6.541 -10.982 -19.854  1.00  0.00     0.041 C 
ATOM     11  O   UNL     1       7.671 -10.430 -19.936  1.00  0.00    -0.550 OA
ATOM     12  O   UNL     1       6.237 -11.762 -18.745  1.00  0.00    -0.550 OA
ENDBRANCH   9  10
ENDBRANCH   8   9
ENDBRANCH   7   8
ENDBRANCH   6   7
ENDBRANCH   5   6
ENDBRANCH   4   5
ENDBRANCH   3   4
ENDBRANCH   1   3
BRANCH   2  13
ATOM     13  C   UNL     1      -0.734 -15.223 -18.973  1.00  0.00     0.027 C 
BRANCH  13  14
ATOM     14  C   UNL     1      -2.064 -15.768 -18.429  1.00  0.00     0.004 C 
BRANCH  14  15
ATOM     15  C   UNL     1      -2.124 -17.304 -18.451  1.00  0.00     0.000 C 
BRANCH  15  16
ATOM     16  C   UNL     1      -1.751 -17.888 -19.822  1.00  0.00     0.000 C 
BRANCH  16  17
ATOM     17  C   UNL     1      -0.814 -19.093 -19.670  1.00  0.00    -0.000 C 
BRANCH  17  18
ATOM     18  C   UNL     1      -1.073 -19.827 -18.345  1.00  0.00    -0.000 C 
BRANCH  18  19
ATOM     19  C   UNL     1       0.215 -20.067 -17.540  1.00  0.00    -0.003 C 
ATOM     20  C   UNL     1       1.269 -18.984 -17.774  1.00  0.00     0.004 C 
ENDBRANCH  18  19
ENDBRANCH  17  18
ENDBRANCH  16  17
ENDBRANCH  15  16
ENDBRANCH  14  15
ENDBRANCH  13  14
ENDBRANCH   2  13
TORSDOF 15
ENDMDL
MODEL 8
REMARK VINA RESULT:    -1.041      3.422      9.053
REMARK INTER + INTRA:          -3.322
REMARK INTER:                  -2.388
REMARK INTRA:                  -0.934
REMARK UNBOUND:                -1.369
REMARK SMILES CCCCCCCCC=CCCCCCCCC(=O)[O-]
REMARK SMILES IDX 10 1 9 2 11 3 12 4 13 5 14 6 15 7 16 8 17 9 18 10 19 11
REMARK SMILES IDX 20 12 8 13 7 14 6 15 5 16 4 17 3 18 2 19 1 20
REMARK H PARENT
REMARK Flexibility Score: inf
ROOT
ATOM      1  C   UNL     1       2.059 -14.484 -18.403  1.00  0.00    -0.031 C 
ATOM      2  C   UNL     1       2.740 -13.383 -18.768  1.00  0.00    -0.031 C 
ENDROOT
BRANCH   1   3
ATOM      3  C   UNL     1       0.595 -14.506 -18.037  1.00  0.00     0.027 C 
BRANCH   3   4
ATOM      4  C   UNL     1      -0.062 -15.851 -18.382  1.00  0.00     0.004 C 
BRANCH   4   5
ATOM      5  C   UNL     1      -1.573 -15.716 -18.619  1.00  0.00     0.000 C 
BRANCH   5   6
ATOM      6  C   UNL     1      -2.097 -16.861 -19.494  1.00  0.00     0.000 C 
BRANCH   6   7
ATOM      7  C   UNL     1      -0.973 -17.848 -19.840  1.00  0.00     0.000 C 
BRANCH   7   8
ATOM      8  C   UNL     1      -1.240 -19.262 -19.302  1.00  0.00     0.006 C 
BRANCH   8   9
ATOM      9  C   UNL     1       0.040 -19.971 -18.840  1.00  0.00     0.053 C 
BRANCH   9  10
ATOM     10  C   UNL     1       0.213 -19.827 -17.361  1.00  0.00     0.041 C 
ATOM     11  O   UNL     1       1.336 -19.520 -16.881  1.00  0.00    -0.550 OA
ATOM     12  O   UNL     1      -0.877 -19.981 -16.514  1.00  0.00    -0.550 OA
ENDBRANCH   9  10
ENDBRANCH   8   9
ENDBRANCH   7   8
ENDBRANCH   6   7
ENDBRANCH   5   6
ENDBRANCH   4   5
ENDBRANCH   3   4
ENDBRANCH   1   3
BRANCH   2  13
ATOM     13  C   UNL     1       2.128 -12.018 -18.951  1.00  0.00     0.027 C 
BRANCH  13  14
ATOM     14  C   UNL     1       2.979 -10.944 -18.258  1.00  0.00     0.004 C 
BRANCH  14  15
ATOM     15  C   UNL     1       3.504  -9.884 -19.239  1.00  0.00     0.000 C 
BRANCH  15  16
ATOM     16  C   UNL     1       4.713 -10.377 -20.048  1.00  0.00     0.000 C 
BRANCH  16  17
ATOM     17  C   UNL     1       5.572 -11.341 -19.220  1.00  0.00    -0.000 C 
BRANCH  17  18
ATOM     18  C   UNL     1       7.067 -11.026 -19.386  1.00  0.00    -0.000 C 
BRANCH  18  19
ATOM     19  C   UNL     1       7.407 -10.498 -20.789  1.00  0.00    -0.003 C 
ATOM     20  C   UNL     1       8.858 -10.031 -20.910  1.00  0.00     0.004 C 
ENDBRANCH  18  19
ENDBRANCH  17  18
ENDBRANCH  16  17
ENDBRANCH  15  16
ENDBRANCH  14  15
ENDBRANCH  13  14
ENDBRANCH   2  13
TORSDOF 15
ENDMDL
MODEL 9
REMARK VINA RESULT:    -0.818      4.531      9.738
REMARK INTER + INTRA:          -2.904
REMARK INTER:                  -2.547
REMARK INTRA:                  -0.358
REMARK UNBOUND:                -1.369
REMARK SMILES CCCCCCCCC=CCCCCCCCC(=O)[O-]
REMARK SMILES IDX 10 1 9 2 11 3 12 4 13 5 14 6 15 7 16 8 17 9 18 10 19 11
REMARK SMILES IDX 20 12 8 13 7 14 6 15 5 16 4 17 3 18 2 19 1 20
REMARK H PARENT
REMARK Flexibility Score: inf
ROOT
ATOM      1  C   UNL     1       3.788 -12.282 -19.122  1.00  0.00    -0.031 C 
ATOM      2  C   UNL     1       4.254 -11.022 -19.058  1.00  0.00    -0.031 C 
ENDROOT
BRANCH   1   3
ATOM      3  C   UNL     1       2.365 -12.687 -18.826  1.00  0.00     0.027 C 
BRANCH   3   4
ATOM      4  C   UNL     1       2.280 -14.115 -18.266  1.00  0.00     0.004 C 
BRANCH   4   5
ATOM      5  C   UNL     1       0.834 -14.624 -18.189  1.00  0.00     0.000 C 
BRANCH   5   6
ATOM      6  C   UNL     1       0.757 -16.118 -18.523  1.00  0.00     0.000 C 
BRANCH   6   7
ATOM      7  C   UNL     1      -0.696 -16.616 -18.484  1.00  0.00     0.000 C 
BRANCH   7   8
ATOM      8  C   UNL     1      -1.018 -17.591 -19.628  1.00  0.00     0.006 C 
BRANCH   8   9
ATOM      9  C   UNL     1      -0.453 -18.996 -19.382  1.00  0.00     0.053 C 
BRANCH   9  10
ATOM     10  C   UNL     1      -0.674 -19.407 -17.961  1.00  0.00     0.041 C 
ATOM     11  O   UNL     1       0.287 -19.839 -17.270  1.00  0.00    -0.550 OA
ATOM     12  O   UNL     1      -1.928 -19.265 -17.381  1.00  0.00    -0.550 OA
ENDBRANCH   9  10
ENDBRANCH   8   9
ENDBRANCH   7   8
ENDBRANCH   6   7
ENDBRANCH   5   6
ENDBRANCH   4   5
ENDBRANCH   3   4
ENDBRANCH   1   3
BRANCH   2  13
ATOM     13  C   UNL     1       3.409  -9.809 -18.766  1.00  0.00     0.027 C 
BRANCH  13  14
ATOM     14  C   UNL     1       2.921  -9.825 -17.310  1.00  0.00     0.004 C 
BRANCH  14  15
ATOM     15  C   UNL     1       2.292  -8.490 -16.884  1.00  0.00     0.000 C 
BRANCH  15  16
ATOM     16  C   UNL     1       3.109  -7.773 -15.799  1.00  0.00     0.000 C 
BRANCH  16  17
ATOM     17  C   UNL     1       3.794  -8.783 -14.870  1.00  0.00    -0.000 C 
BRANCH  17  18
ATOM     18  C   UNL     1       3.460  -8.491 -13.399  1.00  0.00    -0.000 C 
BRANCH  18  19
ATOM     19  C   UNL     1       3.746  -7.033 -13.005  1.00  0.00    -0.003 C 
ATOM     20  C   UNL     1       2.478  -6.255 -12.652  1.00  0.00     0.004 C 
ENDBRANCH  18  19
ENDBRANCH  17  18
ENDBRANCH  16  17
ENDBRANCH  15  16
ENDBRANCH  14  15
ENDBRANCH  13  14
ENDBRANCH   2  13
TORSDOF 15
ENDMDL
