MODEL 1
REMARK VINA RESULT:    -7.642      0.000      0.000
REMARK INTER + INTRA:          -8.322
REMARK INTER:                  -8.089
REMARK INTRA:                  -0.233
REMARK UNBOUND:                -0.233
REMARK SMILES O=c1cc(-c2ccccc2)oc2ccccc12
REMARK SMILES IDX 4 1 3 2 2 3 1 4 17 5 16 6 15 7 14 8 13 9 12 10 11 11 5 12
REMARK SMILES IDX 8 13 7 14 9 15 6 16 10 17
REMARK H PARENT
REMARK Flexibility Score: inf
ROOT
ATOM      1  C   UNL     1     -34.719  -5.194 -16.171  1.00  0.00     0.138 A 
ATOM      2  C   UNL     1     -35.374  -4.427 -17.158  1.00  0.00     0.100 A 
ATOM      3  C   UNL     1     -34.627  -3.584 -17.983  1.00  0.00     0.193 A 
ATOM      4  O   UNL     1     -35.213  -2.900 -18.866  1.00  0.00    -0.289 OA
ATOM      5  C   UNL     1     -33.237  -3.513 -17.820  1.00  0.00     0.065 A 
ATOM      6  C   UNL     1     -32.426  -2.686 -18.618  1.00  0.00     0.016 A 
ATOM      7  C   UNL     1     -31.043  -2.652 -18.412  1.00  0.00     0.001 A 
ATOM      8  C   UNL     1     -30.462  -3.439 -17.414  1.00  0.00     0.004 A 
ATOM      9  C   UNL     1     -31.259  -4.265 -16.618  1.00  0.00     0.048 A 
ATOM     10  C   UNL     1     -32.644  -4.306 -16.815  1.00  0.00     0.138 A 
ATOM     11  O   UNL     1     -33.394  -5.094 -16.051  1.00  0.00    -0.456 OA
ENDROOT
BRANCH   1  12
ATOM     12  C   UNL     1     -35.443  -6.120 -15.247  1.00  0.00     0.017 A 
ATOM     13  C   UNL     1     -36.776  -7.814 -13.425  1.00  0.00     0.000 A 
ATOM     14  C   UNL     1     -36.030  -6.735 -12.955  1.00  0.00     0.001 A 
ATOM     15  C   UNL     1     -36.863  -8.057 -14.795  1.00  0.00     0.001 A 
ATOM     16  C   UNL     1     -35.369  -5.894 -13.855  1.00  0.00     0.012 A 
ATOM     17  C   UNL     1     -36.205  -7.221 -15.703  1.00  0.00     0.012 A 
ENDBRANCH   1  12
TORSDOF 1
ENDMDL
MODEL 2
REMARK VINA RESULT:    -7.613      0.152      1.183
REMARK INTER + INTRA:          -8.292
REMARK INTER:                  -8.060
REMARK INTRA:                  -0.232
REMARK UNBOUND:                -0.233
REMARK SMILES O=c1cc(-c2ccccc2)oc2ccccc12
REMARK SMILES IDX 4 1 3 2 2 3 1 4 17 5 16 6 15 7 14 8 13 9 12 10 11 11 5 12
REMARK SMILES IDX 8 13 7 14 9 15 6 16 10 17
REMARK H PARENT
REMARK Flexibility Score: inf
ROOT
ATOM      1  C   UNL     1     -34.684  -5.102 -16.190  1.00  0.00     0.138 A 
ATOM      2  C   UNL     1     -35.384  -4.376 -17.177  1.00  0.00     0.100 A 
ATOM      3  C   UNL     1     -34.680  -3.535 -18.042  1.00  0.00     0.193 A 
ATOM      4  O   UNL     1     -35.307  -2.887 -18.924  1.00  0.00    -0.289 OA
ATOM      5  C   UNL     1     -33.289  -3.424 -17.917  1.00  0.00     0.065 A 
ATOM      6  C   UNL     1     -32.520  -2.596 -18.755  1.00  0.00     0.016 A 
ATOM      7  C   UNL     1     -31.134  -2.521 -18.586  1.00  0.00     0.001 A 
ATOM      8  C   UNL     1     -30.507  -3.269 -17.585  1.00  0.00     0.004 A 
ATOM      9  C   UNL     1     -31.262  -4.095 -16.749  1.00  0.00     0.048 A 
ATOM     10  C   UNL     1     -32.650  -4.177 -16.909  1.00  0.00     0.138 A 
ATOM     11  O   UNL     1     -33.360  -4.965 -16.107  1.00  0.00    -0.456 OA
ENDROOT
BRANCH   1  12
ATOM     12  C   UNL     1     -35.359  -6.023 -15.225  1.00  0.00     0.017 A 
ATOM     13  C   UNL     1     -36.667  -7.816 -13.481  1.00  0.00     0.000 A 
ATOM     14  C   UNL     1     -36.725  -8.016 -14.860  1.00  0.00     0.001 A 
ATOM     15  C   UNL     1     -35.962  -6.729 -12.965  1.00  0.00     0.001 A 
ATOM     16  C   UNL     1     -36.078  -7.130 -15.725  1.00  0.00     0.012 A 
ATOM     17  C   UNL     1     -35.312  -5.837 -13.824  1.00  0.00     0.012 A 
ENDBRANCH   1  12
TORSDOF 1
ENDMDL
MODEL 3
REMARK VINA RESULT:    -7.038      4.948      7.616
REMARK INTER + INTRA:          -7.683
REMARK INTER:                  -7.440
REMARK INTRA:                  -0.243
REMARK UNBOUND:                -0.233
REMARK SMILES O=c1cc(-c2ccccc2)oc2ccccc12
REMARK SMILES IDX 4 1 3 2 2 3 1 4 17 5 16 6 15 7 14 8 13 9 12 10 11 11 5 12
REMARK SMILES IDX 8 13 7 14 9 15 6 16 10 17
REMARK H PARENT
REMARK Flexibility Score: inf
ROOT
ATOM      1  C   UNL     1     -39.813  -5.758 -12.185  1.00  0.00     0.138 A 
ATOM      2  C   UNL     1     -40.580  -6.920 -12.417  1.00  0.00     0.100 A 
ATOM      3  C   UNL     1     -40.073  -7.926 -13.243  1.00  0.00     0.193 A 
ATOM      4  O   UNL     1     -40.758  -8.964 -13.449  1.00  0.00    -0.289 OA
ATOM      5  C   UNL     1     -38.810  -7.767 -13.829  1.00  0.00     0.065 A 
ATOM      6  C   UNL     1     -38.241  -8.740 -14.670  1.00  0.00     0.016 A 
ATOM      7  C   UNL     1     -36.977  -8.531 -15.230  1.00  0.00     0.001 A 
ATOM      8  C   UNL     1     -36.274  -7.354 -14.956  1.00  0.00     0.004 A 
ATOM      9  C   UNL     1     -36.831  -6.382 -14.121  1.00  0.00     0.048 A 
ATOM     10  C   UNL     1     -38.095  -6.581 -13.556  1.00  0.00     0.138 A 
ATOM     11  O   UNL     1     -38.617  -5.649 -12.764  1.00  0.00    -0.456 OA
ENDROOT
BRANCH   1  12
ATOM     12  C   UNL     1     -40.281  -4.635 -11.315  1.00  0.00     0.017 A 
ATOM     13  C   UNL     1     -41.190  -2.582  -9.605  1.00  0.00     0.000 A 
ATOM     14  C   UNL     1     -41.285  -3.915  -9.207  1.00  0.00     0.001 A 
ATOM     15  C   UNL     1     -40.645  -2.265 -10.849  1.00  0.00     0.001 A 
ATOM     16  C   UNL     1     -40.836  -4.934 -10.052  1.00  0.00     0.012 A 
ATOM     17  C   UNL     1     -40.193  -3.277 -11.701  1.00  0.00     0.012 A 
ENDBRANCH   1  12
TORSDOF 1
ENDMDL
MODEL 4
REMARK VINA RESULT:    -6.921      2.509      6.942
REMARK INTER + INTRA:          -7.559
REMARK INTER:                  -7.301
REMARK INTRA:                  -0.258
REMARK UNBOUND:                -0.233
REMARK SMILES O=c1cc(-c2ccccc2)oc2ccccc12
REMARK SMILES IDX 4 1 3 2 2 3 1 4 17 5 16 6 15 7 14 8 13 9 12 10 11 11 5 12
REMARK SMILES IDX 8 13 7 14 9 15 6 16 10 17
REMARK H PARENT
REMARK Flexibility Score: inf
ROOT
ATOM      1  C   UNL     1     -36.531  -5.828 -15.913  1.00  0.00     0.138 A 
ATOM      2  C   UNL     1     -36.070  -7.127 -15.609  1.00  0.00     0.100 A 
ATOM      3  C   UNL     1     -36.843  -7.959 -14.798  1.00  0.00     0.193 A 
ATOM      4  O   UNL     1     -36.431  -9.120 -14.527  1.00  0.00    -0.289 OA
ATOM      5  C   UNL     1     -38.066  -7.493 -14.296  1.00  0.00     0.065 A 
ATOM      6  C   UNL     1     -38.893  -8.280 -13.474  1.00  0.00     0.016 A 
ATOM      7  C   UNL     1     -40.104  -7.765 -13.000  1.00  0.00     0.001 A 
ATOM      8  C   UNL     1     -40.497  -6.467 -13.342  1.00  0.00     0.004 A 
ATOM      9  C   UNL     1     -39.683  -5.679 -14.159  1.00  0.00     0.048 A 
ATOM     10  C   UNL     1     -38.469  -6.185 -14.638  1.00  0.00     0.138 A 
ATOM     11  O   UNL     1     -37.700  -5.426 -15.414  1.00  0.00    -0.456 OA
ENDROOT
BRANCH   1  12
ATOM     12  C   UNL     1     -35.766  -4.873 -16.774  1.00  0.00     0.017 A 
ATOM     13  C   UNL     1     -34.238  -3.119 -18.371  1.00  0.00     0.000 A 
ATOM     14  C   UNL     1     -33.607  -4.125 -17.640  1.00  0.00     0.001 A 
ATOM     15  C   UNL     1     -35.624  -2.981 -18.312  1.00  0.00     0.001 A 
ATOM     16  C   UNL     1     -34.361  -4.995 -16.849  1.00  0.00     0.012 A 
ATOM     17  C   UNL     1     -36.387  -3.847 -17.522  1.00  0.00     0.012 A 
ENDBRANCH   1  12
TORSDOF 1
ENDMDL
MODEL 5
REMARK VINA RESULT:    -6.901      3.030      4.909
REMARK INTER + INTRA:          -7.538
REMARK INTER:                  -7.317
REMARK INTRA:                  -0.221
REMARK UNBOUND:                -0.233
REMARK SMILES O=c1cc(-c2ccccc2)oc2ccccc12
REMARK SMILES IDX 4 1 3 2 2 3 1 4 17 5 16 6 15 7 14 8 13 9 12 10 11 11 5 12
REMARK SMILES IDX 8 13 7 14 9 15 6 16 10 17
REMARK H PARENT
REMARK Flexibility Score: inf
ROOT
ATOM      1  C   UNL     1     -35.682  -4.891 -19.077  1.00  0.00     0.138 A 
ATOM      2  C   UNL     1     -35.763  -5.601 -17.859  1.00  0.00     0.100 A 
ATOM      3  C   UNL     1     -34.729  -5.493 -16.928  1.00  0.00     0.193 A 
ATOM      4  O   UNL     1     -34.803  -6.127 -15.840  1.00  0.00    -0.289 OA
ATOM      5  C   UNL     1     -33.624  -4.679 -17.216  1.00  0.00     0.065 A 
ATOM      6  C   UNL     1     -32.549  -4.525 -16.322  1.00  0.00     0.016 A 
ATOM      7  C   UNL     1     -31.470  -3.702 -16.659  1.00  0.00     0.001 A 
ATOM      8  C   UNL     1     -31.456  -3.029 -17.884  1.00  0.00     0.004 A 
ATOM      9  C   UNL     1     -32.520  -3.175 -18.777  1.00  0.00     0.048 A 
ATOM     10  C   UNL     1     -33.605  -3.997 -18.450  1.00  0.00     0.138 A 
ATOM     11  O   UNL     1     -34.612  -4.130 -19.308  1.00  0.00    -0.456 OA
ENDROOT
BRANCH   1  12
ATOM     12  C   UNL     1     -36.745  -4.952 -20.127  1.00  0.00     0.017 A 
ATOM     13  C   UNL     1     -38.799  -4.994 -22.061  1.00  0.00     0.000 A 
ATOM     14  C   UNL     1     -38.865  -4.100 -20.993  1.00  0.00     0.001 A 
ATOM     15  C   UNL     1     -37.718  -5.868 -22.172  1.00  0.00     0.001 A 
ATOM     16  C   UNL     1     -37.849  -4.077 -20.034  1.00  0.00     0.012 A 
ATOM     17  C   UNL     1     -36.697  -5.852 -21.217  1.00  0.00     0.012 A 
ENDBRANCH   1  12
TORSDOF 1
ENDMDL
MODEL 6
REMARK VINA RESULT:    -6.846      1.429      6.180
REMARK INTER + INTRA:          -7.480
REMARK INTER:                  -7.247
REMARK INTRA:                  -0.233
REMARK UNBOUND:                -0.233
REMARK SMILES O=c1cc(-c2ccccc2)oc2ccccc12
REMARK SMILES IDX 4 1 3 2 2 3 1 4 17 5 16 6 15 7 14 8 13 9 12 10 11 11 5 12
REMARK SMILES IDX 8 13 7 14 9 15 6 16 10 17
REMARK H PARENT
REMARK Flexibility Score: inf
ROOT
ATOM      1  C   UNL     1     -34.356  -4.802 -15.689  1.00  0.00     0.138 A 
ATOM      2  C   UNL     1     -34.538  -4.385 -14.353  1.00  0.00     0.100 A 
ATOM      3  C   UNL     1     -35.477  -5.035 -13.550  1.00  0.00     0.193 A 
ATOM      4  O   UNL     1     -35.638  -4.663 -12.356  1.00  0.00    -0.289 OA
ATOM      5  C   UNL     1     -36.227  -6.093 -14.084  1.00  0.00     0.065 A 
ATOM      6  C   UNL     1     -37.189  -6.790 -13.331  1.00  0.00     0.016 A 
ATOM      7  C   UNL     1     -37.910  -7.837 -13.912  1.00  0.00     0.001 A 
ATOM      8  C   UNL     1     -37.678  -8.195 -15.244  1.00  0.00     0.004 A 
ATOM      9  C   UNL     1     -36.724  -7.509 -15.999  1.00  0.00     0.048 A 
ATOM     10  C   UNL     1     -35.997  -6.459 -15.427  1.00  0.00     0.138 A 
ATOM     11  O   UNL     1     -35.092  -5.812 -16.155  1.00  0.00    -0.456 OA
ENDROOT
BRANCH   1  12
ATOM     12  C   UNL     1     -33.372  -4.160 -16.615  1.00  0.00     0.017 A 
ATOM     13  C   UNL     1     -31.443  -2.974 -18.299  1.00  0.00     0.000 A 
ATOM     14  C   UNL     1     -31.051  -3.569 -17.100  1.00  0.00     0.001 A 
ATOM     15  C   UNL     1     -32.788  -2.965 -18.664  1.00  0.00     0.001 A 
ATOM     16  C   UNL     1     -32.005  -4.158 -16.265  1.00  0.00     0.012 A 
ATOM     17  C   UNL     1     -33.749  -3.551 -17.834  1.00  0.00     0.012 A 
ENDBRANCH   1  12
TORSDOF 1
ENDMDL
MODEL 7
REMARK VINA RESULT:    -6.716      2.753      6.899
REMARK INTER + INTRA:          -7.342
REMARK INTER:                  -7.090
REMARK INTRA:                  -0.252
REMARK UNBOUND:                -0.233
REMARK SMILES O=c1cc(-c2ccccc2)oc2ccccc12
REMARK SMILES IDX 4 1 3 2 2 3 1 4 17 5 16 6 15 7 14 8 13 9 12 10 11 11 5 12
REMARK SMILES IDX 8 13 7 14 9 15 6 16 10 17
REMARK H PARENT
REMARK Flexibility Score: inf
ROOT
ATOM      1  C   UNL     1     -36.414  -5.675 -14.689  1.00  0.00     0.138 A 
ATOM      2  C   UNL     1     -37.079  -4.742 -13.865  1.00  0.00     0.100 A 
ATOM      3  C   UNL     1     -38.261  -5.113 -13.221  1.00  0.00     0.193 A 
ATOM      4  O   UNL     1     -38.855  -4.279 -12.484  1.00  0.00    -0.289 OA
ATOM      5  C   UNL     1     -38.771  -6.406 -13.402  1.00  0.00     0.065 A 
ATOM      6  C   UNL     1     -39.955  -6.843 -12.783  1.00  0.00     0.016 A 
ATOM      7  C   UNL     1     -40.420  -8.145 -12.999  1.00  0.00     0.001 A 
ATOM      8  C   UNL     1     -39.709  -9.016 -13.829  1.00  0.00     0.004 A 
ATOM      9  C   UNL     1     -38.530  -8.590 -14.447  1.00  0.00     0.048 A 
ATOM     10  C   UNL     1     -38.057  -7.290 -14.239  1.00  0.00     0.138 A 
ATOM     11  O   UNL     1     -36.935  -6.895 -14.833  1.00  0.00    -0.456 OA
ENDROOT
BRANCH   1  12
ATOM     12  C   UNL     1     -35.144  -5.361 -15.414  1.00  0.00     0.017 A 
ATOM     13  C   UNL     1     -32.780  -4.823 -16.858  1.00  0.00     0.000 A 
ATOM     14  C   UNL     1     -33.761  -5.646 -17.408  1.00  0.00     0.001 A 
ATOM     15  C   UNL     1     -32.967  -4.266 -15.593  1.00  0.00     0.001 A 
ATOM     16  C   UNL     1     -34.933  -5.913 -16.696  1.00  0.00     0.012 A 
ATOM     17  C   UNL     1     -34.136  -4.529 -14.873  1.00  0.00     0.012 A 
ENDBRANCH   1  12
TORSDOF 1
ENDMDL
MODEL 8
REMARK VINA RESULT:    -6.715      3.086      7.001
REMARK INTER + INTRA:          -7.341
REMARK INTER:                  -7.110
REMARK INTRA:                  -0.231
REMARK UNBOUND:                -0.233
REMARK SMILES O=c1cc(-c2ccccc2)oc2ccccc12
REMARK SMILES IDX 4 1 3 2 2 3 1 4 17 5 16 6 15 7 14 8 13 9 12 10 11 11 5 12
REMARK SMILES IDX 8 13 7 14 9 15 6 16 10 17
REMARK H PARENT
REMARK Flexibility Score: inf
ROOT
ATOM      1  C   UNL     1     -36.925  -6.163 -15.302  1.00  0.00     0.138 A 
ATOM      2  C   UNL     1     -37.538  -7.428 -15.434  1.00  0.00     0.100 A 
ATOM      3  C   UNL     1     -38.619  -7.758 -14.615  1.00  0.00     0.193 A 
ATOM      4  O   UNL     1     -39.166  -8.888 -14.734  1.00  0.00    -0.289 OA
ATOM      5  C   UNL     1     -39.080  -6.828 -13.673  1.00  0.00     0.065 A 
ATOM      6  C   UNL     1     -40.164  -7.096 -12.817  1.00  0.00     0.016 A 
ATOM      7  C   UNL     1     -40.583  -6.133 -11.894  1.00  0.00     0.001 A 
ATOM      8  C   UNL     1     -39.928  -4.901 -11.818  1.00  0.00     0.004 A 
ATOM      9  C   UNL     1     -38.851  -4.625 -12.665  1.00  0.00     0.048 A 
ATOM     10  C   UNL     1     -38.423  -5.582 -13.592  1.00  0.00     0.138 A 
ATOM     11  O   UNL     1     -37.397  -5.311 -14.392  1.00  0.00    -0.456 OA
ENDROOT
BRANCH   1  12
ATOM     12  C   UNL     1     -35.763  -5.731 -16.140  1.00  0.00     0.017 A 
ATOM     13  C   UNL     1     -33.629  -4.924 -17.800  1.00  0.00     0.000 A 
ATOM     14  C   UNL     1     -34.864  -5.250 -18.360  1.00  0.00     0.001 A 
ATOM     15  C   UNL     1     -33.450  -4.998 -16.420  1.00  0.00     0.001 A 
ATOM     16  C   UNL     1     -35.922  -5.649 -17.540  1.00  0.00     0.012 A 
ATOM     17  C   UNL     1     -34.503  -5.397 -15.592  1.00  0.00     0.012 A 
ENDBRANCH   1  12
TORSDOF 1
ENDMDL
MODEL 9
REMARK VINA RESULT:    -6.701      1.411      5.838
REMARK INTER + INTRA:          -7.326
REMARK INTER:                  -7.060
REMARK INTRA:                  -0.266
REMARK UNBOUND:                -0.233
REMARK SMILES O=c1cc(-c2ccccc2)oc2ccccc12
REMARK SMILES IDX 4 1 3 2 2 3 1 4 17 5 16 6 15 7 14 8 13 9 12 10 11 11 5 12
REMARK SMILES IDX 8 13 7 14 9 15 6 16 10 17
REMARK H PARENT
REMARK Flexibility Score: inf
ROOT
ATOM      1  C   UNL     1     -34.657  -4.690 -16.950  1.00  0.00     0.138 A 
ATOM      2  C   UNL     1     -35.789  -4.279 -17.686  1.00  0.00     0.100 A 
ATOM      3  C   UNL     1     -37.038  -4.830 -17.393  1.00  0.00     0.193 A 
ATOM      4  O   UNL     1     -38.049  -4.461 -18.051  1.00  0.00    -0.289 OA
ATOM      5  C   UNL     1     -37.150  -5.782 -16.371  1.00  0.00     0.065 A 
ATOM      6  C   UNL     1     -38.378  -6.376 -16.025  1.00  0.00     0.016 A 
ATOM      7  C   UNL     1     -38.434  -7.322 -14.997  1.00  0.00     0.001 A 
ATOM      8  C   UNL     1     -37.271  -7.682 -14.310  1.00  0.00     0.004 A 
ATOM      9  C   UNL     1     -36.047  -7.097 -14.646  1.00  0.00     0.048 A 
ATOM     10  C   UNL     1     -35.980  -6.149 -15.673  1.00  0.00     0.138 A 
ATOM     11  O   UNL     1     -34.811  -5.600 -15.987  1.00  0.00    -0.456 OA
ENDROOT
BRANCH   1  12
ATOM     12  C   UNL     1     -33.284  -4.151 -17.199  1.00  0.00     0.017 A 
ATOM     13  C   UNL     1     -30.732  -3.077 -17.741  1.00  0.00     0.000 A 
ATOM     14  C   UNL     1     -31.837  -2.657 -18.480  1.00  0.00     0.001 A 
ATOM     15  C   UNL     1     -30.889  -4.028 -16.734  1.00  0.00     0.001 A 
ATOM     16  C   UNL     1     -33.102  -3.187 -18.214  1.00  0.00     0.012 A 
ATOM     17  C   UNL     1     -32.151  -4.564 -16.461  1.00  0.00     0.012 A 
ENDBRANCH   1  12
TORSDOF 1
ENDMDL
