MODEL 1
REMARK VINA RESULT:    -4.136      0.000      0.000
REMARK INTER + INTRA:          -6.065
REMARK INTER:                  -5.829
REMARK INTRA:                  -0.236
REMARK UNBOUND:                -0.236
REMARK SMILES CCCCCCCCC(=O)[O-]
REMARK SMILES IDX 6 1 7 2 8 3 9 4 10 5 11 6 5 7 4 8 3 9 2 10 1 11
REMARK H PARENT
REMARK Flexibility Score: inf
ROOT
ATOM      1  C   UNL     1      17.199 -43.979  26.804  1.00  0.00     0.000 C 
ENDROOT
BRANCH   1   2
ATOM      2  C   UNL     1      17.222 -45.401  27.389  1.00  0.00     0.006 C 
BRANCH   2   3
ATOM      3  C   UNL     1      17.445 -45.400  28.906  1.00  0.00     0.053 C 
BRANCH   3   4
ATOM      4  C   UNL     1      16.205 -45.004  29.647  1.00  0.00     0.041 C 
ATOM      5  O   UNL     1      15.100 -45.542  29.369  1.00  0.00    -0.550 OA
ATOM      6  O   UNL     1      16.274 -44.066  30.669  1.00  0.00    -0.550 OA
ENDBRANCH   3   4
ENDBRANCH   2   3
ENDBRANCH   1   2
BRANCH   1   7
ATOM      7  C   UNL     1      17.949 -43.873  25.464  1.00  0.00     0.000 C 
BRANCH   7   8
ATOM      8  C   UNL     1      18.964 -42.715  25.377  1.00  0.00    -0.000 C 
BRANCH   8   9
ATOM      9  C   UNL     1      18.365 -41.304  25.549  1.00  0.00    -0.000 C 
BRANCH   9  10
ATOM     10  C   UNL     1      18.199 -40.509  24.243  1.00  0.00    -0.003 C 
ATOM     11  C   UNL     1      18.477 -39.016  24.416  1.00  0.00     0.004 C 
ENDBRANCH   9  10
ENDBRANCH   8   9
ENDBRANCH   7   8
ENDBRANCH   1   7
TORSDOF 7
ENDMDL
MODEL 2
REMARK VINA RESULT:    -4.056      0.580      1.209
REMARK INTER + INTRA:          -5.952
REMARK INTER:                  -5.599
REMARK INTRA:                  -0.353
REMARK UNBOUND:                -0.236
REMARK SMILES CCCCCCCCC(=O)[O-]
REMARK SMILES IDX 6 1 7 2 8 3 9 4 10 5 11 6 5 7 4 8 3 9 2 10 1 11
REMARK H PARENT
REMARK Flexibility Score: inf
ROOT
ATOM      1  C   UNL     1      17.120 -44.125  27.000  1.00  0.00     0.000 C 
ENDROOT
BRANCH   1   2
ATOM      2  C   UNL     1      17.129 -45.521  27.646  1.00  0.00     0.006 C 
BRANCH   2   3
ATOM      3  C   UNL     1      17.501 -45.467  29.134  1.00  0.00     0.053 C 
BRANCH   3   4
ATOM      4  C   UNL     1      16.329 -45.080  29.983  1.00  0.00     0.041 C 
ATOM      5  O   UNL     1      16.504 -44.450  31.059  1.00  0.00    -0.550 OA
ATOM      6  O   UNL     1      15.038 -45.386  29.568  1.00  0.00    -0.550 OA
ENDBRANCH   3   4
ENDBRANCH   2   3
ENDBRANCH   1   2
BRANCH   1   7
ATOM      7  C   UNL     1      17.820 -44.098  25.630  1.00  0.00     0.000 C 
BRANCH   7   8
ATOM      8  C   UNL     1      18.697 -42.856  25.372  1.00  0.00    -0.000 C 
BRANCH   8   9
ATOM      9  C   UNL     1      18.501 -41.697  26.369  1.00  0.00    -0.000 C 
BRANCH   9  10
ATOM     10  C   UNL     1      18.444 -40.298  25.731  1.00  0.00    -0.003 C 
ATOM     11  C   UNL     1      18.194 -40.341  24.225  1.00  0.00     0.004 C 
ENDBRANCH   9  10
ENDBRANCH   8   9
ENDBRANCH   7   8
ENDBRANCH   1   7
TORSDOF 7
ENDMDL
MODEL 3
REMARK VINA RESULT:    -3.961      2.260      3.837
REMARK INTER + INTRA:          -5.818
REMARK INTER:                  -5.555
REMARK INTRA:                  -0.263
REMARK UNBOUND:                -0.236
REMARK SMILES CCCCCCCCC(=O)[O-]
REMARK SMILES IDX 6 1 7 2 8 3 9 4 10 5 11 6 5 7 4 8 3 9 2 10 1 11
REMARK H PARENT
REMARK Flexibility Score: inf
ROOT
ATOM      1  C   UNL     1      16.449 -44.481  30.052  1.00  0.00     0.000 C 
ENDROOT
BRANCH   1   2
ATOM      2  C   UNL     1      15.197 -45.156  30.637  1.00  0.00     0.006 C 
BRANCH   2   3
ATOM      3  C   UNL     1      15.250 -45.245  32.168  1.00  0.00     0.053 C 
BRANCH   3   4
ATOM      4  C   UNL     1      14.921 -43.932  32.809  1.00  0.00     0.041 C 
ATOM      5  O   UNL     1      13.732 -43.519  32.839  1.00  0.00    -0.550 OA
ATOM      6  O   UNL     1      15.925 -43.178  33.406  1.00  0.00    -0.550 OA
ENDBRANCH   3   4
ENDBRANCH   2   3
ENDBRANCH   1   2
BRANCH   1   7
ATOM      7  C   UNL     1      17.381 -45.474  29.334  1.00  0.00     0.000 C 
BRANCH   7   8
ATOM      8  C   UNL     1      17.166 -45.581  27.810  1.00  0.00    -0.000 C 
BRANCH   8   9
ATOM      9  C   UNL     1      17.012 -44.235  27.074  1.00  0.00    -0.000 C 
BRANCH   9  10
ATOM     10  C   UNL     1      17.605 -44.203  25.655  1.00  0.00    -0.003 C 
ATOM     11  C   UNL     1      18.565 -43.034  25.438  1.00  0.00     0.004 C 
ENDBRANCH   9  10
ENDBRANCH   8   9
ENDBRANCH   7   8
ENDBRANCH   1   7
TORSDOF 7
ENDMDL
MODEL 4
REMARK VINA RESULT:    -3.933      3.613      6.231
REMARK INTER + INTRA:          -5.778
REMARK INTER:                  -5.536
REMARK INTRA:                  -0.243
REMARK UNBOUND:                -0.236
REMARK SMILES CCCCCCCCC(=O)[O-]
REMARK SMILES IDX 6 1 7 2 8 3 9 4 10 5 11 6 5 7 4 8 3 9 2 10 1 11
REMARK H PARENT
REMARK Flexibility Score: inf
ROOT
ATOM      1  C   UNL     1      18.450 -41.442  25.703  1.00  0.00     0.000 C 
ENDROOT
BRANCH   1   2
ATOM      2  C   UNL     1      17.895 -40.628  24.522  1.00  0.00     0.006 C 
BRANCH   2   3
ATOM      3  C   UNL     1      18.183 -39.128  24.668  1.00  0.00     0.053 C 
BRANCH   3   4
ATOM      4  C   UNL     1      16.935 -38.353  24.963  1.00  0.00     0.041 C 
ATOM      5  O   UNL     1      16.178 -38.703  25.906  1.00  0.00    -0.550 OA
ATOM      6  O   UNL     1      16.626 -37.222  24.217  1.00  0.00    -0.550 OA
ENDBRANCH   3   4
ENDBRANCH   2   3
ENDBRANCH   1   2
BRANCH   1   7
ATOM      7  C   UNL     1      18.925 -42.846  25.289  1.00  0.00     0.000 C 
BRANCH   7   8
ATOM      8  C   UNL     1      17.870 -43.961  25.443  1.00  0.00    -0.000 C 
BRANCH   8   9
ATOM      9  C   UNL     1      17.185 -44.030  26.822  1.00  0.00    -0.000 C 
BRANCH   9  10
ATOM     10  C   UNL     1      17.159 -45.429  27.462  1.00  0.00    -0.003 C 
ATOM     11  C   UNL     1      17.471 -45.405  28.957  1.00  0.00     0.004 C 
ENDBRANCH   9  10
ENDBRANCH   8   9
ENDBRANCH   7   8
ENDBRANCH   1   7
TORSDOF 7
ENDMDL
MODEL 5
REMARK VINA RESULT:    -3.912      1.221      1.706
REMARK INTER + INTRA:          -5.749
REMARK INTER:                  -5.229
REMARK INTRA:                  -0.520
REMARK UNBOUND:                -0.236
REMARK SMILES CCCCCCCCC(=O)[O-]
REMARK SMILES IDX 6 1 7 2 8 3 9 4 10 5 11 6 5 7 4 8 3 9 2 10 1 11
REMARK H PARENT
REMARK Flexibility Score: inf
ROOT
ATOM      1  C   UNL     1      16.636 -43.463  25.832  1.00  0.00     0.000 C 
ENDROOT
BRANCH   1   2
ATOM      2  C   UNL     1      16.159 -43.976  27.202  1.00  0.00     0.006 C 
BRANCH   2   3
ATOM      3  C   UNL     1      16.993 -45.164  27.698  1.00  0.00     0.053 C 
BRANCH   3   4
ATOM      4  C   UNL     1      17.075 -45.196  29.193  1.00  0.00     0.041 C 
ATOM      5  O   UNL     1      18.191 -45.114  29.771  1.00  0.00    -0.550 OA
ATOM      6  O   UNL     1      15.913 -45.282  29.952  1.00  0.00    -0.550 OA
ENDBRANCH   3   4
ENDBRANCH   2   3
ENDBRANCH   1   2
BRANCH   1   7
ATOM      7  C   UNL     1      18.138 -43.701  25.597  1.00  0.00     0.000 C 
BRANCH   7   8
ATOM      8  C   UNL     1      18.898 -42.504  24.991  1.00  0.00    -0.000 C 
BRANCH   8   9
ATOM      9  C   UNL     1      18.067 -41.217  24.823  1.00  0.00    -0.000 C 
BRANCH   9  10
ATOM     10  C   UNL     1      18.491 -40.050  25.731  1.00  0.00    -0.003 C 
ATOM     11  C   UNL     1      17.967 -40.186  27.159  1.00  0.00     0.004 C 
ENDBRANCH   9  10
ENDBRANCH   8   9
ENDBRANCH   7   8
ENDBRANCH   1   7
TORSDOF 7
ENDMDL
MODEL 6
REMARK VINA RESULT:    -3.883      3.324      5.500
REMARK INTER + INTRA:          -5.708
REMARK INTER:                  -5.050
REMARK INTRA:                  -0.658
REMARK UNBOUND:                -0.236
REMARK SMILES CCCCCCCCC(=O)[O-]
REMARK SMILES IDX 6 1 7 2 8 3 9 4 10 5 11 6 5 7 4 8 3 9 2 10 1 11
REMARK H PARENT
REMARK Flexibility Score: inf
ROOT
ATOM      1  C   UNL     1      17.828 -43.996  25.478  1.00  0.00     0.000 C 
ENDROOT
BRANCH   1   2
ATOM      2  C   UNL     1      18.847 -42.858  25.657  1.00  0.00     0.006 C 
BRANCH   2   3
ATOM      3  C   UNL     1      18.229 -41.629  26.336  1.00  0.00     0.053 C 
BRANCH   3   4
ATOM      4  C   UNL     1      18.316 -40.414  25.465  1.00  0.00     0.041 C 
ATOM      5  O   UNL     1      18.668 -39.307  25.951  1.00  0.00    -0.550 OA
ATOM      6  O   UNL     1      18.040 -40.511  24.106  1.00  0.00    -0.550 OA
ENDBRANCH   3   4
ENDBRANCH   2   3
ENDBRANCH   1   2
BRANCH   1   7
ATOM      7  C   UNL     1      16.910 -44.172  26.701  1.00  0.00     0.000 C 
BRANCH   7   8
ATOM      8  C   UNL     1      17.151 -45.460  27.515  1.00  0.00    -0.000 C 
BRANCH   8   9
ATOM      9  C   UNL     1      17.504 -45.240  28.999  1.00  0.00    -0.000 C 
BRANCH   9  10
ATOM     10  C   UNL     1      17.301 -43.802  29.507  1.00  0.00    -0.003 C 
ATOM     11  C   UNL     1      18.614 -43.104  29.856  1.00  0.00     0.004 C 
ENDBRANCH   9  10
ENDBRANCH   8   9
ENDBRANCH   7   8
ENDBRANCH   1   7
TORSDOF 7
ENDMDL
MODEL 7
REMARK VINA RESULT:    -3.867      2.937      5.340
REMARK INTER + INTRA:          -5.686
REMARK INTER:                  -5.339
REMARK INTRA:                  -0.347
REMARK UNBOUND:                -0.236
REMARK SMILES CCCCCCCCC(=O)[O-]
REMARK SMILES IDX 6 1 7 2 8 3 9 4 10 5 11 6 5 7 4 8 3 9 2 10 1 11
REMARK H PARENT
REMARK Flexibility Score: inf
ROOT
ATOM      1  C   UNL     1      17.892 -41.402  25.315  1.00  0.00     0.000 C 
ENDROOT
BRANCH   1   2
ATOM      2  C   UNL     1      18.414 -40.270  26.216  1.00  0.00     0.006 C 
BRANCH   2   3
ATOM      3  C   UNL     1      18.224 -40.583  27.706  1.00  0.00     0.053 C 
BRANCH   3   4
ATOM      4  C   UNL     1      18.527 -39.392  28.563  1.00  0.00     0.041 C 
ATOM      5  O   UNL     1      17.939 -39.237  29.666  1.00  0.00    -0.550 OA
ATOM      6  O   UNL     1      19.487 -38.471  28.161  1.00  0.00    -0.550 OA
ENDBRANCH   3   4
ENDBRANCH   2   3
ENDBRANCH   1   2
BRANCH   1   7
ATOM      7  C   UNL     1      18.765 -42.668  25.382  1.00  0.00     0.000 C 
BRANCH   7   8
ATOM      8  C   UNL     1      17.985 -43.988  25.552  1.00  0.00    -0.000 C 
BRANCH   8   9
ATOM      9  C   UNL     1      17.185 -44.112  26.864  1.00  0.00    -0.000 C 
BRANCH   9  10
ATOM     10  C   UNL     1      17.204 -45.511  27.504  1.00  0.00    -0.003 C 
ATOM     11  C   UNL     1      17.494 -45.475  29.003  1.00  0.00     0.004 C 
ENDBRANCH   9  10
ENDBRANCH   8   9
ENDBRANCH   7   8
ENDBRANCH   1   7
TORSDOF 7
ENDMDL
MODEL 8
REMARK VINA RESULT:    -3.842      1.655      2.309
REMARK INTER + INTRA:          -5.650
REMARK INTER:                  -5.300
REMARK INTRA:                  -0.350
REMARK UNBOUND:                -0.236
REMARK SMILES CCCCCCCCC(=O)[O-]
REMARK SMILES IDX 6 1 7 2 8 3 9 4 10 5 11 6 5 7 4 8 3 9 2 10 1 11
REMARK H PARENT
REMARK Flexibility Score: inf
ROOT
ATOM      1  C   UNL     1      17.156 -45.491  27.501  1.00  0.00     0.000 C 
ENDROOT
BRANCH   1   2
ATOM      2  C   UNL     1      17.520 -45.286  28.982  1.00  0.00     0.006 C 
BRANCH   2   3
ATOM      3  C   UNL     1      17.629 -43.800  29.350  1.00  0.00     0.053 C 
BRANCH   3   4
ATOM      4  C   UNL     1      18.185 -43.612  30.728  1.00  0.00     0.041 C 
ATOM      5  O   UNL     1      18.168 -42.476  31.270  1.00  0.00    -0.550 OA
ATOM      6  O   UNL     1      18.690 -44.700  31.430  1.00  0.00    -0.550 OA
ENDBRANCH   3   4
ENDBRANCH   2   3
ENDBRANCH   1   2
BRANCH   1   7
ATOM      7  C   UNL     1      17.090 -44.171  26.715  1.00  0.00     0.000 C 
BRANCH   7   8
ATOM      8  C   UNL     1      17.932 -44.140  25.423  1.00  0.00    -0.000 C 
BRANCH   8   9
ATOM      9  C   UNL     1      18.885 -42.935  25.291  1.00  0.00    -0.000 C 
BRANCH   9  10
ATOM     10  C   UNL     1      18.214 -41.560  25.442  1.00  0.00    -0.003 C 
ATOM     11  C   UNL     1      18.221 -40.748  24.148  1.00  0.00     0.004 C 
ENDBRANCH   9  10
ENDBRANCH   8   9
ENDBRANCH   7   8
ENDBRANCH   1   7
TORSDOF 7
ENDMDL
MODEL 9
REMARK VINA RESULT:    -3.818      2.284      4.784
REMARK INTER + INTRA:          -5.616
REMARK INTER:                  -4.870
REMARK INTRA:                  -0.746
REMARK UNBOUND:                -0.236
REMARK SMILES CCCCCCCCC(=O)[O-]
REMARK SMILES IDX 6 1 7 2 8 3 9 4 10 5 11 6 5 7 4 8 3 9 2 10 1 11
REMARK H PARENT
REMARK Flexibility Score: inf
ROOT
ATOM      1  C   UNL     1      17.261 -43.227  25.598  1.00  0.00     0.000 C 
ENDROOT
BRANCH   1   2
ATOM      2  C   UNL     1      18.525 -42.361  25.724  1.00  0.00     0.006 C 
BRANCH   2   3
ATOM      3  C   UNL     1      18.309 -41.151  26.642  1.00  0.00     0.053 C 
BRANCH   3   4
ATOM      4  C   UNL     1      18.220 -41.558  28.081  1.00  0.00     0.041 C 
ATOM      5  O   UNL     1      19.130 -42.257  28.600  1.00  0.00    -0.550 OA
ATOM      6  O   UNL     1      17.149 -41.136  28.859  1.00  0.00    -0.550 OA
ENDBRANCH   3   4
ENDBRANCH   2   3
ENDBRANCH   1   2
BRANCH   1   7
ATOM      7  C   UNL     1      17.555 -44.732  25.726  1.00  0.00     0.000 C 
BRANCH   7   8
ATOM      8  C   UNL     1      17.277 -45.333  27.120  1.00  0.00    -0.000 C 
BRANCH   8   9
ATOM      9  C   UNL     1      16.173 -44.626  27.930  1.00  0.00    -0.000 C 
BRANCH   9  10
ATOM     10  C   UNL     1      16.304 -44.761  29.457  1.00  0.00    -0.003 C 
ATOM     11  C   UNL     1      17.688 -45.236  29.895  1.00  0.00     0.004 C 
ENDBRANCH   9  10
ENDBRANCH   8   9
ENDBRANCH   7   8
ENDBRANCH   1   7
TORSDOF 7
ENDMDL
