MODEL 1
REMARK VINA RESULT:    -6.117      0.000      0.000
REMARK INTER + INTRA:          -6.699
REMARK INTER:                  -6.654
REMARK INTRA:                  -0.046
REMARK UNBOUND:                -0.046
REMARK SMILES COc1cc2ccc(=O)oc2cc1O
REMARK SMILES IDX 3 1 13 2 12 3 11 4 5 5 4 6 6 7 7 8 8 9 9 10 10 11 2 12 1 13
REMARK SMILES IDX 14 14
REMARK H PARENT 14 15
REMARK Flexibility Score: inf
ROOT
ATOM      1  C   UNL     1     -31.186  -2.404 -19.801  1.00  0.00     0.161 A 
ATOM      2  C   UNL     1     -32.556  -2.407 -20.128  1.00  0.00     0.161 A 
ATOM      3  C   UNL     1     -33.488  -2.978 -19.255  1.00  0.00     0.098 A 
ATOM      4  C   UNL     1     -33.071  -3.552 -18.052  1.00  0.00     0.142 A 
ATOM      5  C   UNL     1     -31.701  -3.555 -17.716  1.00  0.00     0.022 A 
ATOM      6  C   UNL     1     -30.764  -2.984 -18.587  1.00  0.00     0.062 A 
ATOM      7  C   UNL     1     -31.314  -4.137 -16.503  1.00  0.00     0.019 A 
ATOM      8  C   UNL     1     -32.285  -4.693 -15.670  1.00  0.00     0.094 A 
ATOM      9  C   UNL     1     -33.625  -4.653 -16.069  1.00  0.00     0.336 A 
ATOM     10  O   UNL     1     -34.515  -5.148 -15.331  1.00  0.00    -0.246 OA
ATOM     11  O   UNL     1     -33.965  -4.093 -17.227  1.00  0.00    -0.423 OA
ENDROOT
BRANCH   1  12
ATOM     12  O   UNL     1     -30.277  -1.823 -20.700  1.00  0.00    -0.493 OA
ATOM     13  C   UNL     1     -28.928  -2.245 -20.873  1.00  0.00     0.278 C 
ENDBRANCH   1  12
BRANCH   2  14
ATOM     14  O   UNL     1     -33.012  -1.843 -21.320  1.00  0.00    -0.504 OA
ATOM     15  H   UNL     1     -33.986  -1.874 -21.594  1.00  0.00     0.293 HD
ENDBRANCH   2  14
TORSDOF 2
ENDMDL
MODEL 2
REMARK VINA RESULT:    -5.830      1.227      1.507
REMARK INTER + INTRA:          -6.387
REMARK INTER:                  -6.342
REMARK INTRA:                  -0.045
REMARK UNBOUND:                -0.046
REMARK SMILES COc1cc2ccc(=O)oc2cc1O
REMARK SMILES IDX 3 1 13 2 12 3 11 4 5 5 4 6 6 7 7 8 8 9 9 10 10 11 2 12 1 13
REMARK SMILES IDX 14 14
REMARK H PARENT 14 15
REMARK Flexibility Score: inf
ROOT
ATOM      1  C   UNL     1     -31.758  -2.901 -18.973  1.00  0.00     0.161 A 
ATOM      2  C   UNL     1     -32.965  -2.627 -19.644  1.00  0.00     0.161 A 
ATOM      3  C   UNL     1     -34.190  -2.965 -19.058  1.00  0.00     0.098 A 
ATOM      4  C   UNL     1     -34.229  -3.576 -17.804  1.00  0.00     0.142 A 
ATOM      5  C   UNL     1     -33.026  -3.856 -17.123  1.00  0.00     0.022 A 
ATOM      6  C   UNL     1     -31.797  -3.519 -17.706  1.00  0.00     0.062 A 
ATOM      7  C   UNL     1     -33.098  -4.469 -15.867  1.00  0.00     0.019 A 
ATOM      8  C   UNL     1     -34.346  -4.784 -15.330  1.00  0.00     0.094 A 
ATOM      9  C   UNL     1     -35.497  -4.478 -16.062  1.00  0.00     0.336 A 
ATOM     10  O   UNL     1     -36.632  -4.753 -15.595  1.00  0.00    -0.246 OA
ATOM     11  O   UNL     1     -35.400  -3.894 -17.255  1.00  0.00    -0.423 OA
ENDROOT
BRANCH   1  12
ATOM     12  O   UNL     1     -30.546  -2.549 -19.589  1.00  0.00    -0.493 OA
ATOM     13  C   UNL     1     -29.299  -3.193 -19.347  1.00  0.00     0.278 C 
ENDBRANCH   1  12
BRANCH   2  14
ATOM     14  O   UNL     1     -32.967  -2.016 -20.898  1.00  0.00    -0.504 OA
ATOM     15  H   UNL     1     -32.112  -1.749 -21.371  1.00  0.00     0.293 HD
ENDBRANCH   2  14
TORSDOF 2
ENDMDL
MODEL 3
REMARK VINA RESULT:    -5.794      4.771      8.470
REMARK INTER + INTRA:          -6.347
REMARK INTER:                  -6.285
REMARK INTRA:                  -0.062
REMARK UNBOUND:                -0.046
REMARK SMILES COc1cc2ccc(=O)oc2cc1O
REMARK SMILES IDX 3 1 13 2 12 3 11 4 5 5 4 6 6 7 7 8 8 9 9 10 10 11 2 12 1 13
REMARK SMILES IDX 14 14
REMARK H PARENT 14 15
REMARK Flexibility Score: inf
ROOT
ATOM      1  C   UNL     1     -38.583  -7.434 -13.772  1.00  0.00     0.161 A 
ATOM      2  C   UNL     1     -38.515  -8.078 -15.023  1.00  0.00     0.161 A 
ATOM      3  C   UNL     1     -37.466  -7.798 -15.904  1.00  0.00     0.098 A 
ATOM      4  C   UNL     1     -36.474  -6.879 -15.554  1.00  0.00     0.142 A 
ATOM      5  C   UNL     1     -36.532  -6.229 -14.304  1.00  0.00     0.022 A 
ATOM      6  C   UNL     1     -37.582  -6.506 -13.418  1.00  0.00     0.062 A 
ATOM      7  C   UNL     1     -35.524  -5.314 -13.981  1.00  0.00     0.019 A 
ATOM      8  C   UNL     1     -34.500  -5.072 -14.897  1.00  0.00     0.094 A 
ATOM      9  C   UNL     1     -34.508  -5.754 -16.118  1.00  0.00     0.336 A 
ATOM     10  O   UNL     1     -33.593  -5.550 -16.957  1.00  0.00    -0.246 OA
ATOM     11  O   UNL     1     -35.479  -6.620 -16.399  1.00  0.00    -0.423 OA
ENDROOT
BRANCH   1  12
ATOM     12  O   UNL     1     -39.651  -7.738 -12.911  1.00  0.00    -0.493 OA
ATOM     13  C   UNL     1     -40.864  -6.997 -12.835  1.00  0.00     0.278 C 
ENDBRANCH   1  12
BRANCH   2  14
ATOM     14  O   UNL     1     -39.486  -9.002 -15.409  1.00  0.00    -0.504 OA
ATOM     15  H   UNL     1     -40.177  -9.363 -14.761  1.00  0.00     0.293 HD
ENDBRANCH   2  14
TORSDOF 2
ENDMDL
MODEL 4
REMARK VINA RESULT:    -5.776      2.475      4.065
REMARK INTER + INTRA:          -6.328
REMARK INTER:                  -6.274
REMARK INTRA:                  -0.054
REMARK UNBOUND:                -0.046
REMARK SMILES COc1cc2ccc(=O)oc2cc1O
REMARK SMILES IDX 3 1 13 2 12 3 11 4 5 5 4 6 6 7 7 8 8 9 9 10 10 11 2 12 1 13
REMARK SMILES IDX 14 14
REMARK H PARENT 14 15
REMARK Flexibility Score: inf
ROOT
ATOM      1  C   UNL     1     -31.104  -5.297 -16.747  1.00  0.00     0.161 A 
ATOM      2  C   UNL     1     -30.877  -3.993 -17.229  1.00  0.00     0.161 A 
ATOM      3  C   UNL     1     -31.944  -3.219 -17.699  1.00  0.00     0.098 A 
ATOM      4  C   UNL     1     -33.243  -3.730 -17.696  1.00  0.00     0.142 A 
ATOM      5  C   UNL     1     -33.482  -5.034 -17.216  1.00  0.00     0.022 A 
ATOM      6  C   UNL     1     -32.416  -5.813 -16.744  1.00  0.00     0.062 A 
ATOM      7  C   UNL     1     -34.794  -5.518 -17.225  1.00  0.00     0.019 A 
ATOM      8  C   UNL     1     -35.821  -4.704 -17.705  1.00  0.00     0.094 A 
ATOM      9  C   UNL     1     -35.509  -3.421 -18.166  1.00  0.00     0.336 A 
ATOM     10  O   UNL     1     -36.421  -2.671 -18.601  1.00  0.00    -0.246 OA
ATOM     11  O   UNL     1     -34.252  -2.986 -18.145  1.00  0.00    -0.423 OA
ENDROOT
BRANCH   1  12
ATOM     12  O   UNL     1     -30.011  -6.047 -16.283  1.00  0.00    -0.493 OA
ATOM     13  C   UNL     1     -29.664  -7.345 -16.752  1.00  0.00     0.278 C 
ENDBRANCH   1  12
BRANCH   2  14
ATOM     14  O   UNL     1     -29.593  -3.447 -17.248  1.00  0.00    -0.504 OA
ATOM     15  H   UNL     1     -29.364  -2.587 -16.763  1.00  0.00     0.293 HD
ENDBRANCH   2  14
TORSDOF 2
ENDMDL
MODEL 5
REMARK VINA RESULT:    -5.773      5.286      7.989
REMARK INTER + INTRA:          -6.325
REMARK INTER:                  -6.260
REMARK INTRA:                  -0.065
REMARK UNBOUND:                -0.046
REMARK SMILES COc1cc2ccc(=O)oc2cc1O
REMARK SMILES IDX 3 1 13 2 12 3 11 4 5 5 4 6 6 7 7 8 8 9 9 10 10 11 2 12 1 13
REMARK SMILES IDX 14 14
REMARK H PARENT 14 15
REMARK Flexibility Score: inf
ROOT
ATOM      1  C   UNL     1     -35.946  -5.338 -13.878  1.00  0.00     0.161 A 
ATOM      2  C   UNL     1     -37.151  -4.610 -13.831  1.00  0.00     0.161 A 
ATOM      3  C   UNL     1     -38.372  -5.278 -13.688  1.00  0.00     0.098 A 
ATOM      4  C   UNL     1     -38.410  -6.670 -13.591  1.00  0.00     0.142 A 
ATOM      5  C   UNL     1     -37.209  -7.408 -13.638  1.00  0.00     0.022 A 
ATOM      6  C   UNL     1     -35.983  -6.744 -13.781  1.00  0.00     0.062 A 
ATOM      7  C   UNL     1     -37.279  -8.802 -13.538  1.00  0.00     0.019 A 
ATOM      8  C   UNL     1     -38.524  -9.416 -13.397  1.00  0.00     0.094 A 
ATOM      9  C   UNL     1     -39.673  -8.620 -13.358  1.00  0.00     0.336 A 
ATOM     10  O   UNL     1     -40.804  -9.155 -13.231  1.00  0.00    -0.246 OA
ATOM     11  O   UNL     1     -39.577  -7.296 -13.455  1.00  0.00    -0.423 OA
ENDROOT
BRANCH   1  12
ATOM     12  O   UNL     1     -34.737  -4.637 -14.023  1.00  0.00    -0.493 OA
ATOM     13  C   UNL     1     -34.062  -4.435 -15.260  1.00  0.00     0.278 C 
ENDBRANCH   1  12
BRANCH   2  14
ATOM     14  O   UNL     1     -37.155  -3.218 -13.924  1.00  0.00    -0.504 OA
ATOM     15  H   UNL     1     -36.352  -2.657 -13.663  1.00  0.00     0.293 HD
ENDBRANCH   2  14
TORSDOF 2
ENDMDL
MODEL 6
REMARK VINA RESULT:    -5.700      1.930      3.002
REMARK INTER + INTRA:          -6.245
REMARK INTER:                  -6.182
REMARK INTRA:                  -0.063
REMARK UNBOUND:                -0.046
REMARK SMILES COc1cc2ccc(=O)oc2cc1O
REMARK SMILES IDX 3 1 13 2 12 3 11 4 5 5 4 6 6 7 7 8 8 9 9 10 10 11 2 12 1 13
REMARK SMILES IDX 14 14
REMARK H PARENT 14 15
REMARK Flexibility Score: inf
ROOT
ATOM      1  C   UNL     1     -32.214  -2.875 -18.646  1.00  0.00     0.161 A 
ATOM      2  C   UNL     1     -31.587  -3.394 -17.497  1.00  0.00     0.161 A 
ATOM      3  C   UNL     1     -32.247  -4.332 -16.696  1.00  0.00     0.098 A 
ATOM      4  C   UNL     1     -33.533  -4.763 -17.026  1.00  0.00     0.142 A 
ATOM      5  C   UNL     1     -34.171  -4.249 -18.173  1.00  0.00     0.022 A 
ATOM      6  C   UNL     1     -33.514  -3.309 -18.979  1.00  0.00     0.062 A 
ATOM      7  C   UNL     1     -35.460  -4.701 -18.478  1.00  0.00     0.019 A 
ATOM      8  C   UNL     1     -36.071  -5.638 -17.645  1.00  0.00     0.094 A 
ATOM      9  C   UNL     1     -35.378  -6.103 -16.523  1.00  0.00     0.336 A 
ATOM     10  O   UNL     1     -35.912  -6.948 -15.759  1.00  0.00    -0.246 OA
ATOM     11  O   UNL     1     -34.153  -5.656 -16.257  1.00  0.00    -0.423 OA
ENDROOT
BRANCH   1  12
ATOM     12  O   UNL     1     -31.524  -1.934 -19.428  1.00  0.00    -0.493 OA
ATOM     13  C   UNL     1     -30.747  -2.252 -20.578  1.00  0.00     0.278 C 
ENDBRANCH   1  12
BRANCH   2  14
ATOM     14  O   UNL     1     -30.302  -2.988 -17.135  1.00  0.00    -0.504 OA
ATOM     15  H   UNL     1     -30.084  -2.646 -16.206  1.00  0.00     0.293 HD
ENDBRANCH   2  14
TORSDOF 2
ENDMDL
MODEL 7
REMARK VINA RESULT:    -5.662      7.173      8.948
REMARK INTER + INTRA:          -6.204
REMARK INTER:                  -6.142
REMARK INTRA:                  -0.062
REMARK UNBOUND:                -0.046
REMARK SMILES COc1cc2ccc(=O)oc2cc1O
REMARK SMILES IDX 3 1 13 2 12 3 11 4 5 5 4 6 6 7 7 8 8 9 9 10 10 11 2 12 1 13
REMARK SMILES IDX 14 14
REMARK H PARENT 14 15
REMARK Flexibility Score: inf
ROOT
ATOM      1  C   UNL     1     -37.143  -3.921 -12.657  1.00  0.00     0.161 A 
ATOM      2  C   UNL     1     -36.158  -4.862 -13.014  1.00  0.00     0.161 A 
ATOM      3  C   UNL     1     -36.512  -6.193 -13.261  1.00  0.00     0.098 A 
ATOM      4  C   UNL     1     -37.842  -6.603 -13.157  1.00  0.00     0.142 A 
ATOM      5  C   UNL     1     -38.836  -5.669 -12.798  1.00  0.00     0.022 A 
ATOM      6  C   UNL     1     -38.487  -4.334 -12.550  1.00  0.00     0.062 A 
ATOM      7  C   UNL     1     -40.161  -6.109 -12.702  1.00  0.00     0.019 A 
ATOM      8  C   UNL     1     -40.457  -7.448 -12.959  1.00  0.00     0.094 A 
ATOM      9  C   UNL     1     -39.420  -8.317 -13.309  1.00  0.00     0.336 A 
ATOM     10  O   UNL     1     -39.667  -9.528 -13.546  1.00  0.00    -0.246 OA
ATOM     11  O   UNL     1     -38.168  -7.871 -13.394  1.00  0.00    -0.423 OA
ENDROOT
BRANCH   1  12
ATOM     12  O   UNL     1     -36.755  -2.593 -12.415  1.00  0.00    -0.493 OA
ATOM     13  C   UNL     1     -36.775  -1.964 -11.137  1.00  0.00     0.278 C 
ENDBRANCH   1  12
BRANCH   2  14
ATOM     14  O   UNL     1     -34.818  -4.491 -13.130  1.00  0.00    -0.504 OA
ATOM     15  H   UNL     1     -34.361  -4.390 -14.029  1.00  0.00     0.293 HD
ENDBRANCH   2  14
TORSDOF 2
ENDMDL
MODEL 8
REMARK VINA RESULT:    -5.487      2.071      5.256
REMARK INTER + INTRA:          -6.014
REMARK INTER:                  -5.965
REMARK INTRA:                  -0.049
REMARK UNBOUND:                -0.046
REMARK SMILES COc1cc2ccc(=O)oc2cc1O
REMARK SMILES IDX 3 1 13 2 12 3 11 4 5 5 4 6 6 7 7 8 8 9 9 10 10 11 2 12 1 13
REMARK SMILES IDX 14 14
REMARK H PARENT 14 15
REMARK Flexibility Score: inf
ROOT
ATOM      1  C   UNL     1     -35.227  -5.790 -16.695  1.00  0.00     0.161 A 
ATOM      2  C   UNL     1     -35.825  -5.221 -17.835  1.00  0.00     0.161 A 
ATOM      3  C   UNL     1     -35.111  -4.318 -18.630  1.00  0.00     0.098 A 
ATOM      4  C   UNL     1     -33.799  -3.973 -18.303  1.00  0.00     0.142 A 
ATOM      5  C   UNL     1     -33.190  -4.537 -17.163  1.00  0.00     0.022 A 
ATOM      6  C   UNL     1     -33.901  -5.441 -16.363  1.00  0.00     0.062 A 
ATOM      7  C   UNL     1     -31.873  -4.171 -16.861  1.00  0.00     0.019 A 
ATOM      8  C   UNL     1     -31.207  -3.266 -17.688  1.00  0.00     0.094 A 
ATOM      9  C   UNL     1     -31.874  -2.747 -18.802  1.00  0.00     0.336 A 
ATOM     10  O   UNL     1     -31.291  -1.931 -19.560  1.00  0.00    -0.246 OA
ATOM     11  O   UNL     1     -33.127  -3.113 -19.066  1.00  0.00    -0.423 OA
ENDROOT
BRANCH   1  12
ATOM     12  O   UNL     1     -35.972  -6.693 -15.918  1.00  0.00    -0.493 OA
ATOM     13  C   UNL     1     -36.002  -6.701 -14.495  1.00  0.00     0.278 C 
ENDBRANCH   1  12
BRANCH   2  14
ATOM     14  O   UNL     1     -37.135  -5.542 -18.196  1.00  0.00    -0.504 OA
ATOM     15  H   UNL     1     -37.935  -5.047 -17.821  1.00  0.00     0.293 HD
ENDBRANCH   2  14
TORSDOF 2
ENDMDL
MODEL 9
REMARK VINA RESULT:    -5.432      5.037      7.494
REMARK INTER + INTRA:          -5.953
REMARK INTER:                  -5.889
REMARK INTRA:                  -0.065
REMARK UNBOUND:                -0.046
REMARK SMILES COc1cc2ccc(=O)oc2cc1O
REMARK SMILES IDX 3 1 13 2 12 3 11 4 5 5 4 6 6 7 7 8 8 9 9 10 10 11 2 12 1 13
REMARK SMILES IDX 14 14
REMARK H PARENT 14 15
REMARK Flexibility Score: inf
ROOT
ATOM      1  C   UNL     1     -36.250  -5.067 -15.303  1.00  0.00     0.161 A 
ATOM      2  C   UNL     1     -35.872  -6.299 -15.872  1.00  0.00     0.161 A 
ATOM      3  C   UNL     1     -36.578  -7.466 -15.559  1.00  0.00     0.098 A 
ATOM      4  C   UNL     1     -37.662  -7.422 -14.681  1.00  0.00     0.142 A 
ATOM      5  C   UNL     1     -38.049  -6.194 -14.105  1.00  0.00     0.022 A 
ATOM      6  C   UNL     1     -37.345  -5.023 -14.416  1.00  0.00     0.062 A 
ATOM      7  C   UNL     1     -39.140  -6.183 -13.230  1.00  0.00     0.019 A 
ATOM      8  C   UNL     1     -39.808  -7.376 -12.953  1.00  0.00     0.094 A 
ATOM      9  C   UNL     1     -39.368  -8.556 -13.561  1.00  0.00     0.336 A 
ATOM     10  O   UNL     1     -39.958  -9.642 -13.324  1.00  0.00    -0.246 OA
ATOM     11  O   UNL     1     -38.328  -8.538 -14.390  1.00  0.00    -0.423 OA
ENDROOT
BRANCH   1  12
ATOM     12  O   UNL     1     -35.520  -3.914 -15.637  1.00  0.00    -0.493 OA
ATOM     13  C   UNL     1     -35.956  -2.919 -16.558  1.00  0.00     0.278 C 
ENDBRANCH   1  12
BRANCH   2  14
ATOM     14  O   UNL     1     -34.794  -6.382 -16.754  1.00  0.00    -0.504 OA
ATOM     15  H   UNL     1     -34.909  -6.653 -17.723  1.00  0.00     0.293 HD
ENDBRANCH   2  14
TORSDOF 2
ENDMDL
