MODEL 1
REMARK VINA RESULT:    -3.548      0.000      0.000
REMARK INTER + INTRA:          -4.430
REMARK INTER:                  -4.377
REMARK INTRA:                  -0.053
REMARK UNBOUND:                -0.053
REMARK SMILES CCCCCC(=O)[O-]
REMARK SMILES IDX 4 1 5 2 6 3 7 4 8 5 3 6 2 7 1 8
REMARK H PARENT
REMARK Flexibility Score: inf
ROOT
ATOM      1  C   UNL     1      10.755 -10.454  12.716  1.00  0.00     0.006 C 
ENDROOT
BRANCH   1   2
ATOM      2  C   UNL     1      10.488  -9.087  12.072  1.00  0.00     0.053 C 
BRANCH   2   3
ATOM      3  C   UNL     1       9.362  -9.183  11.092  1.00  0.00     0.041 C 
ATOM      4  O   UNL     1       8.353  -9.889  11.353  1.00  0.00    -0.550 OA
ATOM      5  O   UNL     1       9.450  -8.531   9.868  1.00  0.00    -0.550 OA
ENDBRANCH   2   3
ENDBRANCH   1   2
BRANCH   1   6
ATOM      6  C   UNL     1      11.360 -10.337  14.124  1.00  0.00     0.000 C 
BRANCH   6   7
ATOM      7  C   UNL     1      10.717 -11.306  15.126  1.00  0.00    -0.003 C 
ATOM      8  C   UNL     1      11.432 -11.256  16.474  1.00  0.00     0.004 C 
ENDBRANCH   6   7
ENDBRANCH   1   6
TORSDOF 4
ENDMDL
MODEL 2
REMARK VINA RESULT:    -3.262      3.296      4.891
REMARK INTER + INTRA:          -4.078
REMARK INTER:                  -4.002
REMARK INTRA:                  -0.076
REMARK UNBOUND:                -0.053
REMARK SMILES CCCCCC(=O)[O-]
REMARK SMILES IDX 4 1 5 2 6 3 7 4 8 5 3 6 2 7 1 8
REMARK H PARENT
REMARK Flexibility Score: inf
ROOT
ATOM      1  C   UNL     1      11.401 -10.365  13.220  1.00  0.00     0.006 C 
ENDROOT
BRANCH   1   2
ATOM      2  C   UNL     1      10.523 -10.935  14.341  1.00  0.00     0.053 C 
BRANCH   2   3
ATOM      3  C   UNL     1      11.298 -11.025  15.618  1.00  0.00     0.041 C 
ATOM      4  O   UNL     1      11.551 -12.148  16.128  1.00  0.00    -0.550 OA
ATOM      5  O   UNL     1      11.697  -9.865  16.271  1.00  0.00    -0.550 OA
ENDBRANCH   2   3
ENDBRANCH   1   2
BRANCH   1   6
ATOM      6  C   UNL     1      10.739  -9.183  12.494  1.00  0.00     0.000 C 
BRANCH   6   7
ATOM      7  C   UNL     1       9.570  -9.619  11.600  1.00  0.00    -0.003 C 
ATOM      8  C   UNL     1       9.469  -8.738  10.358  1.00  0.00     0.004 C 
ENDBRANCH   6   7
ENDBRANCH   1   6
TORSDOF 4
ENDMDL
MODEL 3
REMARK VINA RESULT:    -3.110      2.245      3.447
REMARK INTER + INTRA:          -3.890
REMARK INTER:                  -3.975
REMARK INTRA:                   0.085
REMARK UNBOUND:                -0.053
REMARK SMILES CCCCCC(=O)[O-]
REMARK SMILES IDX 4 1 5 2 6 3 7 4 8 5 3 6 2 7 1 8
REMARK H PARENT
REMARK Flexibility Score: inf
ROOT
ATOM      1  C   UNL     1       8.602  -9.790  11.534  1.00  0.00     0.006 C 
ENDROOT
BRANCH   1   2
ATOM      2  C   UNL     1       8.129 -10.622  12.733  1.00  0.00     0.053 C 
BRANCH   2   3
ATOM      3  C   UNL     1       6.759 -11.168  12.482  1.00  0.00     0.041 C 
ATOM      4  O   UNL     1       6.104 -10.796  11.474  1.00  0.00    -0.550 OA
ATOM      5  O   UNL     1       6.186 -12.051  13.390  1.00  0.00    -0.550 OA
ENDBRANCH   2   3
ENDBRANCH   1   2
BRANCH   1   6
ATOM      6  C   UNL     1      10.077  -9.370  11.651  1.00  0.00     0.000 C 
BRANCH   6   7
ATOM      7  C   UNL     1      10.950 -10.454  12.298  1.00  0.00    -0.003 C 
ATOM      8  C   UNL     1      11.266 -10.108  13.751  1.00  0.00     0.004 C 
ENDBRANCH   6   7
ENDBRANCH   1   6
TORSDOF 4
ENDMDL
MODEL 4
REMARK VINA RESULT:    -2.875      4.048      5.632
REMARK INTER + INTRA:          -3.600
REMARK INTER:                  -3.544
REMARK INTRA:                  -0.056
REMARK UNBOUND:                -0.053
REMARK SMILES CCCCCC(=O)[O-]
REMARK SMILES IDX 4 1 5 2 6 3 7 4 8 5 3 6 2 7 1 8
REMARK H PARENT
REMARK Flexibility Score: inf
ROOT
ATOM      1  C   UNL     1      11.527 -10.687  15.139  1.00  0.00     0.006 C 
ENDROOT
BRANCH   1   2
ATOM      2  C   UNL     1      11.064 -11.576  16.301  1.00  0.00     0.053 C 
BRANCH   2   3
ATOM      3  C   UNL     1      12.198 -12.414  16.802  1.00  0.00     0.041 C 
ATOM      4  O   UNL     1      12.008 -13.248  17.725  1.00  0.00    -0.550 OA
ATOM      5  O   UNL     1      13.474 -12.238  16.282  1.00  0.00    -0.550 OA
ENDBRANCH   2   3
ENDBRANCH   1   2
BRANCH   1   6
ATOM      6  C   UNL     1      10.574 -10.743  13.935  1.00  0.00     0.000 C 
BRANCH   6   7
ATOM      7  C   UNL     1      11.105  -9.963  12.725  1.00  0.00    -0.003 C 
ATOM      8  C   UNL     1       9.962  -9.507  11.820  1.00  0.00     0.004 C 
ENDBRANCH   6   7
ENDBRANCH   1   6
TORSDOF 4
ENDMDL
MODEL 5
REMARK VINA RESULT:    -2.785      8.917      9.639
REMARK INTER + INTRA:          -3.489
REMARK INTER:                  -3.390
REMARK INTRA:                  -0.099
REMARK UNBOUND:                -0.053
REMARK SMILES CCCCCC(=O)[O-]
REMARK SMILES IDX 4 1 5 2 6 3 7 4 8 5 3 6 2 7 1 8
REMARK H PARENT
REMARK Flexibility Score: inf
ROOT
ATOM      1  C   UNL     1      11.685  -2.699  16.986  1.00  0.00     0.006 C 
ENDROOT
BRANCH   1   2
ATOM      2  C   UNL     1      13.109  -3.270  17.000  1.00  0.00     0.053 C 
BRANCH   2   3
ATOM      3  C   UNL     1      13.682  -3.210  18.380  1.00  0.00     0.041 C 
ATOM      4  O   UNL     1      13.960  -4.271  18.997  1.00  0.00    -0.550 OA
ATOM      5  O   UNL     1      13.863  -1.982  19.004  1.00  0.00    -0.550 OA
ENDBRANCH   2   3
ENDBRANCH   1   2
BRANCH   1   6
ATOM      6  C   UNL     1      10.690  -3.608  16.246  1.00  0.00     0.000 C 
BRANCH   6   7
ATOM      7  C   UNL     1       9.803  -2.834  15.262  1.00  0.00    -0.003 C 
ATOM      8  C   UNL     1      10.124  -1.342  15.288  1.00  0.00     0.004 C 
ENDBRANCH   6   7
ENDBRANCH   1   6
TORSDOF 4
ENDMDL
MODEL 6
REMARK VINA RESULT:    -2.779      8.974      9.728
REMARK INTER + INTRA:          -3.482
REMARK INTER:                  -3.385
REMARK INTRA:                  -0.097
REMARK UNBOUND:                -0.053
REMARK SMILES CCCCCC(=O)[O-]
REMARK SMILES IDX 4 1 5 2 6 3 7 4 8 5 3 6 2 7 1 8
REMARK H PARENT
REMARK Flexibility Score: inf
ROOT
ATOM      1  C   UNL     1      11.677  -2.711  17.150  1.00  0.00     0.006 C 
ENDROOT
BRANCH   1   2
ATOM      2  C   UNL     1      13.132  -3.197  17.150  1.00  0.00     0.053 C 
BRANCH   2   3
ATOM      3  C   UNL     1      13.720  -3.086  18.522  1.00  0.00     0.041 C 
ATOM      4  O   UNL     1      13.904  -1.954  19.042  1.00  0.00    -0.550 OA
ATOM      5  O   UNL     1      14.110  -4.231  19.205  1.00  0.00    -0.550 OA
ENDBRANCH   2   3
ENDBRANCH   1   2
BRANCH   1   6
ATOM      6  C   UNL     1      10.732  -3.673  16.412  1.00  0.00     0.000 C 
BRANCH   6   7
ATOM      7  C   UNL     1      10.057  -3.021  15.197  1.00  0.00    -0.003 C 
ATOM      8  C   UNL     1      10.038  -1.500  15.329  1.00  0.00     0.004 C 
ENDBRANCH   6   7
ENDBRANCH   1   6
TORSDOF 4
ENDMDL
MODEL 7
REMARK VINA RESULT:    -2.756      7.876      8.200
REMARK INTER + INTRA:          -3.453
REMARK INTER:                  -3.405
REMARK INTRA:                  -0.049
REMARK UNBOUND:                -0.053
REMARK SMILES CCCCCC(=O)[O-]
REMARK SMILES IDX 4 1 5 2 6 3 7 4 8 5 3 6 2 7 1 8
REMARK H PARENT
REMARK Flexibility Score: inf
ROOT
ATOM      1  C   UNL     1      10.749  -2.573  16.323  1.00  0.00     0.006 C 
ENDROOT
BRANCH   1   2
ATOM      2  C   UNL     1       9.962  -3.191  15.161  1.00  0.00     0.053 C 
BRANCH   2   3
ATOM      3  C   UNL     1       8.782  -2.337  14.817  1.00  0.00     0.041 C 
ATOM      4  O   UNL     1       8.859  -1.084  14.911  1.00  0.00    -0.550 OA
ATOM      5  O   UNL     1       7.582  -2.928  14.441  1.00  0.00    -0.550 OA
ENDBRANCH   2   3
ENDBRANCH   1   2
BRANCH   1   6
ATOM      6  C   UNL     1      11.683  -3.585  17.008  1.00  0.00     0.000 C 
BRANCH   6   7
ATOM      7  C   UNL     1      13.142  -3.109  17.046  1.00  0.00    -0.003 C 
ATOM      8  C   UNL     1      13.581  -2.800  18.475  1.00  0.00     0.004 C 
ENDBRANCH   6   7
ENDBRANCH   1   6
TORSDOF 4
ENDMDL
MODEL 8
REMARK VINA RESULT:    -2.742      7.445      8.445
REMARK INTER + INTRA:          -3.436
REMARK INTER:                  -3.388
REMARK INTRA:                  -0.049
REMARK UNBOUND:                -0.053
REMARK SMILES CCCCCC(=O)[O-]
REMARK SMILES IDX 4 1 5 2 6 3 7 4 8 5 3 6 2 7 1 8
REMARK H PARENT
REMARK Flexibility Score: inf
ROOT
ATOM      1  C   UNL     1      12.797 -14.809   8.387  1.00  0.00     0.006 C 
ENDROOT
BRANCH   1   2
ATOM      2  C   UNL     1      12.801 -16.310   8.702  1.00  0.00     0.053 C 
BRANCH   2   3
ATOM      3  C   UNL     1      11.434 -16.763   9.107  1.00  0.00     0.041 C 
ATOM      4  O   UNL     1      10.672 -15.988   9.743  1.00  0.00    -0.550 OA
ATOM      5  O   UNL     1      11.020 -18.059   8.825  1.00  0.00    -0.550 OA
ENDBRANCH   2   3
ENDBRANCH   1   2
BRANCH   1   6
ATOM      6  C   UNL     1      13.761 -14.440   7.249  1.00  0.00     0.000 C 
BRANCH   6   7
ATOM      7  C   UNL     1      14.880 -13.494   7.706  1.00  0.00    -0.003 C 
ATOM      8  C   UNL     1      14.983 -12.279   6.787  1.00  0.00     0.004 C 
ENDBRANCH   6   7
ENDBRANCH   1   6
TORSDOF 4
ENDMDL
MODEL 9
REMARK VINA RESULT:    -2.681      8.621      8.913
REMARK INTER + INTRA:          -3.361
REMARK INTER:                  -3.165
REMARK INTRA:                  -0.196
REMARK UNBOUND:                -0.053
REMARK SMILES CCCCCC(=O)[O-]
REMARK SMILES IDX 4 1 5 2 6 3 7 4 8 5 3 6 2 7 1 8
REMARK H PARENT
REMARK Flexibility Score: inf
ROOT
ATOM      1  C   UNL     1      11.702  -3.871  17.358  1.00  0.00     0.006 C 
ENDROOT
BRANCH   1   2
ATOM      2  C   UNL     1      10.772  -3.489  16.200  1.00  0.00     0.053 C 
BRANCH   2   3
ATOM      3  C   UNL     1      10.483  -2.021  16.224  1.00  0.00     0.041 C 
ATOM      4  O   UNL     1      10.015  -1.484  17.263  1.00  0.00    -0.550 OA
ATOM      5  O   UNL     1      10.683  -1.254  15.082  1.00  0.00    -0.550 OA
ENDBRANCH   2   3
ENDBRANCH   1   2
BRANCH   1   6
ATOM      6  C   UNL     1      13.115  -3.287  17.199  1.00  0.00     0.000 C 
BRANCH   6   7
ATOM      7  C   UNL     1      13.819  -3.070  18.546  1.00  0.00    -0.003 C 
ATOM      8  C   UNL     1      13.349  -1.777  19.209  1.00  0.00     0.004 C 
ENDBRANCH   6   7
ENDBRANCH   1   6
TORSDOF 4
ENDMDL
