MODEL 1
REMARK VINA RESULT:    -4.469      0.000      0.000
REMARK INTER + INTRA:          -6.607
REMARK INTER:                  -6.297
REMARK INTRA:                  -0.310
REMARK UNBOUND:                -0.310
REMARK SMILES CCCCCCCCC(=O)[O-]
REMARK SMILES IDX 6 1 7 2 8 3 9 4 10 5 11 6 5 7 4 8 3 9 2 10 1 11
REMARK H PARENT
REMARK Flexibility Score: inf
ROOT
ATOM      1  C   UNL     1     -15.073   2.024  -9.556  1.00  0.00     0.000 C 
ENDROOT
BRANCH   1   2
ATOM      2  C   UNL     1     -14.755   2.797  -8.266  1.00  0.00     0.006 C 
BRANCH   2   3
ATOM      3  C   UNL     1     -14.008   4.110  -8.535  1.00  0.00     0.053 C 
BRANCH   3   4
ATOM      4  C   UNL     1     -12.552   3.844  -8.759  1.00  0.00     0.041 C 
ATOM      5  O   UNL     1     -12.129   3.563  -9.911  1.00  0.00    -0.550 OA
ATOM      6  O   UNL     1     -11.656   3.954  -7.704  1.00  0.00    -0.550 OA
ENDBRANCH   3   4
ENDBRANCH   2   3
ENDBRANCH   1   2
BRANCH   1   7
ATOM      7  C   UNL     1     -14.962   0.499  -9.374  1.00  0.00     0.000 C 
BRANCH   7   8
ATOM      8  C   UNL     1     -14.694  -0.237 -10.697  1.00  0.00    -0.000 C 
BRANCH   8   9
ATOM      9  C   UNL     1     -13.345  -0.977 -10.696  1.00  0.00    -0.000 C 
BRANCH   9  10
ATOM     10  C   UNL     1     -12.202  -0.115 -10.139  1.00  0.00    -0.003 C 
ATOM     11  C   UNL     1     -10.872  -0.865 -10.068  1.00  0.00     0.004 C 
ENDBRANCH   9  10
ENDBRANCH   8   9
ENDBRANCH   7   8
ENDBRANCH   1   7
TORSDOF 7
ENDMDL
MODEL 2
REMARK VINA RESULT:    -4.435      1.355      2.552
REMARK INTER + INTRA:          -6.561
REMARK INTER:                  -6.246
REMARK INTRA:                  -0.314
REMARK UNBOUND:                -0.310
REMARK SMILES CCCCCCCCC(=O)[O-]
REMARK SMILES IDX 6 1 7 2 8 3 9 4 10 5 11 6 5 7 4 8 3 9 2 10 1 11
REMARK H PARENT
REMARK Flexibility Score: inf
ROOT
ATOM      1  C   UNL     1     -14.483  -0.225 -10.564  1.00  0.00     0.000 C 
ENDROOT
BRANCH   1   2
ATOM      2  C   UNL     1     -14.735   0.641  -9.320  1.00  0.00     0.006 C 
BRANCH   2   3
ATOM      3  C   UNL     1     -14.993   2.112  -9.669  1.00  0.00     0.053 C 
BRANCH   3   4
ATOM      4  C   UNL     1     -13.975   2.990  -9.011  1.00  0.00     0.041 C 
ATOM      5  O   UNL     1     -14.312   3.753  -8.067  1.00  0.00    -0.550 OA
ATOM      6  O   UNL     1     -12.646   2.930  -9.406  1.00  0.00    -0.550 OA
ENDBRANCH   3   4
ENDBRANCH   2   3
ENDBRANCH   1   2
BRANCH   1   7
ATOM      7  C   UNL     1     -13.193  -1.058 -10.453  1.00  0.00     0.000 C 
BRANCH   7   8
ATOM      8  C   UNL     1     -11.953  -0.196 -10.165  1.00  0.00    -0.000 C 
BRANCH   8   9
ATOM      9  C   UNL     1     -10.656  -1.022 -10.128  1.00  0.00    -0.000 C 
BRANCH   9  10
ATOM     10  C   UNL     1     -10.882  -2.447  -9.599  1.00  0.00    -0.003 C 
ATOM     11  C   UNL     1      -9.716  -3.387  -9.904  1.00  0.00     0.004 C 
ENDBRANCH   9  10
ENDBRANCH   8   9
ENDBRANCH   7   8
ENDBRANCH   1   7
TORSDOF 7
ENDMDL
MODEL 3
REMARK VINA RESULT:    -4.373      4.420      6.732
REMARK INTER + INTRA:          -6.473
REMARK INTER:                  -6.197
REMARK INTRA:                  -0.275
REMARK UNBOUND:                -0.310
REMARK SMILES CCCCCCCCC(=O)[O-]
REMARK SMILES IDX 6 1 7 2 8 3 9 4 10 5 11 6 5 7 4 8 3 9 2 10 1 11
REMARK H PARENT
REMARK Flexibility Score: inf
ROOT
ATOM      1  C   UNL     1     -10.665  -2.180  -9.420  1.00  0.00     0.000 C 
ENDROOT
BRANCH   1   2
ATOM      2  C   UNL     1      -9.713  -3.230 -10.015  1.00  0.00     0.006 C 
BRANCH   2   3
ATOM      3  C   UNL     1      -9.146  -4.180  -8.952  1.00  0.00     0.053 C 
BRANCH   3   4
ATOM      4  C   UNL     1     -10.249  -4.963  -8.311  1.00  0.00     0.041 C 
ATOM      5  O   UNL     1     -10.992  -5.699  -9.012  1.00  0.00    -0.550 OA
ATOM      6  O   UNL     1     -10.424  -4.917  -6.935  1.00  0.00    -0.550 OA
ENDBRANCH   3   4
ENDBRANCH   2   3
ENDBRANCH   1   2
BRANCH   1   7
ATOM      7  C   UNL     1     -10.813  -0.939 -10.319  1.00  0.00     0.000 C 
BRANCH   7   8
ATOM      8  C   UNL     1     -12.049  -0.097  -9.968  1.00  0.00    -0.000 C 
BRANCH   8   9
ATOM      9  C   UNL     1     -13.334  -0.635 -10.620  1.00  0.00    -0.000 C 
BRANCH   9  10
ATOM     10  C   UNL     1     -14.605  -0.098  -9.945  1.00  0.00    -0.003 C 
ATOM     11  C   UNL     1     -14.524   1.396  -9.629  1.00  0.00     0.004 C 
ENDBRANCH   9  10
ENDBRANCH   8   9
ENDBRANCH   7   8
ENDBRANCH   1   7
TORSDOF 7
ENDMDL
MODEL 4
REMARK VINA RESULT:    -4.230      6.394      8.264
REMARK INTER + INTRA:          -6.271
REMARK INTER:                  -5.548
REMARK INTRA:                  -0.723
REMARK UNBOUND:                -0.310
REMARK SMILES CCCCCCCCC(=O)[O-]
REMARK SMILES IDX 6 1 7 2 8 3 9 4 10 5 11 6 5 7 4 8 3 9 2 10 1 11
REMARK H PARENT
REMARK Flexibility Score: inf
ROOT
ATOM      1  C   UNL     1     -11.843  -6.595  -9.220  1.00  0.00     0.000 C 
ENDROOT
BRANCH   1   2
ATOM      2  C   UNL     1     -11.496  -5.111  -9.416  1.00  0.00     0.006 C 
BRANCH   2   3
ATOM      3  C   UNL     1     -10.104  -4.756  -8.879  1.00  0.00     0.053 C 
BRANCH   3   4
ATOM      4  C   UNL     1     -10.024  -3.296  -8.561  1.00  0.00     0.041 C 
ATOM      5  O   UNL     1     -10.359  -2.442  -9.424  1.00  0.00    -0.550 OA
ATOM      6  O   UNL     1      -9.628  -2.880  -7.298  1.00  0.00    -0.550 OA
ENDBRANCH   3   4
ENDBRANCH   2   3
ENDBRANCH   1   2
BRANCH   1   7
ATOM      7  C   UNL     1     -10.696  -7.390  -8.571  1.00  0.00     0.000 C 
BRANCH   7   8
ATOM      8  C   UNL     1     -11.117  -8.079  -7.263  1.00  0.00    -0.000 C 
BRANCH   8   9
ATOM      9  C   UNL     1     -10.478  -7.431  -6.023  1.00  0.00    -0.000 C 
BRANCH   9  10
ATOM     10  C   UNL     1     -11.210  -6.153  -5.584  1.00  0.00    -0.003 C 
ATOM     11  C   UNL     1     -12.731  -6.307  -5.593  1.00  0.00     0.004 C 
ENDBRANCH   9  10
ENDBRANCH   8   9
ENDBRANCH   7   8
ENDBRANCH   1   7
TORSDOF 7
ENDMDL
MODEL 5
REMARK VINA RESULT:    -4.165     15.590     17.092
REMARK INTER + INTRA:          -6.180
REMARK INTER:                  -5.335
REMARK INTRA:                  -0.844
REMARK UNBOUND:                -0.310
REMARK SMILES CCCCCCCCC(=O)[O-]
REMARK SMILES IDX 6 1 7 2 8 3 9 4 10 5 11 6 5 7 4 8 3 9 2 10 1 11
REMARK H PARENT
REMARK Flexibility Score: inf
ROOT
ATOM      1  C   UNL     1     -12.905   5.237   8.684  1.00  0.00     0.000 C 
ENDROOT
BRANCH   1   2
ATOM      2  C   UNL     1     -13.887   5.115   7.508  1.00  0.00     0.006 C 
BRANCH   2   3
ATOM      3  C   UNL     1     -13.359   5.777   6.229  1.00  0.00     0.053 C 
BRANCH   3   4
ATOM      4  C   UNL     1     -13.092   4.744   5.179  1.00  0.00     0.041 C 
ATOM      5  O   UNL     1     -12.431   3.710   5.463  1.00  0.00    -0.550 OA
ATOM      6  O   UNL     1     -13.613   4.900   3.902  1.00  0.00    -0.550 OA
ENDBRANCH   3   4
ENDBRANCH   2   3
ENDBRANCH   1   2
BRANCH   1   7
ATOM      7  C   UNL     1     -12.214   3.902   9.018  1.00  0.00     0.000 C 
BRANCH   7   8
ATOM      8  C   UNL     1     -10.745   3.866   8.568  1.00  0.00    -0.000 C 
BRANCH   8   9
ATOM      9  C   UNL     1     -10.198   5.262   8.226  1.00  0.00    -0.000 C 
BRANCH   9  10
ATOM     10  C   UNL     1      -9.603   5.329   6.811  1.00  0.00    -0.003 C 
ATOM     11  C   UNL     1      -9.507   6.757   6.273  1.00  0.00     0.004 C 
ENDBRANCH   9  10
ENDBRANCH   8   9
ENDBRANCH   7   8
ENDBRANCH   1   7
TORSDOF 7
ENDMDL
MODEL 6
REMARK VINA RESULT:    -4.157      7.097      8.478
REMARK INTER + INTRA:          -6.168
REMARK INTER:                  -5.457
REMARK INTRA:                  -0.711
REMARK UNBOUND:                -0.310
REMARK SMILES CCCCCCCCC(=O)[O-]
REMARK SMILES IDX 6 1 7 2 8 3 9 4 10 5 11 6 5 7 4 8 3 9 2 10 1 11
REMARK H PARENT
REMARK Flexibility Score: inf
ROOT
ATOM      1  C   UNL     1     -10.313  -6.467  -7.010  1.00  0.00     0.000 C 
ENDROOT
BRANCH   1   2
ATOM      2  C   UNL     1     -10.487  -6.173  -8.509  1.00  0.00     0.006 C 
BRANCH   2   3
ATOM      3  C   UNL     1     -10.845  -4.707  -8.783  1.00  0.00     0.053 C 
BRANCH   3   4
ATOM      4  C   UNL     1      -9.624  -3.937  -9.180  1.00  0.00     0.041 C 
ATOM      5  O   UNL     1      -9.466  -3.572 -10.375  1.00  0.00    -0.550 OA
ATOM      6  O   UNL     1      -8.685  -3.582  -8.221  1.00  0.00    -0.550 OA
ENDBRANCH   3   4
ENDBRANCH   2   3
ENDBRANCH   1   2
BRANCH   1   7
ATOM      7  C   UNL     1     -10.937  -5.378  -6.118  1.00  0.00     0.000 C 
BRANCH   7   8
ATOM      8  C   UNL     1     -11.924  -5.949  -5.088  1.00  0.00    -0.000 C 
BRANCH   8   9
ATOM      9  C   UNL     1     -12.701  -7.163  -5.625  1.00  0.00    -0.000 C 
BRANCH   9  10
ATOM     10  C   UNL     1     -14.105  -6.787  -6.125  1.00  0.00    -0.003 C 
ATOM     11  C   UNL     1     -14.134  -6.445  -7.615  1.00  0.00     0.004 C 
ENDBRANCH   9  10
ENDBRANCH   8   9
ENDBRANCH   7   8
ENDBRANCH   1   7
TORSDOF 7
ENDMDL
MODEL 7
REMARK VINA RESULT:    -4.051     15.398     16.951
REMARK INTER + INTRA:          -6.019
REMARK INTER:                  -5.263
REMARK INTRA:                  -0.756
REMARK UNBOUND:                -0.310
REMARK SMILES CCCCCCCCC(=O)[O-]
REMARK SMILES IDX 6 1 7 2 8 3 9 4 10 5 11 6 5 7 4 8 3 9 2 10 1 11
REMARK H PARENT
REMARK Flexibility Score: inf
ROOT
ATOM      1  C   UNL     1     -11.734   3.569   8.535  1.00  0.00     0.000 C 
ENDROOT
BRANCH   1   2
ATOM      2  C   UNL     1     -10.667   3.925   7.488  1.00  0.00     0.006 C 
BRANCH   2   3
ATOM      3  C   UNL     1     -10.087   5.331   7.694  1.00  0.00     0.053 C 
BRANCH   3   4
ATOM      4  C   UNL     1      -9.613   5.895   6.391  1.00  0.00     0.041 C 
ATOM      5  O   UNL     1      -9.905   5.320   5.309  1.00  0.00    -0.550 OA
ATOM      6  O   UNL     1      -8.893   7.081   6.369  1.00  0.00    -0.550 OA
ENDBRANCH   3   4
ENDBRANCH   2   3
ENDBRANCH   1   2
BRANCH   1   7
ATOM      7  C   UNL     1     -12.882   4.593   8.582  1.00  0.00     0.000 C 
BRANCH   7   8
ATOM      8  C   UNL     1     -13.670   4.663   7.264  1.00  0.00    -0.000 C 
BRANCH   8   9
ATOM      9  C   UNL     1     -13.795   6.099   6.727  1.00  0.00    -0.000 C 
BRANCH   9  10
ATOM     10  C   UNL     1     -13.339   6.221   5.265  1.00  0.00    -0.003 C 
ATOM     11  C   UNL     1     -13.294   4.875   4.541  1.00  0.00     0.004 C 
ENDBRANCH   9  10
ENDBRANCH   8   9
ENDBRANCH   7   8
ENDBRANCH   1   7
TORSDOF 7
ENDMDL
MODEL 8
REMARK VINA RESULT:    -4.007     14.535     16.009
REMARK INTER + INTRA:          -5.957
REMARK INTER:                  -5.521
REMARK INTRA:                  -0.436
REMARK UNBOUND:                -0.310
REMARK SMILES CCCCCCCCC(=O)[O-]
REMARK SMILES IDX 6 1 7 2 8 3 9 4 10 5 11 6 5 7 4 8 3 9 2 10 1 11
REMARK H PARENT
REMARK Flexibility Score: inf
ROOT
ATOM      1  C   UNL     1     -13.240   4.343   6.113  1.00  0.00     0.000 C 
ENDROOT
BRANCH   1   2
ATOM      2  C   UNL     1     -13.637   5.624   5.362  1.00  0.00     0.006 C 
BRANCH   2   3
ATOM      3  C   UNL     1     -13.892   5.377   3.869  1.00  0.00     0.053 C 
BRANCH   3   4
ATOM      4  C   UNL     1     -14.313   6.645   3.196  1.00  0.00     0.041 C 
ATOM      5  O   UNL     1     -14.334   6.717   1.939  1.00  0.00    -0.550 OA
ATOM      6  O   UNL     1     -14.727   7.731   3.955  1.00  0.00    -0.550 OA
ENDBRANCH   3   4
ENDBRANCH   2   3
ENDBRANCH   1   2
BRANCH   1   7
ATOM      7  C   UNL     1     -13.157   4.552   7.636  1.00  0.00     0.000 C 
BRANCH   7   8
ATOM      8  C   UNL     1     -12.160   3.597   8.312  1.00  0.00    -0.000 C 
BRANCH   8   9
ATOM      9  C   UNL     1     -10.728   3.761   7.775  1.00  0.00    -0.000 C 
BRANCH   9  10
ATOM     10  C   UNL     1     -10.205   5.198   7.929  1.00  0.00    -0.003 C 
ATOM     11  C   UNL     1      -9.550   5.732   6.655  1.00  0.00     0.004 C 
ENDBRANCH   9  10
ENDBRANCH   8   9
ENDBRANCH   7   8
ENDBRANCH   1   7
TORSDOF 7
ENDMDL
MODEL 9
REMARK VINA RESULT:    -3.897      7.651      9.090
REMARK INTER + INTRA:          -5.802
REMARK INTER:                  -4.945
REMARK INTRA:                  -0.857
REMARK UNBOUND:                -0.310
REMARK SMILES CCCCCCCCC(=O)[O-]
REMARK SMILES IDX 6 1 7 2 8 3 9 4 10 5 11 6 5 7 4 8 3 9 2 10 1 11
REMARK H PARENT
REMARK Flexibility Score: inf
ROOT
ATOM      1  C   UNL     1     -10.240  -4.716  -6.990  1.00  0.00     0.000 C 
ENDROOT
BRANCH   1   2
ATOM      2  C   UNL     1     -10.222  -5.487  -8.319  1.00  0.00     0.006 C 
BRANCH   2   3
ATOM      3  C   UNL     1     -11.276  -4.976  -9.310  1.00  0.00     0.053 C 
BRANCH   3   4
ATOM      4  C   UNL     1     -12.243  -6.066  -9.650  1.00  0.00     0.041 C 
ATOM      5  O   UNL     1     -11.909  -7.273  -9.516  1.00  0.00    -0.550 OA
ATOM      6  O   UNL     1     -13.529  -5.750 -10.069  1.00  0.00    -0.550 OA
ENDBRANCH   3   4
ENDBRANCH   2   3
ENDBRANCH   1   2
BRANCH   1   7
ATOM      7  C   UNL     1     -11.054  -5.435  -5.900  1.00  0.00     0.000 C 
BRANCH   7   8
ATOM      8  C   UNL     1     -10.984  -6.966  -6.020  1.00  0.00    -0.000 C 
BRANCH   8   9
ATOM      9  C   UNL     1     -12.375  -7.623  -5.997  1.00  0.00    -0.000 C 
BRANCH   9  10
ATOM     10  C   UNL     1     -13.512  -6.591  -5.986  1.00  0.00    -0.003 C 
ATOM     11  C   UNL     1     -14.688  -6.991  -6.877  1.00  0.00     0.004 C 
ENDBRANCH   9  10
ENDBRANCH   8   9
ENDBRANCH   7   8
ENDBRANCH   1   7
TORSDOF 7
ENDMDL
