MODEL 1
REMARK VINA RESULT:    -5.222      0.000      0.000
REMARK INTER + INTRA:          -5.889
REMARK INTER:                  -5.528
REMARK INTRA:                  -0.361
REMARK UNBOUND:                -0.361
REMARK SMILES CC1=C[C@H]2C(=C(C)CC[C@@H]2C(C)C)CC1
REMARK SMILES IDX 1 1 2 2 3 3 4 4 10 5 9 6 8 7 6 8 5 9 14 10 15 11 7 12 11 13
REMARK SMILES IDX 12 14 13 15
REMARK H PARENT
REMARK Flexibility Score: inf
ROOT
ATOM      1  C   UNL     1     134.837 139.754 139.958  1.00  0.00     0.039 C 
ATOM      2  C   UNL     1     135.456 139.439 138.624  1.00  0.00    -0.076 C 
ATOM      3  C   UNL     1     136.755 139.108 138.548  1.00  0.00    -0.020 C 
ATOM      4  C   UNL     1     137.418 138.810 137.209  1.00  0.00     0.041 C 
ATOM      5  C   UNL     1     138.990 138.843 137.352  1.00  0.00     0.003 C 
ATOM      6  C   UNL     1     139.715 139.526 136.159  1.00  0.00     0.009 C 
ATOM      7  C   UNL     1     138.939 139.390 134.854  1.00  0.00     0.031 C 
ATOM      8  C   UNL     1     137.581 140.018 135.013  1.00  0.00    -0.073 C 
ATOM      9  C   UNL     1     136.854 139.742 136.125  1.00  0.00    -0.064 C 
ATOM     10  C   UNL     1     135.432 140.275 136.275  1.00  0.00     0.036 C 
ATOM     11  C   UNL     1     134.647 139.527 137.357  1.00  0.00     0.035 C 
ATOM     12  C   UNL     1     137.080 140.959 133.940  1.00  0.00     0.039 C 
ENDROOT
BRANCH   5  13
ATOM     13  C   UNL     1     139.633 137.455 137.697  1.00  0.00    -0.013 C 
ATOM     14  C   UNL     1     138.953 136.256 137.011  1.00  0.00     0.007 C 
ATOM     15  C   UNL     1     139.734 137.212 139.209  1.00  0.00     0.007 C 
ENDBRANCH   5  13
TORSDOF 1
ENDMDL
MODEL 2
REMARK VINA RESULT:    -5.222      3.405      5.174
REMARK INTER + INTRA:          -5.888
REMARK INTER:                  -5.527
REMARK INTRA:                  -0.361
REMARK UNBOUND:                -0.361
REMARK SMILES CC1=C[C@H]2C(=C(C)CC[C@@H]2C(C)C)CC1
REMARK SMILES IDX 1 1 2 2 3 3 4 4 10 5 9 6 8 7 6 8 5 9 14 10 15 11 7 12 11 13
REMARK SMILES IDX 12 14 13 15
REMARK H PARENT
REMARK Flexibility Score: inf
ROOT
ATOM      1  C   UNL     1     139.671 137.914 139.921  1.00  0.00     0.039 C 
ATOM      2  C   UNL     1     139.387 137.248 138.603  1.00  0.00    -0.076 C 
ATOM      3  C   UNL     1     139.095 135.938 138.561  1.00  0.00    -0.020 C 
ATOM      4  C   UNL     1     138.828 135.228 137.240  1.00  0.00     0.041 C 
ATOM      5  C   UNL     1     138.905 133.663 137.429  1.00  0.00     0.003 C 
ATOM      6  C   UNL     1     139.620 132.923 136.265  1.00  0.00     0.009 C 
ATOM      7  C   UNL     1     139.475 133.656 134.936  1.00  0.00     0.031 C 
ATOM      8  C   UNL     1     140.063 135.035 135.061  1.00  0.00    -0.073 C 
ATOM      9  C   UNL     1     139.755 135.787 136.149  1.00  0.00    -0.064 C 
ATOM     10  C   UNL     1     140.247 137.227 136.261  1.00  0.00     0.036 C 
ATOM     11  C   UNL     1     139.465 138.022 137.313  1.00  0.00     0.035 C 
ATOM     12  C   UNL     1     141.000 135.532 133.983  1.00  0.00     0.039 C 
ENDROOT
BRANCH   5  13
ATOM     13  C   UNL     1     137.532 132.991 137.780  1.00  0.00    -0.013 C 
ATOM     14  C   UNL     1     136.320 133.619 137.068  1.00  0.00     0.007 C 
ATOM     15  C   UNL     1     137.279 132.921 139.293  1.00  0.00     0.007 C 
ENDBRANCH   5  13
TORSDOF 1
ENDMDL
MODEL 3
REMARK VINA RESULT:    -5.210      5.007      7.351
REMARK INTER + INTRA:          -5.876
REMARK INTER:                  -5.508
REMARK INTRA:                  -0.368
REMARK UNBOUND:                -0.361
REMARK SMILES CC1=C[C@H]2C(=C(C)CC[C@@H]2C(C)C)CC1
REMARK SMILES IDX 1 1 2 2 3 3 4 4 10 5 9 6 8 7 6 8 5 9 14 10 15 11 7 12 11 13
REMARK SMILES IDX 12 14 13 15
REMARK H PARENT
REMARK Flexibility Score: inf
ROOT
ATOM      1  C   UNL     1     137.989 132.993 139.893  1.00  0.00     0.039 C 
ATOM      2  C   UNL     1     137.313 133.261 138.576  1.00  0.00    -0.076 C 
ATOM      3  C   UNL     1     136.004 133.561 138.541  1.00  0.00    -0.020 C 
ATOM      4  C   UNL     1     135.284 133.811 137.223  1.00  0.00     0.041 C 
ATOM      5  C   UNL     1     133.720 133.748 137.426  1.00  0.00     0.003 C 
ATOM      6  C   UNL     1     132.966 133.018 136.280  1.00  0.00     0.009 C 
ATOM      7  C   UNL     1     133.688 133.138 134.943  1.00  0.00     0.031 C 
ATOM      8  C   UNL     1     135.065 132.542 135.065  1.00  0.00    -0.073 C 
ATOM      9  C   UNL     1     135.827 132.863 136.141  1.00  0.00    -0.064 C 
ATOM     10  C   UNL     1     137.266 132.364 136.249  1.00  0.00     0.036 C 
ATOM     11  C   UNL     1     138.075 133.157 137.281  1.00  0.00     0.035 C 
ATOM     12  C   UNL     1     135.545 131.586 133.997  1.00  0.00     0.039 C 
ENDROOT
BRANCH   5  13
ATOM     13  C   UNL     1     133.060 135.130 137.761  1.00  0.00    -0.013 C 
ATOM     14  C   UNL     1     133.709 136.330 137.048  1.00  0.00     0.007 C 
ATOM     15  C   UNL     1     132.978 135.394 139.271  1.00  0.00     0.007 C 
ENDBRANCH   5  13
TORSDOF 1
ENDMDL
MODEL 4
REMARK VINA RESULT:    -5.202      3.539      5.262
REMARK INTER + INTRA:          -5.867
REMARK INTER:                  -5.491
REMARK INTRA:                  -0.376
REMARK UNBOUND:                -0.361
REMARK SMILES CC1=C[C@H]2C(=C(C)CC[C@@H]2C(C)C)CC1
REMARK SMILES IDX 1 1 2 2 3 3 4 4 10 5 9 6 8 7 6 8 5 9 14 10 15 11 7 12 11 13
REMARK SMILES IDX 12 14 13 15
REMARK H PARENT
REMARK Flexibility Score: inf
ROOT
ATOM      1  C   UNL     1     132.990 134.649 139.797  1.00  0.00     0.039 C 
ATOM      2  C   UNL     1     133.268 135.320 138.479  1.00  0.00    -0.076 C 
ATOM      3  C   UNL     1     133.553 136.632 138.440  1.00  0.00    -0.020 C 
ATOM      4  C   UNL     1     133.814 137.346 137.120  1.00  0.00     0.041 C 
ATOM      5  C   UNL     1     133.728 138.910 137.312  1.00  0.00     0.003 C 
ATOM      6  C   UNL     1     133.007 139.648 136.150  1.00  0.00     0.009 C 
ATOM      7  C   UNL     1     133.155 138.918 134.820  1.00  0.00     0.031 C 
ATOM      8  C   UNL     1     132.575 137.535 134.943  1.00  0.00    -0.073 C 
ATOM      9  C   UNL     1     132.889 136.784 136.029  1.00  0.00    -0.064 C 
ATOM     10  C   UNL     1     132.406 135.340 136.139  1.00  0.00     0.036 C 
ATOM     11  C   UNL     1     133.194 134.548 137.188  1.00  0.00     0.035 C 
ATOM     12  C   UNL     1     131.640 137.035 133.864  1.00  0.00     0.039 C 
ENDROOT
BRANCH   5  13
ATOM     13  C   UNL     1     135.097 139.590 137.662  1.00  0.00    -0.013 C 
ATOM     14  C   UNL     1     136.320 138.922 137.008  1.00  0.00     0.007 C 
ATOM     15  C   UNL     1     135.317 139.727 139.176  1.00  0.00     0.007 C 
ENDBRANCH   5  13
TORSDOF 1
ENDMDL
MODEL 5
REMARK VINA RESULT:    -5.097      5.221      7.201
REMARK INTER + INTRA:          -5.756
REMARK INTER:                  -5.353
REMARK INTRA:                  -0.403
REMARK UNBOUND:                -0.361
REMARK SMILES CC1=C[C@H]2C(=C(C)CC[C@@H]2C(C)C)CC1
REMARK SMILES IDX 1 1 2 2 3 3 4 4 10 5 9 6 8 7 6 8 5 9 14 10 15 11 7 12 11 13
REMARK SMILES IDX 12 14 13 15
REMARK H PARENT
REMARK Flexibility Score: inf
ROOT
ATOM      1  C   UNL     1     136.353 133.024 141.483  1.00  0.00     0.039 C 
ATOM      2  C   UNL     1     136.349 133.399 140.026  1.00  0.00    -0.076 C 
ATOM      3  C   UNL     1     135.184 133.534 139.371  1.00  0.00    -0.020 C 
ATOM      4  C   UNL     1     135.146 133.887 137.889  1.00  0.00     0.041 C 
ATOM      5  C   UNL     1     133.716 133.597 137.289  1.00  0.00     0.003 C 
ATOM      6  C   UNL     1     133.746 132.959 135.872  1.00  0.00     0.009 C 
ATOM      7  C   UNL     1     134.981 133.369 135.079  1.00  0.00     0.031 C 
ATOM      8  C   UNL     1     136.217 132.940 135.823  1.00  0.00    -0.073 C 
ATOM      9  C   UNL     1     136.302 133.189 137.155  1.00  0.00    -0.064 C 
ATOM     10  C   UNL     1     137.580 132.865 137.924  1.00  0.00     0.036 C 
ATOM     11  C   UNL     1     137.639 133.589 139.273  1.00  0.00     0.035 C 
ATOM     12  C   UNL     1     137.314 132.224 135.069  1.00  0.00     0.039 C 
ENDROOT
BRANCH   5  13
ATOM     13  C   UNL     1     132.735 134.818 137.349  1.00  0.00    -0.013 C 
ATOM     14  C   UNL     1     131.678 134.836 136.230  1.00  0.00     0.007 C 
ATOM     15  C   UNL     1     133.472 136.164 137.402  1.00  0.00     0.007 C 
ENDBRANCH   5  13
TORSDOF 1
ENDMDL
MODEL 6
REMARK VINA RESULT:    -5.053      3.675      5.227
REMARK INTER + INTRA:          -5.710
REMARK INTER:                  -5.469
REMARK INTRA:                  -0.241
REMARK UNBOUND:                -0.361
REMARK SMILES CC1=C[C@H]2C(=C(C)CC[C@@H]2C(C)C)CC1
REMARK SMILES IDX 1 1 2 2 3 3 4 4 10 5 9 6 8 7 6 8 5 9 14 10 15 11 7 12 11 13
REMARK SMILES IDX 12 14 13 15
REMARK H PARENT
REMARK Flexibility Score: inf
ROOT
ATOM      1  C   UNL     1     139.125 134.495 141.084  1.00  0.00     0.039 C 
ATOM      2  C   UNL     1     138.951 135.125 139.728  1.00  0.00    -0.076 C 
ATOM      3  C   UNL     1     138.967 134.359 138.625  1.00  0.00    -0.020 C 
ATOM      4  C   UNL     1     138.820 134.969 137.237  1.00  0.00     0.041 C 
ATOM      5  C   UNL     1     139.263 133.935 136.130  1.00  0.00     0.003 C 
ATOM      6  C   UNL     1     140.084 134.566 134.972  1.00  0.00     0.009 C 
ATOM      7  C   UNL     1     139.721 136.028 134.734  1.00  0.00     0.031 C 
ATOM      8  C   UNL     1     139.980 136.816 135.990  1.00  0.00    -0.073 C 
ATOM      9  C   UNL     1     139.549 136.321 137.178  1.00  0.00    -0.064 C 
ATOM     10  C   UNL     1     139.699 137.137 138.459  1.00  0.00     0.036 C 
ATOM     11  C   UNL     1     138.797 136.616 139.583  1.00  0.00     0.035 C 
ATOM     12  C   UNL     1     140.734 138.123 135.891  1.00  0.00     0.039 C 
ENDROOT
BRANCH   5  13
ATOM     13  C   UNL     1     138.097 133.038 135.586  1.00  0.00    -0.013 C 
ATOM     14  C   UNL     1     137.894 131.725 136.364  1.00  0.00     0.007 C 
ATOM     15  C   UNL     1     138.228 132.748 134.084  1.00  0.00     0.007 C 
ENDBRANCH   5  13
TORSDOF 1
ENDMDL
MODEL 7
REMARK VINA RESULT:    -4.956      3.400      5.636
REMARK INTER + INTRA:          -5.607
REMARK INTER:                  -5.273
REMARK INTRA:                  -0.333
REMARK UNBOUND:                -0.361
REMARK SMILES CC1=C[C@H]2C(=C(C)CC[C@@H]2C(C)C)CC1
REMARK SMILES IDX 1 1 2 2 3 3 4 4 10 5 9 6 8 7 6 8 5 9 14 10 15 11 7 12 11 13
REMARK SMILES IDX 12 14 13 15
REMARK H PARENT
REMARK Flexibility Score: inf
ROOT
ATOM      1  C   UNL     1     133.797 137.959 140.888  1.00  0.00     0.039 C 
ATOM      2  C   UNL     1     133.882 137.389 139.499  1.00  0.00    -0.076 C 
ATOM      3  C   UNL     1     133.752 138.195 138.432  1.00  0.00    -0.020 C 
ATOM      4  C   UNL     1     133.806 137.644 137.013  1.00  0.00     0.041 C 
ATOM      5  C   UNL     1     133.242 138.703 135.988  1.00  0.00     0.003 C 
ATOM      6  C   UNL     1     132.351 138.087 134.873  1.00  0.00     0.009 C 
ATOM      7  C   UNL     1     132.741 136.650 134.548  1.00  0.00     0.031 C 
ATOM      8  C   UNL     1     132.610 135.805 135.787  1.00  0.00    -0.073 C 
ATOM      9  C   UNL     1     133.119 136.270 136.957  1.00  0.00    -0.064 C 
ATOM     10  C   UNL     1     133.099 135.401 138.211  1.00  0.00     0.036 C 
ATOM     11  C   UNL     1     134.072 135.911 139.280  1.00  0.00     0.035 C 
ATOM     12  C   UNL     1     131.894 134.477 135.696  1.00  0.00     0.039 C 
ENDROOT
BRANCH   5  13
ATOM     13  C   UNL     1     134.330 139.661 135.390  1.00  0.00    -0.013 C 
ATOM     14  C   UNL     1     135.655 138.966 135.029  1.00  0.00     0.007 C 
ATOM     15  C   UNL     1     134.600 140.879 136.286  1.00  0.00     0.007 C 
ENDBRANCH   5  13
TORSDOF 1
ENDMDL
MODEL 8
REMARK VINA RESULT:    -4.914      4.817      7.048
REMARK INTER + INTRA:          -5.563
REMARK INTER:                  -5.290
REMARK INTRA:                  -0.272
REMARK UNBOUND:                -0.361
REMARK SMILES CC1=C[C@H]2C(=C(C)CC[C@@H]2C(C)C)CC1
REMARK SMILES IDX 1 1 2 2 3 3 4 4 10 5 9 6 8 7 6 8 5 9 14 10 15 11 7 12 11 13
REMARK SMILES IDX 12 14 13 15
REMARK H PARENT
REMARK Flexibility Score: inf
ROOT
ATOM      1  C   UNL     1     135.279 131.465 133.271  1.00  0.00     0.039 C 
ATOM      2  C   UNL     1     135.336 132.408 134.441  1.00  0.00    -0.076 C 
ATOM      3  C   UNL     1     136.431 132.451 135.218  1.00  0.00    -0.020 C 
ATOM      4  C   UNL     1     136.509 133.375 136.426  1.00  0.00     0.041 C 
ATOM      5  C   UNL     1     137.702 132.952 137.369  1.00  0.00     0.003 C 
ATOM      6  C   UNL     1     137.364 133.027 138.883  1.00  0.00     0.009 C 
ATOM      7  C   UNL     1     136.316 134.091 139.191  1.00  0.00     0.031 C 
ATOM      8  C   UNL     1     135.053 133.782 138.433  1.00  0.00    -0.073 C 
ATOM      9  C   UNL     1     135.140 133.448 137.120  1.00  0.00    -0.064 C 
ATOM     10  C   UNL     1     133.877 133.229 136.290  1.00  0.00     0.036 C 
ATOM     11  C   UNL     1     134.160 133.284 134.785  1.00  0.00     0.035 C 
ATOM     12  C   UNL     1     133.731 133.829 139.163  1.00  0.00     0.039 C 
ENDROOT
BRANCH   5  13
ATOM     13  C   UNL     1     139.060 133.668 137.047  1.00  0.00    -0.013 C 
ATOM     14  C   UNL     1     138.945 135.194 136.878  1.00  0.00     0.007 C 
ATOM     15  C   UNL     1     139.777 133.054 135.836  1.00  0.00     0.007 C 
ENDBRANCH   5  13
TORSDOF 1
ENDMDL
MODEL 9
REMARK VINA RESULT:    -4.844      5.148      6.715
REMARK INTER + INTRA:          -5.489
REMARK INTER:                  -5.099
REMARK INTRA:                  -0.389
REMARK UNBOUND:                -0.361
REMARK SMILES CC1=C[C@H]2C(=C(C)CC[C@@H]2C(C)C)CC1
REMARK SMILES IDX 1 1 2 2 3 3 4 4 10 5 9 6 8 7 6 8 5 9 14 10 15 11 7 12 11 13
REMARK SMILES IDX 12 14 13 15
REMARK H PARENT
REMARK Flexibility Score: inf
ROOT
ATOM      1  C   UNL     1     131.786 134.605 136.309  1.00  0.00     0.039 C 
ATOM      2  C   UNL     1     133.259 134.577 136.612  1.00  0.00    -0.076 C 
ATOM      3  C   UNL     1     134.108 133.976 135.762  1.00  0.00    -0.020 C 
ATOM      4  C   UNL     1     135.602 133.907 136.053  1.00  0.00     0.041 C 
ATOM      5  C   UNL     1     136.295 132.832 135.128  1.00  0.00     0.003 C 
ATOM      6  C   UNL     1     137.368 131.975 135.856  1.00  0.00     0.009 C 
ATOM      7  C   UNL     1     138.032 132.729 137.002  1.00  0.00     0.031 C 
ATOM      8  C   UNL     1     136.985 133.137 138.003  1.00  0.00    -0.073 C 
ATOM      9  C   UNL     1     135.834 133.701 137.558  1.00  0.00    -0.064 C 
ATOM     10  C   UNL     1     134.794 134.224 138.546  1.00  0.00     0.036 C 
ATOM     11  C   UNL     1     133.799 135.181 137.881  1.00  0.00     0.035 C 
ATOM     12  C   UNL     1     137.239 132.883 139.472  1.00  0.00     0.039 C 
ENDROOT
BRANCH   5  13
ATOM     13  C   UNL     1     136.839 133.405 133.774  1.00  0.00    -0.013 C 
ATOM     14  C   UNL     1     137.779 132.451 133.015  1.00  0.00     0.007 C 
ATOM     15  C   UNL     1     137.503 134.780 133.940  1.00  0.00     0.007 C 
ENDBRANCH   5  13
TORSDOF 1
ENDMDL
