MODEL 1
REMARK VINA RESULT:    -4.524      0.000      0.000
REMARK INTER + INTRA:          -7.352
REMARK INTER:                  -6.110
REMARK INTRA:                  -1.242
REMARK UNBOUND:                -1.242
REMARK SMILES CC(=O)CCC=C(C)CCC=C(C)C
REMARK SMILES IDX 7 1 6 2 8 3 9 4 10 5 11 6 13 7 12 8 14 9 5 10 4 11 2 12 3 13
REMARK SMILES IDX 1 14
REMARK H PARENT
REMARK Flexibility Score: inf
ROOT
ATOM      1  C   UNL     1       7.538 -17.847  22.829  1.00  0.00    -0.077 C 
ATOM      2  C   UNL     1       6.560 -17.735  23.756  1.00  0.00    -0.028 C 
ATOM      3  C   UNL     1       8.616 -16.799  22.676  1.00  0.00     0.039 C 
ENDROOT
BRANCH   1   4
ATOM      4  C   UNL     1       7.541 -19.046  21.905  1.00  0.00     0.034 C 
BRANCH   4   5
ATOM      5  C   UNL     1       7.158 -20.319  22.669  1.00  0.00     0.032 C 
BRANCH   5   6
ATOM      6  C   UNL     1       8.361 -20.906  23.366  1.00  0.00    -0.028 C 
ATOM      7  C   UNL     1       9.731 -21.663  25.260  1.00  0.00     0.039 C 
ATOM      8  C   UNL     1       8.448 -21.104  24.700  1.00  0.00    -0.080 C 
ATOM      9  C   UNL     1       7.299 -20.797  25.633  1.00  0.00     0.039 C 
ENDBRANCH   5   6
ENDBRANCH   4   5
ENDBRANCH   1   4
BRANCH   2  10
ATOM     10  C   UNL     1       6.465 -16.619  24.766  1.00  0.00     0.035 C 
BRANCH  10  11
ATOM     11  C   UNL     1       7.108 -17.034  26.093  1.00  0.00     0.079 C 
BRANCH  11  12
ATOM     12  C   UNL     1       8.366 -16.245  26.345  1.00  0.00     0.130 C 
ATOM     13  O   UNL     1       8.311 -15.026  26.392  1.00  0.00    -0.300 OA
ATOM     14  C   UNL     1       9.691 -16.924  26.530  1.00  0.00     0.087 C 
ENDBRANCH  11  12
ENDBRANCH  10  11
ENDBRANCH   2  10
TORSDOF 6
ENDMDL
MODEL 2
REMARK VINA RESULT:    -4.520      1.720      3.123
REMARK INTER + INTRA:          -7.346
REMARK INTER:                  -6.224
REMARK INTRA:                  -1.123
REMARK UNBOUND:                -1.242
REMARK SMILES CC(=O)CCC=C(C)CCC=C(C)C
REMARK SMILES IDX 7 1 6 2 8 3 9 4 10 5 11 6 13 7 12 8 14 9 5 10 4 11 2 12 3 13
REMARK SMILES IDX 1 14
REMARK H PARENT
REMARK Flexibility Score: inf
ROOT
ATOM      1  C   UNL     1       8.296 -18.763  26.427  1.00  0.00    -0.077 C 
ATOM      2  C   UNL     1       7.157 -18.039  26.334  1.00  0.00    -0.028 C 
ATOM      3  C   UNL     1       9.653 -18.152  26.168  1.00  0.00     0.039 C 
ENDROOT
BRANCH   1   4
ATOM      4  C   UNL     1       8.205 -20.231  26.783  1.00  0.00     0.034 C 
BRANCH   4   5
ATOM      5  C   UNL     1       7.315 -20.977  25.783  1.00  0.00     0.032 C 
BRANCH   5   6
ATOM      6  C   UNL     1       8.079 -21.295  24.521  1.00  0.00    -0.028 C 
ATOM      7  C   UNL     1       8.606 -21.239  22.122  1.00  0.00     0.039 C 
ATOM      8  C   UNL     1       7.776 -20.800  23.301  1.00  0.00    -0.080 C 
ATOM      9  C   UNL     1       6.647 -19.816  23.093  1.00  0.00     0.039 C 
ENDBRANCH   5   6
ENDBRANCH   4   5
ENDBRANCH   1   4
BRANCH   2  10
ATOM     10  C   UNL     1       7.108 -16.561  26.035  1.00  0.00     0.035 C 
BRANCH  10  11
ATOM     11  C   UNL     1       6.406 -16.303  24.698  1.00  0.00     0.079 C 
BRANCH  11  12
ATOM     12  C   UNL     1       6.971 -15.078  24.028  1.00  0.00     0.130 C 
ATOM     13  O   UNL     1       6.392 -14.600  23.064  1.00  0.00    -0.300 OA
ATOM     14  C   UNL     1       8.237 -14.436  24.511  1.00  0.00     0.087 C 
ENDBRANCH  11  12
ENDBRANCH  10  11
ENDBRANCH   2  10
TORSDOF 6
ENDMDL
MODEL 3
REMARK VINA RESULT:    -4.499      3.286      5.650
REMARK INTER + INTRA:          -7.318
REMARK INTER:                  -6.322
REMARK INTRA:                  -0.996
REMARK UNBOUND:                -1.242
REMARK SMILES CC(=O)CCC=C(C)CCC=C(C)C
REMARK SMILES IDX 7 1 6 2 8 3 9 4 10 5 11 6 13 7 12 8 14 9 5 10 4 11 2 12 3 13
REMARK SMILES IDX 1 14
REMARK H PARENT
REMARK Flexibility Score: inf
ROOT
ATOM      1  C   UNL     1       7.048 -14.529  23.634  1.00  0.00    -0.077 C 
ATOM      2  C   UNL     1       6.220 -15.570  23.883  1.00  0.00    -0.028 C 
ATOM      3  C   UNL     1       8.352 -14.353  24.375  1.00  0.00     0.039 C 
ENDROOT
BRANCH   1   4
ATOM      4  C   UNL     1       6.645 -13.503  22.596  1.00  0.00     0.034 C 
BRANCH   4   5
ATOM      5  C   UNL     1       5.602 -14.084  21.635  1.00  0.00     0.032 C 
BRANCH   5   6
ATOM      6  C   UNL     1       5.977 -13.796  20.202  1.00  0.00    -0.028 C 
ATOM      7  C   UNL     1       7.032 -14.187  18.018  1.00  0.00     0.039 C 
ATOM      8  C   UNL     1       6.700 -14.627  19.421  1.00  0.00    -0.080 C 
ATOM      9  C   UNL     1       7.166 -15.981  19.906  1.00  0.00     0.039 C 
ENDBRANCH   5   6
ENDBRANCH   4   5
ENDBRANCH   1   4
BRANCH   2  10
ATOM     10  C   UNL     1       6.519 -16.685  24.854  1.00  0.00     0.035 C 
BRANCH  10  11
ATOM     11  C   UNL     1       7.044 -17.920  24.115  1.00  0.00     0.079 C 
BRANCH  11  12
ATOM     12  C   UNL     1       8.476 -18.194  24.486  1.00  0.00     0.130 C 
ATOM     13  O   UNL     1       8.726 -18.761  25.539  1.00  0.00    -0.300 OA
ATOM     14  C   UNL     1       9.609 -17.777  23.595  1.00  0.00     0.087 C 
ENDBRANCH  11  12
ENDBRANCH  10  11
ENDBRANCH   2  10
TORSDOF 6
ENDMDL
MODEL 4
REMARK VINA RESULT:    -4.496      5.048      7.143
REMARK INTER + INTRA:          -7.314
REMARK INTER:                  -6.509
REMARK INTRA:                  -0.805
REMARK UNBOUND:                -1.242
REMARK SMILES CC(=O)CCC=C(C)CCC=C(C)C
REMARK SMILES IDX 7 1 6 2 8 3 9 4 10 5 11 6 13 7 12 8 14 9 5 10 4 11 2 12 3 13
REMARK SMILES IDX 1 14
REMARK H PARENT
REMARK Flexibility Score: inf
ROOT
ATOM      1  C   UNL     1       6.340 -14.360  20.257  1.00  0.00    -0.077 C 
ATOM      2  C   UNL     1       6.020 -13.996  21.520  1.00  0.00    -0.028 C 
ATOM      3  C   UNL     1       7.076 -15.645  19.959  1.00  0.00     0.039 C 
ENDROOT
BRANCH   1   4
ATOM      4  C   UNL     1       5.966 -13.443  19.112  1.00  0.00     0.034 C 
BRANCH   4   5
ATOM      5  C   UNL     1       7.020 -13.506  18.000  1.00  0.00     0.032 C 
BRANCH   5   6
ATOM      6  C   UNL     1       6.378 -13.824  16.672  1.00  0.00    -0.028 C 
ATOM      7  C   UNL     1       6.048 -15.013  14.548  1.00  0.00     0.039 C 
ATOM      8  C   UNL     1       6.756 -14.840  15.867  1.00  0.00    -0.080 C 
ATOM      9  C   UNL     1       7.848 -15.810  16.258  1.00  0.00     0.039 C 
ENDBRANCH   5   6
ENDBRANCH   4   5
ENDBRANCH   1   4
BRANCH   2  10
ATOM     10  C   UNL     1       6.291 -14.836  22.744  1.00  0.00     0.035 C 
BRANCH  10  11
ATOM     11  C   UNL     1       7.269 -14.123  23.682  1.00  0.00     0.079 C 
BRANCH  11  12
ATOM     12  C   UNL     1       8.580 -14.862  23.747  1.00  0.00     0.130 C 
ATOM     13  O   UNL     1       9.570 -14.292  24.180  1.00  0.00    -0.300 OA
ATOM     14  C   UNL     1       8.700 -16.282  23.279  1.00  0.00     0.087 C 
ENDBRANCH  11  12
ENDBRANCH  10  11
ENDBRANCH   2  10
TORSDOF 6
ENDMDL
MODEL 5
REMARK VINA RESULT:    -4.483      1.622      2.326
REMARK INTER + INTRA:          -7.297
REMARK INTER:                  -6.139
REMARK INTRA:                  -1.158
REMARK UNBOUND:                -1.242
REMARK SMILES CC(=O)CCC=C(C)CCC=C(C)C
REMARK SMILES IDX 7 1 6 2 8 3 9 4 10 5 11 6 13 7 12 8 14 9 5 10 4 11 2 12 3 13
REMARK SMILES IDX 1 14
REMARK H PARENT
REMARK Flexibility Score: inf
ROOT
ATOM      1  C   UNL     1       7.804 -18.199  22.408  1.00  0.00    -0.077 C 
ATOM      2  C   UNL     1       6.803 -18.045  23.304  1.00  0.00    -0.028 C 
ATOM      3  C   UNL     1       9.096 -17.422  22.515  1.00  0.00     0.039 C 
ENDROOT
BRANCH   1   4
ATOM      4  C   UNL     1       7.617 -19.162  21.256  1.00  0.00     0.034 C 
BRANCH   4   5
ATOM      5  C   UNL     1       7.117 -20.521  21.761  1.00  0.00     0.032 C 
BRANCH   5   6
ATOM      6  C   UNL     1       8.275 -21.452  22.025  1.00  0.00    -0.028 C 
ATOM      7  C   UNL     1       9.926 -22.683  23.364  1.00  0.00     0.039 C 
ATOM      8  C   UNL     1       8.733 -21.768  23.255  1.00  0.00    -0.080 C 
ATOM      9  C   UNL     1       8.077 -21.247  24.514  1.00  0.00     0.039 C 
ENDBRANCH   5   6
ENDBRANCH   4   5
ENDBRANCH   1   4
BRANCH   2  10
ATOM     10  C   UNL     1       6.875 -17.157  24.521  1.00  0.00     0.035 C 
BRANCH  10  11
ATOM     11  C   UNL     1       5.956 -15.942  24.360  1.00  0.00     0.079 C 
BRANCH  11  12
ATOM     12  C   UNL     1       6.662 -14.833  23.626  1.00  0.00     0.130 C 
ATOM     13  O   UNL     1       7.676 -14.346  24.104  1.00  0.00    -0.300 OA
ATOM     14  C   UNL     1       6.143 -14.303  22.322  1.00  0.00     0.087 C 
ENDBRANCH  11  12
ENDBRANCH  10  11
ENDBRANCH   2  10
TORSDOF 6
ENDMDL
MODEL 6
REMARK VINA RESULT:    -4.472      3.227      4.666
REMARK INTER + INTRA:          -7.282
REMARK INTER:                  -6.612
REMARK INTRA:                  -0.670
REMARK UNBOUND:                -1.242
REMARK SMILES CC(=O)CCC=C(C)CCC=C(C)C
REMARK SMILES IDX 7 1 6 2 8 3 9 4 10 5 11 6 13 7 12 8 14 9 5 10 4 11 2 12 3 13
REMARK SMILES IDX 1 14
REMARK H PARENT
REMARK Flexibility Score: inf
ROOT
ATOM      1  C   UNL     1       6.949 -15.354  24.007  1.00  0.00    -0.077 C 
ATOM      2  C   UNL     1       6.049 -14.868  23.122  1.00  0.00    -0.028 C 
ATOM      3  C   UNL     1       8.386 -14.887  24.022  1.00  0.00     0.039 C 
ENDROOT
BRANCH   1   4
ATOM      4  C   UNL     1       6.508 -16.409  24.999  1.00  0.00     0.034 C 
BRANCH   4   5
ATOM      5  C   UNL     1       7.378 -17.665  24.878  1.00  0.00     0.032 C 
BRANCH   5   6
ATOM      6  C   UNL     1       7.072 -18.406  23.600  1.00  0.00    -0.028 C 
ATOM      7  C   UNL     1       6.811 -20.348  22.119  1.00  0.00     0.039 C 
ATOM      8  C   UNL     1       7.100 -19.750  23.471  1.00  0.00    -0.080 C 
ATOM      9  C   UNL     1       7.395 -20.660  24.641  1.00  0.00     0.039 C 
ENDBRANCH   5   6
ENDBRANCH   4   5
ENDBRANCH   1   4
BRANCH   2  10
ATOM     10  C   UNL     1       6.343 -13.785  22.114  1.00  0.00     0.035 C 
BRANCH  10  11
ATOM     11  C   UNL     1       5.575 -14.035  20.812  1.00  0.00     0.079 C 
BRANCH  11  12
ATOM     12  C   UNL     1       6.499 -14.542  19.738  1.00  0.00     0.130 C 
ATOM     13  O   UNL     1       6.645 -13.893  18.714  1.00  0.00    -0.300 OA
ATOM     14  C   UNL     1       7.241 -15.838  19.892  1.00  0.00     0.087 C 
ENDBRANCH  11  12
ENDBRANCH  10  11
ENDBRANCH   2  10
TORSDOF 6
ENDMDL
MODEL 7
REMARK VINA RESULT:    -4.447      1.394      1.844
REMARK INTER + INTRA:          -7.248
REMARK INTER:                  -6.058
REMARK INTRA:                  -1.190
REMARK UNBOUND:                -1.242
REMARK SMILES CC(=O)CCC=C(C)CCC=C(C)C
REMARK SMILES IDX 7 1 6 2 8 3 9 4 10 5 11 6 13 7 12 8 14 9 5 10 4 11 2 12 3 13
REMARK SMILES IDX 1 14
REMARK H PARENT
REMARK Flexibility Score: inf
ROOT
ATOM      1  C   UNL     1       7.161 -17.948  23.146  1.00  0.00    -0.077 C 
ATOM      2  C   UNL     1       6.655 -17.302  24.222  1.00  0.00    -0.028 C 
ATOM      3  C   UNL     1       7.966 -17.228  22.090  1.00  0.00     0.039 C 
ENDROOT
BRANCH   1   4
ATOM      4  C   UNL     1       6.895 -19.429  22.988  1.00  0.00     0.034 C 
BRANCH   4   5
ATOM      5  C   UNL     1       7.860 -20.249  23.853  1.00  0.00     0.032 C 
BRANCH   5   6
ATOM      6  C   UNL     1       7.164 -20.763  25.088  1.00  0.00    -0.028 C 
ATOM      7  C   UNL     1       6.709 -21.011  27.490  1.00  0.00     0.039 C 
ATOM      8  C   UNL     1       7.463 -20.380  26.348  1.00  0.00    -0.080 C 
ATOM      9  C   UNL     1       8.514 -19.332  26.639  1.00  0.00     0.039 C 
ENDBRANCH   5   6
ENDBRANCH   4   5
ENDBRANCH   1   4
BRANCH   2  10
ATOM     10  C   UNL     1       6.882 -15.842  24.525  1.00  0.00     0.035 C 
BRANCH  10  11
ATOM     11  C   UNL     1       7.901 -15.677  25.657  1.00  0.00     0.079 C 
BRANCH  11  12
ATOM     12  C   UNL     1       9.266 -15.365  25.105  1.00  0.00     0.130 C 
ATOM     13  O   UNL     1       9.414 -14.387  24.387  1.00  0.00    -0.300 OA
ATOM     14  C   UNL     1      10.450 -16.235  25.407  1.00  0.00     0.087 C 
ENDBRANCH  11  12
ENDBRANCH  10  11
ENDBRANCH   2  10
TORSDOF 6
ENDMDL
MODEL 8
REMARK VINA RESULT:    -4.391      2.565      5.075
REMARK INTER + INTRA:          -7.173
REMARK INTER:                  -6.235
REMARK INTRA:                  -0.939
REMARK UNBOUND:                -1.242
REMARK SMILES CC(=O)CCC=C(C)CCC=C(C)C
REMARK SMILES IDX 7 1 6 2 8 3 9 4 10 5 11 6 13 7 12 8 14 9 5 10 4 11 2 12 3 13
REMARK SMILES IDX 1 14
REMARK H PARENT
REMARK Flexibility Score: inf
ROOT
ATOM      1  C   UNL     1       7.371 -16.145  22.961  1.00  0.00    -0.077 C 
ATOM      2  C   UNL     1       7.451 -17.396  23.470  1.00  0.00    -0.028 C 
ATOM      3  C   UNL     1       7.519 -15.874  21.483  1.00  0.00     0.039 C 
ENDROOT
BRANCH   1   4
ATOM      4  C   UNL     1       7.147 -14.983  23.904  1.00  0.00     0.034 C 
BRANCH   4   5
ATOM      5  C   UNL     1       8.342 -14.811  24.848  1.00  0.00     0.032 C 
BRANCH   5   6
ATOM      6  C   UNL     1       9.582 -14.429  24.077  1.00  0.00    -0.028 C 
ATOM      7  C   UNL     1      11.898 -14.621  23.281  1.00  0.00     0.039 C 
ATOM      8  C   UNL     1      10.725 -15.147  24.068  1.00  0.00    -0.080 C 
ATOM      9  C   UNL     1      10.853 -16.462  24.804  1.00  0.00     0.039 C 
ENDBRANCH   5   6
ENDBRANCH   4   5
ENDBRANCH   1   4
BRANCH   2  10
ATOM     10  C   UNL     1       7.625 -18.645  22.640  1.00  0.00     0.035 C 
BRANCH  10  11
ATOM     11  C   UNL     1       6.687 -19.753  23.129  1.00  0.00     0.079 C 
BRANCH  11  12
ATOM     12  C   UNL     1       7.420 -20.713  24.028  1.00  0.00     0.130 C 
ATOM     13  O   UNL     1       7.083 -20.817  25.198  1.00  0.00    -0.300 OA
ATOM     14  C   UNL     1       8.566 -21.539  23.522  1.00  0.00     0.087 C 
ENDBRANCH  11  12
ENDBRANCH  10  11
ENDBRANCH   2  10
TORSDOF 6
ENDMDL
