MODEL 1
REMARK VINA RESULT:    -6.030      0.000      0.000
REMARK INTER + INTRA:          -7.623
REMARK INTER:                  -7.263
REMARK INTRA:                  -0.359
REMARK UNBOUND:                -0.359
REMARK SMILES Oc1cc(O)c2c(c1)O[C@H](c1ccc(O)c(O)c1)[C@@H](O)C2
REMARK SMILES IDX 21 1 19 2 10 3 9 4 7 5 8 6 2 7 3 8 4 9 6 10 20 11 11 13
REMARK SMILES IDX 18 14 12 15 16 16 13 17 14 18 17 19 15 21 5 23 1 25
REMARK H PARENT 20 12 17 20 15 22 5 24 1 26
REMARK Flexibility Score: inf
ROOT
ATOM      1  C   UNL     1      10.582  -9.100  -9.652  1.00  0.00     0.079 C 
ATOM      2  C   UNL     1      10.393  -8.141  -8.465  1.00  0.00     0.164 C 
ATOM      3  C   UNL     1       8.966  -8.283  -7.901  1.00  0.00     0.232 C 
ATOM      4  O   UNL     1       8.011  -8.046  -8.935  1.00  0.00    -0.482 OA
ATOM      5  C   UNL     1       8.205  -8.488 -10.248  1.00  0.00     0.131 A 
ATOM      6  C   UNL     1       7.152  -8.382 -11.161  1.00  0.00     0.093 A 
ATOM      7  C   UNL     1       7.310  -8.828 -12.473  1.00  0.00     0.122 A 
ATOM      8  C   UNL     1       8.526  -9.393 -12.874  1.00  0.00     0.092 A 
ATOM      9  C   UNL     1       9.591  -9.509 -11.973  1.00  0.00     0.126 A 
ATOM     10  C   UNL     1       9.449  -9.016 -10.654  1.00  0.00     0.039 A 
ENDROOT
BRANCH   2  11
ATOM     11  O   UNL     1      11.344  -8.448  -7.477  1.00  0.00    -0.389 OA
ATOM     12  H   UNL     1      12.178  -7.968  -7.718  1.00  0.00     0.211 HD
ENDBRANCH   2  11
BRANCH   3  13
ATOM     13  C   UNL     1       8.724  -7.318  -6.763  1.00  0.00    -0.001 A 
ATOM     14  C   UNL     1       8.217  -7.776  -5.535  1.00  0.00     0.057 A 
ATOM     15  C   UNL     1       8.958  -5.944  -6.939  1.00  0.00     0.012 A 
ATOM     16  C   UNL     1       7.966  -6.880  -4.489  1.00  0.00     0.157 A 
ATOM     17  C   UNL     1       8.709  -5.047  -5.898  1.00  0.00     0.050 A 
ATOM     18  C   UNL     1       8.214  -5.507  -4.670  1.00  0.00     0.157 A 
BRANCH  16  19
ATOM     19  O   UNL     1       7.468  -7.370  -3.283  1.00  0.00    -0.504 OA
ATOM     20  H   UNL     1       7.358  -8.362  -3.110  1.00  0.00     0.293 HD
ENDBRANCH  16  19
BRANCH  18  21
ATOM     21  O   UNL     1       7.966  -4.611  -3.632  1.00  0.00    -0.504 OA
ATOM     22  H   UNL     1       7.040  -4.231  -3.470  1.00  0.00     0.293 HD
ENDBRANCH  18  21
ENDBRANCH   3  13
BRANCH   9  23
ATOM     23  O   UNL     1      10.764 -10.123 -12.417  1.00  0.00    -0.507 OA
ATOM     24  H   UNL     1      11.406  -9.691 -13.068  1.00  0.00     0.293 HD
ENDBRANCH   9  23
BRANCH   7  25
ATOM     25  O   UNL     1       6.250  -8.714 -13.370  1.00  0.00    -0.508 OA
ATOM     26  H   UNL     1       5.998  -7.822 -13.781  1.00  0.00     0.293 HD
ENDBRANCH   7  25
TORSDOF 6
ENDMDL
MODEL 2
REMARK VINA RESULT:    -6.007      1.759      3.359
REMARK INTER + INTRA:          -7.595
REMARK INTER:                  -7.374
REMARK INTRA:                  -0.221
REMARK UNBOUND:                -0.359
REMARK SMILES Oc1cc(O)c2c(c1)O[C@H](c1ccc(O)c(O)c1)[C@@H](O)C2
REMARK SMILES IDX 21 1 19 2 10 3 9 4 7 5 8 6 2 7 3 8 4 9 6 10 20 11 11 13
REMARK SMILES IDX 18 14 12 15 16 16 13 17 14 18 17 19 15 21 5 23 1 25
REMARK H PARENT 20 12 17 20 15 22 5 24 1 26
REMARK Flexibility Score: inf
ROOT
ATOM      1  C   UNL     1       8.247  -9.094 -11.479  1.00  0.00     0.079 C 
ATOM      2  C   UNL     1       7.909  -9.009  -9.982  1.00  0.00     0.164 C 
ATOM      3  C   UNL     1       8.489  -7.711  -9.388  1.00  0.00     0.232 C 
ATOM      4  O   UNL     1       9.897  -7.659  -9.621  1.00  0.00    -0.482 OA
ATOM      5  C   UNL     1      10.474  -8.107 -10.813  1.00  0.00     0.131 A 
ATOM      6  C   UNL     1      11.830  -7.858 -11.045  1.00  0.00     0.093 A 
ATOM      7  C   UNL     1      12.431  -8.279 -12.231  1.00  0.00     0.122 A 
ATOM      8  C   UNL     1      11.670  -8.945 -13.198  1.00  0.00     0.092 A 
ATOM      9  C   UNL     1      10.311  -9.203 -12.984  1.00  0.00     0.126 A 
ATOM     10  C   UNL     1       9.709  -8.816 -11.763  1.00  0.00     0.039 A 
ENDROOT
BRANCH   2  11
ATOM     11  O   UNL     1       6.512  -9.038  -9.828  1.00  0.00    -0.389 OA
ATOM     12  H   UNL     1       6.169  -8.158 -10.132  1.00  0.00     0.211 HD
ENDBRANCH   2  11
BRANCH   3  13
ATOM     13  C   UNL     1       8.222  -7.616  -7.904  1.00  0.00    -0.001 A 
ATOM     14  C   UNL     1       8.028  -6.366  -7.293  1.00  0.00     0.057 A 
ATOM     15  C   UNL     1       8.212  -8.775  -7.111  1.00  0.00     0.012 A 
ATOM     16  C   UNL     1       7.809  -6.273  -5.913  1.00  0.00     0.157 A 
ATOM     17  C   UNL     1       7.993  -8.687  -5.734  1.00  0.00     0.050 A 
ATOM     18  C   UNL     1       7.789  -7.440  -5.128  1.00  0.00     0.157 A 
BRANCH  16  19
ATOM     19  O   UNL     1       7.615  -5.016  -5.341  1.00  0.00    -0.504 OA
ATOM     20  H   UNL     1       6.812  -4.441  -5.566  1.00  0.00     0.293 HD
ENDBRANCH  16  19
BRANCH  18  21
ATOM     21  O   UNL     1       7.571  -7.353  -3.755  1.00  0.00    -0.504 OA
ATOM     22  H   UNL     1       8.327  -7.155  -3.109  1.00  0.00     0.293 HD
ENDBRANCH  18  21
ENDBRANCH   3  13
BRANCH   9  23
ATOM     23  O   UNL     1       9.592  -9.830 -14.004  1.00  0.00    -0.507 OA
ATOM     24  H   UNL     1      10.030 -10.347 -14.756  1.00  0.00     0.293 HD
ENDBRANCH   9  23
BRANCH   7  25
ATOM     25  O   UNL     1      13.784  -8.023 -12.445  1.00  0.00    -0.508 OA
ATOM     26  H   UNL     1      14.394  -7.734 -11.689  1.00  0.00     0.293 HD
ENDBRANCH   7  25
TORSDOF 6
ENDMDL
MODEL 3
REMARK VINA RESULT:    -5.947      2.984      4.111
REMARK INTER + INTRA:          -7.523
REMARK INTER:                  -7.264
REMARK INTRA:                  -0.259
REMARK UNBOUND:                -0.359
REMARK SMILES Oc1cc(O)c2c(c1)O[C@H](c1ccc(O)c(O)c1)[C@@H](O)C2
REMARK SMILES IDX 21 1 19 2 10 3 9 4 7 5 8 6 2 7 3 8 4 9 6 10 20 11 11 13
REMARK SMILES IDX 18 14 12 15 16 16 13 17 14 18 17 19 15 21 5 23 1 25
REMARK H PARENT 20 12 17 20 15 22 5 24 1 26
REMARK Flexibility Score: inf
ROOT
ATOM      1  C   UNL     1      11.180  -9.225 -10.709  1.00  0.00     0.079 C 
ATOM      2  C   UNL     1      10.485  -8.636  -9.470  1.00  0.00     0.164 C 
ATOM      3  C   UNL     1      10.072  -7.178  -9.745  1.00  0.00     0.232 C 
ATOM      4  O   UNL     1      11.217  -6.415 -10.127  1.00  0.00    -0.482 OA
ATOM      5  C   UNL     1      12.226  -6.938 -10.942  1.00  0.00     0.131 A 
ATOM      6  C   UNL     1      13.220  -6.081 -11.424  1.00  0.00     0.093 A 
ATOM      7  C   UNL     1      14.231  -6.570 -12.252  1.00  0.00     0.122 A 
ATOM      8  C   UNL     1      14.244  -7.923 -12.609  1.00  0.00     0.092 A 
ATOM      9  C   UNL     1      13.256  -8.795 -12.137  1.00  0.00     0.126 A 
ATOM     10  C   UNL     1      12.255  -8.312 -11.262  1.00  0.00     0.039 A 
ENDROOT
BRANCH   2  11
ATOM     11  O   UNL     1       9.356  -9.417  -9.168  1.00  0.00    -0.389 OA
ATOM     12  H   UNL     1       9.641 -10.367  -9.207  1.00  0.00     0.211 HD
ENDBRANCH   2  11
BRANCH   3  13
ATOM     13  C   UNL     1       9.431  -6.548  -8.531  1.00  0.00    -0.001 A 
ATOM     14  C   UNL     1      10.224  -5.985  -7.516  1.00  0.00     0.057 A 
ATOM     15  C   UNL     1       8.034  -6.561  -8.381  1.00  0.00     0.012 A 
ATOM     16  C   UNL     1       9.633  -5.426  -6.377  1.00  0.00     0.157 A 
ATOM     17  C   UNL     1       7.441  -6.004  -7.247  1.00  0.00     0.050 A 
ATOM     18  C   UNL     1       8.233  -5.433  -6.241  1.00  0.00     0.157 A 
BRANCH  16  19
ATOM     19  O   UNL     1      10.450  -4.872  -5.393  1.00  0.00    -0.504 OA
ATOM     20  H   UNL     1      11.327  -5.299  -5.119  1.00  0.00     0.293 HD
ENDBRANCH  16  19
BRANCH  18  21
ATOM     21  O   UNL     1       7.639  -4.877  -5.110  1.00  0.00    -0.504 OA
ATOM     22  H   UNL     1       6.685  -4.533  -5.127  1.00  0.00     0.293 HD
ENDBRANCH  18  21
ENDBRANCH   3  13
BRANCH   9  23
ATOM     23  O   UNL     1      13.295 -10.125 -12.565  1.00  0.00    -0.507 OA
ATOM     24  H   UNL     1      13.864 -10.444 -13.338  1.00  0.00     0.293 HD
ENDBRANCH   9  23
BRANCH   7  25
ATOM     25  O   UNL     1      15.214  -5.702 -12.722  1.00  0.00    -0.508 OA
ATOM     26  H   UNL     1      16.058  -6.047 -13.165  1.00  0.00     0.293 HD
ENDBRANCH   7  25
TORSDOF 6
ENDMDL
MODEL 4
REMARK VINA RESULT:    -5.887      1.689      7.106
REMARK INTER + INTRA:          -7.451
REMARK INTER:                  -7.333
REMARK INTRA:                  -0.119
REMARK UNBOUND:                -0.359
REMARK SMILES Oc1cc(O)c2c(c1)O[C@H](c1ccc(O)c(O)c1)[C@@H](O)C2
REMARK SMILES IDX 21 1 19 2 10 3 9 4 7 5 8 6 2 7 3 8 4 9 6 10 20 11 11 13
REMARK SMILES IDX 18 14 12 15 16 16 13 17 14 18 17 19 15 21 5 23 1 25
REMARK H PARENT 20 12 17 20 15 22 5 24 1 26
REMARK Flexibility Score: inf
ROOT
ATOM      1  C   UNL     1       8.586  -5.325  -8.244  1.00  0.00     0.079 C 
ATOM      2  C   UNL     1       8.990  -6.074  -9.525  1.00  0.00     0.164 C 
ATOM      3  C   UNL     1       7.977  -7.197  -9.815  1.00  0.00     0.232 C 
ATOM      4  O   UNL     1       7.890  -8.073  -8.690  1.00  0.00    -0.482 OA
ATOM      5  C   UNL     1       7.937  -7.605  -7.373  1.00  0.00     0.131 A 
ATOM      6  C   UNL     1       7.664  -8.493  -6.329  1.00  0.00     0.093 A 
ATOM      7  C   UNL     1       7.687  -8.052  -5.005  1.00  0.00     0.122 A 
ATOM      8  C   UNL     1       7.976  -6.713  -4.723  1.00  0.00     0.092 A 
ATOM      9  C   UNL     1       8.251  -5.809  -5.756  1.00  0.00     0.126 A 
ATOM     10  C   UNL     1       8.272  -6.263  -7.097  1.00  0.00     0.039 A 
ENDROOT
BRANCH   2  11
ATOM     11  O   UNL     1       9.028  -5.160 -10.593  1.00  0.00    -0.389 OA
ATOM     12  H   UNL     1       8.354  -4.458 -10.398  1.00  0.00     0.211 HD
ENDBRANCH   2  11
BRANCH   3  13
ATOM     13  C   UNL     1       8.368  -7.990 -11.040  1.00  0.00    -0.001 A 
ATOM     14  C   UNL     1       9.711  -8.056 -11.449  1.00  0.00     0.057 A 
ATOM     15  C   UNL     1       7.385  -8.631 -11.812  1.00  0.00     0.012 A 
ATOM     16  C   UNL     1      10.072  -8.767 -12.600  1.00  0.00     0.157 A 
ATOM     17  C   UNL     1       7.741  -9.342 -12.960  1.00  0.00     0.050 A 
ATOM     18  C   UNL     1       9.082  -9.415 -13.360  1.00  0.00     0.157 A 
BRANCH  16  19
ATOM     19  O   UNL     1      11.414  -8.816 -12.972  1.00  0.00    -0.504 OA
ATOM     20  H   UNL     1      11.715  -9.224 -13.850  1.00  0.00     0.293 HD
ENDBRANCH  16  19
BRANCH  18  21
ATOM     21  O   UNL     1       9.436 -10.125 -14.506  1.00  0.00    -0.504 OA
ATOM     22  H   UNL     1       8.746 -10.384 -15.203  1.00  0.00     0.293 HD
ENDBRANCH  18  21
ENDBRANCH   3  13
BRANCH   9  23
ATOM     23  O   UNL     1       8.487  -4.475  -5.417  1.00  0.00    -0.507 OA
ATOM     24  H   UNL     1       7.903  -3.710  -5.728  1.00  0.00     0.293 HD
ENDBRANCH   9  23
BRANCH   7  25
ATOM     25  O   UNL     1       7.414  -8.952  -3.977  1.00  0.00    -0.508 OA
ATOM     26  H   UNL     1       6.463  -9.160  -3.693  1.00  0.00     0.293 HD
ENDBRANCH   7  25
TORSDOF 6
ENDMDL
MODEL 5
REMARK VINA RESULT:    -5.604     16.201     18.715
REMARK INTER + INTRA:          -7.109
REMARK INTER:                  -6.829
REMARK INTRA:                  -0.280
REMARK UNBOUND:                -0.359
REMARK SMILES Oc1cc(O)c2c(c1)O[C@H](c1ccc(O)c(O)c1)[C@@H](O)C2
REMARK SMILES IDX 21 1 19 2 10 3 9 4 7 5 8 6 2 7 3 8 4 9 6 10 20 11 11 13
REMARK SMILES IDX 18 14 12 15 16 16 13 17 14 18 17 19 15 21 5 23 1 25
REMARK H PARENT 20 12 17 20 15 22 5 24 1 26
REMARK Flexibility Score: inf
ROOT
ATOM      1  C   UNL     1      19.167   0.979 -15.121  1.00  0.00     0.079 C 
ATOM      2  C   UNL     1      19.232   0.715 -16.634  1.00  0.00     0.164 C 
ATOM      3  C   UNL     1      20.573   0.048 -16.992  1.00  0.00     0.232 C 
ATOM      4  O   UNL     1      21.655   0.867 -16.546  1.00  0.00    -0.482 OA
ATOM      5  C   UNL     1      21.614   1.566 -15.336  1.00  0.00     0.131 A 
ATOM      6  C   UNL     1      22.774   2.197 -14.878  1.00  0.00     0.093 A 
ATOM      7  C   UNL     1      22.768   2.890 -13.667  1.00  0.00     0.122 A 
ATOM      8  C   UNL     1      21.598   2.945 -12.903  1.00  0.00     0.092 A 
ATOM      9  C   UNL     1      20.427   2.318 -13.345  1.00  0.00     0.126 A 
ATOM     10  C   UNL     1      20.417   1.652 -14.593  1.00  0.00     0.039 A 
ENDROOT
BRANCH   2  11
ATOM     11  O   UNL     1      18.158  -0.116 -16.998  1.00  0.00    -0.389 OA
ATOM     12  H   UNL     1      18.494  -1.050 -16.976  1.00  0.00     0.211 HD
ENDBRANCH   2  11
BRANCH   3  13
ATOM     13  C   UNL     1      20.697  -0.181 -18.480  1.00  0.00    -0.001 A 
ATOM     14  C   UNL     1      21.095   0.864 -19.332  1.00  0.00     0.057 A 
ATOM     15  C   UNL     1      20.367  -1.429 -19.034  1.00  0.00     0.012 A 
ATOM     16  C   UNL     1      21.182   0.662 -20.715  1.00  0.00     0.157 A 
ATOM     17  C   UNL     1      20.454  -1.635 -20.413  1.00  0.00     0.050 A 
ATOM     18  C   UNL     1      20.862  -0.595 -21.259  1.00  0.00     0.157 A 
BRANCH  16  19
ATOM     19  O   UNL     1      21.586   1.719 -21.529  1.00  0.00    -0.504 OA
ATOM     20  H   UNL     1      22.422   2.258 -21.336  1.00  0.00     0.293 HD
ENDBRANCH  16  19
BRANCH  18  21
ATOM     21  O   UNL     1      20.948  -0.801 -22.634  1.00  0.00    -0.504 OA
ATOM     22  H   UNL     1      21.157  -0.041 -23.273  1.00  0.00     0.293 HD
ENDBRANCH  18  21
ENDBRANCH   3  13
BRANCH   9  23
ATOM     23  O   UNL     1      19.302   2.367 -12.517  1.00  0.00    -0.507 OA
ATOM     24  H   UNL     1      19.155   3.086 -11.821  1.00  0.00     0.293 HD
ENDBRANCH   9  23
BRANCH   7  25
ATOM     25  O   UNL     1      23.933   3.515 -13.228  1.00  0.00    -0.508 OA
ATOM     26  H   UNL     1      23.929   4.148 -12.436  1.00  0.00     0.293 HD
ENDBRANCH   7  25
TORSDOF 6
ENDMDL
MODEL 6
REMARK VINA RESULT:    -5.561      9.444     12.196
REMARK INTER + INTRA:          -7.058
REMARK INTER:                  -6.751
REMARK INTRA:                  -0.307
REMARK UNBOUND:                -0.359
REMARK SMILES Oc1cc(O)c2c(c1)O[C@H](c1ccc(O)c(O)c1)[C@@H](O)C2
REMARK SMILES IDX 21 1 19 2 10 3 9 4 7 5 8 6 2 7 3 8 4 9 6 10 20 11 11 13
REMARK SMILES IDX 18 14 12 15 16 16 13 17 14 18 17 19 15 21 5 23 1 25
REMARK H PARENT 20 12 17 20 15 22 5 24 1 26
REMARK Flexibility Score: inf
ROOT
ATOM      1  C   UNL     1      17.265  -0.585  -8.941  1.00  0.00     0.079 C 
ATOM      2  C   UNL     1      16.741  -1.530 -10.035  1.00  0.00     0.164 C 
ATOM      3  C   UNL     1      16.762  -2.983  -9.525  1.00  0.00     0.232 C 
ATOM      4  O   UNL     1      18.083  -3.330  -9.108  1.00  0.00    -0.482 OA
ATOM      5  C   UNL     1      18.918  -2.428  -8.442  1.00  0.00     0.131 A 
ATOM      6  C   UNL     1      20.122  -2.890  -7.904  1.00  0.00     0.093 A 
ATOM      7  C   UNL     1      20.970  -2.017  -7.221  1.00  0.00     0.122 A 
ATOM      8  C   UNL     1      20.607  -0.674  -7.066  1.00  0.00     0.092 A 
ATOM      9  C   UNL     1      19.405  -0.194  -7.598  1.00  0.00     0.126 A 
ATOM     10  C   UNL     1      18.564  -1.067  -8.329  1.00  0.00     0.039 A 
ENDROOT
BRANCH   2  11
ATOM     11  O   UNL     1      15.432  -1.149 -10.376  1.00  0.00    -0.389 OA
ATOM     12  H   UNL     1      14.960  -0.937  -9.529  1.00  0.00     0.211 HD
ENDBRANCH   2  11
BRANCH   3  13
ATOM     13  C   UNL     1      16.302  -3.949 -10.592  1.00  0.00    -0.001 A 
ATOM     14  C   UNL     1      14.988  -4.448 -10.584  1.00  0.00     0.057 A 
ATOM     15  C   UNL     1      17.199  -4.397 -11.575  1.00  0.00     0.012 A 
ATOM     16  C   UNL     1      14.568  -5.365 -11.555  1.00  0.00     0.157 A 
ATOM     17  C   UNL     1      16.784  -5.311 -12.546  1.00  0.00     0.050 A 
ATOM     18  C   UNL     1      15.470  -5.799 -12.543  1.00  0.00     0.157 A 
BRANCH  16  19
ATOM     19  O   UNL     1      13.256  -5.834 -11.521  1.00  0.00    -0.504 OA
ATOM     20  H   UNL     1      12.693  -5.919 -12.359  1.00  0.00     0.293 HD
ENDBRANCH  16  19
BRANCH  18  21
ATOM     21  O   UNL     1      15.057  -6.710 -13.513  1.00  0.00    -0.504 OA
ATOM     22  H   UNL     1      15.726  -7.240 -14.061  1.00  0.00     0.293 HD
ENDBRANCH  18  21
ENDBRANCH   3  13
BRANCH   9  23
ATOM     23  O   UNL     1      19.074   1.144  -7.372  1.00  0.00    -0.507 OA
ATOM     24  H   UNL     1      18.368   1.639  -7.900  1.00  0.00     0.293 HD
ENDBRANCH   9  23
BRANCH   7  25
ATOM     25  O   UNL     1      22.167  -2.495  -6.692  1.00  0.00    -0.508 OA
ATOM     26  H   UNL     1      22.356  -2.465  -5.696  1.00  0.00     0.293 HD
ENDBRANCH   7  25
TORSDOF 6
ENDMDL
MODEL 7
REMARK VINA RESULT:    -5.555      9.974     11.332
REMARK INTER + INTRA:          -7.051
REMARK INTER:                  -6.812
REMARK INTRA:                  -0.239
REMARK UNBOUND:                -0.359
REMARK SMILES Oc1cc(O)c2c(c1)O[C@H](c1ccc(O)c(O)c1)[C@@H](O)C2
REMARK SMILES IDX 21 1 19 2 10 3 9 4 7 5 8 6 2 7 3 8 4 9 6 10 20 11 11 13
REMARK SMILES IDX 18 14 12 15 16 16 13 17 14 18 17 19 15 21 5 23 1 25
REMARK H PARENT 20 12 17 20 15 22 5 24 1 26
REMARK Flexibility Score: inf
ROOT
ATOM      1  C   UNL     1      16.303  -0.914  -9.931  1.00  0.00     0.079 C 
ATOM      2  C   UNL     1      17.324  -1.271  -8.838  1.00  0.00     0.164 C 
ATOM      3  C   UNL     1      18.584  -1.883  -9.480  1.00  0.00     0.232 C 
ATOM      4  O   UNL     1      18.223  -3.020 -10.266  1.00  0.00    -0.482 OA
ATOM      5  C   UNL     1      17.055  -3.057 -11.034  1.00  0.00     0.131 A 
ATOM      6  C   UNL     1      16.859  -4.123 -11.917  1.00  0.00     0.093 A 
ATOM      7  C   UNL     1      15.711  -4.180 -12.709  1.00  0.00     0.122 A 
ATOM      8  C   UNL     1      14.757  -3.160 -12.625  1.00  0.00     0.092 A 
ATOM      9  C   UNL     1      14.938  -2.085 -11.747  1.00  0.00     0.126 A 
ATOM     10  C   UNL     1      16.079  -2.046 -10.911  1.00  0.00     0.039 A 
ENDROOT
BRANCH   2  11
ATOM     11  O   UNL     1      17.654  -0.106  -8.125  1.00  0.00    -0.389 OA
ATOM     12  H   UNL     1      17.248   0.657  -8.612  1.00  0.00     0.211 HD
ENDBRANCH   2  11
BRANCH   3  13
ATOM     13  C   UNL     1      19.591  -2.296  -8.433  1.00  0.00    -0.001 A 
ATOM     14  C   UNL     1      19.166  -2.823  -7.201  1.00  0.00     0.057 A 
ATOM     15  C   UNL     1      20.965  -2.112  -8.661  1.00  0.00     0.012 A 
ATOM     16  C   UNL     1      20.097  -3.179  -6.219  1.00  0.00     0.157 A 
ATOM     17  C   UNL     1      21.897  -2.467  -7.684  1.00  0.00     0.050 A 
ATOM     18  C   UNL     1      21.471  -3.003  -6.461  1.00  0.00     0.157 A 
BRANCH  16  19
ATOM     19  O   UNL     1      19.639  -3.704  -5.011  1.00  0.00    -0.504 OA
ATOM     20  H   UNL     1      19.139  -4.584  -4.961  1.00  0.00     0.293 HD
ENDBRANCH  16  19
BRANCH  18  21
ATOM     21  O   UNL     1      22.402  -3.357  -5.486  1.00  0.00    -0.504 OA
ATOM     22  H   UNL     1      22.170  -4.005  -4.742  1.00  0.00     0.293 HD
ENDBRANCH  18  21
ENDBRANCH   3  13
BRANCH   9  23
ATOM     23  O   UNL     1      13.974  -1.073 -11.740  1.00  0.00    -0.507 OA
ATOM     24  H   UNL     1      14.173  -0.117 -11.478  1.00  0.00     0.293 HD
ENDBRANCH   9  23
BRANCH   7  25
ATOM     25  O   UNL     1      15.532  -5.251 -13.582  1.00  0.00    -0.508 OA
ATOM     26  H   UNL     1      16.228  -5.488 -14.280  1.00  0.00     0.293 HD
ENDBRANCH   7  25
TORSDOF 6
ENDMDL
MODEL 8
REMARK VINA RESULT:    -5.551     13.253     14.263
REMARK INTER + INTRA:          -7.046
REMARK INTER:                  -6.673
REMARK INTRA:                  -0.372
REMARK UNBOUND:                -0.359
REMARK SMILES Oc1cc(O)c2c(c1)O[C@H](c1ccc(O)c(O)c1)[C@@H](O)C2
REMARK SMILES IDX 21 1 19 2 10 3 9 4 7 5 8 6 2 7 3 8 4 9 6 10 20 11 11 13
REMARK SMILES IDX 18 14 12 15 16 16 13 17 14 18 17 19 15 21 5 23 1 25
REMARK H PARENT 20 12 17 20 15 22 5 24 1 26
REMARK Flexibility Score: inf
ROOT
ATOM      1  C   UNL     1      19.818   0.984 -15.290  1.00  0.00     0.079 C 
ATOM      2  C   UNL     1      18.397   1.077 -14.710  1.00  0.00     0.164 C 
ATOM      3  C   UNL     1      17.635  -0.234 -14.981  1.00  0.00     0.232 C 
ATOM      4  O   UNL     1      17.623  -0.507 -16.382  1.00  0.00    -0.482 OA
ATOM      5  C   UNL     1      18.725  -0.249 -17.204  1.00  0.00     0.131 A 
ATOM      6  C   UNL     1      18.708  -0.708 -18.524  1.00  0.00     0.093 A 
ATOM      7  C   UNL     1      19.799  -0.480 -19.364  1.00  0.00     0.122 A 
ATOM      8  C   UNL     1      20.919   0.203 -18.878  1.00  0.00     0.092 A 
ATOM      9  C   UNL     1      20.955   0.668 -17.558  1.00  0.00     0.126 A 
ATOM     10  C   UNL     1      19.832   0.478 -16.717  1.00  0.00     0.039 A 
ENDROOT
BRANCH   2  11
ATOM     11  O   UNL     1      18.484   1.317 -13.328  1.00  0.00    -0.389 OA
ATOM     12  H   UNL     1      17.713   1.892 -13.084  1.00  0.00     0.211 HD
ENDBRANCH   2  11
BRANCH   3  13
ATOM     13  C   UNL     1      16.215  -0.163 -14.470  1.00  0.00    -0.001 A 
ATOM     14  C   UNL     1      15.789  -1.000 -13.425  1.00  0.00     0.057 A 
ATOM     15  C   UNL     1      15.291   0.708 -15.070  1.00  0.00     0.012 A 
ATOM     16  C   UNL     1      14.466  -0.955 -12.969  1.00  0.00     0.157 A 
ATOM     17  C   UNL     1      13.970   0.756 -14.618  1.00  0.00     0.050 A 
ATOM     18  C   UNL     1      13.551  -0.072 -13.568  1.00  0.00     0.157 A 
BRANCH  16  19
ATOM     19  O   UNL     1      14.081  -1.796 -11.926  1.00  0.00    -0.504 OA
ATOM     20  H   UNL     1      13.873  -1.443 -10.999  1.00  0.00     0.293 HD
ENDBRANCH  16  19
BRANCH  18  21
ATOM     21  O   UNL     1      12.233  -0.023 -13.118  1.00  0.00    -0.504 OA
ATOM     22  H   UNL     1      11.721   0.852 -13.070  1.00  0.00     0.293 HD
ENDBRANCH  18  21
ENDBRANCH   3  13
BRANCH   9  23
ATOM     23  O   UNL     1      22.119   1.302 -17.116  1.00  0.00    -0.507 OA
ATOM     24  H   UNL     1      22.155   2.279 -16.855  1.00  0.00     0.293 HD
ENDBRANCH   9  23
BRANCH   7  25
ATOM     25  O   UNL     1      19.763  -0.943 -20.677  1.00  0.00    -0.508 OA
ATOM     26  H   UNL     1      20.584  -0.915 -21.272  1.00  0.00     0.293 HD
ENDBRANCH   7  25
TORSDOF 6
ENDMDL
MODEL 9
REMARK VINA RESULT:    -5.514      2.748      7.202
REMARK INTER + INTRA:          -7.002
REMARK INTER:                  -6.645
REMARK INTRA:                  -0.356
REMARK UNBOUND:                -0.359
REMARK SMILES Oc1cc(O)c2c(c1)O[C@H](c1ccc(O)c(O)c1)[C@@H](O)C2
REMARK SMILES IDX 21 1 19 2 10 3 9 4 7 5 8 6 2 7 3 8 4 9 6 10 20 11 11 13
REMARK SMILES IDX 18 14 12 15 16 16 13 17 14 18 17 19 15 21 5 23 1 25
REMARK H PARENT 20 12 17 20 15 22 5 24 1 26
REMARK Flexibility Score: inf
ROOT
ATOM      1  C   UNL     1       7.944  -6.048 -10.053  1.00  0.00     0.079 C 
ATOM      2  C   UNL     1       9.209  -6.453 -10.829  1.00  0.00     0.164 C 
ATOM      3  C   UNL     1       9.944  -7.578 -10.078  1.00  0.00     0.232 C 
ATOM      4  O   UNL     1      10.246  -7.156  -8.747  1.00  0.00    -0.482 OA
ATOM      5  C   UNL     1       9.362  -6.381  -7.990  1.00  0.00     0.131 A 
ATOM      6  C   UNL     1       9.641  -6.160  -6.639  1.00  0.00     0.093 A 
ATOM      7  C   UNL     1       8.770  -5.404  -5.853  1.00  0.00     0.122 A 
ATOM      8  C   UNL     1       7.607  -4.872  -6.420  1.00  0.00     0.092 A 
ATOM      9  C   UNL     1       7.310  -5.084  -7.772  1.00  0.00     0.126 A 
ATOM     10  C   UNL     1       8.214  -5.813  -8.582  1.00  0.00     0.039 A 
ENDROOT
BRANCH   2  11
ATOM     11  O   UNL     1       8.837  -6.882 -12.114  1.00  0.00    -0.389 OA
ATOM     12  H   UNL     1       9.527  -7.527 -12.416  1.00  0.00     0.211 HD
ENDBRANCH   2  11
BRANCH   3  13
ATOM     13  C   UNL     1      11.222  -7.969 -10.783  1.00  0.00    -0.001 A 
ATOM     14  C   UNL     1      12.173  -6.993 -11.128  1.00  0.00     0.057 A 
ATOM     15  C   UNL     1      11.451  -9.307 -11.144  1.00  0.00     0.012 A 
ATOM     16  C   UNL     1      13.345  -7.349 -11.807  1.00  0.00     0.157 A 
ATOM     17  C   UNL     1      12.619  -9.666 -11.821  1.00  0.00     0.050 A 
ATOM     18  C   UNL     1      13.571  -8.693 -12.154  1.00  0.00     0.157 A 
BRANCH  16  19
ATOM     19  O   UNL     1      14.269  -6.356 -12.128  1.00  0.00    -0.504 OA
ATOM     20  H   UNL     1      14.651  -5.729 -11.429  1.00  0.00     0.293 HD
ENDBRANCH  16  19
BRANCH  18  21
ATOM     21  O   UNL     1      14.736  -9.052 -12.829  1.00  0.00    -0.504 OA
ATOM     22  H   UNL     1      14.787  -9.040 -13.842  1.00  0.00     0.293 HD
ENDBRANCH  18  21
ENDBRANCH   3  13
BRANCH   9  23
ATOM     23  O   UNL     1       6.111  -4.568  -8.271  1.00  0.00    -0.507 OA
ATOM     24  H   UNL     1       6.055  -3.713  -8.808  1.00  0.00     0.293 HD
ENDBRANCH   9  23
BRANCH   7  25
ATOM     25  O   UNL     1       9.066  -5.193  -4.509  1.00  0.00    -0.508 OA
ATOM     26  H   UNL     1       8.900  -5.909  -3.810  1.00  0.00     0.293 HD
ENDBRANCH   7  25
TORSDOF 6
ENDMDL
