MODEL 1
REMARK VINA RESULT:     7.283      0.000      0.000
REMARK INTER + INTRA:          11.878
REMARK INTER:                  12.818
REMARK INTRA:                  -0.940
REMARK UNBOUND:                -0.940
REMARK SMILES CCCCCCC=CCCCCCCCC(=O)[O-]
REMARK SMILES IDX 10 1 11 2 12 3 13 4 14 5 15 6 16 7 17 8 18 9 9 10 8 11 7 12
REMARK SMILES IDX 6 13 5 14 4 15 3 16 2 17 1 18
REMARK H PARENT
REMARK Flexibility Score: inf
ROOT
ATOM      1  C   UNL     1      -4.760 103.267  62.289  1.00  0.00     0.004 C 
ENDROOT
BRANCH   1   2
ATOM      2  C   UNL     1      -3.976 101.945  62.227  1.00  0.00     0.000 C 
BRANCH   2   3
ATOM      3  C   UNL     1      -3.536 101.453  63.614  1.00  0.00     0.000 C 
BRANCH   3   4
ATOM      4  C   UNL     1      -2.084 100.951  63.632  1.00  0.00     0.000 C 
BRANCH   4   5
ATOM      5  C   UNL     1      -1.255 101.626  62.529  1.00  0.00     0.006 C 
BRANCH   5   6
ATOM      6  C   UNL     1       0.117 102.092  63.035  1.00  0.00     0.053 C 
BRANCH   6   7
ATOM      7  C   UNL     1       0.989 102.571  61.917  1.00  0.00     0.041 C 
ATOM      8  O   UNL     1       1.413 101.760  61.052  1.00  0.00    -0.550 OA
ATOM      9  O   UNL     1       1.309 103.919  61.811  1.00  0.00    -0.550 OA
ENDBRANCH   6   7
ENDBRANCH   5   6
ENDBRANCH   4   5
ENDBRANCH   3   4
ENDBRANCH   2   3
ENDBRANCH   1   2
BRANCH   1  10
ATOM     10  C   UNL     1      -4.449 104.069  63.560  1.00  0.00     0.027 C 
BRANCH  10  11
ATOM     11  C   UNL     1      -3.664 105.322  63.252  1.00  0.00    -0.031 C 
ATOM     12  C   UNL     1      -3.680 106.456  63.980  1.00  0.00    -0.031 C 
BRANCH  12  13
ATOM     13  C   UNL     1      -4.448 106.665  65.263  1.00  0.00     0.027 C 
BRANCH  13  14
ATOM     14  C   UNL     1      -4.174 108.049  65.868  1.00  0.00     0.004 C 
BRANCH  14  15
ATOM     15  C   UNL     1      -5.429 108.671  66.496  1.00  0.00     0.000 C 
BRANCH  15  16
ATOM     16  C   UNL     1      -6.517 107.610  66.717  1.00  0.00    -0.000 C 
BRANCH  16  17
ATOM     17  C   UNL     1      -7.933 108.163  66.495  1.00  0.00    -0.003 C 
ATOM     18  C   UNL     1      -8.125 109.557  67.094  1.00  0.00     0.004 C 
ENDBRANCH  16  17
ENDBRANCH  15  16
ENDBRANCH  14  15
ENDBRANCH  13  14
ENDBRANCH  12  13
ENDBRANCH  10  11
ENDBRANCH   1  10
TORSDOF 13
ENDMDL
MODEL 2
REMARK VINA RESULT:     8.007      7.311      9.661
REMARK INTER + INTRA:          13.153
REMARK INTER:                  14.389
REMARK INTRA:                  -1.235
REMARK UNBOUND:                -0.940
REMARK SMILES CCCCCCC=CCCCCCCCC(=O)[O-]
REMARK SMILES IDX 10 1 11 2 12 3 13 4 14 5 15 6 16 7 17 8 18 9 9 10 8 11 7 12
REMARK SMILES IDX 6 13 5 14 4 15 3 16 2 17 1 18
REMARK H PARENT
REMARK Flexibility Score: inf
ROOT
ATOM      1  C   UNL     1      -4.446 110.017  65.693  1.00  0.00     0.004 C 
ENDROOT
BRANCH   1   2
ATOM      2  C   UNL     1      -3.126 110.700  65.297  1.00  0.00     0.000 C 
BRANCH   2   3
ATOM      3  C   UNL     1      -2.977 112.100  65.914  1.00  0.00     0.000 C 
BRANCH   3   4
ATOM      4  C   UNL     1      -3.971 112.352  67.059  1.00  0.00     0.000 C 
BRANCH   4   5
ATOM      5  C   UNL     1      -4.217 113.856  67.251  1.00  0.00     0.006 C 
BRANCH   5   6
ATOM      6  C   UNL     1      -5.711 114.194  67.343  1.00  0.00     0.053 C 
BRANCH   6   7
ATOM      7  C   UNL     1      -5.935 115.630  67.702  1.00  0.00     0.041 C 
ATOM      8  O   UNL     1      -5.710 116.032  68.874  1.00  0.00    -0.550 OA
ATOM      9  O   UNL     1      -6.363 116.532  66.736  1.00  0.00    -0.550 OA
ENDBRANCH   6   7
ENDBRANCH   5   6
ENDBRANCH   4   5
ENDBRANCH   3   4
ENDBRANCH   2   3
ENDBRANCH   1   2
BRANCH   1  10
ATOM     10  C   UNL     1      -4.494 108.546  65.257  1.00  0.00     0.027 C 
BRANCH  10  11
ATOM     11  C   UNL     1      -3.699 107.661  66.187  1.00  0.00    -0.031 C 
ATOM     12  C   UNL     1      -4.160 107.105  67.325  1.00  0.00    -0.031 C 
BRANCH  12  13
ATOM     13  C   UNL     1      -5.570 107.227  67.853  1.00  0.00     0.027 C 
BRANCH  13  14
ATOM     14  C   UNL     1      -6.558 106.385  67.033  1.00  0.00     0.004 C 
BRANCH  14  15
ATOM     15  C   UNL     1      -7.951 107.024  66.962  1.00  0.00     0.000 C 
BRANCH  15  16
ATOM     16  C   UNL     1      -7.990 108.143  65.912  1.00  0.00    -0.000 C 
BRANCH  16  17
ATOM     17  C   UNL     1      -8.125 109.538  66.542  1.00  0.00    -0.003 C 
ATOM     18  C   UNL     1      -8.125 109.500  68.070  1.00  0.00     0.004 C 
ENDBRANCH  16  17
ENDBRANCH  15  16
ENDBRANCH  14  15
ENDBRANCH  13  14
ENDBRANCH  12  13
ENDBRANCH  10  11
ENDBRANCH   1  10
TORSDOF 13
ENDMDL
MODEL 3
REMARK VINA RESULT:     8.666      4.027      8.581
REMARK INTER + INTRA:          14.313
REMARK INTER:                  15.194
REMARK INTRA:                  -0.881
REMARK UNBOUND:                -0.940
REMARK SMILES CCCCCCC=CCCCCCCCC(=O)[O-]
REMARK SMILES IDX 10 1 11 2 12 3 13 4 14 5 15 6 16 7 17 8 18 9 9 10 8 11 7 12
REMARK SMILES IDX 6 13 5 14 4 15 3 16 2 17 1 18
REMARK H PARENT
REMARK Flexibility Score: inf
ROOT
ATOM      1  C   UNL     1      -3.738 105.479  63.217  1.00  0.00     0.004 C 
ENDROOT
BRANCH   1   2
ATOM      2  C   UNL     1      -3.558 106.318  64.493  1.00  0.00     0.000 C 
BRANCH   2   3
ATOM      3  C   UNL     1      -4.674 107.357  64.679  1.00  0.00     0.000 C 
BRANCH   3   4
ATOM      4  C   UNL     1      -4.432 108.278  65.885  1.00  0.00     0.000 C 
BRANCH   4   5
ATOM      5  C   UNL     1      -5.248 107.816  67.102  1.00  0.00     0.006 C 
BRANCH   5   6
ATOM      6  C   UNL     1      -6.668 107.379  66.718  1.00  0.00     0.053 C 
BRANCH   6   7
ATOM      7  C   UNL     1      -7.592 108.549  66.578  1.00  0.00     0.041 C 
ATOM      8  O   UNL     1      -8.120 108.809  65.465  1.00  0.00    -0.550 OA
ATOM      9  O   UNL     1      -7.895 109.334  67.683  1.00  0.00    -0.550 OA
ENDBRANCH   6   7
ENDBRANCH   5   6
ENDBRANCH   4   5
ENDBRANCH   3   4
ENDBRANCH   2   3
ENDBRANCH   1   2
BRANCH   1  10
ATOM     10  C   UNL     1      -4.822 104.403  63.375  1.00  0.00     0.027 C 
BRANCH  10  11
ATOM     11  C   UNL     1      -4.710 103.337  62.312  1.00  0.00    -0.031 C 
ATOM     12  C   UNL     1      -4.019 102.185  62.426  1.00  0.00    -0.031 C 
BRANCH  12  13
ATOM     13  C   UNL     1      -3.270 101.728  63.656  1.00  0.00     0.027 C 
BRANCH  13  14
ATOM     14  C   UNL     1      -2.181 100.705  63.308  1.00  0.00     0.004 C 
BRANCH  14  15
ATOM     15  C   UNL     1      -1.251 101.198  62.191  1.00  0.00     0.000 C 
BRANCH  15  16
ATOM     16  C   UNL     1      -0.162 102.124  62.751  1.00  0.00    -0.000 C 
BRANCH  16  17
ATOM     17  C   UNL     1       0.996 102.338  61.763  1.00  0.00    -0.003 C 
ATOM     18  C   UNL     1       1.630 103.723  61.885  1.00  0.00     0.004 C 
ENDBRANCH  16  17
ENDBRANCH  15  16
ENDBRANCH  14  15
ENDBRANCH  13  14
ENDBRANCH  12  13
ENDBRANCH  10  11
ENDBRANCH   1  10
TORSDOF 13
ENDMDL
MODEL 4
REMARK VINA RESULT:     8.819      3.697      5.476
REMARK INTER + INTRA:          14.581
REMARK INTER:                  15.279
REMARK INTRA:                  -0.698
REMARK UNBOUND:                -0.940
REMARK SMILES CCCCCCC=CCCCCCCCC(=O)[O-]
REMARK SMILES IDX 10 1 11 2 12 3 13 4 14 5 15 6 16 7 17 8 18 9 9 10 8 11 7 12
REMARK SMILES IDX 6 13 5 14 4 15 3 16 2 17 1 18
REMARK H PARENT
REMARK Flexibility Score: inf
ROOT
ATOM      1  C   UNL     1      -6.283 107.049  67.386  1.00  0.00     0.004 C 
ENDROOT
BRANCH   1   2
ATOM      2  C   UNL     1      -5.259 105.997  66.926  1.00  0.00     0.000 C 
BRANCH   2   3
ATOM      3  C   UNL     1      -5.921 104.688  66.470  1.00  0.00     0.000 C 
BRANCH   3   4
ATOM      4  C   UNL     1      -5.033 103.875  65.515  1.00  0.00     0.000 C 
BRANCH   4   5
ATOM      5  C   UNL     1      -5.182 104.372  64.070  1.00  0.00     0.006 C 
BRANCH   5   6
ATOM      6  C   UNL     1      -3.975 103.997  63.199  1.00  0.00     0.053 C 
BRANCH   6   7
ATOM      7  C   UNL     1      -4.000 102.553  62.806  1.00  0.00     0.041 C 
ATOM      8  O   UNL     1      -3.373 101.700  63.488  1.00  0.00    -0.550 OA
ATOM      9  O   UNL     1      -4.743 102.142  61.705  1.00  0.00    -0.550 OA
ENDBRANCH   6   7
ENDBRANCH   5   6
ENDBRANCH   4   5
ENDBRANCH   3   4
ENDBRANCH   2   3
ENDBRANCH   1   2
BRANCH   1  10
ATOM     10  C   UNL     1      -6.175 108.355  66.587  1.00  0.00     0.027 C 
BRANCH  10  11
ATOM     11  C   UNL     1      -4.770 108.590  66.087  1.00  0.00    -0.031 C 
ATOM     12  C   UNL     1      -4.122 109.772  66.094  1.00  0.00    -0.031 C 
BRANCH  12  13
ATOM     13  C   UNL     1      -4.666 111.068  66.648  1.00  0.00     0.027 C 
BRANCH  13  14
ATOM     14  C   UNL     1      -3.611 112.183  66.621  1.00  0.00     0.004 C 
BRANCH  14  15
ATOM     15  C   UNL     1      -4.033 113.407  67.443  1.00  0.00     0.000 C 
BRANCH  15  16
ATOM     16  C   UNL     1      -5.508 113.755  67.194  1.00  0.00    -0.000 C 
BRANCH  16  17
ATOM     17  C   UNL     1      -5.830 115.223  67.513  1.00  0.00    -0.003 C 
ATOM     18  C   UNL     1      -5.520 115.595  68.963  1.00  0.00     0.004 C 
ENDBRANCH  16  17
ENDBRANCH  15  16
ENDBRANCH  14  15
ENDBRANCH  13  14
ENDBRANCH  12  13
ENDBRANCH  10  11
ENDBRANCH   1  10
TORSDOF 13
ENDMDL
MODEL 5
REMARK VINA RESULT:     8.879      3.466      7.861
REMARK INTER + INTRA:          14.688
REMARK INTER:                  15.296
REMARK INTRA:                  -0.608
REMARK UNBOUND:                -0.940
REMARK SMILES CCCCCCC=CCCCCCCCC(=O)[O-]
REMARK SMILES IDX 10 1 11 2 12 3 13 4 14 5 15 6 16 7 17 8 18 9 9 10 8 11 7 12
REMARK SMILES IDX 6 13 5 14 4 15 3 16 2 17 1 18
REMARK H PARENT
REMARK Flexibility Score: inf
ROOT
ATOM      1  C   UNL     1      -4.649 104.166  63.023  1.00  0.00     0.004 C 
ENDROOT
BRANCH   1   2
ATOM      2  C   UNL     1      -3.534 105.207  63.218  1.00  0.00     0.000 C 
BRANCH   2   3
ATOM      3  C   UNL     1      -4.080 106.592  63.599  1.00  0.00     0.000 C 
BRANCH   3   4
ATOM      4  C   UNL     1      -3.628 107.044  64.996  1.00  0.00     0.000 C 
BRANCH   4   5
ATOM      5  C   UNL     1      -4.191 108.433  65.333  1.00  0.00     0.006 C 
BRANCH   5   6
ATOM      6  C   UNL     1      -5.193 108.389  66.494  1.00  0.00     0.053 C 
BRANCH   6   7
ATOM      7  C   UNL     1      -4.933 107.233  67.410  1.00  0.00     0.041 C 
ATOM      8  O   UNL     1      -4.016 107.301  68.270  1.00  0.00    -0.550 OA
ATOM      9  O   UNL     1      -5.725 106.094  67.336  1.00  0.00    -0.550 OA
ENDBRANCH   6   7
ENDBRANCH   5   6
ENDBRANCH   4   5
ENDBRANCH   3   4
ENDBRANCH   2   3
ENDBRANCH   1   2
BRANCH   1  10
ATOM     10  C   UNL     1      -4.123 102.853  62.427  1.00  0.00     0.027 C 
BRANCH  10  11
ATOM     11  C   UNL     1      -3.663 101.897  63.501  1.00  0.00    -0.031 C 
ATOM     12  C   UNL     1      -2.543 101.148  63.457  1.00  0.00    -0.031 C 
BRANCH  12  13
ATOM     13  C   UNL     1      -1.519 101.163  62.347  1.00  0.00     0.027 C 
BRANCH  13  14
ATOM     14  C   UNL     1      -0.203 101.810  62.799  1.00  0.00     0.004 C 
BRANCH  14  15
ATOM     15  C   UNL     1       0.830 101.888  61.667  1.00  0.00     0.000 C 
BRANCH  15  16
ATOM     16  C   UNL     1       1.680 103.161  61.785  1.00  0.00    -0.000 C 
BRANCH  16  17
ATOM     17  C   UNL     1       0.838 104.405  62.111  1.00  0.00    -0.003 C 
ATOM     18  C   UNL     1       1.046 104.903  63.541  1.00  0.00     0.004 C 
ENDBRANCH  16  17
ENDBRANCH  15  16
ENDBRANCH  14  15
ENDBRANCH  13  14
ENDBRANCH  12  13
ENDBRANCH  10  11
ENDBRANCH   1  10
TORSDOF 13
ENDMDL
MODEL 6
REMARK VINA RESULT:     9.114      5.733      9.980
REMARK INTER + INTRA:          15.100
REMARK INTER:                  15.651
REMARK INTRA:                  -0.551
REMARK UNBOUND:                -0.940
REMARK SMILES CCCCCCC=CCCCCCCCC(=O)[O-]
REMARK SMILES IDX 10 1 11 2 12 3 13 4 14 5 15 6 16 7 17 8 18 9 9 10 8 11 7 12
REMARK SMILES IDX 6 13 5 14 4 15 3 16 2 17 1 18
REMARK H PARENT
REMARK Flexibility Score: inf
ROOT
ATOM      1  C   UNL     1      -4.947 108.512  66.056  1.00  0.00     0.004 C 
ENDROOT
BRANCH   1   2
ATOM      2  C   UNL     1      -3.915 109.642  66.209  1.00  0.00     0.000 C 
BRANCH   2   3
ATOM      3  C   UNL     1      -4.539 110.946  66.730  1.00  0.00     0.000 C 
BRANCH   3   4
ATOM      4  C   UNL     1      -3.648 112.172  66.479  1.00  0.00     0.000 C 
BRANCH   4   5
ATOM      5  C   UNL     1      -4.053 113.341  67.389  1.00  0.00     0.006 C 
BRANCH   5   6
ATOM      6  C   UNL     1      -5.537 113.703  67.245  1.00  0.00     0.053 C 
BRANCH   6   7
ATOM      7  C   UNL     1      -5.804 115.125  67.632  1.00  0.00     0.041 C 
ATOM      8  O   UNL     1      -6.158 115.963  66.762  1.00  0.00    -0.550 OA
ATOM      9  O   UNL     1      -5.692 115.518  68.960  1.00  0.00    -0.550 OA
ENDBRANCH   6   7
ENDBRANCH   5   6
ENDBRANCH   4   5
ENDBRANCH   3   4
ENDBRANCH   2   3
ENDBRANCH   1   2
BRANCH   1  10
ATOM     10  C   UNL     1      -4.843 107.472  67.180  1.00  0.00     0.027 C 
BRANCH  10  11
ATOM     11  C   UNL     1      -6.087 106.622  67.272  1.00  0.00    -0.031 C 
ATOM     12  C   UNL     1      -6.211 105.360  66.816  1.00  0.00    -0.031 C 
BRANCH  12  13
ATOM     13  C   UNL     1      -5.112 104.548  66.171  1.00  0.00     0.027 C 
BRANCH  13  14
ATOM     14  C   UNL     1      -5.512 104.066  64.770  1.00  0.00     0.004 C 
BRANCH  14  15
ATOM     15  C   UNL     1      -4.363 104.190  63.759  1.00  0.00     0.000 C 
BRANCH  15  16
ATOM     16  C   UNL     1      -4.736 103.536  62.421  1.00  0.00    -0.000 C 
BRANCH  16  17
ATOM     17  C   UNL     1      -4.118 102.139  62.255  1.00  0.00    -0.003 C 
ATOM     18  C   UNL     1      -3.312 101.699  63.477  1.00  0.00     0.004 C 
ENDBRANCH  16  17
ENDBRANCH  15  16
ENDBRANCH  14  15
ENDBRANCH  13  14
ENDBRANCH  12  13
ENDBRANCH  10  11
ENDBRANCH   1  10
TORSDOF 13
ENDMDL
MODEL 7
REMARK VINA RESULT:     9.462      6.211      8.167
REMARK INTER + INTRA:          15.714
REMARK INTER:                  16.023
REMARK INTRA:                  -0.309
REMARK UNBOUND:                -0.940
REMARK SMILES CCCCCCC=CCCCCCCCC(=O)[O-]
REMARK SMILES IDX 10 1 11 2 12 3 13 4 14 5 15 6 16 7 17 8 18 9 9 10 8 11 7 12
REMARK SMILES IDX 6 13 5 14 4 15 3 16 2 17 1 18
REMARK H PARENT
REMARK Flexibility Score: inf
ROOT
ATOM      1  C   UNL     1      -3.938 108.688  65.507  1.00  0.00     0.004 C 
ENDROOT
BRANCH   1   2
ATOM      2  C   UNL     1      -4.693 109.029  66.802  1.00  0.00     0.000 C 
BRANCH   2   3
ATOM      3  C   UNL     1      -5.281 107.786  67.488  1.00  0.00     0.000 C 
BRANCH   3   4
ATOM      4  C   UNL     1      -5.693 106.695  66.488  1.00  0.00     0.000 C 
BRANCH   4   5
ATOM      5  C   UNL     1      -7.165 106.301  66.680  1.00  0.00     0.006 C 
BRANCH   5   6
ATOM      6  C   UNL     1      -7.970 107.391  67.400  1.00  0.00     0.053 C 
BRANCH   6   7
ATOM      7  C   UNL     1      -8.088 108.633  66.572  1.00  0.00     0.041 C 
ATOM      8  O   UNL     1      -8.124 109.763  67.127  1.00  0.00    -0.550 OA
ATOM      9  O   UNL     1      -8.125 108.546  65.186  1.00  0.00    -0.550 OA
ENDBRANCH   6   7
ENDBRANCH   5   6
ENDBRANCH   4   5
ENDBRANCH   3   4
ENDBRANCH   2   3
ENDBRANCH   1   2
BRANCH   1  10
ATOM     10  C   UNL     1      -3.829 109.892  64.561  1.00  0.00     0.027 C 
BRANCH  10  11
ATOM     11  C   UNL     1      -2.447 110.499  64.585  1.00  0.00    -0.031 C 
ATOM     12  C   UNL     1      -2.148 111.750  64.987  1.00  0.00    -0.031 C 
BRANCH  12  13
ATOM     13  C   UNL     1      -3.133 112.757  65.533  1.00  0.00     0.027 C 
BRANCH  13  14
ATOM     14  C   UNL     1      -3.758 112.282  66.851  1.00  0.00     0.004 C 
BRANCH  14  15
ATOM     15  C   UNL     1      -4.237 113.449  67.725  1.00  0.00     0.000 C 
BRANCH  15  16
ATOM     16  C   UNL     1      -5.498 114.097  67.132  1.00  0.00    -0.000 C 
BRANCH  16  17
ATOM     17  C   UNL     1      -6.030 115.251  67.997  1.00  0.00    -0.003 C 
ATOM     18  C   UNL     1      -4.913 116.091  68.616  1.00  0.00     0.004 C 
ENDBRANCH  16  17
ENDBRANCH  15  16
ENDBRANCH  14  15
ENDBRANCH  13  14
ENDBRANCH  12  13
ENDBRANCH  10  11
ENDBRANCH   1  10
TORSDOF 13
ENDMDL
MODEL 8
REMARK VINA RESULT:     9.792      6.863      9.736
REMARK INTER + INTRA:          16.295
REMARK INTER:                  16.473
REMARK INTRA:                  -0.178
REMARK UNBOUND:                -0.940
REMARK SMILES CCCCCCC=CCCCCCCCC(=O)[O-]
REMARK SMILES IDX 10 1 11 2 12 3 13 4 14 5 15 6 16 7 17 8 18 9 9 10 8 11 7 12
REMARK SMILES IDX 6 13 5 14 4 15 3 16 2 17 1 18
REMARK H PARENT
REMARK Flexibility Score: inf
ROOT
ATOM      1  C   UNL     1      -4.240 109.980  65.643  1.00  0.00     0.004 C 
ENDROOT
BRANCH   1   2
ATOM      2  C   UNL     1      -3.175 110.908  65.036  1.00  0.00     0.000 C 
BRANCH   2   3
ATOM      3  C   UNL     1      -3.249 112.337  65.595  1.00  0.00     0.000 C 
BRANCH   3   4
ATOM      4  C   UNL     1      -3.370 112.371  67.126  1.00  0.00     0.000 C 
BRANCH   4   5
ATOM      5  C   UNL     1      -3.926 113.720  67.605  1.00  0.00     0.006 C 
BRANCH   5   6
ATOM      6  C   UNL     1      -5.412 113.892  67.262  1.00  0.00     0.053 C 
BRANCH   6   7
ATOM      7  C   UNL     1      -5.909 115.261  67.611  1.00  0.00     0.041 C 
ATOM      8  O   UNL     1      -5.963 115.627  68.814  1.00  0.00    -0.550 OA
ATOM      9  O   UNL     1      -6.281 116.145  66.605  1.00  0.00    -0.550 OA
ENDBRANCH   6   7
ENDBRANCH   5   6
ENDBRANCH   4   5
ENDBRANCH   3   4
ENDBRANCH   2   3
ENDBRANCH   1   2
BRANCH   1  10
ATOM     10  C   UNL     1      -3.839 108.500  65.560  1.00  0.00     0.027 C 
BRANCH  10  11
ATOM     11  C   UNL     1      -4.407 107.702  66.709  1.00  0.00    -0.031 C 
ATOM     12  C   UNL     1      -5.673 107.773  67.164  1.00  0.00    -0.031 C 
BRANCH  12  13
ATOM     13  C   UNL     1      -6.770 108.630  66.577  1.00  0.00     0.027 C 
BRANCH  13  14
ATOM     14  C   UNL     1      -8.125 107.909  66.598  1.00  0.00     0.004 C 
BRANCH  14  15
ATOM     15  C   UNL     1      -8.009 106.435  66.188  1.00  0.00     0.000 C 
BRANCH  15  16
ATOM     16  C   UNL     1      -8.123 105.514  67.411  1.00  0.00    -0.000 C 
BRANCH  16  17
ATOM     17  C   UNL     1      -6.914 104.578  67.559  1.00  0.00    -0.003 C 
ATOM     18  C   UNL     1      -5.992 104.604  66.340  1.00  0.00     0.004 C 
ENDBRANCH  16  17
ENDBRANCH  15  16
ENDBRANCH  14  15
ENDBRANCH  13  14
ENDBRANCH  12  13
ENDBRANCH  10  11
ENDBRANCH   1  10
TORSDOF 13
ENDMDL
MODEL 9
REMARK VINA RESULT:     9.802      5.949      9.740
REMARK INTER + INTRA:          16.312
REMARK INTER:                  15.867
REMARK INTRA:                   0.445
REMARK UNBOUND:                -0.940
REMARK SMILES CCCCCCC=CCCCCCCCC(=O)[O-]
REMARK SMILES IDX 10 1 11 2 12 3 13 4 14 5 15 6 16 7 17 8 18 9 9 10 8 11 7 12
REMARK SMILES IDX 6 13 5 14 4 15 3 16 2 17 1 18
REMARK H PARENT
REMARK Flexibility Score: inf
ROOT
ATOM      1  C   UNL     1      -4.495 108.459  65.906  1.00  0.00     0.004 C 
ENDROOT
BRANCH   1   2
ATOM      2  C   UNL     1      -3.872 109.841  65.646  1.00  0.00     0.000 C 
BRANCH   2   3
ATOM      3  C   UNL     1      -4.285 110.882  66.697  1.00  0.00     0.000 C 
BRANCH   3   4
ATOM      4  C   UNL     1      -3.704 112.276  66.413  1.00  0.00     0.000 C 
BRANCH   4   5
ATOM      5  C   UNL     1      -4.170 113.291  67.467  1.00  0.00     0.006 C 
BRANCH   5   6
ATOM      6  C   UNL     1      -5.627 113.724  67.253  1.00  0.00     0.053 C 
BRANCH   6   7
ATOM      7  C   UNL     1      -5.831 115.171  67.581  1.00  0.00     0.041 C 
ATOM      8  O   UNL     1      -6.173 115.982  66.680  1.00  0.00    -0.550 OA
ATOM      9  O   UNL     1      -5.677 115.618  68.887  1.00  0.00    -0.550 OA
ENDBRANCH   6   7
ENDBRANCH   5   6
ENDBRANCH   4   5
ENDBRANCH   3   4
ENDBRANCH   2   3
ENDBRANCH   1   2
BRANCH   1  10
ATOM     10  C   UNL     1      -5.548 108.495  67.021  1.00  0.00     0.027 C 
BRANCH  10  11
ATOM     11  C   UNL     1      -6.910 108.877  66.492  1.00  0.00    -0.031 C 
ATOM     12  C   UNL     1      -7.946 108.035  66.312  1.00  0.00    -0.031 C 
BRANCH  12  13
ATOM     13  C   UNL     1      -7.951 106.563  66.652  1.00  0.00     0.027 C 
BRANCH  13  14
ATOM     14  C   UNL     1      -6.594 106.104  67.204  1.00  0.00     0.004 C 
BRANCH  14  15
ATOM     15  C   UNL     1      -6.133 104.776  66.590  1.00  0.00     0.000 C 
BRANCH  15  16
ATOM     16  C   UNL     1      -5.148 105.017  65.436  1.00  0.00    -0.000 C 
BRANCH  16  17
ATOM     17  C   UNL     1      -4.840 103.736  64.646  1.00  0.00    -0.003 C 
ATOM     18  C   UNL     1      -4.439 104.015  63.197  1.00  0.00     0.004 C 
ENDBRANCH  16  17
ENDBRANCH  15  16
ENDBRANCH  14  15
ENDBRANCH  13  14
ENDBRANCH  12  13
ENDBRANCH  10  11
ENDBRANCH   1  10
TORSDOF 13
ENDMDL
