MODEL 1
REMARK VINA RESULT:    -4.383      0.000      0.000
REMARK INTER + INTRA:         -11.527
REMARK INTER:                  -9.251
REMARK INTRA:                  -2.276
REMARK UNBOUND:                -2.276
REMARK SMILES CCC(=O)CCCCC[C@@H]1NC(=O)[C@@H]2CCCCN2C(=O)[C@H]([C@@H](C)CC)NC(=O)[C@@H](Cc2cn(OC)c3ccccc23)NC1=O
REMARK SMILES IDX 9 1 10 2 44 3 43 4 45 6 30 7 28 8 27 9 29 11 22 12 23 14
REMARK SMILES IDX 24 15 25 16 26 17 31 18 32 19 33 20 42 21 34 22 37 23 41 24
REMARK SMILES IDX 38 25 40 26 39 27 35 28 36 29 11 30 12 31 13 33 14 34 19 35
REMARK SMILES IDX 15 36 18 37 16 38 17 39 20 40 21 41 8 43 7 44 6 45 5 46 3 47
REMARK SMILES IDX 4 48 2 49 1 50
REMARK H PARENT 43 5 27 10 11 32
REMARK Flexibility Score: 80.00
ROOT
ATOM      1  C   UNL     1      62.632  34.160  48.923  1.00  0.00     0.035 C 
ENDROOT
BRANCH   1   2
ATOM      2  C   UNL     1      63.718  33.220  49.482  1.00  0.00     0.171 C 
BRANCH   2   3
ATOM      3  C   UNL     1      63.243  31.798  49.534  1.00  0.00     0.243 C 
ATOM      4  N   UNL     1      63.766  30.830  48.611  1.00  0.00    -0.342 N 
ATOM      5  H   UNL     1      64.148  31.169  47.692  1.00  0.00     0.164 HD
ATOM      6  O   UNL     1      62.347  31.467  50.359  1.00  0.00    -0.273 OA
BRANCH   4   7
ATOM      7  C   UNL     1      63.929  29.406  48.925  1.00  0.00     0.175 C 
BRANCH   7   8
ATOM      8  C   UNL     1      65.397  29.060  48.951  1.00  0.00     0.243 C 
ATOM      9  N   UNL     1      66.332  29.844  48.188  1.00  0.00    -0.342 N 
ATOM     10  H   UNL     1      65.964  30.479  47.438  1.00  0.00     0.164 HD
ATOM     11  O   UNL     1      65.810  28.120  49.686  1.00  0.00    -0.273 OA
BRANCH   9  12
ATOM     12  C   UNL     1      67.781  29.752  48.398  1.00  0.00     0.174 CG0
ATOM     13  G   UNL     1      68.380  31.127  48.626  1.00  0.00     0.000 G0
BRANCH  12  14
ATOM     14  C   UNL     1      68.490  28.968  47.249  1.00  0.00     0.018 C 
ATOM     15  C   UNL     1      69.104  27.645  47.745  1.00  0.00     0.010 C 
BRANCH  14  16
ATOM     16  C   UNL     1      67.573  28.701  46.026  1.00  0.00     0.002 C 
ATOM     17  C   UNL     1      67.739  27.319  45.392  1.00  0.00     0.004 C 
ENDBRANCH  14  16
ENDBRANCH  12  14
ENDBRANCH   9  12
ENDBRANCH   7   8
BRANCH   7  18
ATOM     18  C   UNL     1      63.218  29.014  50.234  1.00  0.00     0.073 C 
BRANCH  18  19
ATOM     19  C   UNL     1      62.265  27.882  49.981  1.00  0.00    -0.016 A 
ATOM     20  C   UNL     1      62.548  26.524  50.089  1.00  0.00     0.134 A 
ATOM     21  C   UNL     1      60.892  27.973  49.848  1.00  0.00     0.006 A 
ATOM     22  N   UNL     1      61.411  25.805  49.978  1.00  0.00    -0.191 N 
ATOM     23  C   UNL     1      60.398  26.692  49.854  1.00  0.00     0.087 A 
ATOM     24  C   UNL     1      60.053  29.088  49.803  1.00  0.00     0.011 A 
ATOM     25  C   UNL     1      59.019  26.452  49.834  1.00  0.00     0.030 A 
ATOM     26  C   UNL     1      58.669  28.868  49.750  1.00  0.00     0.001 A 
ATOM     27  C   UNL     1      58.152  27.557  49.774  1.00  0.00     0.002 A 
BRANCH  22  28
ATOM     28  O   UNL     1      61.361  24.423  50.043  1.00  0.00    -0.417 OA
ATOM     29  C   UNL     1      62.532  23.620  50.174  1.00  0.00     0.313 C 
ENDBRANCH  22  28
ENDBRANCH  18  19
ENDBRANCH   7  18
ENDBRANCH   4   7
ENDBRANCH   2   3
BRANCH   2  30
ATOM     30  N   UNL     1      64.918  33.288  48.642  1.00  0.00    -0.343 N 
ATOM     31  C   UNL     1      66.068  34.038  49.051  1.00  0.00     0.243 C 
ATOM     32  H   UNL     1      64.833  33.049  47.630  1.00  0.00     0.164 HD
ATOM     33  O   UNL     1      65.930  35.268  49.276  1.00  0.00    -0.273 OA
BRANCH  31  34
ATOM     34  C   UNL     1      67.471  33.446  49.139  1.00  0.00     0.174 C 
ATOM     35  N   UNL     1      67.776  32.385  48.144  1.00  0.00    -0.329 N 
ATOM     36  C   UNL     1      68.551  34.541  49.067  1.00  0.00     0.035 C 
ATOM     37  C   UNL     1      68.009  32.806  46.747  1.00  0.00     0.120 C 
ATOM     38  C   UNL     1      68.718  35.058  47.635  1.00  0.00     0.004 C 
ATOM     39  C   UNL     1      69.071  33.911  46.682  1.00  0.00     0.022 C 
BRANCH  35  40
ATOM     40  C   UNL     1      68.373  31.150  48.627  1.00  0.00     0.246 CG0
ATOM     41  O   UNL     1      69.423  31.202  49.330  1.00  0.00    -0.272 OA
ATOM     42  G   UNL     1      67.786  29.774  48.369  1.00  0.00     0.000 G0
ENDBRANCH  35  40
ENDBRANCH  31  34
ENDBRANCH   2  30
ENDBRANCH   1   2
BRANCH   1  43
ATOM     43  C   UNL     1      62.242  35.262  49.923  1.00  0.00     0.003 C 
BRANCH  43  44
ATOM     44  C   UNL     1      62.900  35.047  51.299  1.00  0.00     0.001 C 
BRANCH  44  45
ATOM     45  C   UNL     1      61.885  34.682  52.398  1.00  0.00     0.008 C 
BRANCH  45  46
ATOM     46  C   UNL     1      60.470  35.156  52.040  1.00  0.00     0.075 C 
BRANCH  46  47
ATOM     47  C   UNL     1      59.424  34.328  52.738  1.00  0.00     0.132 C 
ATOM     48  O   UNL     1      58.258  34.719  52.759  1.00  0.00    -0.300 OA
BRANCH  47  49
ATOM     49  C   UNL     1      59.785  33.049  53.445  1.00  0.00     0.072 C 
ATOM     50  C   UNL     1      58.613  32.529  54.272  1.00  0.00     0.012 C 
ENDBRANCH  47  49
ENDBRANCH  46  47
ENDBRANCH  45  46
ENDBRANCH  44  45
ENDBRANCH  43  44
ENDBRANCH   1  43
TORSDOF 12
ENDMDL
MODEL 2
REMARK VINA RESULT:    -4.380      1.775      2.379
REMARK INTER + INTRA:         -11.521
REMARK INTER:                  -8.822
REMARK INTRA:                  -2.698
REMARK UNBOUND:                -2.276
REMARK SMILES CCC(=O)CCCCC[C@@H]1NC(=O)[C@@H]2CCCCN2C(=O)[C@H]([C@@H](C)CC)NC(=O)[C@@H](Cc2cn(OC)c3ccccc23)NC1=O
REMARK SMILES IDX 9 1 10 2 44 3 43 4 45 6 30 7 28 8 27 9 29 11 22 12 23 14
REMARK SMILES IDX 24 15 25 16 26 17 31 18 32 19 33 20 42 21 34 22 37 23 41 24
REMARK SMILES IDX 38 25 40 26 39 27 35 28 36 29 11 30 12 31 13 33 14 34 19 35
REMARK SMILES IDX 15 36 18 37 16 38 17 39 20 40 21 41 8 43 7 44 6 45 5 46 3 47
REMARK SMILES IDX 4 48 2 49 1 50
REMARK H PARENT 43 5 27 10 11 32
REMARK Flexibility Score: 80.00
ROOT
ATOM      1  C   UNL     1      62.603  33.608  48.682  1.00  0.00     0.035 C 
ENDROOT
BRANCH   1   2
ATOM      2  C   UNL     1      63.585  32.740  49.492  1.00  0.00     0.171 C 
BRANCH   2   3
ATOM      3  C   UNL     1      62.900  31.554  50.103  1.00  0.00     0.243 C 
ATOM      4  N   UNL     1      62.734  30.347  49.345  1.00  0.00    -0.342 N 
ATOM      5  H   UNL     1      62.723  30.412  48.295  1.00  0.00     0.164 HD
ATOM      6  O   UNL     1      62.425  31.640  51.270  1.00  0.00    -0.273 OA
BRANCH   4   7
ATOM      7  C   UNL     1      62.720  29.004  49.937  1.00  0.00     0.175 C 
BRANCH   7   8
ATOM      8  C   UNL     1      64.064  28.712  50.557  1.00  0.00     0.243 C 
ATOM      9  N   UNL     1      65.234  28.621  49.724  1.00  0.00    -0.342 N 
ATOM     10  H   UNL     1      65.108  28.511  48.688  1.00  0.00     0.164 HD
ATOM     11  O   UNL     1      64.169  28.605  51.811  1.00  0.00    -0.273 OA
BRANCH   9  12
ATOM     12  C   UNL     1      66.590  28.636  50.282  1.00  0.00     0.174 CG0
ATOM     13  G   UNL     1      67.507  29.506  49.442  1.00  0.00     0.000 G0
BRANCH  12  14
ATOM     14  C   UNL     1      67.152  27.195  50.492  1.00  0.00     0.018 C 
ATOM     15  C   UNL     1      67.368  26.871  51.983  1.00  0.00     0.010 C 
BRANCH  14  16
ATOM     16  C   UNL     1      66.286  26.091  49.831  1.00  0.00     0.002 C 
ATOM     17  C   UNL     1      65.515  25.208  50.813  1.00  0.00     0.004 C 
ENDBRANCH  14  16
ENDBRANCH  12  14
ENDBRANCH   9  12
ENDBRANCH   7   8
BRANCH   7  18
ATOM     18  C   UNL     1      61.566  28.824  50.941  1.00  0.00     0.073 C 
BRANCH  18  19
ATOM     19  C   UNL     1      60.754  27.615  50.577  1.00  0.00    -0.016 A 
ATOM     20  C   UNL     1      61.169  26.289  50.649  1.00  0.00     0.134 A 
ATOM     21  C   UNL     1      59.390  27.574  50.356  1.00  0.00     0.006 A 
ATOM     22  N   UNL     1      60.122  25.466  50.431  1.00  0.00    -0.191 N 
ATOM     23  C   UNL     1      59.032  26.250  50.275  1.00  0.00     0.087 A 
ATOM     24  C   UNL     1      58.444  28.600  50.300  1.00  0.00     0.011 A 
ATOM     25  C   UNL     1      57.690  25.874  50.152  1.00  0.00     0.030 A 
ATOM     26  C   UNL     1      57.096  28.244  50.144  1.00  0.00     0.001 A 
ATOM     27  C   UNL     1      56.718  26.888  50.078  1.00  0.00     0.002 A 
BRANCH  22  28
ATOM     28  O   UNL     1      60.211  24.084  50.435  1.00  0.00    -0.417 OA
ATOM     29  C   UNL     1      59.963  23.305  51.604  1.00  0.00     0.313 C 
ENDBRANCH  22  28
ENDBRANCH  18  19
ENDBRANCH   7  18
ENDBRANCH   4   7
ENDBRANCH   2   3
BRANCH   2  30
ATOM     30  N   UNL     1      64.666  32.265  48.621  1.00  0.00    -0.343 N 
ATOM     31  C   UNL     1      65.989  32.803  48.720  1.00  0.00     0.243 C 
ATOM     32  H   UNL     1      64.413  31.764  47.741  1.00  0.00     0.164 HD
ATOM     33  O   UNL     1      66.146  34.039  48.550  1.00  0.00    -0.273 OA
BRANCH  31  34
ATOM     34  C   UNL     1      67.233  31.945  48.928  1.00  0.00     0.174 C 
ATOM     35  N   UNL     1      67.104  30.526  48.504  1.00  0.00    -0.329 N 
ATOM     36  C   UNL     1      68.469  32.570  48.255  1.00  0.00     0.035 C 
ATOM     37  C   UNL     1      67.116  30.244  47.054  1.00  0.00     0.120 C 
ATOM     38  C   UNL     1      68.429  32.374  46.737  1.00  0.00     0.004 C 
ATOM     39  C   UNL     1      68.337  30.885  46.385  1.00  0.00     0.022 C 
BRANCH  35  40
ATOM     40  C   UNL     1      67.533  29.495  49.437  1.00  0.00     0.246 CG0
ATOM     41  O   UNL     1      68.768  29.292  49.611  1.00  0.00    -0.272 OA
ATOM     42  G   UNL     1      66.574  28.655  50.259  1.00  0.00     0.000 G0
ENDBRANCH  35  40
ENDBRANCH  31  34
ENDBRANCH   2  30
ENDBRANCH   1   2
BRANCH   1  43
ATOM     43  C   UNL     1      62.616  35.080  49.132  1.00  0.00     0.003 C 
BRANCH  43  44
ATOM     44  C   UNL     1      61.809  35.292  50.426  1.00  0.00     0.001 C 
BRANCH  44  45
ATOM     45  C   UNL     1      62.702  35.549  51.654  1.00  0.00     0.008 C 
BRANCH  45  46
ATOM     46  C   UNL     1      62.073  34.988  52.937  1.00  0.00     0.075 C 
BRANCH  46  47
ATOM     47  C   UNL     1      61.006  35.908  53.469  1.00  0.00     0.132 C 
ATOM     48  O   UNL     1      61.199  37.122  53.467  1.00  0.00    -0.300 OA
BRANCH  47  49
ATOM     49  C   UNL     1      59.723  35.366  54.040  1.00  0.00     0.072 C 
ATOM     50  C   UNL     1      58.804  34.852  52.936  1.00  0.00     0.012 C 
ENDBRANCH  47  49
ENDBRANCH  46  47
ENDBRANCH  45  46
ENDBRANCH  44  45
ENDBRANCH  43  44
ENDBRANCH   1  43
TORSDOF 12
ENDMDL
MODEL 3
REMARK VINA RESULT:    -4.261      3.977     10.637
REMARK INTER + INTRA:         -11.269
REMARK INTER:                  -8.312
REMARK INTRA:                  -2.957
REMARK UNBOUND:                -2.276
REMARK SMILES CCC(=O)CCCCC[C@@H]1NC(=O)[C@@H]2CCCCN2C(=O)[C@H]([C@@H](C)CC)NC(=O)[C@@H](Cc2cn(OC)c3ccccc23)NC1=O
REMARK SMILES IDX 9 1 10 2 44 3 43 4 45 6 30 7 28 8 27 9 29 11 22 12 23 14
REMARK SMILES IDX 24 15 25 16 26 17 31 18 32 19 33 20 42 21 34 22 37 23 41 24
REMARK SMILES IDX 38 25 40 26 39 27 35 28 36 29 11 30 12 31 13 33 14 34 19 35
REMARK SMILES IDX 15 36 18 37 16 38 17 39 20 40 21 41 8 43 7 44 6 45 5 46 3 47
REMARK SMILES IDX 4 48 2 49 1 50
REMARK H PARENT 43 5 27 10 11 32
REMARK Flexibility Score: 80.00
ROOT
ATOM      1  C   UNL     1      61.152  27.485  49.456  1.00  0.00     0.035 C 
ENDROOT
BRANCH   1   2
ATOM      2  C   UNL     1      60.300  27.671  50.727  1.00  0.00     0.171 C 
BRANCH   2   3
ATOM      3  C   UNL     1      60.704  28.900  51.487  1.00  0.00     0.243 C 
ATOM      4  N   UNL     1      60.019  30.142  51.265  1.00  0.00    -0.342 N 
ATOM      5  H   UNL     1      59.541  30.292  50.340  1.00  0.00     0.164 HD
ATOM      6  O   UNL     1      61.680  28.848  52.286  1.00  0.00    -0.273 OA
BRANCH   4   7
ATOM      7  C   UNL     1      59.824  31.165  52.298  1.00  0.00     0.175 C 
BRANCH   7   8
ATOM      8  C   UNL     1      58.788  30.692  53.287  1.00  0.00     0.243 C 
ATOM      9  N   UNL     1      57.455  30.385  52.838  1.00  0.00    -0.342 N 
ATOM     10  H   UNL     1      57.151  30.726  51.893  1.00  0.00     0.164 HD
ATOM     11  O   UNL     1      59.107  30.511  54.495  1.00  0.00    -0.273 OA
BRANCH   9  12
ATOM     12  C   UNL     1      56.502  29.650  53.675  1.00  0.00     0.174 CG0
ATOM     13  G   UNL     1      55.750  28.618  52.854  1.00  0.00     0.000 G0
BRANCH  12  14
ATOM     14  C   UNL     1      55.548  30.609  54.455  1.00  0.00     0.018 C 
ATOM     15  C   UNL     1      55.882  30.656  55.959  1.00  0.00     0.010 C 
BRANCH  14  16
ATOM     16  C   UNL     1      55.509  32.048  53.877  1.00  0.00     0.002 C 
ATOM     17  C   UNL     1      55.160  33.137  54.892  1.00  0.00     0.004 C 
ENDBRANCH  14  16
ENDBRANCH  12  14
ENDBRANCH   9  12
ENDBRANCH   7   8
BRANCH   7  18
ATOM     18  C   UNL     1      61.146  31.556  52.986  1.00  0.00     0.073 C 
BRANCH  18  19
ATOM     19  C   UNL     1      61.768  32.723  52.275  1.00  0.00    -0.016 A 
ATOM     20  C   UNL     1      62.580  32.666  51.147  1.00  0.00     0.134 A 
ATOM     21  C   UNL     1      61.450  34.058  52.445  1.00  0.00     0.006 A 
ATOM     22  N   UNL     1      62.797  33.910  50.671  1.00  0.00    -0.191 N 
ATOM     23  C   UNL     1      62.089  34.757  51.451  1.00  0.00     0.087 A 
ATOM     24  C   UNL     1      60.590  34.681  53.351  1.00  0.00     0.011 A 
ATOM     25  C   UNL     1      61.884  36.132  51.293  1.00  0.00     0.030 A 
ATOM     26  C   UNL     1      60.397  36.065  53.229  1.00  0.00     0.001 A 
ATOM     27  C   UNL     1      61.034  36.788  52.201  1.00  0.00     0.002 A 
BRANCH  22  28
ATOM     28  O   UNL     1      63.569  34.187  49.556  1.00  0.00    -0.417 OA
ATOM     29  C   UNL     1      63.007  34.325  48.252  1.00  0.00     0.313 C 
ENDBRANCH  22  28
ENDBRANCH  18  19
ENDBRANCH   7  18
ENDBRANCH   4   7
ENDBRANCH   2   3
BRANCH   2  30
ATOM     30  N   UNL     1      58.883  27.782  50.366  1.00  0.00    -0.343 N 
ATOM     31  C   UNL     1      57.980  26.687  50.561  1.00  0.00     0.243 C 
ATOM     32  H   UNL     1      58.595  28.533  49.700  1.00  0.00     0.164 HD
ATOM     33  O   UNL     1      58.231  25.596  49.988  1.00  0.00    -0.273 OA
BRANCH  31  34
ATOM     34  C   UNL     1      56.680  26.800  51.351  1.00  0.00     0.174 C 
ATOM     35  N   UNL     1      56.150  28.179  51.510  1.00  0.00    -0.329 N 
ATOM     36  C   UNL     1      55.582  25.895  50.762  1.00  0.00     0.035 C 
ATOM     37  C   UNL     1      55.523  28.810  50.330  1.00  0.00     0.120 C 
ATOM     38  C   UNL     1      55.004  26.493  49.476  1.00  0.00     0.004 C 
ATOM     39  C   UNL     1      54.444  27.896  49.735  1.00  0.00     0.022 C 
BRANCH  35  40
ATOM     40  C   UNL     1      55.758  28.608  52.843  1.00  0.00     0.246 CG0
ATOM     41  O   UNL     1      54.743  28.088  53.389  1.00  0.00    -0.272 OA
ATOM     42  G   UNL     1      56.524  29.636  53.655  1.00  0.00     0.000 G0
ENDBRANCH  35  40
ENDBRANCH  31  34
ENDBRANCH   2  30
ENDBRANCH   1   2
BRANCH   1  43
ATOM     43  C   UNL     1      62.199  26.368  49.613  1.00  0.00     0.003 C 
BRANCH  43  44
ATOM     44  C   UNL     1      63.629  26.932  49.704  1.00  0.00     0.001 C 
BRANCH  44  45
ATOM     45  C   UNL     1      63.807  28.243  48.916  1.00  0.00     0.008 C 
BRANCH  45  46
ATOM     46  C   UNL     1      64.282  29.387  49.823  1.00  0.00     0.075 C 
BRANCH  46  47
ATOM     47  C   UNL     1      65.399  30.165  49.180  1.00  0.00     0.132 C 
ATOM     48  O   UNL     1      65.149  31.231  48.621  1.00  0.00    -0.300 OA
BRANCH  47  49
ATOM     49  C   UNL     1      66.811  29.643  49.174  1.00  0.00     0.072 C 
ATOM     50  C   UNL     1      67.128  28.903  50.471  1.00  0.00     0.012 C 
ENDBRANCH  47  49
ENDBRANCH  46  47
ENDBRANCH  45  46
ENDBRANCH  44  45
ENDBRANCH  43  44
ENDBRANCH   1  43
TORSDOF 12
ENDMDL
MODEL 4
REMARK VINA RESULT:    -4.235      6.676     10.771
REMARK INTER + INTRA:         -11.215
REMARK INTER:                  -7.231
REMARK INTRA:                  -3.984
REMARK UNBOUND:                -2.276
REMARK SMILES CCC(=O)CCCCC[C@@H]1NC(=O)[C@@H]2CCCCN2C(=O)[C@H]([C@@H](C)CC)NC(=O)[C@@H](Cc2cn(OC)c3ccccc23)NC1=O
REMARK SMILES IDX 9 1 10 2 44 3 43 4 45 6 30 7 28 8 27 9 29 11 22 12 23 14
REMARK SMILES IDX 24 15 25 16 26 17 31 18 32 19 33 20 42 21 34 22 37 23 41 24
REMARK SMILES IDX 38 25 40 26 39 27 35 28 36 29 11 30 12 31 13 33 14 34 19 35
REMARK SMILES IDX 15 36 18 37 16 38 17 39 20 40 21 41 8 43 7 44 6 45 5 46 3 47
REMARK SMILES IDX 4 48 2 49 1 50
REMARK H PARENT 43 5 27 10 11 32
REMARK Flexibility Score: 80.00
ROOT
ATOM      1  C   UNL     1      62.555  28.979  54.813  1.00  0.00     0.035 C 
ENDROOT
BRANCH   1   2
ATOM      2  C   UNL     1      61.136  28.486  54.472  1.00  0.00     0.171 C 
BRANCH   2   3
ATOM      3  C   UNL     1      60.092  29.217  55.264  1.00  0.00     0.243 C 
ATOM      4  N   UNL     1      59.776  30.582  54.951  1.00  0.00    -0.342 N 
ATOM      5  H   UNL     1      60.507  31.169  54.473  1.00  0.00     0.164 HD
ATOM      6  O   UNL     1      59.529  28.643  56.236  1.00  0.00    -0.273 OA
BRANCH   4   7
ATOM      7  C   UNL     1      58.446  31.176  55.130  1.00  0.00     0.175 C 
BRANCH   7   8
ATOM      8  C   UNL     1      57.404  30.270  54.525  1.00  0.00     0.243 C 
ATOM      9  N   UNL     1      57.280  30.175  53.094  1.00  0.00    -0.342 N 
ATOM     10  H   UNL     1      57.735  30.909  52.499  1.00  0.00     0.164 HD
ATOM     11  O   UNL     1      56.681  29.553  55.272  1.00  0.00    -0.273 OA
BRANCH   9  12
ATOM     12  C   UNL     1      56.505  29.110  52.449  1.00  0.00     0.174 CG0
ATOM     13  G   UNL     1      57.228  28.587  51.221  1.00  0.00     0.000 G0
BRANCH  12  14
ATOM     14  C   UNL     1      55.041  29.556  52.141  1.00  0.00     0.018 C 
ATOM     15  C   UNL     1      54.019  28.851  53.054  1.00  0.00     0.010 C 
BRANCH  14  16
ATOM     16  C   UNL     1      54.837  31.093  52.205  1.00  0.00     0.002 C 
ATOM     17  C   UNL     1      53.382  31.539  52.359  1.00  0.00     0.004 C 
ENDBRANCH  14  16
ENDBRANCH  12  14
ENDBRANCH   9  12
ENDBRANCH   7   8
BRANCH   7  18
ATOM     18  C   UNL     1      58.148  31.498  56.607  1.00  0.00     0.073 C 
BRANCH  18  19
ATOM     19  C   UNL     1      59.260  32.323  57.186  1.00  0.00    -0.016 A 
ATOM     20  C   UNL     1      59.457  33.688  57.004  1.00  0.00     0.134 A 
ATOM     21  C   UNL     1      60.128  31.946  58.195  1.00  0.00     0.006 A 
ATOM     22  N   UNL     1      60.436  34.126  57.824  1.00  0.00    -0.191 N 
ATOM     23  C   UNL     1      60.829  33.067  58.566  1.00  0.00     0.087 A 
ATOM     24  C   UNL     1      60.287  30.724  58.851  1.00  0.00     0.011 A 
ATOM     25  C   UNL     1      61.724  33.033  59.641  1.00  0.00     0.030 A 
ATOM     26  C   UNL     1      61.203  30.662  59.911  1.00  0.00     0.001 A 
ATOM     27  C   UNL     1      61.913  31.811  60.311  1.00  0.00     0.002 A 
BRANCH  22  28
ATOM     28  O   UNL     1      60.867  35.441  57.878  1.00  0.00    -0.417 OA
ATOM     29  C   UNL     1      60.186  36.498  57.206  1.00  0.00     0.313 C 
ENDBRANCH  22  28
ENDBRANCH  18  19
ENDBRANCH   7  18
ENDBRANCH   4   7
ENDBRANCH   2   3
BRANCH   2  30
ATOM     30  N   UNL     1      60.869  28.681  53.044  1.00  0.00    -0.343 N 
ATOM     31  C   UNL     1      60.680  27.565  52.165  1.00  0.00     0.243 C 
ATOM     32  H   UNL     1      61.112  29.599  52.611  1.00  0.00     0.164 HD
ATOM     33  O   UNL     1      61.605  26.719  52.066  1.00  0.00    -0.273 OA
BRANCH  31  34
ATOM     34  C   UNL     1      59.455  27.396  51.272  1.00  0.00     0.174 C 
ATOM     35  N   UNL     1      58.678  28.637  51.017  1.00  0.00    -0.329 N 
ATOM     36  C   UNL     1      59.822  26.737  49.930  1.00  0.00     0.035 C 
ATOM     37  C   UNL     1      59.258  29.626  50.086  1.00  0.00     0.120 C 
ATOM     38  C   UNL     1      60.524  27.733  49.000  1.00  0.00     0.004 C 
ATOM     39  C   UNL     1      59.641  28.962  48.757  1.00  0.00     0.022 C 
BRANCH  35  40
ATOM     40  C   UNL     1      57.236  28.588  51.200  1.00  0.00     0.246 CG0
ATOM     41  O   UNL     1      56.516  28.056  50.308  1.00  0.00    -0.272 OA
ATOM     42  G   UNL     1      56.526  29.110  52.436  1.00  0.00     0.000 G0
ENDBRANCH  35  40
ENDBRANCH  31  34
ENDBRANCH   2  30
ENDBRANCH   1   2
BRANCH   1  43
ATOM     43  C   UNL     1      62.766  29.151  56.328  1.00  0.00     0.003 C 
BRANCH  43  44
ATOM     44  C   UNL     1      63.258  30.567  56.681  1.00  0.00     0.001 C 
BRANCH  44  45
ATOM     45  C   UNL     1      64.421  30.562  57.691  1.00  0.00     0.008 C 
BRANCH  45  46
ATOM     46  C   UNL     1      64.601  29.182  58.339  1.00  0.00     0.075 C 
BRANCH  46  47
ATOM     47  C   UNL     1      65.111  29.303  59.750  1.00  0.00     0.132 C 
ATOM     48  O   UNL     1      66.266  29.679  59.944  1.00  0.00    -0.300 OA
BRANCH  47  49
ATOM     49  C   UNL     1      64.248  28.934  60.926  1.00  0.00     0.072 C 
ATOM     50  C   UNL     1      63.363  27.734  60.602  1.00  0.00     0.012 C 
ENDBRANCH  47  49
ENDBRANCH  46  47
ENDBRANCH  45  46
ENDBRANCH  44  45
ENDBRANCH  43  44
ENDBRANCH   1  43
TORSDOF 12
ENDMDL
MODEL 5
REMARK VINA RESULT:    -4.232      4.264     11.000
REMARK INTER + INTRA:         -11.208
REMARK INTER:                  -8.404
REMARK INTRA:                  -2.805
REMARK UNBOUND:                -2.276
REMARK SMILES CCC(=O)CCCCC[C@@H]1NC(=O)[C@@H]2CCCCN2C(=O)[C@H]([C@@H](C)CC)NC(=O)[C@@H](Cc2cn(OC)c3ccccc23)NC1=O
REMARK SMILES IDX 9 1 10 2 44 3 43 4 45 6 30 7 28 8 27 9 29 11 22 12 23 14
REMARK SMILES IDX 24 15 25 16 26 17 31 18 32 19 33 20 42 21 34 22 37 23 41 24
REMARK SMILES IDX 38 25 40 26 39 27 35 28 36 29 11 30 12 31 13 33 14 34 19 35
REMARK SMILES IDX 15 36 18 37 16 38 17 39 20 40 21 41 8 43 7 44 6 45 5 46 3 47
REMARK SMILES IDX 4 48 2 49 1 50
REMARK H PARENT 43 5 27 10 11 32
REMARK Flexibility Score: 80.00
ROOT
ATOM      1  C   UNL     1      60.473  27.641  49.396  1.00  0.00     0.035 C 
ENDROOT
BRANCH   1   2
ATOM      2  C   UNL     1      59.609  27.728  50.669  1.00  0.00     0.171 C 
BRANCH   2   3
ATOM      3  C   UNL     1      60.080  28.821  51.582  1.00  0.00     0.243 C 
ATOM      4  N   UNL     1      59.709  30.184  51.326  1.00  0.00    -0.342 N 
ATOM      5  H   UNL     1      59.468  30.461  50.340  1.00  0.00     0.164 HD
ATOM      6  O   UNL     1      60.843  28.543  52.549  1.00  0.00    -0.273 OA
BRANCH   4   7
ATOM      7  C   UNL     1      59.510  31.189  52.376  1.00  0.00     0.175 C 
BRANCH   7   8
ATOM      8  C   UNL     1      58.494  30.685  53.370  1.00  0.00     0.243 C 
ATOM      9  N   UNL     1      57.101  30.634  53.011  1.00  0.00    -0.342 N 
ATOM     10  H   UNL     1      56.778  31.171  52.170  1.00  0.00     0.164 HD
ATOM     11  O   UNL     1      58.874  30.254  54.495  1.00  0.00    -0.273 OA
BRANCH   9  12
ATOM     12  C   UNL     1      56.119  29.890  53.805  1.00  0.00     0.174 CG0
ATOM     13  G   UNL     1      55.240  29.035  52.910  1.00  0.00     0.000 G0
BRANCH  12  14
ATOM     14  C   UNL     1      55.293  30.827  54.742  1.00  0.00     0.018 C 
ATOM     15  C   UNL     1      55.588  30.560  56.231  1.00  0.00     0.010 C 
BRANCH  14  16
ATOM     16  C   UNL     1      55.479  32.335  54.427  1.00  0.00     0.002 C 
ATOM     17  C   UNL     1      54.386  32.945  53.549  1.00  0.00     0.004 C 
ENDBRANCH  14  16
ENDBRANCH  12  14
ENDBRANCH   9  12
ENDBRANCH   7   8
BRANCH   7  18
ATOM     18  C   UNL     1      60.833  31.593  53.053  1.00  0.00     0.073 C 
BRANCH  18  19
ATOM     19  C   UNL     1      61.542  32.621  52.219  1.00  0.00    -0.016 A 
ATOM     20  C   UNL     1      61.477  34.002  52.378  1.00  0.00     0.134 A 
ATOM     21  C   UNL     1      62.571  32.391  51.325  1.00  0.00     0.006 A 
ATOM     22  N   UNL     1      62.387  34.601  51.583  1.00  0.00    -0.191 N 
ATOM     23  C   UNL     1      63.070  33.617  50.957  1.00  0.00     0.087 A 
ATOM     24  C   UNL     1      63.143  31.197  50.880  1.00  0.00     0.011 A 
ATOM     25  C   UNL     1      64.194  33.717  50.129  1.00  0.00     0.030 A 
ATOM     26  C   UNL     1      64.250  31.277  50.024  1.00  0.00     0.001 A 
ATOM     27  C   UNL     1      64.780  32.529  49.655  1.00  0.00     0.002 A 
BRANCH  22  28
ATOM     28  O   UNL     1      62.568  35.972  51.512  1.00  0.00    -0.417 OA
ATOM     29  C   UNL     1      61.498  36.871  51.227  1.00  0.00     0.313 C 
ENDBRANCH  22  28
ENDBRANCH  18  19
ENDBRANCH   7  18
ENDBRANCH   4   7
ENDBRANCH   2   3
BRANCH   2  30
ATOM     30  N   UNL     1      58.211  27.984  50.307  1.00  0.00    -0.343 N 
ATOM     31  C   UNL     1      57.202  26.985  50.493  1.00  0.00     0.243 C 
ATOM     32  H   UNL     1      58.002  28.763  49.645  1.00  0.00     0.164 HD
ATOM     33  O   UNL     1      57.343  25.877  49.914  1.00  0.00    -0.273 OA
BRANCH  31  34
ATOM     34  C   UNL     1      55.918  27.223  51.282  1.00  0.00     0.174 C 
ATOM     35  N   UNL     1      55.594  28.648  51.552  1.00  0.00    -0.329 N 
ATOM     36  C   UNL     1      54.710  26.541  50.612  1.00  0.00     0.035 C 
ATOM     37  C   UNL     1      55.088  29.459  50.426  1.00  0.00     0.120 C 
ATOM     38  C   UNL     1      54.251  27.323  49.377  1.00  0.00     0.004 C 
ATOM     39  C   UNL     1      53.898  28.767  49.749  1.00  0.00     0.022 C 
BRANCH  35  40
ATOM     40  C   UNL     1      55.244  29.019  52.915  1.00  0.00     0.246 CG0
ATOM     41  O   UNL     1      54.182  28.565  53.428  1.00  0.00    -0.272 OA
ATOM     42  G   UNL     1      56.108  29.906  53.793  1.00  0.00     0.000 G0
ENDBRANCH  35  40
ENDBRANCH  31  34
ENDBRANCH   2  30
ENDBRANCH   1   2
BRANCH   1  43
ATOM     43  C   UNL     1      61.796  28.417  49.535  1.00  0.00     0.003 C 
BRANCH  43  44
ATOM     44  C   UNL     1      63.016  27.525  49.241  1.00  0.00     0.001 C 
BRANCH  44  45
ATOM     45  C   UNL     1      63.956  28.126  48.179  1.00  0.00     0.008 C 
BRANCH  45  46
ATOM     46  C   UNL     1      65.408  27.676  48.390  1.00  0.00     0.075 C 
BRANCH  46  47
ATOM     47  C   UNL     1      66.304  28.194  47.297  1.00  0.00     0.132 C 
ATOM     48  O   UNL     1      66.867  27.397  46.549  1.00  0.00    -0.300 OA
BRANCH  47  49
ATOM     49  C   UNL     1      66.556  29.668  47.128  1.00  0.00     0.072 C 
ATOM     50  C   UNL     1      67.361  30.225  48.299  1.00  0.00     0.012 C 
ENDBRANCH  47  49
ENDBRANCH  46  47
ENDBRANCH  45  46
ENDBRANCH  44  45
ENDBRANCH  43  44
ENDBRANCH   1  43
TORSDOF 12
ENDMDL
MODEL 6
REMARK VINA RESULT:    -4.221      2.364      3.946
REMARK INTER + INTRA:         -11.185
REMARK INTER:                  -8.609
REMARK INTRA:                  -2.576
REMARK UNBOUND:                -2.276
REMARK SMILES CCC(=O)CCCCC[C@@H]1NC(=O)[C@@H]2CCCCN2C(=O)[C@H]([C@@H](C)CC)NC(=O)[C@@H](Cc2cn(OC)c3ccccc23)NC1=O
REMARK SMILES IDX 9 1 10 2 44 3 43 4 45 6 30 7 28 8 27 9 29 11 22 12 23 14
REMARK SMILES IDX 24 15 25 16 26 17 31 18 32 19 33 20 42 21 34 22 37 23 41 24
REMARK SMILES IDX 38 25 40 26 39 27 35 28 36 29 11 30 12 31 13 33 14 34 19 35
REMARK SMILES IDX 15 36 18 37 16 38 17 39 20 40 21 41 8 43 7 44 6 45 5 46 3 47
REMARK SMILES IDX 4 48 2 49 1 50
REMARK H PARENT 43 5 27 10 11 32
REMARK Flexibility Score: 80.00
ROOT
ATOM      1  C   UNL     1      62.777  33.489  48.886  1.00  0.00     0.035 C 
ENDROOT
BRANCH   1   2
ATOM      2  C   UNL     1      63.438  32.349  49.684  1.00  0.00     0.171 C 
BRANCH   2   3
ATOM      3  C   UNL     1      62.417  31.492  50.373  1.00  0.00     0.243 C 
ATOM      4  N   UNL     1      61.664  30.526  49.624  1.00  0.00    -0.342 N 
ATOM      5  H   UNL     1      61.534  30.682  48.592  1.00  0.00     0.164 HD
ATOM      6  O   UNL     1      62.187  31.659  51.603  1.00  0.00    -0.273 OA
BRANCH   4   7
ATOM      7  C   UNL     1      61.179  29.257  50.180  1.00  0.00     0.175 C 
BRANCH   7   8
ATOM      8  C   UNL     1      62.321  28.530  50.845  1.00  0.00     0.243 C 
ATOM      9  N   UNL     1      63.330  27.891  50.042  1.00  0.00    -0.342 N 
ATOM     10  H   UNL     1      63.135  27.725  49.025  1.00  0.00     0.164 HD
ATOM     11  O   UNL     1      62.420  28.531  52.105  1.00  0.00    -0.273 OA
BRANCH   9  12
ATOM     12  C   UNL     1      64.602  27.432  50.610  1.00  0.00     0.174 CG0
ATOM     13  G   UNL     1      65.764  27.834  49.721  1.00  0.00     0.000 G0
BRANCH  12  14
ATOM     14  C   UNL     1      64.584  25.902  50.924  1.00  0.00     0.018 C 
ATOM     15  C   UNL     1      64.651  25.623  52.438  1.00  0.00     0.010 C 
BRANCH  14  16
ATOM     16  C   UNL     1      63.374  25.158  50.301  1.00  0.00     0.002 C 
ATOM     17  C   UNL     1      63.339  23.653  50.572  1.00  0.00     0.004 C 
ENDBRANCH  14  16
ENDBRANCH  12  14
ENDBRANCH   9  12
ENDBRANCH   7   8
BRANCH   7  18
ATOM     18  C   UNL     1      59.986  29.458  51.132  1.00  0.00     0.073 C 
BRANCH  18  19
ATOM     19  C   UNL     1      59.059  28.281  51.048  1.00  0.00    -0.016 A 
ATOM     20  C   UNL     1      59.350  26.971  51.419  1.00  0.00     0.134 A 
ATOM     21  C   UNL     1      57.693  28.319  50.837  1.00  0.00     0.006 A 
ATOM     22  N   UNL     1      58.228  26.223  51.389  1.00  0.00    -0.191 N 
ATOM     23  C   UNL     1      57.213  27.051  51.056  1.00  0.00     0.087 A 
ATOM     24  C   UNL     1      56.845  29.390  50.548  1.00  0.00     0.011 A 
ATOM     25  C   UNL     1      55.840  26.785  51.017  1.00  0.00     0.030 A 
ATOM     26  C   UNL     1      55.468  29.137  50.472  1.00  0.00     0.001 A 
ATOM     27  C   UNL     1      54.965  27.843  50.713  1.00  0.00     0.002 A 
BRANCH  22  28
ATOM     28  O   UNL     1      58.189  24.876  51.706  1.00  0.00    -0.417 OA
ATOM     29  C   UNL     1      57.926  24.407  53.027  1.00  0.00     0.313 C 
ENDBRANCH  22  28
ENDBRANCH  18  19
ENDBRANCH   7  18
ENDBRANCH   4   7
ENDBRANCH   2   3
BRANCH   2  30
ATOM     30  N   UNL     1      64.234  31.506  48.786  1.00  0.00    -0.343 N 
ATOM     31  C   UNL     1      65.663  31.461  48.882  1.00  0.00     0.243 C 
ATOM     32  H   UNL     1      63.800  31.177  47.896  1.00  0.00     0.164 HD
ATOM     33  O   UNL     1      66.305  32.534  48.746  1.00  0.00    -0.273 OA
BRANCH  31  34
ATOM     34  C   UNL     1      66.455  30.168  49.049  1.00  0.00     0.174 C 
ATOM     35  N   UNL     1      65.710  28.922  48.733  1.00  0.00    -0.329 N 
ATOM     36  C   UNL     1      67.765  30.201  48.241  1.00  0.00     0.035 C 
ATOM     37  C   UNL     1      65.459  28.619  47.309  1.00  0.00     0.120 C 
ATOM     38  C   UNL     1      67.496  29.997  46.746  1.00  0.00     0.004 C 
ATOM     39  C   UNL     1      66.763  28.673  46.504  1.00  0.00     0.022 C 
BRANCH  35  40
ATOM     40  C   UNL     1      65.764  27.833  49.696  1.00  0.00     0.246 CG0
ATOM     41  O   UNL     1      66.836  27.177  49.830  1.00  0.00    -0.272 OA
ATOM     42  G   UNL     1      64.605  27.448  50.596  1.00  0.00     0.000 G0
ENDBRANCH  35  40
ENDBRANCH  31  34
ENDBRANCH   2  30
ENDBRANCH   1   2
BRANCH   1  43
ATOM     43  C   UNL     1      62.953  34.857  49.568  1.00  0.00     0.003 C 
BRANCH  43  44
ATOM     44  C   UNL     1      61.721  35.241  50.409  1.00  0.00     0.001 C 
BRANCH  44  45
ATOM     45  C   UNL     1      62.051  36.243  51.531  1.00  0.00     0.008 C 
BRANCH  45  46
ATOM     46  C   UNL     1      61.245  35.950  52.804  1.00  0.00     0.075 C 
BRANCH  46  47
ATOM     47  C   UNL     1      61.720  34.687  53.473  1.00  0.00     0.132 C 
ATOM     48  O   UNL     1      60.895  33.883  53.902  1.00  0.00    -0.300 OA
BRANCH  47  49
ATOM     49  C   UNL     1      63.187  34.410  53.663  1.00  0.00     0.072 C 
ATOM     50  C   UNL     1      63.444  33.699  54.989  1.00  0.00     0.012 C 
ENDBRANCH  47  49
ENDBRANCH  46  47
ENDBRANCH  45  46
ENDBRANCH  44  45
ENDBRANCH  43  44
ENDBRANCH   1  43
TORSDOF 12
ENDMDL
MODEL 7
REMARK VINA RESULT:    -4.148      4.874     11.074
REMARK INTER + INTRA:         -11.031
REMARK INTER:                  -7.780
REMARK INTRA:                  -3.252
REMARK UNBOUND:                -2.276
REMARK SMILES CCC(=O)CCCCC[C@@H]1NC(=O)[C@@H]2CCCCN2C(=O)[C@H]([C@@H](C)CC)NC(=O)[C@@H](Cc2cn(OC)c3ccccc23)NC1=O
REMARK SMILES IDX 9 1 10 2 44 3 43 4 45 6 30 7 28 8 27 9 29 11 22 12 23 14
REMARK SMILES IDX 24 15 25 16 26 17 31 18 32 19 33 20 42 21 34 22 37 23 41 24
REMARK SMILES IDX 38 25 40 26 39 27 35 28 36 29 11 30 12 31 13 33 14 34 19 35
REMARK SMILES IDX 15 36 18 37 16 38 17 39 20 40 21 41 8 43 7 44 6 45 5 46 3 47
REMARK SMILES IDX 4 48 2 49 1 50
REMARK H PARENT 43 5 27 10 11 32
REMARK Flexibility Score: 80.00
ROOT
ATOM      1  C   UNL     1      60.103  28.740  49.331  1.00  0.00     0.035 C 
ENDROOT
BRANCH   1   2
ATOM      2  C   UNL     1      59.265  28.447  50.590  1.00  0.00     0.171 C 
BRANCH   2   3
ATOM      3  C   UNL     1      59.612  29.380  51.713  1.00  0.00     0.243 C 
ATOM      4  N   UNL     1      59.313  30.780  51.606  1.00  0.00    -0.342 N 
ATOM      5  H   UNL     1      59.232  31.203  50.647  1.00  0.00     0.164 HD
ATOM      6  O   UNL     1      60.212  28.936  52.732  1.00  0.00    -0.273 OA
BRANCH   4   7
ATOM      7  C   UNL     1      58.975  31.634  52.750  1.00  0.00     0.175 C 
BRANCH   7   8
ATOM      8  C   UNL     1      58.008  30.910  53.652  1.00  0.00     0.243 C 
ATOM      9  N   UNL     1      56.629  30.772  53.262  1.00  0.00    -0.342 N 
ATOM     10  H   UNL     1      56.260  31.380  52.491  1.00  0.00     0.164 HD
ATOM     11  O   UNL     1      58.421  30.376  54.720  1.00  0.00    -0.273 OA
BRANCH   9  12
ATOM     12  C   UNL     1      55.719  29.840  53.936  1.00  0.00     0.174 CG0
ATOM     13  G   UNL     1      54.814  29.152  52.931  1.00  0.00     0.000 G0
BRANCH  12  14
ATOM     14  C   UNL     1      54.923  30.531  55.089  1.00  0.00     0.018 C 
ATOM     15  C   UNL     1      55.418  30.085  56.478  1.00  0.00     0.010 C 
BRANCH  14  16
ATOM     16  C   UNL     1      54.923  32.079  54.999  1.00  0.00     0.002 C 
ATOM     17  C   UNL     1      55.549  32.790  56.199  1.00  0.00     0.004 C 
ENDBRANCH  14  16
ENDBRANCH  12  14
ENDBRANCH   9  12
ENDBRANCH   7   8
BRANCH   7  18
ATOM     18  C   UNL     1      60.228  32.112  53.508  1.00  0.00     0.073 C 
BRANCH  18  19
ATOM     19  C   UNL     1      61.130  32.872  52.580  1.00  0.00    -0.016 A 
ATOM     20  C   UNL     1      61.134  34.249  52.375  1.00  0.00     0.134 A 
ATOM     21  C   UNL     1      62.272  32.394  51.963  1.00  0.00     0.006 A 
ATOM     22  N   UNL     1      62.199  34.600  51.624  1.00  0.00    -0.191 N 
ATOM     23  C   UNL     1      62.905  33.471  51.392  1.00  0.00     0.087 A 
ATOM     24  C   UNL     1      62.824  31.112  51.936  1.00  0.00     0.011 A 
ATOM     25  C   UNL     1      64.151  33.326  50.772  1.00  0.00     0.030 A 
ATOM     26  C   UNL     1      64.057  30.941  51.291  1.00  0.00     0.001 A 
ATOM     27  C   UNL     1      64.723  32.043  50.718  1.00  0.00     0.002 A 
BRANCH  22  28
ATOM     28  O   UNL     1      62.482  35.901  51.245  1.00  0.00    -0.417 OA
ATOM     29  C   UNL     1      63.430  36.711  51.938  1.00  0.00     0.313 C 
ENDBRANCH  22  28
ENDBRANCH  18  19
ENDBRANCH   7  18
ENDBRANCH   4   7
ENDBRANCH   2   3
BRANCH   2  30
ATOM     30  N   UNL     1      57.837  28.587  50.284  1.00  0.00    -0.343 N 
ATOM     31  C   UNL     1      56.942  27.475  50.398  1.00  0.00     0.243 C 
ATOM     32  H   UNL     1      57.529  29.397  49.702  1.00  0.00     0.164 HD
ATOM     33  O   UNL     1      57.177  26.445  49.716  1.00  0.00    -0.273 OA
BRANCH  31  34
ATOM     34  C   UNL     1      55.665  27.505  51.234  1.00  0.00     0.174 C 
ATOM     35  N   UNL     1      55.150  28.862  51.558  1.00  0.00    -0.329 N 
ATOM     36  C   UNL     1      54.545  26.675  50.582  1.00  0.00     0.035 C 
ATOM     37  C   UNL     1      54.494  29.620  50.473  1.00  0.00     0.120 C 
ATOM     38  C   UNL     1      53.935  27.413  49.386  1.00  0.00     0.004 C 
ATOM     39  C   UNL     1      53.393  28.781  49.813  1.00  0.00     0.022 C 
BRANCH  35  40
ATOM     40  C   UNL     1      54.799  29.144  52.941  1.00  0.00     0.246 CG0
ATOM     41  O   UNL     1      53.674  28.773  53.383  1.00  0.00    -0.272 OA
ATOM     42  G   UNL     1      55.729  29.837  53.920  1.00  0.00     0.000 G0
ENDBRANCH  35  40
ENDBRANCH  31  34
ENDBRANCH   2  30
ENDBRANCH   1   2
BRANCH   1  43
ATOM     43  C   UNL     1      61.081  27.598  49.002  1.00  0.00     0.003 C 
BRANCH  43  44
ATOM     44  C   UNL     1      62.454  27.810  49.664  1.00  0.00     0.001 C 
BRANCH  44  45
ATOM     45  C   UNL     1      62.685  26.885  50.874  1.00  0.00     0.008 C 
BRANCH  45  46
ATOM     46  C   UNL     1      62.441  25.414  50.515  1.00  0.00     0.075 C 
BRANCH  46  47
ATOM     47  C   UNL     1      61.614  24.724  51.567  1.00  0.00     0.132 C 
ATOM     48  O   UNL     1      62.043  23.702  52.099  1.00  0.00    -0.300 OA
BRANCH  47  49
ATOM     49  C   UNL     1      60.254  25.240  51.953  1.00  0.00     0.072 C 
ATOM     50  C   UNL     1      59.784  24.621  53.266  1.00  0.00     0.012 C 
ENDBRANCH  47  49
ENDBRANCH  46  47
ENDBRANCH  45  46
ENDBRANCH  44  45
ENDBRANCH  43  44
ENDBRANCH   1  43
TORSDOF 12
ENDMDL
MODEL 8
REMARK VINA RESULT:    -4.052      7.443     11.291
REMARK INTER + INTRA:         -10.828
REMARK INTER:                  -7.192
REMARK INTRA:                  -3.636
REMARK UNBOUND:                -2.276
REMARK SMILES CCC(=O)CCCCC[C@@H]1NC(=O)[C@@H]2CCCCN2C(=O)[C@H]([C@@H](C)CC)NC(=O)[C@@H](Cc2cn(OC)c3ccccc23)NC1=O
REMARK SMILES IDX 9 1 10 2 44 3 43 4 45 6 30 7 28 8 27 9 29 11 22 12 23 14
REMARK SMILES IDX 24 15 25 16 26 17 31 18 32 19 33 20 42 21 34 22 37 23 41 24
REMARK SMILES IDX 38 25 40 26 39 27 35 28 36 29 11 30 12 31 13 33 14 34 19 35
REMARK SMILES IDX 15 36 18 37 16 38 17 39 20 40 21 41 8 43 7 44 6 45 5 46 3 47
REMARK SMILES IDX 4 48 2 49 1 50
REMARK H PARENT 43 5 27 10 11 32
REMARK Flexibility Score: 80.00
ROOT
ATOM      1  C   UNL     1      59.554  30.140  53.830  1.00  0.00     0.035 C 
ENDROOT
BRANCH   1   2
ATOM      2  C   UNL     1      58.979  30.170  55.259  1.00  0.00     0.171 C 
BRANCH   2   3
ATOM      3  C   UNL     1      57.586  29.615  55.305  1.00  0.00     0.243 C 
ATOM      4  N   UNL     1      57.356  28.222  55.043  1.00  0.00    -0.342 N 
ATOM      5  H   UNL     1      58.055  27.701  54.454  1.00  0.00     0.164 HD
ATOM      6  O   UNL     1      56.612  30.387  55.527  1.00  0.00    -0.273 OA
BRANCH   4   7
ATOM      7  C   UNL     1      56.278  27.440  55.659  1.00  0.00     0.175 C 
BRANCH   7   8
ATOM      8  C   UNL     1      56.203  27.759  57.132  1.00  0.00     0.243 C 
ATOM      9  N   UNL     1      57.211  27.254  58.027  1.00  0.00    -0.342 N 
ATOM     10  H   UNL     1      57.836  26.478  57.697  1.00  0.00     0.164 HD
ATOM     11  O   UNL     1      55.290  28.514  57.567  1.00  0.00    -0.273 OA
BRANCH   9  12
ATOM     12  C   UNL     1      57.363  27.762  59.394  1.00  0.00     0.174 CG0
ATOM     13  G   UNL     1      58.828  27.836  59.781  1.00  0.00     0.000 G0
BRANCH  12  14
ATOM     14  C   UNL     1      56.510  26.949  60.418  1.00  0.00     0.018 C 
ATOM     15  C   UNL     1      55.248  27.717  60.858  1.00  0.00     0.010 C 
BRANCH  14  16
ATOM     16  C   UNL     1      56.119  25.535  59.913  1.00  0.00     0.002 C 
ATOM     17  C   UNL     1      56.989  24.400  60.454  1.00  0.00     0.004 C 
ENDBRANCH  14  16
ENDBRANCH  12  14
ENDBRANCH   9  12
ENDBRANCH   7   8
BRANCH   7  18
ATOM     18  C   UNL     1      54.928  27.653  54.950  1.00  0.00     0.073 C 
BRANCH  18  19
ATOM     19  C   UNL     1      55.091  27.467  53.469  1.00  0.00    -0.016 A 
ATOM     20  C   UNL     1      55.143  26.254  52.790  1.00  0.00     0.134 A 
ATOM     21  C   UNL     1      54.964  28.442  52.497  1.00  0.00     0.006 A 
ATOM     22  N   UNL     1      55.101  26.470  51.458  1.00  0.00    -0.191 N 
ATOM     23  C   UNL     1      54.969  27.803  51.281  1.00  0.00     0.087 A 
ATOM     24  C   UNL     1      54.769  29.820  52.607  1.00  0.00     0.011 A 
ATOM     25  C   UNL     1      54.757  28.514  50.094  1.00  0.00     0.030 A 
ATOM     26  C   UNL     1      54.586  30.555  51.426  1.00  0.00     0.001 A 
ATOM     27  C   UNL     1      54.572  29.906  50.176  1.00  0.00     0.002 A 
BRANCH  22  28
ATOM     28  O   UNL     1      55.136  25.461  50.511  1.00  0.00    -0.417 OA
ATOM     29  C   UNL     1      53.965  24.999  49.841  1.00  0.00     0.313 C 
ENDBRANCH  22  28
ENDBRANCH  18  19
ENDBRANCH   7  18
ENDBRANCH   4   7
ENDBRANCH   2   3
BRANCH   2  30
ATOM     30  N   UNL     1      59.832  29.384  56.156  1.00  0.00    -0.343 N 
ATOM     31  C   UNL     1      60.503  29.994  57.265  1.00  0.00     0.243 C 
ATOM     32  H   UNL     1      60.190  28.462  55.824  1.00  0.00     0.164 HD
ATOM     33  O   UNL     1      61.300  30.939  57.035  1.00  0.00    -0.273 OA
BRANCH  31  34
ATOM     34  C   UNL     1      60.375  29.499  58.702  1.00  0.00     0.174 C 
ATOM     35  N   UNL     1      59.918  28.092  58.851  1.00  0.00    -0.329 N 
ATOM     36  C   UNL     1      61.685  29.697  59.486  1.00  0.00     0.035 C 
ATOM     37  C   UNL     1      60.887  27.023  58.537  1.00  0.00     0.120 C 
ATOM     38  C   UNL     1      62.733  28.654  59.082  1.00  0.00     0.004 C 
ATOM     39  C   UNL     1      62.198  27.235  59.304  1.00  0.00     0.022 C 
BRANCH  35  40
ATOM     40  C   UNL     1      58.834  27.824  59.783  1.00  0.00     0.246 CG0
ATOM     41  O   UNL     1      59.096  27.661  61.009  1.00  0.00    -0.272 OA
ATOM     42  G   UNL     1      57.373  27.761  59.378  1.00  0.00     0.000 G0
ENDBRANCH  35  40
ENDBRANCH  31  34
ENDBRANCH   2  30
ENDBRANCH   1   2
BRANCH   1  43
ATOM     43  C   UNL     1      58.548  30.656  52.785  1.00  0.00     0.003 C 
BRANCH  43  44
ATOM     44  C   UNL     1      58.451  29.714  51.570  1.00  0.00     0.001 C 
BRANCH  44  45
ATOM     45  C   UNL     1      59.766  29.625  50.774  1.00  0.00     0.008 C 
BRANCH  45  46
ATOM     46  C   UNL     1      59.572  28.882  49.445  1.00  0.00     0.075 C 
BRANCH  46  47
ATOM     47  C   UNL     1      59.599  27.390  49.644  1.00  0.00     0.132 C 
ATOM     48  O   UNL     1      60.608  26.758  49.338  1.00  0.00    -0.300 OA
BRANCH  47  49
ATOM     49  C   UNL     1      58.399  26.653  50.175  1.00  0.00     0.072 C 
ATOM     50  C   UNL     1      58.701  26.015  51.528  1.00  0.00     0.012 C 
ENDBRANCH  47  49
ENDBRANCH  46  47
ENDBRANCH  45  46
ENDBRANCH  44  45
ENDBRANCH  43  44
ENDBRANCH   1  43
TORSDOF 12
ENDMDL
MODEL 9
REMARK VINA RESULT:    -4.021      7.268     10.530
REMARK INTER + INTRA:         -10.763
REMARK INTER:                  -7.432
REMARK INTRA:                  -3.330
REMARK UNBOUND:                -2.276
REMARK SMILES CCC(=O)CCCCC[C@@H]1NC(=O)[C@@H]2CCCCN2C(=O)[C@H]([C@@H](C)CC)NC(=O)[C@@H](Cc2cn(OC)c3ccccc23)NC1=O
REMARK SMILES IDX 9 1 10 2 44 3 43 4 45 6 30 7 28 8 27 9 29 11 22 12 23 14
REMARK SMILES IDX 24 15 25 16 26 17 31 18 32 19 33 20 42 21 34 22 37 23 41 24
REMARK SMILES IDX 38 25 40 26 39 27 35 28 36 29 11 30 12 31 13 33 14 34 19 35
REMARK SMILES IDX 15 36 18 37 16 38 17 39 20 40 21 41 8 43 7 44 6 45 5 46 3 47
REMARK SMILES IDX 4 48 2 49 1 50
REMARK H PARENT 43 5 27 10 11 32
REMARK Flexibility Score: 80.00
ROOT
ATOM      1  C   UNL     1      60.460  33.772  57.071  1.00  0.00     0.035 C 
ENDROOT
BRANCH   1   2
ATOM      2  C   UNL     1      59.751  32.685  57.901  1.00  0.00     0.171 C 
BRANCH   2   3
ATOM      3  C   UNL     1      58.665  32.011  57.116  1.00  0.00     0.243 C 
ATOM      4  N   UNL     1      58.993  30.991  56.160  1.00  0.00    -0.342 N 
ATOM      5  H   UNL     1      59.955  30.995  55.733  1.00  0.00     0.164 HD
ATOM      6  O   UNL     1      57.466  32.378  57.263  1.00  0.00    -0.273 OA
BRANCH   4   7
ATOM      7  C   UNL     1      58.120  29.856  55.841  1.00  0.00     0.175 C 
BRANCH   7   8
ATOM      8  C   UNL     1      57.779  29.111  57.108  1.00  0.00     0.243 C 
ATOM      9  N   UNL     1      58.803  28.379  57.807  1.00  0.00    -0.342 N 
ATOM     10  H   UNL     1      59.701  28.166  57.308  1.00  0.00     0.164 HD
ATOM     11  O   UNL     1      56.611  29.177  57.583  1.00  0.00    -0.273 OA
BRANCH   9  12
ATOM     12  C   UNL     1      58.612  27.890  59.177  1.00  0.00     0.174 CG0
ATOM     13  G   UNL     1      59.890  28.037  59.982  1.00  0.00     0.000 G0
BRANCH  12  14
ATOM     14  C   UNL     1      58.046  26.435  59.204  1.00  0.00     0.018 C 
ATOM     15  C   UNL     1      56.604  26.387  59.744  1.00  0.00     0.010 C 
BRANCH  14  16
ATOM     16  C   UNL     1      58.122  25.716  57.832  1.00  0.00     0.002 C 
ATOM     17  C   UNL     1      56.766  25.404  57.197  1.00  0.00     0.004 C 
ENDBRANCH  14  16
ENDBRANCH  12  14
ENDBRANCH   9  12
ENDBRANCH   7   8
BRANCH   7  18
ATOM     18  C   UNL     1      56.861  30.291  55.068  1.00  0.00     0.073 C 
BRANCH  18  19
ATOM     19  C   UNL     1      56.934  29.799  53.651  1.00  0.00    -0.016 A 
ATOM     20  C   UNL     1      57.840  28.872  53.145  1.00  0.00     0.134 A 
ATOM     21  C   UNL     1      55.979  29.973  52.667  1.00  0.00     0.006 A 
ATOM     22  N   UNL     1      57.491  28.526  51.888  1.00  0.00    -0.191 N 
ATOM     23  C   UNL     1      56.343  29.182  51.605  1.00  0.00     0.087 A 
ATOM     24  C   UNL     1      54.791  30.706  52.669  1.00  0.00     0.011 A 
ATOM     25  C   UNL     1      55.517  29.062  50.481  1.00  0.00     0.030 A 
ATOM     26  C   UNL     1      53.966  30.625  51.538  1.00  0.00     0.001 A 
ATOM     27  C   UNL     1      54.321  29.801  50.452  1.00  0.00     0.002 A 
BRANCH  22  28
ATOM     28  O   UNL     1      58.195  27.622  51.111  1.00  0.00    -0.417 OA
ATOM     29  C   UNL     1      59.103  28.033  50.091  1.00  0.00     0.313 C 
ENDBRANCH  22  28
ENDBRANCH  18  19
ENDBRANCH   7  18
ENDBRANCH   4   7
ENDBRANCH   2   3
BRANCH   2  30
ATOM     30  N   UNL     1      60.721  31.673  58.332  1.00  0.00    -0.343 N 
ATOM     31  C   UNL     1      61.103  31.549  59.707  1.00  0.00     0.243 C 
ATOM     32  H   UNL     1      61.351  31.250  57.616  1.00  0.00     0.164 HD
ATOM     33  O   UNL     1      61.612  32.547  60.278  1.00  0.00    -0.273 OA
BRANCH  31  34
ATOM     34  C   UNL     1      61.012  30.244  60.492  1.00  0.00     0.174 C 
ATOM     35  N   UNL     1      60.937  29.011  59.666  1.00  0.00    -0.329 N 
ATOM     36  C   UNL     1      62.165  30.113  61.503  1.00  0.00     0.035 C 
ATOM     37  C   UNL     1      62.175  28.558  58.999  1.00  0.00     0.120 C 
ATOM     38  C   UNL     1      63.478  29.751  60.801  1.00  0.00     0.004 C 
ATOM     39  C   UNL     1      63.326  28.449  60.007  1.00  0.00     0.022 C 
BRANCH  35  40
ATOM     40  C   UNL     1      59.901  28.040  59.985  1.00  0.00     0.246 CG0
ATOM     41  O   UNL     1      60.042  27.294  60.996  1.00  0.00    -0.272 OA
ATOM     42  G   UNL     1      58.619  27.886  59.189  1.00  0.00     0.000 G0
ENDBRANCH  35  40
ENDBRANCH  31  34
ENDBRANCH   2  30
ENDBRANCH   1   2
BRANCH   1  43
ATOM     43  C   UNL     1      59.923  35.182  57.374  1.00  0.00     0.003 C 
BRANCH  43  44
ATOM     44  C   UNL     1      59.669  35.988  56.087  1.00  0.00     0.001 C 
BRANCH  44  45
ATOM     45  C   UNL     1      58.644  35.318  55.153  1.00  0.00     0.008 C 
BRANCH  45  46
ATOM     46  C   UNL     1      58.801  35.800  53.704  1.00  0.00     0.075 C 
BRANCH  46  47
ATOM     47  C   UNL     1      59.668  34.863  52.907  1.00  0.00     0.132 C 
ATOM     48  O   UNL     1      60.117  35.231  51.823  1.00  0.00    -0.300 OA
BRANCH  47  49
ATOM     49  C   UNL     1      59.963  33.470  53.394  1.00  0.00     0.072 C 
ATOM     50  C   UNL     1      59.011  32.456  52.766  1.00  0.00     0.012 C 
ENDBRANCH  47  49
ENDBRANCH  46  47
ENDBRANCH  45  46
ENDBRANCH  44  45
ENDBRANCH  43  44
ENDBRANCH   1  43
TORSDOF 12
ENDMDL
