MODEL 1
REMARK VINA RESULT:    -3.363      0.000      0.000
REMARK INTER + INTRA:          -4.271
REMARK INTER:                  -4.149
REMARK INTRA:                  -0.122
REMARK UNBOUND:                -0.122
REMARK SMILES CCCCCC(=O)[O-]
REMARK SMILES IDX 4 1 5 2 6 3 7 4 8 5 3 6 2 7 1 8
REMARK H PARENT
REMARK Flexibility Score: inf
ROOT
ATOM      1  C   UNL     1      -0.651   8.499  -8.478  1.00  0.00     0.006 C 
ENDROOT
BRANCH   1   2
ATOM      2  C   UNL     1      -0.052   7.416  -9.393  1.00  0.00     0.053 C 
BRANCH   2   3
ATOM      3  C   UNL     1       1.054   6.648  -8.733  1.00  0.00     0.041 C 
ATOM      4  O   UNL     1       2.222   6.684  -9.201  1.00  0.00    -0.550 OA
ATOM      5  O   UNL     1       0.801   5.925  -7.573  1.00  0.00    -0.550 OA
ENDBRANCH   2   3
ENDBRANCH   1   2
BRANCH   1   6
ATOM      6  C   UNL     1       0.401   9.337  -7.725  1.00  0.00     0.000 C 
BRANCH   6   7
ATOM      7  C   UNL     1      -0.132  10.116  -6.511  1.00  0.00    -0.003 C 
ATOM      8  C   UNL     1      -1.658  10.125  -6.429  1.00  0.00     0.004 C 
ENDBRANCH   6   7
ENDBRANCH   1   6
TORSDOF 4
ENDMDL
MODEL 2
REMARK VINA RESULT:    -3.272     15.678     16.442
REMARK INTER + INTRA:          -4.159
REMARK INTER:                  -4.011
REMARK INTRA:                  -0.148
REMARK UNBOUND:                -0.122
REMARK SMILES CCCCCC(=O)[O-]
REMARK SMILES IDX 4 1 5 2 6 3 7 4 8 5 3 6 2 7 1 8
REMARK H PARENT
REMARK Flexibility Score: inf
ROOT
ATOM      1  C   UNL     1      -5.822  -7.300  -6.070  1.00  0.00     0.006 C 
ENDROOT
BRANCH   1   2
ATOM      2  C   UNL     1      -5.259  -6.373  -7.163  1.00  0.00     0.053 C 
BRANCH   2   3
ATOM      3  C   UNL     1      -4.482  -7.116  -8.208  1.00  0.00     0.041 C 
ATOM      4  O   UNL     1      -3.273  -7.408  -8.014  1.00  0.00    -0.550 OA
ATOM      5  O   UNL     1      -5.107  -7.522  -9.380  1.00  0.00    -0.550 OA
ENDBRANCH   2   3
ENDBRANCH   1   2
BRANCH   1   6
ATOM      6  C   UNL     1      -7.355  -7.241  -5.924  1.00  0.00     0.000 C 
BRANCH   6   7
ATOM      7  C   UNL     1      -8.090  -6.508  -7.059  1.00  0.00    -0.003 C 
ATOM      8  C   UNL     1      -9.322  -5.742  -6.578  1.00  0.00     0.004 C 
ENDBRANCH   6   7
ENDBRANCH   1   6
TORSDOF 4
ENDMDL
MODEL 3
REMARK VINA RESULT:    -3.190     15.766     16.507
REMARK INTER + INTRA:          -4.057
REMARK INTER:                  -3.909
REMARK INTRA:                  -0.149
REMARK UNBOUND:                -0.122
REMARK SMILES CCCCCC(=O)[O-]
REMARK SMILES IDX 4 1 5 2 6 3 7 4 8 5 3 6 2 7 1 8
REMARK H PARENT
REMARK Flexibility Score: inf
ROOT
ATOM      1  C   UNL     1      -5.993  -7.127  -5.984  1.00  0.00     0.006 C 
ENDROOT
BRANCH   1   2
ATOM      2  C   UNL     1      -5.245  -6.344  -7.078  1.00  0.00     0.053 C 
BRANCH   2   3
ATOM      3  C   UNL     1      -4.454  -7.235  -7.989  1.00  0.00     0.041 C 
ATOM      4  O   UNL     1      -4.802  -7.387  -9.189  1.00  0.00    -0.550 OA
ATOM      5  O   UNL     1      -3.308  -7.865  -7.520  1.00  0.00    -0.550 OA
ENDBRANCH   2   3
ENDBRANCH   1   2
BRANCH   1   6
ATOM      6  C   UNL     1      -7.437  -7.510  -6.362  1.00  0.00     0.000 C 
BRANCH   6   7
ATOM      7  C   UNL     1      -8.223  -6.427  -7.121  1.00  0.00    -0.003 C 
ATOM      8  C   UNL     1      -9.377  -5.844  -6.307  1.00  0.00     0.004 C 
ENDBRANCH   6   7
ENDBRANCH   1   6
TORSDOF 4
ENDMDL
MODEL 4
REMARK VINA RESULT:    -3.030     15.937     16.858
REMARK INTER + INTRA:          -3.860
REMARK INTER:                  -3.745
REMARK INTRA:                  -0.115
REMARK UNBOUND:                -0.122
REMARK SMILES CCCCCC(=O)[O-]
REMARK SMILES IDX 4 1 5 2 6 3 7 4 8 5 3 6 2 7 1 8
REMARK H PARENT
REMARK Flexibility Score: inf
ROOT
ATOM      1  C   UNL     1      -7.302  -7.127  -5.970  1.00  0.00     0.006 C 
ENDROOT
BRANCH   1   2
ATOM      2  C   UNL     1      -7.981  -6.559  -7.228  1.00  0.00     0.053 C 
BRANCH   2   3
ATOM      3  C   UNL     1      -9.164  -5.694  -6.907  1.00  0.00     0.041 C 
ATOM      4  O   UNL     1      -9.486  -4.747  -7.670  1.00  0.00    -0.550 OA
ATOM      5  O   UNL     1      -9.936  -5.964  -5.783  1.00  0.00    -0.550 OA
ENDBRANCH   2   3
ENDBRANCH   1   2
BRANCH   1   6
ATOM      6  C   UNL     1      -5.780  -7.327  -6.114  1.00  0.00     0.000 C 
BRANCH   6   7
ATOM      7  C   UNL     1      -5.100  -6.428  -7.160  1.00  0.00    -0.003 C 
ATOM      8  C   UNL     1      -4.135  -7.190  -8.067  1.00  0.00     0.004 C 
ENDBRANCH   6   7
ENDBRANCH   1   6
TORSDOF 4
ENDMDL
MODEL 5
REMARK VINA RESULT:    -2.940     16.119     17.028
REMARK INTER + INTRA:          -3.750
REMARK INTER:                  -3.574
REMARK INTRA:                  -0.176
REMARK UNBOUND:                -0.122
REMARK SMILES CCCCCC(=O)[O-]
REMARK SMILES IDX 4 1 5 2 6 3 7 4 8 5 3 6 2 7 1 8
REMARK H PARENT
REMARK Flexibility Score: inf
ROOT
ATOM      1  C   UNL     1      -5.940  -7.168  -6.052  1.00  0.00     0.006 C 
ENDROOT
BRANCH   1   2
ATOM      2  C   UNL     1      -7.247  -7.856  -6.485  1.00  0.00     0.053 C 
BRANCH   2   3
ATOM      3  C   UNL     1      -8.286  -6.881  -6.952  1.00  0.00     0.041 C 
ATOM      4  O   UNL     1      -8.589  -6.810  -8.172  1.00  0.00    -0.550 OA
ATOM      5  O   UNL     1      -8.951  -6.080  -6.032  1.00  0.00    -0.550 OA
ENDBRANCH   2   3
ENDBRANCH   1   2
BRANCH   1   6
ATOM      6  C   UNL     1      -5.254  -6.361  -7.173  1.00  0.00     0.000 C 
BRANCH   6   7
ATOM      7  C   UNL     1      -4.169  -7.122  -7.954  1.00  0.00    -0.003 C 
ATOM      8  C   UNL     1      -4.699  -7.781  -9.227  1.00  0.00     0.004 C 
ENDBRANCH   6   7
ENDBRANCH   1   6
TORSDOF 4
ENDMDL
MODEL 6
REMARK VINA RESULT:    -2.863     16.401     17.542
REMARK INTER + INTRA:          -3.654
REMARK INTER:                  -3.472
REMARK INTRA:                  -0.182
REMARK UNBOUND:                -0.122
REMARK SMILES CCCCCC(=O)[O-]
REMARK SMILES IDX 4 1 5 2 6 3 7 4 8 5 3 6 2 7 1 8
REMARK H PARENT
REMARK Flexibility Score: inf
ROOT
ATOM      1  C   UNL     1      -6.545  -6.860  -7.095  1.00  0.00     0.006 C 
ENDROOT
BRANCH   1   2
ATOM      2  C   UNL     1      -7.041  -7.262  -5.694  1.00  0.00     0.053 C 
BRANCH   2   3
ATOM      3  C   UNL     1      -7.031  -8.746  -5.482  1.00  0.00     0.041 C 
ATOM      4  O   UNL     1      -8.087  -9.349  -5.155  1.00  0.00    -0.550 OA
ATOM      5  O   UNL     1      -5.862  -9.469  -5.685  1.00  0.00    -0.550 OA
ENDBRANCH   2   3
ENDBRANCH   1   2
BRANCH   1   6
ATOM      6  C   UNL     1      -5.090  -6.353  -7.124  1.00  0.00     0.000 C 
BRANCH   6   7
ATOM      7  C   UNL     1      -4.143  -7.142  -8.044  1.00  0.00    -0.003 C 
ATOM      8  C   UNL     1      -4.869  -7.842  -9.192  1.00  0.00     0.004 C 
ENDBRANCH   6   7
ENDBRANCH   1   6
TORSDOF 4
ENDMDL
MODEL 7
REMARK VINA RESULT:    -2.852     16.176     17.289
REMARK INTER + INTRA:          -3.641
REMARK INTER:                  -3.470
REMARK INTRA:                  -0.171
REMARK UNBOUND:                -0.122
REMARK SMILES CCCCCC(=O)[O-]
REMARK SMILES IDX 4 1 5 2 6 3 7 4 8 5 3 6 2 7 1 8
REMARK H PARENT
REMARK Flexibility Score: inf
ROOT
ATOM      1  C   UNL     1      -4.210  -7.028  -7.938  1.00  0.00     0.006 C 
ENDROOT
BRANCH   1   2
ATOM      2  C   UNL     1      -5.297  -6.438  -7.021  1.00  0.00     0.053 C 
BRANCH   2   3
ATOM      3  C   UNL     1      -5.954  -7.475  -6.160  1.00  0.00     0.041 C 
ATOM      4  O   UNL     1      -5.359  -8.553  -5.898  1.00  0.00    -0.550 OA
ATOM      5  O   UNL     1      -7.207  -7.231  -5.613  1.00  0.00    -0.550 OA
ENDBRANCH   2   3
ENDBRANCH   1   2
BRANCH   1   6
ATOM      6  C   UNL     1      -4.756  -7.648  -9.239  1.00  0.00     0.000 C 
BRANCH   6   7
ATOM      7  C   UNL     1      -3.940  -8.831  -9.790  1.00  0.00    -0.003 C 
ATOM      8  C   UNL     1      -3.786  -9.971  -8.785  1.00  0.00     0.004 C 
ENDBRANCH   6   7
ENDBRANCH   1   6
TORSDOF 4
ENDMDL
MODEL 8
REMARK VINA RESULT:    -2.748     16.398     16.735
REMARK INTER + INTRA:          -3.512
REMARK INTER:                  -3.437
REMARK INTRA:                  -0.075
REMARK UNBOUND:                -0.122
REMARK SMILES CCCCCC(=O)[O-]
REMARK SMILES IDX 4 1 5 2 6 3 7 4 8 5 3 6 2 7 1 8
REMARK H PARENT
REMARK Flexibility Score: inf
ROOT
ATOM      1  C   UNL     1      -6.243  -7.981  -7.811  1.00  0.00     0.006 C 
ENDROOT
BRANCH   1   2
ATOM      2  C   UNL     1      -5.370  -7.592  -9.018  1.00  0.00     0.053 C 
BRANCH   2   3
ATOM      3  C   UNL     1      -3.910  -7.837  -8.778  1.00  0.00     0.041 C 
ATOM      4  O   UNL     1      -3.416  -7.666  -7.633  1.00  0.00    -0.550 OA
ATOM      5  O   UNL     1      -3.103  -8.297  -9.812  1.00  0.00    -0.550 OA
ENDBRANCH   2   3
ENDBRANCH   1   2
BRANCH   1   6
ATOM      6  C   UNL     1      -6.759  -6.778  -6.996  1.00  0.00     0.000 C 
BRANCH   6   7
ATOM      7  C   UNL     1      -8.027  -7.047  -6.169  1.00  0.00    -0.003 C 
ATOM      8  C   UNL     1      -9.154  -6.057  -6.461  1.00  0.00     0.004 C 
ENDBRANCH   6   7
ENDBRANCH   1   6
TORSDOF 4
ENDMDL
MODEL 9
REMARK VINA RESULT:    -2.686      2.786      4.431
REMARK INTER + INTRA:          -3.436
REMARK INTER:                  -3.324
REMARK INTRA:                  -0.112
REMARK UNBOUND:                -0.122
REMARK SMILES CCCCCC(=O)[O-]
REMARK SMILES IDX 4 1 5 2 6 3 7 4 8 5 3 6 2 7 1 8
REMARK H PARENT
REMARK Flexibility Score: inf
ROOT
ATOM      1  C   UNL     1       0.341   8.132  -7.569  1.00  0.00     0.006 C 
ENDROOT
BRANCH   1   2
ATOM      2  C   UNL     1      -0.096   9.589  -7.802  1.00  0.00     0.053 C 
BRANCH   2   3
ATOM      3  C   UNL     1      -1.586   9.740  -7.880  1.00  0.00     0.041 C 
ATOM      4  O   UNL     1      -2.268   9.872  -6.830  1.00  0.00    -0.550 OA
ATOM      5  O   UNL     1      -2.217   9.777  -9.118  1.00  0.00    -0.550 OA
ENDBRANCH   2   3
ENDBRANCH   1   2
BRANCH   1   6
ATOM      6  C   UNL     1       0.092   7.201  -8.772  1.00  0.00     0.000 C 
BRANCH   6   7
ATOM      7  C   UNL     1       1.221   6.199  -9.066  1.00  0.00    -0.003 C 
ATOM      8  C   UNL     1       2.388   6.820  -9.832  1.00  0.00     0.004 C 
ENDBRANCH   6   7
ENDBRANCH   1   6
TORSDOF 4
ENDMDL
