MODEL 1
REMARK VINA RESULT:    -4.929      0.000      0.000
REMARK INTER + INTRA:          -5.432
REMARK INTER:                  -5.361
REMARK INTRA:                  -0.071
REMARK UNBOUND:                -0.071
REMARK SMILES CCc1cccc(O)c1
REMARK SMILES IDX 3 1 9 2 7 3 6 4 5 5 4 6 2 7 1 8 8 9
REMARK H PARENT 8 10
REMARK Flexibility Score: inf
ROOT
ATOM      1  C   UNL     1      -6.033  10.703  -7.122  1.00  0.00    -0.045 A 
ATOM      2  C   UNL     1      -4.935  11.369  -6.552  1.00  0.00     0.049 A 
ATOM      3  C   UNL     1      -3.738  11.501  -7.270  1.00  0.00     0.115 A 
ATOM      4  C   UNL     1      -3.635  10.960  -8.556  1.00  0.00     0.046 A 
ATOM      5  C   UNL     1      -4.720  10.285  -9.123  1.00  0.00     0.004 A 
ATOM      6  C   UNL     1      -5.914  10.152  -8.407  1.00  0.00     0.004 A 
ENDROOT
BRANCH   1   7
ATOM      7  C   UNL     1      -7.307  10.532  -6.337  1.00  0.00     0.032 C 
ATOM      8  C   UNL     1      -7.855   9.119  -6.499  1.00  0.00     0.009 C 
ENDBRANCH   1   7
BRANCH   3   9
ATOM      9  O   UNL     1      -2.646  12.166  -6.715  1.00  0.00    -0.508 OA
ATOM     10  H   UNL     1      -2.764  12.865  -5.992  1.00  0.00     0.293 HD
ENDBRANCH   3   9
TORSDOF 2
ENDMDL
MODEL 2
REMARK VINA RESULT:    -4.587     17.844     18.829
REMARK INTER + INTRA:          -5.059
REMARK INTER:                  -4.984
REMARK INTRA:                  -0.076
REMARK UNBOUND:                -0.071
REMARK SMILES CCc1cccc(O)c1
REMARK SMILES IDX 3 1 9 2 7 3 6 4 5 5 4 6 2 7 1 8 8 9
REMARK H PARENT 8 10
REMARK Flexibility Score: inf
ROOT
ATOM      1  C   UNL     1       5.449  11.645   7.647  1.00  0.00    -0.045 A 
ATOM      2  C   UNL     1       5.191  11.570   9.026  1.00  0.00     0.049 A 
ATOM      3  C   UNL     1       4.443  10.505   9.547  1.00  0.00     0.115 A 
ATOM      4  C   UNL     1       3.947   9.517   8.691  1.00  0.00     0.046 A 
ATOM      5  C   UNL     1       4.190   9.594   7.316  1.00  0.00     0.004 A 
ATOM      6  C   UNL     1       4.934  10.656   6.794  1.00  0.00     0.004 A 
ENDROOT
BRANCH   1   7
ATOM      7  C   UNL     1       6.223  12.808   7.082  1.00  0.00     0.032 C 
ATOM      8  C   UNL     1       6.310  12.710   5.563  1.00  0.00     0.009 C 
ENDBRANCH   1   7
BRANCH   3   9
ATOM      9  O   UNL     1       4.187  10.419  10.915  1.00  0.00    -0.508 OA
ATOM     10  H   UNL     1       4.930  10.510  11.598  1.00  0.00     0.293 HD
ENDBRANCH   3   9
TORSDOF 2
ENDMDL
MODEL 3
REMARK VINA RESULT:    -4.527     18.532     19.152
REMARK INTER + INTRA:          -4.994
REMARK INTER:                  -4.919
REMARK INTRA:                  -0.076
REMARK UNBOUND:                -0.071
REMARK SMILES CCc1cccc(O)c1
REMARK SMILES IDX 3 1 9 2 7 3 6 4 5 5 4 6 2 7 1 8 8 9
REMARK H PARENT 8 10
REMARK Flexibility Score: inf
ROOT
ATOM      1  C   UNL     1       2.894  11.550   9.627  1.00  0.00    -0.045 A 
ATOM      2  C   UNL     1       3.529  10.297   9.582  1.00  0.00     0.049 A 
ATOM      3  C   UNL     1       4.888  10.206   9.249  1.00  0.00     0.115 A 
ATOM      4  C   UNL     1       5.612  11.364   8.954  1.00  0.00     0.046 A 
ATOM      5  C   UNL     1       4.983  12.612   8.984  1.00  0.00     0.004 A 
ATOM      6  C   UNL     1       3.627  12.706   9.314  1.00  0.00     0.004 A 
ENDROOT
BRANCH   1   7
ATOM      7  C   UNL     1       1.426  11.646   9.950  1.00  0.00     0.032 C 
ATOM      8  C   UNL     1       0.902  13.049   9.667  1.00  0.00     0.009 C 
ENDBRANCH   1   7
BRANCH   3   9
ATOM      9  O   UNL     1       5.527   8.968   9.209  1.00  0.00    -0.508 OA
ATOM     10  H   UNL     1       5.227   8.238   8.573  1.00  0.00     0.293 HD
ENDBRANCH   3   9
TORSDOF 2
ENDMDL
MODEL 4
REMARK VINA RESULT:    -4.472     17.113     18.373
REMARK INTER + INTRA:          -4.935
REMARK INTER:                  -4.884
REMARK INTRA:                  -0.051
REMARK UNBOUND:                -0.071
REMARK SMILES CCc1cccc(O)c1
REMARK SMILES IDX 3 1 9 2 7 3 6 4 5 5 4 6 2 7 1 8 8 9
REMARK H PARENT 8 10
REMARK Flexibility Score: inf
ROOT
ATOM      1  C   UNL     1       5.224  11.293   7.214  1.00  0.00    -0.045 A 
ATOM      2  C   UNL     1       4.482  10.113   7.036  1.00  0.00     0.049 A 
ATOM      3  C   UNL     1       3.781   9.551   8.112  1.00  0.00     0.115 A 
ATOM      4  C   UNL     1       3.826  10.163   9.368  1.00  0.00     0.046 A 
ATOM      5  C   UNL     1       4.573  11.330   9.554  1.00  0.00     0.004 A 
ATOM      6  C   UNL     1       5.274  11.891   8.483  1.00  0.00     0.004 A 
ENDROOT
BRANCH   1   7
ATOM      7  C   UNL     1       6.005  11.879   6.067  1.00  0.00     0.032 C 
ATOM      8  C   UNL     1       5.598  11.229   4.749  1.00  0.00     0.009 C 
ENDBRANCH   1   7
BRANCH   3   9
ATOM      9  O   UNL     1       3.037   8.385   7.943  1.00  0.00    -0.508 OA
ATOM     10  H   UNL     1       2.278   8.334   7.273  1.00  0.00     0.293 HD
ENDBRANCH   3   9
TORSDOF 2
ENDMDL
MODEL 5
REMARK VINA RESULT:    -4.347     17.104     18.487
REMARK INTER + INTRA:          -4.798
REMARK INTER:                  -4.723
REMARK INTRA:                  -0.076
REMARK UNBOUND:                -0.071
REMARK SMILES CCc1cccc(O)c1
REMARK SMILES IDX 3 1 9 2 7 3 6 4 5 5 4 6 2 7 1 8 8 9
REMARK H PARENT 8 10
REMARK Flexibility Score: inf
ROOT
ATOM      1  C   UNL     1       7.587  11.488   5.683  1.00  0.00    -0.045 A 
ATOM      2  C   UNL     1       7.542  10.959   6.984  1.00  0.00     0.049 A 
ATOM      3  C   UNL     1       6.334  10.481   7.511  1.00  0.00     0.115 A 
ATOM      4  C   UNL     1       5.168  10.538   6.742  1.00  0.00     0.046 A 
ATOM      5  C   UNL     1       5.203  11.076   5.452  1.00  0.00     0.004 A 
ATOM      6  C   UNL     1       6.406  11.554   4.925  1.00  0.00     0.004 A 
ENDROOT
BRANCH   1   7
ATOM      7  C   UNL     1       8.877  12.033   5.128  1.00  0.00     0.032 C 
ATOM      8  C   UNL     1       8.652  12.662   3.759  1.00  0.00     0.009 C 
ENDBRANCH   1   7
BRANCH   3   9
ATOM      9  O   UNL     1       6.283   9.948   8.798  1.00  0.00    -0.508 OA
ATOM     10  H   UNL     1       5.415   9.906   9.319  1.00  0.00     0.293 HD
ENDBRANCH   3   9
TORSDOF 2
ENDMDL
MODEL 6
REMARK VINA RESULT:    -4.320     17.418     18.621
REMARK INTER + INTRA:          -4.770
REMARK INTER:                  -4.719
REMARK INTRA:                  -0.051
REMARK UNBOUND:                -0.071
REMARK SMILES CCc1cccc(O)c1
REMARK SMILES IDX 3 1 9 2 7 3 6 4 5 5 4 6 2 7 1 8 8 9
REMARK H PARENT 8 10
REMARK Flexibility Score: inf
ROOT
ATOM      1  C   UNL     1       5.162  11.128   6.785  1.00  0.00    -0.045 A 
ATOM      2  C   UNL     1       6.038  11.887   7.580  1.00  0.00     0.049 A 
ATOM      3  C   UNL     1       5.820  12.001   8.961  1.00  0.00     0.115 A 
ATOM      4  C   UNL     1       4.722  11.363   9.546  1.00  0.00     0.046 A 
ATOM      5  C   UNL     1       3.840  10.618   8.758  1.00  0.00     0.004 A 
ATOM      6  C   UNL     1       4.055  10.504   7.382  1.00  0.00     0.004 A 
ENDROOT
BRANCH   1   7
ATOM      7  C   UNL     1       5.377  11.034   5.297  1.00  0.00     0.032 C 
ATOM      8  C   UNL     1       6.088  12.277   4.775  1.00  0.00     0.009 C 
ENDBRANCH   1   7
BRANCH   3   9
ATOM      9  O   UNL     1       6.687  12.745   9.757  1.00  0.00    -0.508 OA
ATOM     10  H   UNL     1       6.608  13.753   9.827  1.00  0.00     0.293 HD
ENDBRANCH   3   9
TORSDOF 2
ENDMDL
MODEL 7
REMARK VINA RESULT:    -4.283     16.781     17.791
REMARK INTER + INTRA:          -4.729
REMARK INTER:                  -4.654
REMARK INTRA:                  -0.075
REMARK UNBOUND:                -0.071
REMARK SMILES CCc1cccc(O)c1
REMARK SMILES IDX 3 1 9 2 7 3 6 4 5 5 4 6 2 7 1 8 8 9
REMARK H PARENT 8 10
REMARK Flexibility Score: inf
ROOT
ATOM      1  C   UNL     1       5.863  10.636   6.581  1.00  0.00    -0.045 A 
ATOM      2  C   UNL     1       7.255  10.752   6.738  1.00  0.00     0.049 A 
ATOM      3  C   UNL     1       8.038  11.307   5.716  1.00  0.00     0.115 A 
ATOM      4  C   UNL     1       7.432  11.739   4.532  1.00  0.00     0.046 A 
ATOM      5  C   UNL     1       6.050  11.613   4.364  1.00  0.00     0.004 A 
ATOM      6  C   UNL     1       5.268  11.059   5.382  1.00  0.00     0.004 A 
ENDROOT
BRANCH   1   7
ATOM      7  C   UNL     1       5.026  10.008   7.664  1.00  0.00     0.032 C 
ATOM      8  C   UNL     1       3.541  10.203   7.381  1.00  0.00     0.009 C 
ENDBRANCH   1   7
BRANCH   3   9
ATOM      9  O   UNL     1       9.418  11.432   5.867  1.00  0.00    -0.508 OA
ATOM     10  H   UNL     1      10.041  10.650   5.705  1.00  0.00     0.293 HD
ENDBRANCH   3   9
TORSDOF 2
ENDMDL
MODEL 8
REMARK VINA RESULT:    -4.228     17.427     18.427
REMARK INTER + INTRA:          -4.669
REMARK INTER:                  -4.616
REMARK INTRA:                  -0.054
REMARK UNBOUND:                -0.071
REMARK SMILES CCc1cccc(O)c1
REMARK SMILES IDX 3 1 9 2 7 3 6 4 5 5 4 6 2 7 1 8 8 9
REMARK H PARENT 8 10
REMARK Flexibility Score: inf
ROOT
ATOM      1  C   UNL     1       3.697  10.904   9.035  1.00  0.00    -0.045 A 
ATOM      2  C   UNL     1       3.710  10.477   7.696  1.00  0.00     0.049 A 
ATOM      3  C   UNL     1       4.810  10.762   6.875  1.00  0.00     0.115 A 
ATOM      4  C   UNL     1       5.895  11.480   7.388  1.00  0.00     0.046 A 
ATOM      5  C   UNL     1       5.882  11.918   8.715  1.00  0.00     0.004 A 
ATOM      6  C   UNL     1       4.785  11.636   9.536  1.00  0.00     0.004 A 
ENDROOT
BRANCH   1   7
ATOM      7  C   UNL     1       2.501  10.628   9.908  1.00  0.00     0.032 C 
ATOM      8  C   UNL     1       1.498  11.773   9.826  1.00  0.00     0.009 C 
ENDBRANCH   1   7
BRANCH   3   9
ATOM      9  O   UNL     1       4.834  10.337   5.548  1.00  0.00    -0.508 OA
ATOM     10  H   UNL     1       5.647   9.880   5.153  1.00  0.00     0.293 HD
ENDBRANCH   3   9
TORSDOF 2
ENDMDL
MODEL 9
REMARK VINA RESULT:    -4.167     17.123     18.203
REMARK INTER + INTRA:          -4.603
REMARK INTER:                  -4.529
REMARK INTRA:                  -0.074
REMARK UNBOUND:                -0.071
REMARK SMILES CCc1cccc(O)c1
REMARK SMILES IDX 3 1 9 2 7 3 6 4 5 5 4 6 2 7 1 8 8 9
REMARK H PARENT 8 10
REMARK Flexibility Score: inf
ROOT
ATOM      1  C   UNL     1       4.955  10.870   7.662  1.00  0.00    -0.045 A 
ATOM      2  C   UNL     1       4.824  10.808   6.264  1.00  0.00     0.049 A 
ATOM      3  C   UNL     1       5.964  10.747   5.450  1.00  0.00     0.115 A 
ATOM      4  C   UNL     1       7.235  10.756   6.031  1.00  0.00     0.046 A 
ATOM      5  C   UNL     1       7.372  10.831   7.420  1.00  0.00     0.004 A 
ATOM      6  C   UNL     1       6.237  10.893   8.234  1.00  0.00     0.004 A 
ENDROOT
BRANCH   1   7
ATOM      7  C   UNL     1       3.732  10.971   8.535  1.00  0.00     0.032 C 
ATOM      8  C   UNL     1       4.079  10.664   9.987  1.00  0.00     0.009 C 
ENDBRANCH   1   7
BRANCH   3   9
ATOM      9  O   UNL     1       5.843  10.679   4.063  1.00  0.00    -0.508 OA
ATOM     10  H   UNL     1       4.968  10.888   3.597  1.00  0.00     0.293 HD
ENDBRANCH   3   9
TORSDOF 2
ENDMDL
