MODEL 1
REMARK VINA RESULT:    -3.775      0.000      0.000
REMARK INTER + INTRA:          -4.471
REMARK INTER:                  -4.327
REMARK INTRA:                  -0.144
REMARK UNBOUND:                -0.144
REMARK SMILES O=C([O-])C=Cc1ccc(O)cc1
REMARK SMILES IDX 6 1 7 2 12 3 8 4 11 5 9 6 5 7 4 8 2 9 1 10 3 11 10 12
REMARK H PARENT 10 13
REMARK Flexibility Score: inf
ROOT
ATOM      1  C   UNL     1      71.650  41.352  21.688  1.00  0.00    -0.025 A 
ATOM      2  C   UNL     1      71.073  40.238  22.320  1.00  0.00     0.012 A 
ATOM      3  C   UNL     1      70.856  42.125  20.815  1.00  0.00     0.012 A 
ATOM      4  C   UNL     1      69.743  39.885  22.068  1.00  0.00     0.047 A 
ATOM      5  C   UNL     1      69.526  41.770  20.567  1.00  0.00     0.047 A 
ATOM      6  C   UNL     1      68.967  40.649  21.189  1.00  0.00     0.115 A 
ENDROOT
BRANCH   1   7
ATOM      7  C   UNL     1      73.061  41.691  21.995  1.00  0.00     0.010 C 
ATOM      8  C   UNL     1      74.043  40.784  22.086  1.00  0.00     0.025 C 
BRANCH   8   9
ATOM      9  C   UNL     1      75.427  41.167  22.404  1.00  0.00     0.064 C 
ATOM     10  O   UNL     1      76.046  41.953  21.639  1.00  0.00    -0.545 OA
ATOM     11  O   UNL     1      76.065  40.678  23.539  1.00  0.00    -0.545 OA
ENDBRANCH   8   9
ENDBRANCH   1   7
BRANCH   6  12
ATOM     12  O   UNL     1      67.641  40.308  20.929  1.00  0.00    -0.508 OA
ATOM     13  H   UNL     1      66.984  40.985  20.560  1.00  0.00     0.293 HD
ENDBRANCH   6  12
TORSDOF 3
ENDMDL
MODEL 2
REMARK VINA RESULT:    -3.504      1.406      2.038
REMARK INTER + INTRA:          -4.161
REMARK INTER:                  -4.020
REMARK INTRA:                  -0.141
REMARK UNBOUND:                -0.144
REMARK SMILES O=C([O-])C=Cc1ccc(O)cc1
REMARK SMILES IDX 6 1 7 2 12 3 8 4 11 5 9 6 5 7 4 8 2 9 1 10 3 11 10 12
REMARK H PARENT 10 13
REMARK Flexibility Score: inf
ROOT
ATOM      1  C   UNL     1      73.034  41.090  22.044  1.00  0.00    -0.025 A 
ATOM      2  C   UNL     1      71.968  41.948  22.362  1.00  0.00     0.012 A 
ATOM      3  C   UNL     1      72.745  39.779  21.610  1.00  0.00     0.012 A 
ATOM      4  C   UNL     1      70.645  41.503  22.276  1.00  0.00     0.047 A 
ATOM      5  C   UNL     1      71.420  39.339  21.524  1.00  0.00     0.047 A 
ATOM      6  C   UNL     1      70.368  40.196  21.859  1.00  0.00     0.115 A 
ENDROOT
BRANCH   1   7
ATOM      7  C   UNL     1      74.420  41.612  22.142  1.00  0.00     0.010 C 
ATOM      8  C   UNL     1      75.431  41.188  21.372  1.00  0.00     0.025 C 
BRANCH   8   9
ATOM      9  C   UNL     1      76.793  41.727  21.513  1.00  0.00     0.064 C 
ATOM     10  O   UNL     1      77.480  41.955  20.483  1.00  0.00    -0.545 OA
ATOM     11  O   UNL     1      77.335  41.991  22.766  1.00  0.00    -0.545 OA
ENDBRANCH   8   9
ENDBRANCH   1   7
BRANCH   6  12
ATOM     12  O   UNL     1      69.055  39.741  21.770  1.00  0.00    -0.508 OA
ATOM     13  H   UNL     1      68.310  40.166  22.309  1.00  0.00     0.293 HD
ENDBRANCH   6  12
TORSDOF 3
ENDMDL
MODEL 3
REMARK VINA RESULT:    -3.290      3.550      6.579
REMARK INTER + INTRA:          -3.915
REMARK INTER:                  -3.778
REMARK INTRA:                  -0.137
REMARK UNBOUND:                -0.144
REMARK SMILES O=C([O-])C=Cc1ccc(O)cc1
REMARK SMILES IDX 6 1 7 2 12 3 8 4 11 5 9 6 5 7 4 8 2 9 1 10 3 11 10 12
REMARK H PARENT 10 13
REMARK Flexibility Score: inf
ROOT
ATOM      1  C   UNL     1      75.588  41.782  20.023  1.00  0.00    -0.025 A 
ATOM      2  C   UNL     1      76.817  41.849  20.701  1.00  0.00     0.012 A 
ATOM      3  C   UNL     1      75.588  41.809  18.613  1.00  0.00     0.012 A 
ATOM      4  C   UNL     1      78.017  41.966  19.992  1.00  0.00     0.047 A 
ATOM      5  C   UNL     1      76.790  41.925  17.907  1.00  0.00     0.047 A 
ATOM      6  C   UNL     1      78.006  42.007  18.593  1.00  0.00     0.115 A 
ENDROOT
BRANCH   1   7
ATOM      7  C   UNL     1      74.343  41.649  20.820  1.00  0.00     0.010 C 
ATOM      8  C   UNL     1      73.560  40.563  20.800  1.00  0.00     0.025 C 
BRANCH   8   9
ATOM      9  C   UNL     1      72.327  40.480  21.599  1.00  0.00     0.064 C 
ATOM     10  O   UNL     1      71.784  39.359  21.789  1.00  0.00    -0.545 OA
ATOM     11  O   UNL     1      71.751  41.618  22.152  1.00  0.00    -0.545 OA
ENDBRANCH   8   9
ENDBRANCH   1   7
BRANCH   6  12
ATOM     12  O   UNL     1      79.194  42.125  17.875  1.00  0.00    -0.508 OA
ATOM     13  H   UNL     1      79.754  41.313  17.644  1.00  0.00     0.293 HD
ENDBRANCH   6  12
TORSDOF 3
ENDMDL
MODEL 4
REMARK VINA RESULT:    -3.258      3.461      6.595
REMARK INTER + INTRA:          -3.878
REMARK INTER:                  -3.741
REMARK INTRA:                  -0.137
REMARK UNBOUND:                -0.144
REMARK SMILES O=C([O-])C=Cc1ccc(O)cc1
REMARK SMILES IDX 6 1 7 2 12 3 8 4 11 5 9 6 5 7 4 8 2 9 1 10 3 11 10 12
REMARK H PARENT 10 13
REMARK Flexibility Score: inf
ROOT
ATOM      1  C   UNL     1      75.308  41.532  19.730  1.00  0.00    -0.025 A 
ATOM      2  C   UNL     1      75.572  41.552  18.351  1.00  0.00     0.012 A 
ATOM      3  C   UNL     1      76.376  41.734  20.629  1.00  0.00     0.012 A 
ATOM      4  C   UNL     1      76.874  41.743  17.877  1.00  0.00     0.047 A 
ATOM      5  C   UNL     1      77.677  41.926  20.152  1.00  0.00     0.047 A 
ATOM      6  C   UNL     1      77.930  41.928  18.777  1.00  0.00     0.115 A 
ENDROOT
BRANCH   1   7
ATOM      7  C   UNL     1      73.909  41.336  20.183  1.00  0.00     0.010 C 
ATOM      8  C   UNL     1      73.574  40.712  21.321  1.00  0.00     0.025 C 
BRANCH   8   9
ATOM      9  C   UNL     1      72.171  40.531  21.724  1.00  0.00     0.064 C 
ATOM     10  O   UNL     1      71.579  39.456  21.443  1.00  0.00    -0.545 OA
ATOM     11  O   UNL     1      71.487  41.526  22.413  1.00  0.00    -0.545 OA
ENDBRANCH   8   9
ENDBRANCH   1   7
BRANCH   6  12
ATOM     12  O   UNL     1      79.232  42.118  18.318  1.00  0.00    -0.508 OA
ATOM     13  H   UNL     1      79.422  42.645  17.474  1.00  0.00     0.293 HD
ENDBRANCH   6  12
TORSDOF 3
ENDMDL
MODEL 5
REMARK VINA RESULT:    -2.981      1.531      2.372
REMARK INTER + INTRA:          -3.561
REMARK INTER:                  -3.419
REMARK INTRA:                  -0.143
REMARK UNBOUND:                -0.144
REMARK SMILES O=C([O-])C=Cc1ccc(O)cc1
REMARK SMILES IDX 6 1 7 2 12 3 8 4 11 5 9 6 5 7 4 8 2 9 1 10 3 11 10 12
REMARK H PARENT 10 13
REMARK Flexibility Score: inf
ROOT
ATOM      1  C   UNL     1      73.247  40.692  21.666  1.00  0.00    -0.025 A 
ATOM      2  C   UNL     1      73.299  41.557  20.560  1.00  0.00     0.012 A 
ATOM      3  C   UNL     1      72.003  40.137  22.036  1.00  0.00     0.012 A 
ATOM      4  C   UNL     1      72.137  41.883  19.854  1.00  0.00     0.047 A 
ATOM      5  C   UNL     1      70.843  40.465  21.327  1.00  0.00     0.047 A 
ATOM      6  C   UNL     1      70.905  41.340  20.238  1.00  0.00     0.115 A 
ENDROOT
BRANCH   1   7
ATOM      7  C   UNL     1      74.509  40.368  22.376  1.00  0.00     0.010 C 
ATOM      8  C   UNL     1      75.418  41.284  22.733  1.00  0.00     0.025 C 
BRANCH   8   9
ATOM      9  C   UNL     1      76.662  40.914  23.427  1.00  0.00     0.064 C 
ATOM     10  O   UNL     1      77.756  41.406  23.043  1.00  0.00    -0.545 OA
ATOM     11  O   UNL     1      76.651  40.032  24.502  1.00  0.00    -0.545 OA
ENDBRANCH   8   9
ENDBRANCH   1   7
BRANCH   6  12
ATOM     12  O   UNL     1      69.740  41.658  19.544  1.00  0.00    -0.508 OA
ATOM     13  H   UNL     1      69.310  42.571  19.624  1.00  0.00     0.293 HD
ENDBRANCH   6  12
TORSDOF 3
ENDMDL
MODEL 6
REMARK VINA RESULT:    -2.916      1.393      1.977
REMARK INTER + INTRA:          -3.487
REMARK INTER:                  -3.350
REMARK INTRA:                  -0.137
REMARK UNBOUND:                -0.144
REMARK SMILES O=C([O-])C=Cc1ccc(O)cc1
REMARK SMILES IDX 6 1 7 2 12 3 8 4 11 5 9 6 5 7 4 8 2 9 1 10 3 11 10 12
REMARK H PARENT 10 13
REMARK Flexibility Score: inf
ROOT
ATOM      1  C   UNL     1      70.517  41.453  20.580  1.00  0.00    -0.025 A 
ATOM      2  C   UNL     1      69.550  40.830  21.387  1.00  0.00     0.012 A 
ATOM      3  C   UNL     1      70.123  41.982  19.333  1.00  0.00     0.012 A 
ATOM      4  C   UNL     1      68.226  40.713  20.950  1.00  0.00     0.047 A 
ATOM      5  C   UNL     1      68.798  41.864  18.901  1.00  0.00     0.047 A 
ATOM      6  C   UNL     1      67.848  41.228  19.705  1.00  0.00     0.115 A 
ENDROOT
BRANCH   1   7
ATOM      7  C   UNL     1      71.906  41.562  21.091  1.00  0.00     0.010 C 
ATOM      8  C   UNL     1      72.733  40.518  21.228  1.00  0.00     0.025 C 
BRANCH   8   9
ATOM      9  C   UNL     1      74.100  40.672  21.750  1.00  0.00     0.064 C 
ATOM     10  O   UNL     1      74.519  39.882  22.637  1.00  0.00    -0.545 OA
ATOM     11  O   UNL     1      74.940  41.675  21.280  1.00  0.00    -0.545 OA
ENDBRANCH   8   9
ENDBRANCH   1   7
BRANCH   6  12
ATOM     12  O   UNL     1      66.533  41.117  19.259  1.00  0.00    -0.508 OA
ATOM     13  H   UNL     1      66.279  40.475  18.518  1.00  0.00     0.293 HD
ENDBRANCH   6  12
TORSDOF 3
ENDMDL
MODEL 7
REMARK VINA RESULT:    -2.897      1.724      6.208
REMARK INTER + INTRA:          -3.464
REMARK INTER:                  -3.323
REMARK INTRA:                  -0.142
REMARK UNBOUND:                -0.144
REMARK SMILES O=C([O-])C=Cc1ccc(O)cc1
REMARK SMILES IDX 6 1 7 2 12 3 8 4 11 5 9 6 5 7 4 8 2 9 1 10 3 11 10 12
REMARK H PARENT 10 13
REMARK Flexibility Score: inf
ROOT
ATOM      1  C   UNL     1      74.427  41.275  22.043  1.00  0.00    -0.025 A 
ATOM      2  C   UNL     1      75.356  42.097  21.384  1.00  0.00     0.012 A 
ATOM      3  C   UNL     1      74.869  40.480  23.122  1.00  0.00     0.012 A 
ATOM      4  C   UNL     1      76.700  42.109  21.773  1.00  0.00     0.047 A 
ATOM      5  C   UNL     1      76.212  40.496  23.509  1.00  0.00     0.047 A 
ATOM      6  C   UNL     1      77.131  41.307  22.836  1.00  0.00     0.115 A 
ENDROOT
BRANCH   1   7
ATOM      7  C   UNL     1      73.012  41.304  21.599  1.00  0.00     0.010 C 
ATOM      8  C   UNL     1      71.980  40.949  22.376  1.00  0.00     0.025 C 
BRANCH   8   9
ATOM      9  C   UNL     1      70.592  40.983  21.889  1.00  0.00     0.064 C 
ATOM     10  O   UNL     1      70.126  42.054  21.418  1.00  0.00    -0.545 OA
ATOM     11  O   UNL     1      69.786  39.852  21.936  1.00  0.00    -0.545 OA
ENDBRANCH   8   9
ENDBRANCH   1   7
BRANCH   6  12
ATOM     12  O   UNL     1      78.466  41.309  23.233  1.00  0.00    -0.508 OA
ATOM     13  H   UNL     1      79.045  42.135  23.134  1.00  0.00     0.293 HD
ENDBRANCH   6  12
TORSDOF 3
ENDMDL
MODEL 8
REMARK VINA RESULT:    -2.692      3.939      4.664
REMARK INTER + INTRA:          -3.230
REMARK INTER:                  -3.083
REMARK INTRA:                  -0.147
REMARK UNBOUND:                -0.144
REMARK SMILES O=C([O-])C=Cc1ccc(O)cc1
REMARK SMILES IDX 6 1 7 2 12 3 8 4 11 5 9 6 5 7 4 8 2 9 1 10 3 11 10 12
REMARK H PARENT 10 13
REMARK Flexibility Score: inf
ROOT
ATOM      1  C   UNL     1      74.076  38.906  19.939  1.00  0.00    -0.025 A 
ATOM      2  C   UNL     1      74.407  38.666  18.594  1.00  0.00     0.012 A 
ATOM      3  C   UNL     1      73.217  38.001  20.598  1.00  0.00     0.012 A 
ATOM      4  C   UNL     1      73.874  37.566  17.914  1.00  0.00     0.047 A 
ATOM      5  C   UNL     1      72.688  36.902  19.915  1.00  0.00     0.047 A 
ATOM      6  C   UNL     1      73.011  36.683  18.573  1.00  0.00     0.115 A 
ENDROOT
BRANCH   1   7
ATOM      7  C   UNL     1      74.674  40.080  20.620  1.00  0.00     0.010 C 
ATOM      8  C   UNL     1      75.969  40.412  20.534  1.00  0.00     0.025 C 
BRANCH   8   9
ATOM      9  C   UNL     1      76.520  41.581  21.237  1.00  0.00     0.064 C 
ATOM     10  O   UNL     1      75.872  42.097  22.185  1.00  0.00    -0.545 OA
ATOM     11  O   UNL     1      77.747  42.125  20.874  1.00  0.00    -0.545 OA
ENDBRANCH   8   9
ENDBRANCH   1   7
BRANCH   6  12
ATOM     12  O   UNL     1      72.474  35.583  17.907  1.00  0.00    -0.508 OA
ATOM     13  H   UNL     1      73.067  34.885  17.475  1.00  0.00     0.293 HD
ENDBRANCH   6  12
TORSDOF 3
ENDMDL
