MODEL 1
REMARK VINA RESULT:    -5.044      0.000      0.000
REMARK INTER + INTRA:          -5.191
REMARK INTER:                  -5.191
REMARK INTRA:                   0.000
REMARK UNBOUND:                 0.000
REMARK SMILES CC1(C)[C@@H]2CC[C@@]1(C)[C@H](O)C2
REMARK SMILES IDX 1 1 2 2 4 3 5 4 6 5 7 6 9 7 11 8 8 9 3 10 10 11
REMARK H PARENT 10 12
REMARK Flexibility Score: inf
ROOT
ATOM      1  C   UNL     1     118.336 116.398 119.542  1.00  0.00     0.012 C 
ATOM      2  C   UNL     1     118.007 117.890 119.221  1.00  0.00    -0.025 C 
ATOM      3  C   UNL     1     118.011 118.219 117.720  1.00  0.00    -0.002 C 
ATOM      4  C   UNL     1     119.480 117.961 117.304  1.00  0.00     0.005 C 
ATOM      5  C   UNL     1     120.273 118.421 118.545  1.00  0.00     0.010 C 
ATOM      6  C   UNL     1     119.149 118.894 119.509  1.00  0.00    -0.001 C 
ATOM      7  C   UNL     1     118.629 120.238 118.913  1.00  0.00     0.121 C 
ATOM      8  C   UNL     1     117.817 119.758 117.686  1.00  0.00     0.036 C 
ATOM      9  C   UNL     1     119.616 118.986 120.969  1.00  0.00     0.015 C 
ATOM     10  C   UNL     1     116.645 118.181 119.924  1.00  0.00     0.012 C 
ENDROOT
BRANCH   7  11
ATOM     11  O   UNL     1     117.826 120.941 119.827  1.00  0.00    -0.393 OA
ATOM     12  H   UNL     1     118.148 121.880 119.820  1.00  0.00     0.210 HD
ENDBRANCH   7  11
TORSDOF 1
ENDMDL
MODEL 2
REMARK VINA RESULT:    -5.035      1.388      2.224
REMARK INTER + INTRA:          -5.182
REMARK INTER:                  -5.182
REMARK INTRA:                   0.000
REMARK UNBOUND:                 0.000
REMARK SMILES CC1(C)[C@@H]2CC[C@@]1(C)[C@H](O)C2
REMARK SMILES IDX 1 1 2 2 4 3 5 4 6 5 7 6 9 7 11 8 8 9 3 10 10 11
REMARK H PARENT 10 12
REMARK Flexibility Score: inf
ROOT
ATOM      1  C   UNL     1     116.383 119.280 119.593  1.00  0.00     0.012 C 
ATOM      2  C   UNL     1     117.870 119.606 119.250  1.00  0.00    -0.025 C 
ATOM      3  C   UNL     1     118.184 119.573 117.746  1.00  0.00    -0.002 C 
ATOM      4  C   UNL     1     117.925 118.095 117.363  1.00  0.00     0.005 C 
ATOM      5  C   UNL     1     118.401 117.329 118.614  1.00  0.00     0.010 C 
ATOM      6  C   UNL     1     118.880 118.472 119.551  1.00  0.00    -0.001 C 
ATOM      7  C   UNL     1     120.217 118.984 118.930  1.00  0.00     0.121 C 
ATOM      8  C   UNL     1     119.721 119.770 117.693  1.00  0.00     0.036 C 
ATOM      9  C   UNL     1     118.988 118.035 121.018  1.00  0.00     0.015 C 
ATOM     10  C   UNL     1     118.165 120.982 119.923  1.00  0.00     0.012 C 
ENDROOT
BRANCH   7  11
ATOM     11  O   UNL     1     120.927 119.807 119.820  1.00  0.00    -0.393 OA
ATOM     12  H   UNL     1     121.272 120.569 119.285  1.00  0.00     0.210 HD
ENDBRANCH   7  11
TORSDOF 1
ENDMDL
MODEL 3
REMARK VINA RESULT:    -5.021      1.063      1.914
REMARK INTER + INTRA:          -5.168
REMARK INTER:                  -5.168
REMARK INTRA:                   0.000
REMARK UNBOUND:                 0.000
REMARK SMILES CC1(C)[C@@H]2CC[C@@]1(C)[C@H](O)C2
REMARK SMILES IDX 1 1 2 2 4 3 5 4 6 5 7 6 9 7 11 8 8 9 3 10 10 11
REMARK H PARENT 10 12
REMARK Flexibility Score: inf
ROOT
ATOM      1  C   UNL     1     120.919 117.868 118.891  1.00  0.00     0.012 C 
ATOM      2  C   UNL     1     119.547 118.523 119.244  1.00  0.00    -0.025 C 
ATOM      3  C   UNL     1     118.356 117.924 118.481  1.00  0.00    -0.002 C 
ATOM      4  C   UNL     1     118.674 118.264 117.004  1.00  0.00     0.005 C 
ATOM      5  C   UNL     1     119.343 119.650 117.108  1.00  0.00     0.010 C 
ATOM      6  C   UNL     1     119.312 119.928 118.637  1.00  0.00    -0.001 C 
ATOM      7  C   UNL     1     117.820 120.237 118.972  1.00  0.00     0.121 C 
ATOM      8  C   UNL     1     117.169 118.835 118.888  1.00  0.00     0.036 C 
ATOM      9  C   UNL     1     120.299 121.023 119.064  1.00  0.00     0.015 C 
ATOM     10  C   UNL     1     119.418 118.417 120.795  1.00  0.00     0.012 C 
ENDROOT
BRANCH   7  11
ATOM     11  O   UNL     1     117.676 120.802 120.250  1.00  0.00    -0.393 OA
ATOM     12  H   UNL     1     118.056 120.147 120.892  1.00  0.00     0.210 HD
ENDBRANCH   7  11
TORSDOF 1
ENDMDL
MODEL 4
REMARK VINA RESULT:    -5.010      1.379      1.954
REMARK INTER + INTRA:          -5.156
REMARK INTER:                  -5.156
REMARK INTRA:                   0.000
REMARK UNBOUND:                 0.000
REMARK SMILES CC1(C)[C@@H]2CC[C@@]1(C)[C@H](O)C2
REMARK SMILES IDX 1 1 2 2 4 3 5 4 6 5 7 6 9 7 11 8 8 9 3 10 10 11
REMARK H PARENT 10 12
REMARK Flexibility Score: inf
ROOT
ATOM      1  C   UNL     1     117.872 116.750 118.876  1.00  0.00     0.012 C 
ATOM      2  C   UNL     1     118.520 118.096 119.328  1.00  0.00    -0.025 C 
ATOM      3  C   UNL     1     117.797 119.343 118.795  1.00  0.00    -0.002 C 
ATOM      4  C   UNL     1     117.973 119.228 117.261  1.00  0.00     0.005 C 
ATOM      5  C   UNL     1     119.383 118.616 117.124  1.00  0.00     0.010 C 
ATOM      6  C   UNL     1     119.835 118.471 118.603  1.00  0.00    -0.001 C 
ATOM      7  C   UNL     1     120.134 119.923 119.090  1.00  0.00     0.121 C 
ATOM      8  C   UNL     1     118.711 120.512 119.247  1.00  0.00     0.036 C 
ATOM      9  C   UNL     1     121.004 117.491 118.775  1.00  0.00     0.015 C 
ATOM     10  C   UNL     1     118.590 118.028 120.884  1.00  0.00     0.012 C 
ENDROOT
BRANCH   7  11
ATOM     11  O   UNL     1     120.839 119.933 120.305  1.00  0.00    -0.393 OA
ATOM     12  H   UNL     1     120.229 119.548 120.988  1.00  0.00     0.210 HD
ENDBRANCH   7  11
TORSDOF 1
ENDMDL
MODEL 5
REMARK VINA RESULT:    -4.992      1.773      2.859
REMARK INTER + INTRA:          -5.138
REMARK INTER:                  -5.138
REMARK INTRA:                   0.000
REMARK UNBOUND:                 0.000
REMARK SMILES CC1(C)[C@@H]2CC[C@@]1(C)[C@H](O)C2
REMARK SMILES IDX 1 1 2 2 4 3 5 4 6 5 7 6 9 7 11 8 8 9 3 10 10 11
REMARK H PARENT 10 12
REMARK Flexibility Score: inf
ROOT
ATOM      1  C   UNL     1     116.713 119.757 118.913  1.00  0.00     0.012 C 
ATOM      2  C   UNL     1     118.093 119.120 119.270  1.00  0.00    -0.025 C 
ATOM      3  C   UNL     1     119.269 119.692 118.463  1.00  0.00    -0.002 C 
ATOM      4  C   UNL     1     118.928 119.293 117.006  1.00  0.00     0.005 C 
ATOM      5  C   UNL     1     118.266 117.911 117.177  1.00  0.00     0.010 C 
ATOM      6  C   UNL     1     118.323 117.694 118.714  1.00  0.00    -0.001 C 
ATOM      7  C   UNL     1     119.821 117.401 119.036  1.00  0.00     0.121 C 
ATOM      8  C   UNL     1     120.466 118.801 118.886  1.00  0.00     0.036 C 
ATOM      9  C   UNL     1     117.347 116.613 119.201  1.00  0.00     0.015 C 
ATOM     10  C   UNL     1     118.248 119.288 120.812  1.00  0.00     0.012 C 
ENDROOT
BRANCH   7  11
ATOM     11  O   UNL     1     119.988 116.888 120.333  1.00  0.00    -0.393 OA
ATOM     12  H   UNL     1     120.930 117.068 120.589  1.00  0.00     0.210 HD
ENDBRANCH   7  11
TORSDOF 1
ENDMDL
MODEL 6
REMARK VINA RESULT:    -4.979      1.441      2.927
REMARK INTER + INTRA:          -5.124
REMARK INTER:                  -5.124
REMARK INTRA:                   0.000
REMARK UNBOUND:                 0.000
REMARK SMILES CC1(C)[C@@H]2CC[C@@]1(C)[C@H](O)C2
REMARK SMILES IDX 1 1 2 2 4 3 5 4 6 5 7 6 9 7 11 8 8 9 3 10 10 11
REMARK H PARENT 10 12
REMARK Flexibility Score: inf
ROOT
ATOM      1  C   UNL     1     119.752 120.903 118.875  1.00  0.00     0.012 C 
ATOM      2  C   UNL     1     119.150 119.510 119.238  1.00  0.00    -0.025 C 
ATOM      3  C   UNL     1     119.766 118.342 118.451  1.00  0.00    -0.002 C 
ATOM      4  C   UNL     1     119.375 118.657 116.985  1.00  0.00     0.005 C 
ATOM      5  C   UNL     1     117.972 119.281 117.132  1.00  0.00     0.010 C 
ATOM      6  C   UNL     1     117.738 119.233 118.668  1.00  0.00    -0.001 C 
ATOM      7  C   UNL     1     117.484 117.730 119.002  1.00  0.00     0.121 C 
ATOM      8  C   UNL     1     118.903 117.125 118.875  1.00  0.00     0.036 C 
ATOM      9  C   UNL     1     116.624 120.182 119.131  1.00  0.00     0.015 C 
ATOM     10  C   UNL     1     119.304 119.375 120.784  1.00  0.00     0.012 C 
ENDROOT
BRANCH   7  11
ATOM     11  O   UNL     1     116.960 117.562 120.294  1.00  0.00    -0.393 OA
ATOM     12  H   UNL     1     117.701 117.753 120.926  1.00  0.00     0.210 HD
ENDBRANCH   7  11
TORSDOF 1
ENDMDL
MODEL 7
REMARK VINA RESULT:    -4.972      1.398      2.215
REMARK INTER + INTRA:          -5.118
REMARK INTER:                  -5.118
REMARK INTRA:                   0.000
REMARK UNBOUND:                 0.000
REMARK SMILES CC1(C)[C@@H]2CC[C@@]1(C)[C@H](O)C2
REMARK SMILES IDX 1 1 2 2 4 3 5 4 6 5 7 6 9 7 11 8 8 9 3 10 10 11
REMARK H PARENT 10 12
REMARK Flexibility Score: inf
ROOT
ATOM      1  C   UNL     1     121.253 118.249 119.617  1.00  0.00     0.012 C 
ATOM      2  C   UNL     1     119.759 117.950 119.278  1.00  0.00    -0.025 C 
ATOM      3  C   UNL     1     119.454 117.934 117.772  1.00  0.00    -0.002 C 
ATOM      4  C   UNL     1     119.754 119.388 117.333  1.00  0.00     0.005 C 
ATOM      5  C   UNL     1     119.294 120.214 118.552  1.00  0.00     0.010 C 
ATOM      6  C   UNL     1     118.779 119.121 119.529  1.00  0.00    -0.001 C 
ATOM      7  C   UNL     1     117.432 118.622 118.920  1.00  0.00     0.121 C 
ATOM      8  C   UNL     1     117.912 117.776 117.716  1.00  0.00     0.036 C 
ATOM      9  C   UNL     1     118.675 119.617 120.978  1.00  0.00     0.015 C 
ATOM     10  C   UNL     1     119.425 116.609 120.001  1.00  0.00     0.012 C 
ENDROOT
BRANCH   7  11
ATOM     11  O   UNL     1     116.696 117.853 119.837  1.00  0.00    -0.393 OA
ATOM     12  H   UNL     1     116.436 117.021 119.362  1.00  0.00     0.210 HD
ENDBRANCH   7  11
TORSDOF 1
ENDMDL
MODEL 8
REMARK VINA RESULT:    -4.795      1.186      2.852
REMARK INTER + INTRA:          -4.935
REMARK INTER:                  -4.935
REMARK INTRA:                   0.000
REMARK UNBOUND:                 0.000
REMARK SMILES CC1(C)[C@@H]2CC[C@@]1(C)[C@H](O)C2
REMARK SMILES IDX 1 1 2 2 4 3 5 4 6 5 7 6 9 7 11 8 8 9 3 10 10 11
REMARK H PARENT 10 12
REMARK Flexibility Score: inf
ROOT
ATOM      1  C   UNL     1     118.677 118.765 116.774  1.00  0.00     0.012 C 
ATOM      2  C   UNL     1     118.982 119.137 118.259  1.00  0.00    -0.025 C 
ATOM      3  C   UNL     1     119.692 118.025 119.046  1.00  0.00    -0.002 C 
ATOM      4  C   UNL     1     118.654 116.876 119.052  1.00  0.00     0.005 C 
ATOM      5  C   UNL     1     117.311 117.628 119.157  1.00  0.00     0.010 C 
ATOM      6  C   UNL     1     117.759 119.115 119.208  1.00  0.00    -0.001 C 
ATOM      7  C   UNL     1     118.379 119.314 120.626  1.00  0.00     0.121 C 
ATOM      8  C   UNL     1     119.734 118.576 120.495  1.00  0.00     0.036 C 
ATOM      9  C   UNL     1     116.624 120.091 118.870  1.00  0.00     0.015 C 
ATOM     10  C   UNL     1     119.781 120.475 118.201  1.00  0.00     0.012 C 
ENDROOT
BRANCH   7  11
ATOM     11  O   UNL     1     118.554 120.673 120.936  1.00  0.00    -0.393 OA
ATOM     12  H   UNL     1     118.196 120.801 121.853  1.00  0.00     0.210 HD
ENDBRANCH   7  11
TORSDOF 1
ENDMDL
MODEL 9
REMARK VINA RESULT:    -4.631      1.653      3.177
REMARK INTER + INTRA:          -4.766
REMARK INTER:                  -4.766
REMARK INTRA:                   0.000
REMARK UNBOUND:                 0.000
REMARK SMILES CC1(C)[C@@H]2CC[C@@]1(C)[C@H](O)C2
REMARK SMILES IDX 1 1 2 2 4 3 5 4 6 5 7 6 9 7 11 8 8 9 3 10 10 11
REMARK H PARENT 10 12
REMARK Flexibility Score: inf
ROOT
ATOM      1  C   UNL     1     119.555 120.588 118.878  1.00  0.00     0.012 C 
ATOM      2  C   UNL     1     118.940 119.254 119.407  1.00  0.00    -0.025 C 
ATOM      3  C   UNL     1     119.818 118.530 120.439  1.00  0.00    -0.002 C 
ATOM      4  C   UNL     1     121.092 118.174 119.633  1.00  0.00     0.005 C 
ATOM      5  C   UNL     1     120.532 117.856 118.231  1.00  0.00     0.010 C 
ATOM      6  C   UNL     1     119.004 118.062 118.421  1.00  0.00    -0.001 C 
ATOM      7  C   UNL     1     118.523 116.845 119.270  1.00  0.00     0.121 C 
ATOM      8  C   UNL     1     119.070 117.192 120.676  1.00  0.00     0.036 C 
ATOM      9  C   UNL     1     118.258 118.243 117.092  1.00  0.00     0.015 C 
ATOM     10  C   UNL     1     117.522 119.627 119.939  1.00  0.00     0.012 C 
ENDROOT
BRANCH   7  11
ATOM     11  O   UNL     1     117.124 116.726 119.270  1.00  0.00    -0.393 OA
ATOM     12  H   UNL     1     116.763 117.643 119.395  1.00  0.00     0.210 HD
ENDBRANCH   7  11
TORSDOF 1
ENDMDL
