MODEL 1
REMARK VINA RESULT:    -4.042      0.000      0.000
REMARK INTER + INTRA:          -6.007
REMARK INTER:                  -4.987
REMARK INTRA:                  -1.020
REMARK UNBOUND:                -1.020
REMARK SMILES CC(C)=CCC[C@H](C)c1ccc(C)cc1
REMARK SMILES IDX 6 1 7 2 8 3 9 4 13 5 12 6 11 7 14 8 10 9 15 10 5 11 4 12
REMARK SMILES IDX 2 13 1 14 3 15
REMARK H PARENT
REMARK Flexibility Score: inf
ROOT
ATOM      1  C   UNL     1      57.106  76.195 185.892  1.00  0.00     0.012 C 
ENDROOT
BRANCH   1   2
ATOM      2  C   UNL     1      56.558  75.166 186.907  1.00  0.00     0.016 C 
ATOM      3  C   UNL     1      55.638  74.121 186.253  1.00  0.00     0.013 C 
BRANCH   2   4
ATOM      4  C   UNL     1      55.941  75.832 188.128  1.00  0.00    -0.045 A 
ATOM      5  C   UNL     1      54.248  77.586 191.697  1.00  0.00     0.044 C 
ATOM      6  C   UNL     1      54.813  76.987 190.444  1.00  0.00    -0.051 A 
ATOM      7  C   UNL     1      54.531  75.656 190.107  1.00  0.00     0.004 A 
ATOM      8  C   UNL     1      55.690  77.727 189.639  1.00  0.00     0.004 A 
ATOM      9  C   UNL     1      55.088  75.084 188.960  1.00  0.00     0.004 A 
ATOM     10  C   UNL     1      56.249  77.157 188.492  1.00  0.00     0.004 A 
ENDBRANCH   2   4
ENDBRANCH   1   2
BRANCH   1  11
ATOM     11  C   UNL     1      58.618  76.090 185.627  1.00  0.00     0.028 C 
BRANCH  11  12
ATOM     12  C   UNL     1      59.399  76.691 186.769  1.00  0.00    -0.028 C 
ATOM     13  C   UNL     1      59.999  75.973 187.744  1.00  0.00    -0.080 C 
ATOM     14  C   UNL     1      59.985  74.461 187.748  1.00  0.00     0.039 C 
ATOM     15  C   UNL     1      60.714  76.712 188.845  1.00  0.00     0.039 C 
ENDBRANCH  11  12
ENDBRANCH   1  11
TORSDOF 4
ENDMDL
MODEL 2
REMARK VINA RESULT:    -4.034      1.191      1.950
REMARK INTER + INTRA:          -5.997
REMARK INTER:                  -4.564
REMARK INTRA:                  -1.433
REMARK UNBOUND:                -1.020
REMARK SMILES CC(C)=CCC[C@H](C)c1ccc(C)cc1
REMARK SMILES IDX 6 1 7 2 8 3 9 4 13 5 12 6 11 7 14 8 10 9 15 10 5 11 4 12
REMARK SMILES IDX 2 13 1 14 3 15
REMARK H PARENT
REMARK Flexibility Score: inf
ROOT
ATOM      1  C   UNL     1      59.169  76.563 186.767  1.00  0.00     0.012 C 
ENDROOT
BRANCH   1   2
ATOM      2  C   UNL     1      57.731  76.014 186.625  1.00  0.00     0.016 C 
ATOM      3  C   UNL     1      57.131  76.282 185.233  1.00  0.00     0.013 C 
BRANCH   2   4
ATOM      4  C   UNL     1      56.828  76.456 187.766  1.00  0.00    -0.045 A 
ATOM      5  C   UNL     1      54.322  77.575 191.105  1.00  0.00     0.044 C 
ATOM      6  C   UNL     1      55.172  77.195 189.930  1.00  0.00    -0.051 A 
ATOM      7  C   UNL     1      55.133  75.889 189.421  1.00  0.00     0.004 A 
ATOM      8  C   UNL     1      56.068  78.120 189.376  1.00  0.00     0.004 A 
ATOM      9  C   UNL     1      55.952  75.523 188.350  1.00  0.00     0.004 A 
ATOM     10  C   UNL     1      56.888  77.757 188.304  1.00  0.00     0.004 A 
ENDBRANCH   2   4
ENDBRANCH   1   2
BRANCH   1  11
ATOM     11  C   UNL     1      60.034  75.828 187.806  1.00  0.00     0.028 C 
BRANCH  11  12
ATOM     12  C   UNL     1      60.501  76.781 188.877  1.00  0.00    -0.028 C 
ATOM     13  C   UNL     1      60.033  76.791 190.146  1.00  0.00    -0.080 C 
ATOM     14  C   UNL     1      59.013  75.786 190.630  1.00  0.00     0.039 C 
ATOM     15  C   UNL     1      60.566  77.828 191.100  1.00  0.00     0.039 C 
ENDBRANCH  11  12
ENDBRANCH   1  11
TORSDOF 4
ENDMDL
MODEL 3
REMARK VINA RESULT:    -3.976      1.416      4.658
REMARK INTER + INTRA:          -5.925
REMARK INTER:                  -4.434
REMARK INTRA:                  -1.491
REMARK UNBOUND:                -1.020
REMARK SMILES CC(C)=CCC[C@H](C)c1ccc(C)cc1
REMARK SMILES IDX 6 1 7 2 8 3 9 4 13 5 12 6 11 7 14 8 10 9 15 10 5 11 4 12
REMARK SMILES IDX 2 13 1 14 3 15
REMARK H PARENT
REMARK Flexibility Score: inf
ROOT
ATOM      1  C   UNL     1      56.218  74.077 185.095  1.00  0.00     0.012 C 
ENDROOT
BRANCH   1   2
ATOM      2  C   UNL     1      57.724  73.733 185.023  1.00  0.00     0.016 C 
ATOM      3  C   UNL     1      57.989  72.219 185.094  1.00  0.00     0.013 C 
BRANCH   2   4
ATOM      4  C   UNL     1      58.548  74.536 186.018  1.00  0.00    -0.045 A 
ATOM      5  C   UNL     1      61.037  76.726 188.792  1.00  0.00     0.044 C 
ATOM      6  C   UNL     1      60.153  75.967 187.848  1.00  0.00    -0.051 A 
ATOM      7  C   UNL     1      60.160  74.565 187.845  1.00  0.00     0.004 A 
ATOM      8  C   UNL     1      59.368  76.651 186.909  1.00  0.00     0.004 A 
ATOM      9  C   UNL     1      59.366  73.857 186.939  1.00  0.00     0.004 A 
ATOM     10  C   UNL     1      58.573  75.945 186.003  1.00  0.00     0.004 A 
ENDBRANCH   2   4
ENDBRANCH   1   2
BRANCH   1  11
ATOM     11  C   UNL     1      55.528  73.657 186.404  1.00  0.00     0.028 C 
BRANCH  11  12
ATOM     12  C   UNL     1      55.227  74.864 187.257  1.00  0.00    -0.028 C 
ATOM     13  C   UNL     1      55.689  75.043 188.514  1.00  0.00    -0.080 C 
ATOM     14  C   UNL     1      56.616  74.049 189.175  1.00  0.00     0.039 C 
ATOM     15  C   UNL     1      55.275  76.284 189.262  1.00  0.00     0.039 C 
ENDBRANCH  11  12
ENDBRANCH   1  11
TORSDOF 4
ENDMDL
MODEL 4
REMARK VINA RESULT:    -3.958      1.165      1.833
REMARK INTER + INTRA:          -5.903
REMARK INTER:                  -4.602
REMARK INTRA:                  -1.301
REMARK UNBOUND:                -1.020
REMARK SMILES CC(C)=CCC[C@H](C)c1ccc(C)cc1
REMARK SMILES IDX 6 1 7 2 8 3 9 4 13 5 12 6 11 7 14 8 10 9 15 10 5 11 4 12
REMARK SMILES IDX 2 13 1 14 3 15
REMARK H PARENT
REMARK Flexibility Score: inf
ROOT
ATOM      1  C   UNL     1      57.499  73.831 185.858  1.00  0.00     0.012 C 
ENDROOT
BRANCH   1   2
ATOM      2  C   UNL     1      56.559  75.056 185.926  1.00  0.00     0.016 C 
ATOM      3  C   UNL     1      57.194  76.323 185.324  1.00  0.00     0.013 C 
BRANCH   2   4
ATOM      4  C   UNL     1      55.990  75.272 187.320  1.00  0.00    -0.045 A 
ATOM      5  C   UNL     1      54.424  75.716 191.324  1.00  0.00     0.044 C 
ATOM      6  C   UNL     1      54.947  75.577 189.925  1.00  0.00    -0.051 A 
ATOM      7  C   UNL     1      54.560  74.490 189.130  1.00  0.00     0.004 A 
ATOM      8  C   UNL     1      55.885  76.492 189.427  1.00  0.00     0.004 A 
ATOM      9  C   UNL     1      55.075  74.338 187.840  1.00  0.00     0.004 A 
ATOM     10  C   UNL     1      56.403  76.342 188.137  1.00  0.00     0.004 A 
ENDBRANCH   2   4
ENDBRANCH   1   2
BRANCH   1  11
ATOM     11  C   UNL     1      58.996  74.165 185.984  1.00  0.00     0.028 C 
BRANCH  11  12
ATOM     12  C   UNL     1      59.470  73.949 187.399  1.00  0.00    -0.028 C 
ATOM     13  C   UNL     1      59.980  74.921 188.189  1.00  0.00    -0.080 C 
ATOM     14  C   UNL     1      60.074  76.357 187.729  1.00  0.00     0.039 C 
ATOM     15  C   UNL     1      60.450  74.550 189.572  1.00  0.00     0.039 C 
ENDBRANCH  11  12
ENDBRANCH   1  11
TORSDOF 4
ENDMDL
MODEL 5
REMARK VINA RESULT:    -3.816      1.484      3.726
REMARK INTER + INTRA:          -5.728
REMARK INTER:                  -4.755
REMARK INTRA:                  -0.973
REMARK UNBOUND:                -1.020
REMARK SMILES CC(C)=CCC[C@H](C)c1ccc(C)cc1
REMARK SMILES IDX 6 1 7 2 8 3 9 4 13 5 12 6 11 7 14 8 10 9 15 10 5 11 4 12
REMARK SMILES IDX 2 13 1 14 3 15
REMARK H PARENT
REMARK Flexibility Score: inf
ROOT
ATOM      1  C   UNL     1      57.483  76.779 190.454  1.00  0.00     0.012 C 
ENDROOT
BRANCH   1   2
ATOM      2  C   UNL     1      56.907  77.308 189.120  1.00  0.00     0.016 C 
ATOM      3  C   UNL     1      55.994  78.531 189.313  1.00  0.00     0.013 C 
BRANCH   2   4
ATOM      4  C   UNL     1      56.269  76.206 188.289  1.00  0.00    -0.045 A 
ATOM      5  C   UNL     1      54.297  73.161 185.939  1.00  0.00     0.044 C 
ATOM      6  C   UNL     1      54.996  74.198 186.765  1.00  0.00    -0.051 A 
ATOM      7  C   UNL     1      54.480  74.574 188.013  1.00  0.00     0.004 A 
ATOM      8  C   UNL     1      56.130  74.854 186.266  1.00  0.00     0.004 A 
ATOM      9  C   UNL     1      55.110  75.568 188.768  1.00  0.00     0.004 A 
ATOM     10  C   UNL     1      56.762  75.848 187.018  1.00  0.00     0.004 A 
ENDBRANCH   2   4
ENDBRANCH   1   2
BRANCH   1  11
ATOM     11  C   UNL     1      58.661  75.802 190.299  1.00  0.00     0.028 C 
BRANCH  11  12
ATOM     12  C   UNL     1      59.972  76.548 190.299  1.00  0.00    -0.028 C 
ATOM     13  C   UNL     1      60.714  76.785 189.194  1.00  0.00    -0.080 C 
ATOM     14  C   UNL     1      60.256  76.360 187.817  1.00  0.00     0.039 C 
ATOM     15  C   UNL     1      62.024  77.512 189.350  1.00  0.00     0.039 C 
ENDBRANCH  11  12
ENDBRANCH   1  11
TORSDOF 4
ENDMDL
MODEL 6
REMARK VINA RESULT:    -3.815     15.964     17.871
REMARK INTER + INTRA:          -5.727
REMARK INTER:                  -4.427
REMARK INTRA:                  -1.301
REMARK UNBOUND:                -1.020
REMARK SMILES CC(C)=CCC[C@H](C)c1ccc(C)cc1
REMARK SMILES IDX 6 1 7 2 8 3 9 4 13 5 12 6 11 7 14 8 10 9 15 10 5 11 4 12
REMARK SMILES IDX 2 13 1 14 3 15
REMARK H PARENT
REMARK Flexibility Score: inf
ROOT
ATOM      1  C   UNL     1      64.480  68.718 203.020  1.00  0.00     0.012 C 
ENDROOT
BRANCH   1   2
ATOM      2  C   UNL     1      63.900  67.654 202.061  1.00  0.00     0.016 C 
ATOM      3  C   UNL     1      63.192  66.509 202.806  1.00  0.00     0.013 C 
BRANCH   2   4
ATOM      4  C   UNL     1      64.926  67.170 201.047  1.00  0.00    -0.045 A 
ATOM      5  C   UNL     1      67.769  65.907 198.046  1.00  0.00     0.044 C 
ATOM      6  C   UNL     1      66.782  66.320 199.097  1.00  0.00    -0.051 A 
ATOM      7  C   UNL     1      65.408  66.305 198.821  1.00  0.00     0.004 A 
ATOM      8  C   UNL     1      67.227  66.795 200.338  1.00  0.00     0.004 A 
ATOM      9  C   UNL     1      64.488  66.725 199.786  1.00  0.00     0.004 A 
ATOM     10  C   UNL     1      66.310  67.216 201.305  1.00  0.00     0.004 A 
ENDBRANCH   2   4
ENDBRANCH   1   2
BRANCH   1  11
ATOM     11  C   UNL     1      64.411  70.162 202.492  1.00  0.00     0.028 C 
BRANCH  11  12
ATOM     12  C   UNL     1      65.791  70.764 202.411  1.00  0.00    -0.028 C 
ATOM     13  C   UNL     1      66.477  70.948 201.261  1.00  0.00    -0.080 C 
ATOM     14  C   UNL     1      65.883  70.608 199.913  1.00  0.00     0.039 C 
ATOM     15  C   UNL     1      67.865  71.528 201.336  1.00  0.00     0.039 C 
ENDBRANCH  11  12
ENDBRANCH   1  11
TORSDOF 4
ENDMDL
MODEL 7
REMARK VINA RESULT:    -3.787     16.844     18.520
REMARK INTER + INTRA:          -5.692
REMARK INTER:                  -4.196
REMARK INTRA:                  -1.496
REMARK UNBOUND:                -1.020
REMARK SMILES CC(C)=CCC[C@H](C)c1ccc(C)cc1
REMARK SMILES IDX 6 1 7 2 8 3 9 4 13 5 12 6 11 7 14 8 10 9 15 10 5 11 4 12
REMARK SMILES IDX 2 13 1 14 3 15
REMARK H PARENT
REMARK Flexibility Score: inf
ROOT
ATOM      1  C   UNL     1      64.569  70.950 204.422  1.00  0.00     0.012 C 
ENDROOT
BRANCH   1   2
ATOM      2  C   UNL     1      65.088  69.647 203.772  1.00  0.00     0.016 C 
ATOM      3  C   UNL     1      65.648  69.873 202.357  1.00  0.00     0.013 C 
BRANCH   2   4
ATOM      4  C   UNL     1      64.068  68.520 203.842  1.00  0.00    -0.045 A 
ATOM      5  C   UNL     1      61.305  65.201 204.015  1.00  0.00     0.044 C 
ATOM      6  C   UNL     1      62.245  66.367 203.943  1.00  0.00    -0.051 A 
ATOM      7  C   UNL     1      63.113  66.509 202.852  1.00  0.00     0.004 A 
ATOM      8  C   UNL     1      62.316  67.285 205.000  1.00  0.00     0.004 A 
ATOM      9  C   UNL     1      64.016  67.575 202.802  1.00  0.00     0.004 A 
ATOM     10  C   UNL     1      63.218  68.351 204.953  1.00  0.00     0.004 A 
ENDBRANCH   2   4
ENDBRANCH   1   2
BRANCH   1  11
ATOM     11  C   UNL     1      63.679  71.810 203.508  1.00  0.00     0.028 C 
BRANCH  11  12
ATOM     12  C   UNL     1      62.253  71.802 203.996  1.00  0.00    -0.028 C 
ATOM     13  C   UNL     1      61.242  71.145 203.385  1.00  0.00    -0.080 C 
ATOM     14  C   UNL     1      61.468  70.295 202.156  1.00  0.00     0.039 C 
ATOM     15  C   UNL     1      59.856  71.257 203.967  1.00  0.00     0.039 C 
ENDBRANCH  11  12
ENDBRANCH   1  11
TORSDOF 4
ENDMDL
MODEL 8
REMARK VINA RESULT:    -3.734     12.559     14.558
REMARK INTER + INTRA:          -5.627
REMARK INTER:                  -4.512
REMARK INTRA:                  -1.115
REMARK UNBOUND:                -1.020
REMARK SMILES CC(C)=CCC[C@H](C)c1ccc(C)cc1
REMARK SMILES IDX 6 1 7 2 8 3 9 4 13 5 12 6 11 7 14 8 10 9 15 10 5 11 4 12
REMARK SMILES IDX 2 13 1 14 3 15
REMARK H PARENT
REMARK Flexibility Score: inf
ROOT
ATOM      1  C   UNL     1      61.057  74.956 203.847  1.00  0.00     0.012 C 
ENDROOT
BRANCH   1   2
ATOM      2  C   UNL     1      59.569  74.704 204.181  1.00  0.00     0.016 C 
ATOM      3  C   UNL     1      59.206  73.209 204.175  1.00  0.00     0.013 C 
BRANCH   2   4
ATOM      4  C   UNL     1      58.634  75.554 203.335  1.00  0.00    -0.045 A 
ATOM      5  C   UNL     1      55.916  78.047 201.080  1.00  0.00     0.044 C 
ATOM      6  C   UNL     1      56.855  77.162 201.844  1.00  0.00    -0.051 A 
ATOM      7  C   UNL     1      56.381  76.373 202.902  1.00  0.00     0.004 A 
ATOM      8  C   UNL     1      58.227  77.172 201.558  1.00  0.00     0.004 A 
ATOM      9  C   UNL     1      57.261  75.577 203.640  1.00  0.00     0.004 A 
ATOM     10  C   UNL     1      59.109  76.376 202.294  1.00  0.00     0.004 A 
ENDBRANCH   2   4
ENDBRANCH   1   2
BRANCH   1  11
ATOM     11  C   UNL     1      61.709  73.871 202.972  1.00  0.00     0.028 C 
BRANCH  11  12
ATOM     12  C   UNL     1      62.379  74.489 201.771  1.00  0.00    -0.028 C 
ATOM     13  C   UNL     1      61.884  74.441 200.514  1.00  0.00    -0.080 C 
ATOM     14  C   UNL     1      60.555  73.793 200.202  1.00  0.00     0.039 C 
ATOM     15  C   UNL     1      62.683  75.072 199.403  1.00  0.00     0.039 C 
ENDBRANCH  11  12
ENDBRANCH   1  11
TORSDOF 4
ENDMDL
MODEL 9
REMARK VINA RESULT:    -3.713      1.274      3.608
REMARK INTER + INTRA:          -5.601
REMARK INTER:                  -4.334
REMARK INTRA:                  -1.267
REMARK UNBOUND:                -1.020
REMARK SMILES CC(C)=CCC[C@H](C)c1ccc(C)cc1
REMARK SMILES IDX 6 1 7 2 8 3 9 4 13 5 12 6 11 7 14 8 10 9 15 10 5 11 4 12
REMARK SMILES IDX 2 13 1 14 3 15
REMARK H PARENT
REMARK Flexibility Score: inf
ROOT
ATOM      1  C   UNL     1      58.566  75.876 185.841  1.00  0.00     0.012 C 
ENDROOT
BRANCH   1   2
ATOM      2  C   UNL     1      58.705  76.618 187.190  1.00  0.00     0.016 C 
ATOM      3  C   UNL     1      60.104  76.459 187.811  1.00  0.00     0.013 C 
BRANCH   2   4
ATOM      4  C   UNL     1      57.577  76.283 188.154  1.00  0.00    -0.045 A 
ATOM      5  C   UNL     1      54.494  75.300 191.020  1.00  0.00     0.044 C 
ATOM      6  C   UNL     1      55.549  75.629 190.006  1.00  0.00    -0.051 A 
ATOM      7  C   UNL     1      56.614  74.746 189.780  1.00  0.00     0.004 A 
ATOM      8  C   UNL     1      55.520  76.856 189.329  1.00  0.00     0.004 A 
ATOM      9  C   UNL     1      57.618  75.069 188.863  1.00  0.00     0.004 A 
ATOM     10  C   UNL     1      56.523  77.181 188.411  1.00  0.00     0.004 A 
ENDBRANCH   2   4
ENDBRANCH   1   2
BRANCH   1  11
ATOM     11  C   UNL     1      57.128  75.796 185.300  1.00  0.00     0.028 C 
BRANCH  11  12
ATOM     12  C   UNL     1      56.798  74.387 184.875  1.00  0.00    -0.028 C 
ATOM     13  C   UNL     1      55.832  73.628 185.439  1.00  0.00    -0.080 C 
ATOM     14  C   UNL     1      54.938  74.156 186.537  1.00  0.00     0.039 C 
ATOM     15  C   UNL     1      55.639  72.221 184.935  1.00  0.00     0.039 C 
ENDBRANCH  11  12
ENDBRANCH   1  11
TORSDOF 4
ENDMDL
