MODEL 1
REMARK VINA RESULT:    -6.004      0.000      0.000
REMARK INTER + INTRA:          -7.378
REMARK INTER:                  -7.057
REMARK INTRA:                  -0.321
REMARK UNBOUND:                -0.321
REMARK SMILES O=c1c(O)c(-c2ccc(O)c(O)c2)oc2cc(O)ccc12
REMARK SMILES IDX 5 1 3 2 2 3 1 4 21 5 15 6 14 7 16 8 17 9 19 10 20 11 6 12
REMARK SMILES IDX 7 13 8 14 9 15 13 16 11 17 10 18 12 20 4 22 18 24
REMARK H PARENT 10 19 12 21 4 23 18 25
REMARK Flexibility Score: inf
ROOT
ATOM      1  C   UNL     1       4.644 -42.050 -32.515  1.00  0.00     0.180 A 
ATOM      2  C   UNL     1       5.354 -41.574 -33.637  1.00  0.00     0.208 A 
ATOM      3  C   UNL     1       6.443 -42.319 -34.115  1.00  0.00     0.235 A 
ATOM      4  O   UNL     1       7.100 -41.908 -35.111  1.00  0.00    -0.285 OA
ATOM      5  C   UNL     1       6.785 -43.525 -33.482  1.00  0.00     0.069 A 
ATOM      6  C   UNL     1       6.010 -43.946 -32.380  1.00  0.00     0.142 A 
ATOM      7  O   UNL     1       4.993 -43.205 -31.953  1.00  0.00    -0.452 OA
ATOM      8  C   UNL     1       6.314 -45.146 -31.729  1.00  0.00     0.094 A 
ATOM      9  C   UNL     1       7.385 -45.933 -32.163  1.00  0.00     0.119 A 
ATOM     10  C   UNL     1       8.158 -45.518 -33.256  1.00  0.00     0.047 A 
ATOM     11  C   UNL     1       7.861 -44.321 -33.915  1.00  0.00     0.020 A 
ENDROOT
BRANCH   1  12
ATOM     12  C   UNL     1       3.497 -41.312 -31.940  1.00  0.00     0.025 A 
ATOM     13  C   UNL     1       2.200 -41.579 -32.408  1.00  0.00     0.016 A 
ATOM     14  C   UNL     1       1.101 -40.910 -31.865  1.00  0.00     0.051 A 
ATOM     15  C   UNL     1       1.280 -39.976 -30.836  1.00  0.00     0.157 A 
ATOM     16  C   UNL     1       3.669 -40.389 -30.892  1.00  0.00     0.062 A 
ATOM     17  C   UNL     1       2.565 -39.719 -30.346  1.00  0.00     0.158 A 
BRANCH  15  18
ATOM     18  O   UNL     1       0.185 -39.305 -30.294  1.00  0.00    -0.504 OA
ATOM     19  H   UNL     1      -0.607 -39.807 -29.910  1.00  0.00     0.293 HD
ENDBRANCH  15  18
BRANCH  17  20
ATOM     20  O   UNL     1       2.738 -38.800 -29.312  1.00  0.00    -0.504 OA
ATOM     21  H   UNL     1       3.123 -37.878 -29.481  1.00  0.00     0.293 HD
ENDBRANCH  17  20
ENDBRANCH   1  12
BRANCH   2  22
ATOM     22  O   UNL     1       4.959 -40.395 -34.276  1.00  0.00    -0.502 OA
ATOM     23  H   UNL     1       4.062 -39.959 -34.100  1.00  0.00     0.293 HD
ENDBRANCH   2  22
BRANCH   9  24
ATOM     24  O   UNL     1       7.674 -47.125 -31.502  1.00  0.00    -0.508 OA
ATOM     25  H   UNL     1       7.141 -47.426 -30.695  1.00  0.00     0.293 HD
ENDBRANCH   9  24
TORSDOF 5
ENDMDL
MODEL 2
REMARK VINA RESULT:    -5.972      8.058     12.086
REMARK INTER + INTRA:          -7.340
REMARK INTER:                  -7.016
REMARK INTRA:                  -0.324
REMARK UNBOUND:                -0.321
REMARK SMILES O=c1c(O)c(-c2ccc(O)c(O)c2)oc2cc(O)ccc12
REMARK SMILES IDX 5 1 3 2 2 3 1 4 21 5 15 6 14 7 16 8 17 9 19 10 20 11 6 12
REMARK SMILES IDX 7 13 8 14 9 15 13 16 11 17 10 18 12 20 4 22 18 24
REMARK H PARENT 10 19 12 21 4 23 18 25
REMARK Flexibility Score: inf
ROOT
ATOM      1  C   UNL     1       2.951 -32.964 -31.394  1.00  0.00     0.180 A 
ATOM      2  C   UNL     1       2.128 -33.394 -30.332  1.00  0.00     0.208 A 
ATOM      3  C   UNL     1       0.849 -32.833 -30.196  1.00  0.00     0.235 A 
ATOM      4  O   UNL     1       0.098 -33.194 -29.249  1.00  0.00    -0.285 OA
ATOM      5  C   UNL     1       0.412 -31.876 -31.128  1.00  0.00     0.069 A 
ATOM      6  C   UNL     1       1.286 -31.516 -32.176  1.00  0.00     0.142 A 
ATOM      7  O   UNL     1       2.493 -32.065 -32.263  1.00  0.00    -0.452 OA
ATOM      8  C   UNL     1       0.884 -30.574 -33.129  1.00  0.00     0.094 A 
ATOM      9  C   UNL     1      -0.381 -29.983 -33.048  1.00  0.00     0.119 A 
ATOM     10  C   UNL     1      -1.251 -30.337 -32.007  1.00  0.00     0.047 A 
ATOM     11  C   UNL     1      -0.859 -31.280 -31.051  1.00  0.00     0.020 A 
ENDROOT
BRANCH   1  12
ATOM     12  C   UNL     1       4.319 -33.494 -31.593  1.00  0.00     0.025 A 
ATOM     13  C   UNL     1       4.514 -34.601 -32.434  1.00  0.00     0.016 A 
ATOM     14  C   UNL     1       5.798 -35.105 -32.653  1.00  0.00     0.051 A 
ATOM     15  C   UNL     1       6.907 -34.500 -32.047  1.00  0.00     0.157 A 
ATOM     16  C   UNL     1       5.437 -32.876 -31.004  1.00  0.00     0.062 A 
ATOM     17  C   UNL     1       6.727 -33.381 -31.225  1.00  0.00     0.158 A 
BRANCH  15  18
ATOM     18  O   UNL     1       8.189 -35.001 -32.262  1.00  0.00    -0.504 OA
ATOM     19  H   UNL     1       8.354 -35.989 -32.414  1.00  0.00     0.293 HD
ENDBRANCH  15  18
BRANCH  17  20
ATOM     20  O   UNL     1       7.833 -32.773 -30.635  1.00  0.00    -0.504 OA
ATOM     21  H   UNL     1       8.638 -33.312 -30.335  1.00  0.00     0.293 HD
ENDBRANCH  17  20
ENDBRANCH   1  12
BRANCH   2  22
ATOM     22  O   UNL     1       2.571 -34.384 -29.450  1.00  0.00    -0.502 OA
ATOM     23  H   UNL     1       2.413 -34.328 -28.451  1.00  0.00     0.293 HD
ENDBRANCH   2  22
BRANCH   9  24
ATOM     24  O   UNL     1      -0.765 -29.046 -34.004  1.00  0.00    -0.508 OA
ATOM     25  H   UNL     1      -1.707 -28.675 -34.035  1.00  0.00     0.293 HD
ENDBRANCH   9  24
TORSDOF 5
ENDMDL
MODEL 3
REMARK VINA RESULT:    -5.962      6.716      7.681
REMARK INTER + INTRA:          -7.329
REMARK INTER:                  -7.075
REMARK INTRA:                  -0.253
REMARK UNBOUND:                -0.321
REMARK SMILES O=c1c(O)c(-c2ccc(O)c(O)c2)oc2cc(O)ccc12
REMARK SMILES IDX 5 1 3 2 2 3 1 4 21 5 15 6 14 7 16 8 17 9 19 10 20 11 6 12
REMARK SMILES IDX 7 13 8 14 9 15 13 16 11 17 10 18 12 20 4 22 18 24
REMARK H PARENT 10 19 12 21 4 23 18 25
REMARK Flexibility Score: inf
ROOT
ATOM      1  C   UNL     1      10.087 -41.068 -27.578  1.00  0.00     0.180 A 
ATOM      2  C   UNL     1      11.336 -41.579 -27.988  1.00  0.00     0.208 A 
ATOM      3  C   UNL     1      11.466 -42.960 -28.200  1.00  0.00     0.235 A 
ATOM      4  O   UNL     1      12.576 -43.443 -28.557  1.00  0.00    -0.285 OA
ATOM      5  C   UNL     1      10.351 -43.795 -28.018  1.00  0.00     0.069 A 
ATOM      6  C   UNL     1       9.129 -43.204 -27.629  1.00  0.00     0.142 A 
ATOM      7  O   UNL     1       9.051 -41.892 -27.431  1.00  0.00    -0.452 OA
ATOM      8  C   UNL     1       7.994 -44.000 -27.447  1.00  0.00     0.094 A 
ATOM      9  C   UNL     1       8.062 -45.383 -27.647  1.00  0.00     0.119 A 
ATOM     10  C   UNL     1       9.273 -45.973 -28.031  1.00  0.00     0.047 A 
ATOM     11  C   UNL     1      10.413 -45.185 -28.217  1.00  0.00     0.020 A 
ENDROOT
BRANCH   1  12
ATOM     12  C   UNL     1       9.875 -39.627 -27.317  1.00  0.00     0.025 A 
ATOM     13  C   UNL     1      10.387 -39.056 -26.141  1.00  0.00     0.016 A 
ATOM     14  C   UNL     1      10.217 -37.693 -25.884  1.00  0.00     0.051 A 
ATOM     15  C   UNL     1       9.547 -36.879 -26.806  1.00  0.00     0.157 A 
ATOM     16  C   UNL     1       9.220 -38.801 -28.250  1.00  0.00     0.062 A 
ATOM     17  C   UNL     1       9.052 -37.433 -27.993  1.00  0.00     0.158 A 
BRANCH  15  18
ATOM     18  O   UNL     1       9.373 -35.520 -26.553  1.00  0.00    -0.504 OA
ATOM     19  H   UNL     1      10.090 -34.971 -26.092  1.00  0.00     0.293 HD
ENDBRANCH  15  18
BRANCH  17  20
ATOM     20  O   UNL     1       8.397 -36.618 -28.914  1.00  0.00    -0.504 OA
ATOM     21  H   UNL     1       8.143 -36.956 -29.835  1.00  0.00     0.293 HD
ENDBRANCH  17  20
ENDBRANCH   1  12
BRANCH   2  22
ATOM     22  O   UNL     1      12.414 -40.718 -28.209  1.00  0.00    -0.502 OA
ATOM     23  H   UNL     1      13.326 -41.055 -28.496  1.00  0.00     0.293 HD
ENDBRANCH   2  22
BRANCH   9  24
ATOM     24  O   UNL     1       6.921 -46.160 -27.460  1.00  0.00    -0.508 OA
ATOM     25  H   UNL     1       6.969 -47.075 -27.028  1.00  0.00     0.293 HD
ENDBRANCH   9  24
TORSDOF 5
ENDMDL
MODEL 4
REMARK VINA RESULT:    -5.923      8.128     11.598
REMARK INTER + INTRA:          -7.283
REMARK INTER:                  -6.966
REMARK INTRA:                  -0.317
REMARK UNBOUND:                -0.321
REMARK SMILES O=c1c(O)c(-c2ccc(O)c(O)c2)oc2cc(O)ccc12
REMARK SMILES IDX 5 1 3 2 2 3 1 4 21 5 15 6 14 7 16 8 17 9 19 10 20 11 6 12
REMARK SMILES IDX 7 13 8 14 9 15 13 16 11 17 10 18 12 20 4 22 18 24
REMARK H PARENT 10 19 12 21 4 23 18 25
REMARK Flexibility Score: inf
ROOT
ATOM      1  C   UNL     1       2.948 -32.837 -31.614  1.00  0.00     0.180 A 
ATOM      2  C   UNL     1       2.481 -31.855 -32.512  1.00  0.00     0.208 A 
ATOM      3  C   UNL     1       1.175 -31.365 -32.362  1.00  0.00     0.235 A 
ATOM      4  O   UNL     1       0.731 -30.494 -33.160  1.00  0.00    -0.285 OA
ATOM      5  C   UNL     1       0.374 -31.846 -31.314  1.00  0.00     0.069 A 
ATOM      6  C   UNL     1       0.922 -32.812 -30.442  1.00  0.00     0.142 A 
ATOM      7  O   UNL     1       2.161 -33.256 -30.625  1.00  0.00    -0.452 OA
ATOM      8  C   UNL     1       0.159 -33.309 -29.380  1.00  0.00     0.094 A 
ATOM      9  C   UNL     1      -1.148 -32.856 -29.177  1.00  0.00     0.119 A 
ATOM     10  C   UNL     1      -1.697 -31.898 -30.042  1.00  0.00     0.047 A 
ATOM     11  C   UNL     1      -0.941 -31.394 -31.104  1.00  0.00     0.020 A 
ENDROOT
BRANCH   1  12
ATOM     12  C   UNL     1       4.306 -33.416 -31.719  1.00  0.00     0.025 A 
ATOM     13  C   UNL     1       4.513 -34.548 -32.524  1.00  0.00     0.016 A 
ATOM     14  C   UNL     1       5.791 -35.099 -32.654  1.00  0.00     0.051 A 
ATOM     15  C   UNL     1       6.881 -34.517 -31.994  1.00  0.00     0.157 A 
ATOM     16  C   UNL     1       5.408 -32.823 -31.075  1.00  0.00     0.062 A 
ATOM     17  C   UNL     1       6.690 -33.375 -31.207  1.00  0.00     0.158 A 
BRANCH  15  18
ATOM     18  O   UNL     1       8.156 -35.065 -32.120  1.00  0.00    -0.504 OA
ATOM     19  H   UNL     1       8.929 -34.746 -31.547  1.00  0.00     0.293 HD
ENDBRANCH  15  18
BRANCH  17  20
ATOM     20  O   UNL     1       7.780 -32.791 -30.564  1.00  0.00    -0.504 OA
ATOM     21  H   UNL     1       7.798 -32.668 -29.558  1.00  0.00     0.293 HD
ENDBRANCH  17  20
ENDBRANCH   1  12
BRANCH   2  22
ATOM     22  O   UNL     1       3.319 -31.359 -33.516  1.00  0.00    -0.502 OA
ATOM     23  H   UNL     1       2.976 -31.124 -34.440  1.00  0.00     0.293 HD
ENDBRANCH   2  22
BRANCH   9  24
ATOM     24  O   UNL     1      -1.894 -33.362 -28.115  1.00  0.00    -0.508 OA
ATOM     25  H   UNL     1      -2.226 -34.319 -28.110  1.00  0.00     0.293 HD
ENDBRANCH   9  24
TORSDOF 5
ENDMDL
MODEL 5
REMARK VINA RESULT:    -5.858      4.183      6.440
REMARK INTER + INTRA:          -7.206
REMARK INTER:                  -6.925
REMARK INTRA:                  -0.281
REMARK UNBOUND:                -0.321
REMARK SMILES O=c1c(O)c(-c2ccc(O)c(O)c2)oc2cc(O)ccc12
REMARK SMILES IDX 5 1 3 2 2 3 1 4 21 5 15 6 14 7 16 8 17 9 19 10 20 11 6 12
REMARK SMILES IDX 7 13 8 14 9 15 13 16 11 17 10 18 12 20 4 22 18 24
REMARK H PARENT 10 19 12 21 4 23 18 25
REMARK Flexibility Score: inf
ROOT
ATOM      1  C   UNL     1       6.092 -40.470 -29.634  1.00  0.00     0.180 A 
ATOM      2  C   UNL     1       4.915 -39.836 -29.184  1.00  0.00     0.208 A 
ATOM      3  C   UNL     1       3.739 -39.978 -29.936  1.00  0.00     0.235 A 
ATOM      4  O   UNL     1       2.676 -39.412 -29.560  1.00  0.00    -0.285 OA
ATOM      5  C   UNL     1       3.757 -40.760 -31.103  1.00  0.00     0.069 A 
ATOM      6  C   UNL     1       4.969 -41.381 -31.474  1.00  0.00     0.142 A 
ATOM      7  O   UNL     1       6.062 -41.214 -30.737  1.00  0.00    -0.452 OA
ATOM      8  C   UNL     1       5.025 -42.176 -32.623  1.00  0.00     0.094 A 
ATOM      9  C   UNL     1       3.884 -42.358 -33.412  1.00  0.00     0.119 A 
ATOM     10  C   UNL     1       2.679 -41.741 -33.048  1.00  0.00     0.047 A 
ATOM     11  C   UNL     1       2.613 -40.947 -31.899  1.00  0.00     0.020 A 
ENDROOT
BRANCH   1  12
ATOM     12  C   UNL     1       7.376 -40.352 -28.905  1.00  0.00     0.025 A 
ATOM     13  C   UNL     1       7.855 -41.449 -28.171  1.00  0.00     0.016 A 
ATOM     14  C   UNL     1       9.074 -41.367 -27.494  1.00  0.00     0.051 A 
ATOM     15  C   UNL     1       9.838 -40.195 -27.553  1.00  0.00     0.157 A 
ATOM     16  C   UNL     1       8.156 -39.184 -28.979  1.00  0.00     0.062 A 
ATOM     17  C   UNL     1       9.381 -39.103 -28.301  1.00  0.00     0.158 A 
BRANCH  15  18
ATOM     18  O   UNL     1      11.054 -40.109 -26.877  1.00  0.00    -0.504 OA
ATOM     19  H   UNL     1      11.522 -40.935 -26.522  1.00  0.00     0.293 HD
ENDBRANCH  15  18
BRANCH  17  20
ATOM     20  O   UNL     1      10.150 -37.943 -28.369  1.00  0.00    -0.504 OA
ATOM     21  H   UNL     1      10.082 -37.219 -27.663  1.00  0.00     0.293 HD
ENDBRANCH  17  20
ENDBRANCH   1  12
BRANCH   2  22
ATOM     22  O   UNL     1       4.916 -39.105 -27.992  1.00  0.00    -0.502 OA
ATOM     23  H   UNL     1       4.822 -39.548 -27.086  1.00  0.00     0.293 HD
ENDBRANCH   2  22
BRANCH   9  24
ATOM     24  O   UNL     1       3.957 -43.151 -34.554  1.00  0.00    -0.508 OA
ATOM     25  H   UNL     1       3.868 -42.754 -35.482  1.00  0.00     0.293 HD
ENDBRANCH   9  24
TORSDOF 5
ENDMDL
MODEL 6
REMARK VINA RESULT:    -5.842      3.559      5.451
REMARK INTER + INTRA:          -7.187
REMARK INTER:                  -7.204
REMARK INTRA:                   0.017
REMARK UNBOUND:                -0.321
REMARK SMILES O=c1c(O)c(-c2ccc(O)c(O)c2)oc2cc(O)ccc12
REMARK SMILES IDX 5 1 3 2 2 3 1 4 21 5 15 6 14 7 16 8 17 9 19 10 20 11 6 12
REMARK SMILES IDX 7 13 8 14 9 15 13 16 11 17 10 18 12 20 4 22 18 24
REMARK H PARENT 10 19 12 21 4 23 18 25
REMARK Flexibility Score: inf
ROOT
ATOM      1  C   UNL     1       7.020 -44.036 -30.992  1.00  0.00     0.180 A 
ATOM      2  C   UNL     1       7.163 -45.376 -30.575  1.00  0.00     0.208 A 
ATOM      3  C   UNL     1       8.088 -45.677 -29.565  1.00  0.00     0.235 A 
ATOM      4  O   UNL     1       8.242 -46.870 -29.183  1.00  0.00    -0.285 OA
ATOM      5  C   UNL     1       8.833 -44.639 -28.980  1.00  0.00     0.069 A 
ATOM      6  C   UNL     1       8.616 -43.321 -29.436  1.00  0.00     0.142 A 
ATOM      7  O   UNL     1       7.736 -43.081 -30.402  1.00  0.00    -0.452 OA
ATOM      8  C   UNL     1       9.331 -42.259 -28.872  1.00  0.00     0.094 A 
ATOM      9  C   UNL     1      10.265 -42.497 -27.858  1.00  0.00     0.119 A 
ATOM     10  C   UNL     1      10.485 -43.805 -27.404  1.00  0.00     0.047 A 
ATOM     11  C   UNL     1       9.773 -44.872 -27.960  1.00  0.00     0.020 A 
ENDROOT
BRANCH   1  12
ATOM     12  C   UNL     1       6.079 -43.642 -32.064  1.00  0.00     0.025 A 
ATOM     13  C   UNL     1       6.102 -44.329 -33.289  1.00  0.00     0.016 A 
ATOM     14  C   UNL     1       5.208 -43.988 -34.307  1.00  0.00     0.051 A 
ATOM     15  C   UNL     1       4.270 -42.967 -34.111  1.00  0.00     0.157 A 
ATOM     16  C   UNL     1       5.121 -42.632 -31.864  1.00  0.00     0.062 A 
ATOM     17  C   UNL     1       4.223 -42.291 -32.886  1.00  0.00     0.158 A 
BRANCH  15  18
ATOM     18  O   UNL     1       3.378 -42.623 -35.125  1.00  0.00    -0.504 OA
ATOM     19  H   UNL     1       2.507 -42.144 -34.925  1.00  0.00     0.293 HD
ENDBRANCH  15  18
BRANCH  17  20
ATOM     20  O   UNL     1       3.278 -41.285 -32.688  1.00  0.00    -0.504 OA
ATOM     21  H   UNL     1       2.500 -41.156 -33.324  1.00  0.00     0.293 HD
ENDBRANCH  17  20
ENDBRANCH   1  12
BRANCH   2  22
ATOM     22  O   UNL     1       6.372 -46.381 -31.141  1.00  0.00    -0.502 OA
ATOM     23  H   UNL     1       6.768 -47.236 -31.514  1.00  0.00     0.293 HD
ENDBRANCH   2  22
BRANCH   9  24
ATOM     24  O   UNL     1      10.969 -41.428 -27.308  1.00  0.00    -0.508 OA
ATOM     25  H   UNL     1      11.921 -41.222 -27.586  1.00  0.00     0.293 HD
ENDBRANCH   9  24
TORSDOF 5
ENDMDL
MODEL 7
REMARK VINA RESULT:    -5.819      9.772     12.644
REMARK INTER + INTRA:          -7.161
REMARK INTER:                  -6.871
REMARK INTRA:                  -0.290
REMARK UNBOUND:                -0.321
REMARK SMILES O=c1c(O)c(-c2ccc(O)c(O)c2)oc2cc(O)ccc12
REMARK SMILES IDX 5 1 3 2 2 3 1 4 21 5 15 6 14 7 16 8 17 9 19 10 20 11 6 12
REMARK SMILES IDX 7 13 8 14 9 15 13 16 11 17 10 18 12 20 4 22 18 24
REMARK H PARENT 10 19 12 21 4 23 18 25
REMARK Flexibility Score: inf
ROOT
ATOM      1  C   UNL     1       0.299 -30.587 -32.957  1.00  0.00     0.180 A 
ATOM      2  C   UNL     1       1.357 -30.731 -33.879  1.00  0.00     0.208 A 
ATOM      3  C   UNL     1       2.434 -31.567 -33.550  1.00  0.00     0.235 A 
ATOM      4  O   UNL     1       3.397 -31.703 -34.354  1.00  0.00    -0.285 OA
ATOM      5  C   UNL     1       2.424 -32.254 -32.325  1.00  0.00     0.069 A 
ATOM      6  C   UNL     1       1.318 -32.076 -31.466  1.00  0.00     0.142 A 
ATOM      7  O   UNL     1       0.322 -31.268 -31.813  1.00  0.00    -0.452 OA
ATOM      8  C   UNL     1       1.267 -32.751 -30.242  1.00  0.00     0.094 A 
ATOM      9  C   UNL     1       2.310 -33.601 -29.861  1.00  0.00     0.119 A 
ATOM     10  C   UNL     1       3.411 -33.779 -30.710  1.00  0.00     0.047 A 
ATOM     11  C   UNL     1       3.470 -33.111 -31.936  1.00  0.00     0.020 A 
ENDROOT
BRANCH   1  12
ATOM     12  C   UNL     1      -0.863 -29.709 -33.224  1.00  0.00     0.025 A 
ATOM     13  C   UNL     1      -0.881 -28.409 -32.694  1.00  0.00     0.016 A 
ATOM     14  C   UNL     1      -1.957 -27.556 -32.951  1.00  0.00     0.051 A 
ATOM     15  C   UNL     1      -3.023 -27.985 -33.753  1.00  0.00     0.157 A 
ATOM     16  C   UNL     1      -1.925 -30.128 -34.046  1.00  0.00     0.062 A 
ATOM     17  C   UNL     1      -3.005 -29.271 -34.305  1.00  0.00     0.158 A 
BRANCH  15  18
ATOM     18  O   UNL     1      -4.099 -27.138 -34.009  1.00  0.00    -0.504 OA
ATOM     19  H   UNL     1      -5.049 -27.489 -34.064  1.00  0.00     0.293 HD
ENDBRANCH  15  18
BRANCH  17  20
ATOM     20  O   UNL     1      -4.059 -29.690 -35.114  1.00  0.00    -0.504 OA
ATOM     21  H   UNL     1      -3.897 -30.131 -36.012  1.00  0.00     0.293 HD
ENDBRANCH  17  20
ENDBRANCH   1  12
BRANCH   2  22
ATOM     22  O   UNL     1       1.315 -30.073 -35.112  1.00  0.00    -0.502 OA
ATOM     23  H   UNL     1       2.024 -29.406 -35.394  1.00  0.00     0.293 HD
ENDBRANCH   2  22
BRANCH   9  24
ATOM     24  O   UNL     1       2.243 -34.264 -28.638  1.00  0.00    -0.508 OA
ATOM     25  H   UNL     1       1.378 -34.323 -28.113  1.00  0.00     0.293 HD
ENDBRANCH   9  24
TORSDOF 5
ENDMDL
