MODEL 1
REMARK VINA RESULT:    -3.871      0.000      0.000
REMARK INTER + INTRA:          -5.864
REMARK INTER:                  -5.455
REMARK INTRA:                  -0.409
REMARK UNBOUND:                -0.409
REMARK SMILES CCCCCCCCC(=O)[O-]
REMARK SMILES IDX 6 1 7 2 8 3 9 4 10 5 11 6 5 7 4 8 3 9 2 10 1 11
REMARK H PARENT
REMARK Flexibility Score: inf
ROOT
ATOM      1  C   UNL     1       3.175   4.617   3.822  1.00  0.00     0.000 C 
ENDROOT
BRANCH   1   2
ATOM      2  C   UNL     1       4.047   4.612   5.091  1.00  0.00     0.006 C 
BRANCH   2   3
ATOM      3  C   UNL     1       5.339   3.808   4.900  1.00  0.00     0.053 C 
BRANCH   3   4
ATOM      4  C   UNL     1       5.932   3.393   6.212  1.00  0.00     0.041 C 
ATOM      5  O   UNL     1       6.344   2.215   6.378  1.00  0.00    -0.550 OA
ATOM      6  O   UNL     1       6.060   4.317   7.241  1.00  0.00    -0.550 OA
ENDBRANCH   3   4
ENDBRANCH   2   3
ENDBRANCH   1   2
BRANCH   1   7
ATOM      7  C   UNL     1       2.991   6.026   3.235  1.00  0.00     0.000 C 
BRANCH   7   8
ATOM      8  C   UNL     1       1.539   6.523   3.336  1.00  0.00    -0.000 C 
BRANCH   8   9
ATOM      9  C   UNL     1       1.419   7.881   4.052  1.00  0.00    -0.000 C 
BRANCH   9  10
ATOM     10  C   UNL     1       0.624   7.854   5.369  1.00  0.00    -0.003 C 
ATOM     11  C   UNL     1       1.341   7.096   6.486  1.00  0.00     0.004 C 
ENDBRANCH   9  10
ENDBRANCH   8   9
ENDBRANCH   7   8
ENDBRANCH   1   7
TORSDOF 7
ENDMDL
MODEL 2
REMARK VINA RESULT:    -3.772      6.837      7.814
REMARK INTER + INTRA:          -5.725
REMARK INTER:                  -5.323
REMARK INTRA:                  -0.402
REMARK UNBOUND:                -0.409
REMARK SMILES CCCCCCCCC(=O)[O-]
REMARK SMILES IDX 6 1 7 2 8 3 9 4 10 5 11 6 5 7 4 8 3 9 2 10 1 11
REMARK H PARENT
REMARK Flexibility Score: inf
ROOT
ATOM      1  C   UNL     1       4.594   6.534  -1.692  1.00  0.00     0.000 C 
ENDROOT
BRANCH   1   2
ATOM      2  C   UNL     1       5.838   6.542  -2.597  1.00  0.00     0.006 C 
BRANCH   2   3
ATOM      3  C   UNL     1       6.703   5.290  -2.402  1.00  0.00     0.053 C 
BRANCH   3   4
ATOM      4  C   UNL     1       7.866   5.267  -3.347  1.00  0.00     0.041 C 
ATOM      5  O   UNL     1       7.804   5.881  -4.445  1.00  0.00    -0.550 OA
ATOM      6  O   UNL     1       9.031   4.597  -2.998  1.00  0.00    -0.550 OA
ENDBRANCH   3   4
ENDBRANCH   2   3
ENDBRANCH   1   2
BRANCH   1   7
ATOM      7  C   UNL     1       3.285   6.708  -2.481  1.00  0.00     0.000 C 
BRANCH   7   8
ATOM      8  C   UNL     1       2.288   5.565  -2.230  1.00  0.00    -0.000 C 
BRANCH   8   9
ATOM      9  C   UNL     1       2.627   4.737  -0.977  1.00  0.00    -0.000 C 
BRANCH   9  10
ATOM     10  C   UNL     1       1.894   5.170   0.305  1.00  0.00    -0.003 C 
ATOM     11  C   UNL     1       2.810   5.235   1.527  1.00  0.00     0.004 C 
ENDBRANCH   9  10
ENDBRANCH   8   9
ENDBRANCH   7   8
ENDBRANCH   1   7
TORSDOF 7
ENDMDL
MODEL 3
REMARK VINA RESULT:    -3.729     13.937     15.245
REMARK INTER + INTRA:          -5.664
REMARK INTER:                  -5.350
REMARK INTRA:                  -0.315
REMARK UNBOUND:                -0.409
REMARK SMILES CCCCCCCCC(=O)[O-]
REMARK SMILES IDX 6 1 7 2 8 3 9 4 10 5 11 6 5 7 4 8 3 9 2 10 1 11
REMARK H PARENT
REMARK Flexibility Score: inf
ROOT
ATOM      1  C   UNL     1      -2.353  -5.285  -0.978  1.00  0.00     0.000 C 
ENDROOT
BRANCH   1   2
ATOM      2  C   UNL     1      -3.178  -6.048  -2.029  1.00  0.00     0.006 C 
BRANCH   2   3
ATOM      3  C   UNL     1      -4.681  -6.005  -1.727  1.00  0.00     0.053 C 
BRANCH   3   4
ATOM      4  C   UNL     1      -5.501  -6.284  -2.951  1.00  0.00     0.041 C 
ATOM      5  O   UNL     1      -6.490  -7.061  -2.888  1.00  0.00    -0.550 OA
ATOM      6  O   UNL     1      -5.192  -5.658  -4.152  1.00  0.00    -0.550 OA
ENDBRANCH   3   4
ENDBRANCH   2   3
ENDBRANCH   1   2
BRANCH   1   7
ATOM      7  C   UNL     1      -3.162  -4.965   0.291  1.00  0.00     0.000 C 
BRANCH   7   8
ATOM      8  C   UNL     1      -2.284  -4.918   1.554  1.00  0.00    -0.000 C 
BRANCH   8   9
ATOM      9  C   UNL     1      -2.885  -5.709   2.730  1.00  0.00    -0.000 C 
BRANCH   9  10
ATOM     10  C   UNL     1      -1.897  -6.634   3.462  1.00  0.00    -0.003 C 
ATOM     11  C   UNL     1      -0.510  -6.658   2.821  1.00  0.00     0.004 C 
ENDBRANCH   9  10
ENDBRANCH   8   9
ENDBRANCH   7   8
ENDBRANCH   1   7
TORSDOF 7
ENDMDL
MODEL 4
REMARK VINA RESULT:    -3.726     14.062     15.331
REMARK INTER + INTRA:          -5.660
REMARK INTER:                  -5.008
REMARK INTRA:                  -0.652
REMARK UNBOUND:                -0.409
REMARK SMILES CCCCCCCCC(=O)[O-]
REMARK SMILES IDX 6 1 7 2 8 3 9 4 10 5 11 6 5 7 4 8 3 9 2 10 1 11
REMARK H PARENT
REMARK Flexibility Score: inf
ROOT
ATOM      1  C   UNL     1      -3.092  -6.618  -2.529  1.00  0.00     0.000 C 
ENDROOT
BRANCH   1   2
ATOM      2  C   UNL     1      -4.388  -6.336  -1.748  1.00  0.00     0.006 C 
BRANCH   2   3
ATOM      3  C   UNL     1      -5.624  -6.347  -2.656  1.00  0.00     0.053 C 
BRANCH   3   4
ATOM      4  C   UNL     1      -5.582  -5.239  -3.664  1.00  0.00     0.041 C 
ATOM      5  O   UNL     1      -5.761  -5.486  -4.886  1.00  0.00    -0.550 OA
ATOM      6  O   UNL     1      -5.379  -3.930  -3.250  1.00  0.00    -0.550 OA
ENDBRANCH   3   4
ENDBRANCH   2   3
ENDBRANCH   1   2
BRANCH   1   7
ATOM      7  C   UNL     1      -2.095  -5.449  -2.466  1.00  0.00     0.000 C 
BRANCH   7   8
ATOM      8  C   UNL     1      -2.264  -4.597  -1.198  1.00  0.00    -0.000 C 
BRANCH   8   9
ATOM      9  C   UNL     1      -1.079  -4.733  -0.223  1.00  0.00    -0.000 C 
BRANCH   9  10
ATOM     10  C   UNL     1      -1.457  -5.180   1.200  1.00  0.00    -0.003 C 
ATOM     11  C   UNL     1      -2.953  -5.061   1.489  1.00  0.00     0.004 C 
ENDBRANCH   9  10
ENDBRANCH   8   9
ENDBRANCH   7   8
ENDBRANCH   1   7
TORSDOF 7
ENDMDL
MODEL 5
REMARK VINA RESULT:    -3.711      6.145      7.252
REMARK INTER + INTRA:          -5.638
REMARK INTER:                  -5.122
REMARK INTRA:                  -0.517
REMARK UNBOUND:                -0.409
REMARK SMILES CCCCCCCCC(=O)[O-]
REMARK SMILES IDX 6 1 7 2 8 3 9 4 10 5 11 6 5 7 4 8 3 9 2 10 1 11
REMARK H PARENT
REMARK Flexibility Score: inf
ROOT
ATOM      1  C   UNL     1       2.449   4.875  -2.239  1.00  0.00     0.000 C 
ENDROOT
BRANCH   1   2
ATOM      2  C   UNL     1       3.040   6.291  -2.358  1.00  0.00     0.006 C 
BRANCH   2   3
ATOM      3  C   UNL     1       4.444   6.384  -1.746  1.00  0.00     0.053 C 
BRANCH   3   4
ATOM      4  C   UNL     1       5.498   6.546  -2.799  1.00  0.00     0.041 C 
ATOM      5  O   UNL     1       6.500   7.278  -2.586  1.00  0.00    -0.550 OA
ATOM      6  O   UNL     1       5.390   5.860  -4.002  1.00  0.00    -0.550 OA
ENDBRANCH   3   4
ENDBRANCH   2   3
ENDBRANCH   1   2
BRANCH   1   7
ATOM      7  C   UNL     1       1.064   4.866  -1.569  1.00  0.00     0.000 C 
BRANCH   7   8
ATOM      8  C   UNL     1       1.104   4.303  -0.139  1.00  0.00    -0.000 C 
BRANCH   8   9
ATOM      9  C   UNL     1       1.433   5.374   0.918  1.00  0.00    -0.000 C 
BRANCH   9  10
ATOM     10  C   UNL     1       2.814   5.230   1.580  1.00  0.00    -0.003 C 
ATOM     11  C   UNL     1       2.885   5.873   2.965  1.00  0.00     0.004 C 
ENDBRANCH   9  10
ENDBRANCH   8   9
ENDBRANCH   7   8
ENDBRANCH   1   7
TORSDOF 7
ENDMDL
MODEL 6
REMARK VINA RESULT:    -3.684     15.057     16.287
REMARK INTER + INTRA:          -5.600
REMARK INTER:                  -5.261
REMARK INTRA:                  -0.339
REMARK UNBOUND:                -0.409
REMARK SMILES CCCCCCCCC(=O)[O-]
REMARK SMILES IDX 6 1 7 2 8 3 9 4 10 5 11 6 5 7 4 8 3 9 2 10 1 11
REMARK H PARENT
REMARK Flexibility Score: inf
ROOT
ATOM      1  C   UNL     1      -4.495  -6.637  -1.994  1.00  0.00     0.000 C 
ENDROOT
BRANCH   1   2
ATOM      2  C   UNL     1      -5.475  -6.201  -3.097  1.00  0.00     0.006 C 
BRANCH   2   3
ATOM      3  C   UNL     1      -6.668  -5.417  -2.533  1.00  0.00     0.053 C 
BRANCH   3   4
ATOM      4  C   UNL     1      -7.765  -5.274  -3.543  1.00  0.00     0.041 C 
ATOM      5  O   UNL     1      -7.726  -5.929  -4.618  1.00  0.00    -0.550 OA
ATOM      6  O   UNL     1      -8.846  -4.443  -3.282  1.00  0.00    -0.550 OA
ENDBRANCH   3   4
ENDBRANCH   2   3
ENDBRANCH   1   2
BRANCH   1   7
ATOM      7  C   UNL     1      -3.028  -6.356  -2.360  1.00  0.00     0.000 C 
BRANCH   7   8
ATOM      8  C   UNL     1      -2.405  -5.247  -1.496  1.00  0.00    -0.000 C 
BRANCH   8   9
ATOM      9  C   UNL     1      -3.129  -5.059  -0.150  1.00  0.00    -0.000 C 
BRANCH   9  10
ATOM     10  C   UNL     1      -2.210  -5.028   1.083  1.00  0.00    -0.003 C 
ATOM     11  C   UNL     1      -2.939  -5.365   2.383  1.00  0.00     0.004 C 
ENDBRANCH   9  10
ENDBRANCH   8   9
ENDBRANCH   7   8
ENDBRANCH   1   7
TORSDOF 7
ENDMDL
MODEL 7
REMARK VINA RESULT:    -3.669      5.510      6.459
REMARK INTER + INTRA:          -5.579
REMARK INTER:                  -5.230
REMARK INTRA:                  -0.349
REMARK UNBOUND:                -0.409
REMARK SMILES CCCCCCCCC(=O)[O-]
REMARK SMILES IDX 6 1 7 2 8 3 9 4 10 5 11 6 5 7 4 8 3 9 2 10 1 11
REMARK H PARENT
REMARK Flexibility Score: inf
ROOT
ATOM      1  C   UNL     1       2.436   5.258  -0.673  1.00  0.00     0.000 C 
ENDROOT
BRANCH   1   2
ATOM      2  C   UNL     1       3.935   5.598  -0.760  1.00  0.00     0.006 C 
BRANCH   2   3
ATOM      3  C   UNL     1       4.215   6.718  -1.770  1.00  0.00     0.053 C 
BRANCH   3   4
ATOM      4  C   UNL     1       5.185   6.282  -2.826  1.00  0.00     0.041 C 
ATOM      5  O   UNL     1       4.864   5.385  -3.650  1.00  0.00    -0.550 OA
ATOM      6  O   UNL     1       6.429   6.892  -2.921  1.00  0.00    -0.550 OA
ENDBRANCH   3   4
ENDBRANCH   2   3
ENDBRANCH   1   2
BRANCH   1   7
ATOM      7  C   UNL     1       1.897   5.321   0.766  1.00  0.00     0.000 C 
BRANCH   7   8
ATOM      8  C   UNL     1       2.982   5.030   1.817  1.00  0.00    -0.000 C 
BRANCH   8   9
ATOM      9  C   UNL     1       2.975   6.038   2.980  1.00  0.00    -0.000 C 
BRANCH   9  10
ATOM     10  C   UNL     1       1.590   6.316   3.591  1.00  0.00    -0.003 C 
ATOM     11  C   UNL     1       1.366   7.790   3.925  1.00  0.00     0.004 C 
ENDBRANCH   9  10
ENDBRANCH   8   9
ENDBRANCH   7   8
ENDBRANCH   1   7
TORSDOF 7
ENDMDL
MODEL 8
REMARK VINA RESULT:    -3.651     12.347     13.490
REMARK INTER + INTRA:          -5.554
REMARK INTER:                  -5.049
REMARK INTRA:                  -0.505
REMARK UNBOUND:                -0.409
REMARK SMILES CCCCCCCCC(=O)[O-]
REMARK SMILES IDX 6 1 7 2 8 3 9 4 10 5 11 6 5 7 4 8 3 9 2 10 1 11
REMARK H PARENT
REMARK Flexibility Score: inf
ROOT
ATOM      1  C   UNL     1      -3.352  -4.286   3.566  1.00  0.00     0.000 C 
ENDROOT
BRANCH   1   2
ATOM      2  C   UNL     1      -4.446  -4.510   4.625  1.00  0.00     0.006 C 
BRANCH   2   3
ATOM      3  C   UNL     1      -4.293  -3.562   5.822  1.00  0.00     0.053 C 
BRANCH   3   4
ATOM      4  C   UNL     1      -5.586  -3.388   6.559  1.00  0.00     0.041 C 
ATOM      5  O   UNL     1      -5.996  -4.285   7.341  1.00  0.00    -0.550 OA
ATOM      6  O   UNL     1      -6.319  -2.218   6.408  1.00  0.00    -0.550 OA
ENDBRANCH   3   4
ENDBRANCH   2   3
ENDBRANCH   1   2
BRANCH   1   7
ATOM      7  C   UNL     1      -2.938  -5.588   2.858  1.00  0.00     0.000 C 
BRANCH   7   8
ATOM      8  C   UNL     1      -1.522  -6.046   3.245  1.00  0.00    -0.000 C 
BRANCH   8   9
ATOM      9  C   UNL     1      -1.494  -7.463   3.845  1.00  0.00    -0.000 C 
BRANCH   9  10
ATOM     10  C   UNL     1      -1.092  -7.533   5.328  1.00  0.00    -0.003 C 
ATOM     11  C   UNL     1      -1.297  -6.212   6.068  1.00  0.00     0.004 C 
ENDBRANCH   9  10
ENDBRANCH   8   9
ENDBRANCH   7   8
ENDBRANCH   1   7
TORSDOF 7
ENDMDL
MODEL 9
REMARK VINA RESULT:    -3.623     12.794     13.956
REMARK INTER + INTRA:          -5.514
REMARK INTER:                  -5.197
REMARK INTRA:                  -0.317
REMARK UNBOUND:                -0.409
REMARK SMILES CCCCCCCCC(=O)[O-]
REMARK SMILES IDX 6 1 7 2 8 3 9 4 10 5 11 6 5 7 4 8 3 9 2 10 1 11
REMARK H PARENT
REMARK Flexibility Score: inf
ROOT
ATOM      1  C   UNL     1      -2.612  -4.656   1.370  1.00  0.00     0.000 C 
ENDROOT
BRANCH   1   2
ATOM      2  C   UNL     1      -2.996  -5.678   2.455  1.00  0.00     0.006 C 
BRANCH   2   3
ATOM      3  C   UNL     1      -1.961  -5.735   3.587  1.00  0.00     0.053 C 
BRANCH   3   4
ATOM      4  C   UNL     1      -0.973  -6.842   3.379  1.00  0.00     0.041 C 
ATOM      5  O   UNL     1       0.089  -6.631   2.735  1.00  0.00    -0.550 OA
ATOM      6  O   UNL     1      -1.208  -8.096   3.926  1.00  0.00    -0.550 OA
ENDBRANCH   3   4
ENDBRANCH   2   3
ENDBRANCH   1   2
BRANCH   1   7
ATOM      7  C   UNL     1      -3.349  -4.898   0.042  1.00  0.00     0.000 C 
BRANCH   7   8
ATOM      8  C   UNL     1      -2.396  -5.299  -1.097  1.00  0.00    -0.000 C 
BRANCH   8   9
ATOM      9  C   UNL     1      -3.084  -6.149  -2.181  1.00  0.00    -0.000 C 
BRANCH   9  10
ATOM     10  C   UNL     1      -4.520  -6.589  -1.848  1.00  0.00    -0.003 C 
ATOM     11  C   UNL     1      -5.535  -6.176  -2.914  1.00  0.00     0.004 C 
ENDBRANCH   9  10
ENDBRANCH   8   9
ENDBRANCH   7   8
ENDBRANCH   1   7
TORSDOF 7
ENDMDL
