MODEL 1
REMARK VINA RESULT:    -5.120      0.000      0.000
REMARK INTER + INTRA:         -11.844
REMARK INTER:                  -9.909
REMARK INTRA:                  -1.935
REMARK UNBOUND:                -1.935
REMARK SMILES CCCCCCCCCCCCCCCCCC(=O)[O-]
REMARK SMILES IDX 10 1 11 2 12 3 13 4 14 5 15 6 16 7 17 8 18 9 19 10 20 11
REMARK SMILES IDX 9 12 8 13 7 14 6 15 5 16 4 17 3 18 2 19 1 20
REMARK H PARENT
REMARK Flexibility Score: inf
ROOT
ATOM      1  C   UNL     1      31.464  -7.918  12.029  1.00  0.00     0.000 C 
ENDROOT
BRANCH   1   2
ATOM      2  C   UNL     1      30.872  -8.811  13.131  1.00  0.00     0.000 C 
BRANCH   2   3
ATOM      3  C   UNL     1      30.527 -10.224  12.626  1.00  0.00     0.000 C 
BRANCH   3   4
ATOM      4  C   UNL     1      29.581 -10.974  13.577  1.00  0.00     0.000 C 
BRANCH   4   5
ATOM      5  C   UNL     1      28.913 -10.042  14.602  1.00  0.00     0.000 C 
BRANCH   5   6
ATOM      6  C   UNL     1      27.501 -10.508  14.989  1.00  0.00     0.000 C 
BRANCH   6   7
ATOM      7  C   UNL     1      27.234 -11.972  14.602  1.00  0.00     0.006 C 
BRANCH   7   8
ATOM      8  C   UNL     1      27.208 -12.900  15.825  1.00  0.00     0.053 C 
BRANCH   8   9
ATOM      9  C   UNL     1      28.535 -13.560  16.049  1.00  0.00     0.041 C 
ATOM     10  O   UNL     1      29.413 -12.993  16.750  1.00  0.00    -0.550 OA
ATOM     11  O   UNL     1      28.787 -14.818  15.514  1.00  0.00    -0.550 OA
ENDBRANCH   8   9
ENDBRANCH   7   8
ENDBRANCH   6   7
ENDBRANCH   5   6
ENDBRANCH   4   5
ENDBRANCH   3   4
ENDBRANCH   2   3
ENDBRANCH   1   2
BRANCH   1  12
ATOM     12  C   UNL     1      30.667  -6.620  11.829  1.00  0.00     0.000 C 
BRANCH  12  13
ATOM     13  C   UNL     1      31.549  -5.522  11.224  1.00  0.00    -0.000 C 
BRANCH  13  14
ATOM     14  C   UNL     1      32.994  -5.634  11.730  1.00  0.00    -0.000 C 
BRANCH  14  15
ATOM     15  C   UNL     1      34.038  -5.362  10.633  1.00  0.00    -0.000 C 
BRANCH  15  16
ATOM     16  C   UNL     1      34.546  -6.642   9.936  1.00  0.00    -0.000 C 
BRANCH  16  17
ATOM     17  C   UNL     1      33.857  -6.875   8.580  1.00  0.00    -0.000 C 
BRANCH  17  18
ATOM     18  C   UNL     1      32.957  -8.120   8.581  1.00  0.00    -0.000 C 
BRANCH  18  19
ATOM     19  C   UNL     1      31.484  -7.777   8.310  1.00  0.00    -0.003 C 
ATOM     20  C   UNL     1      31.356  -6.443   7.582  1.00  0.00     0.004 C 
ENDBRANCH  18  19
ENDBRANCH  17  18
ENDBRANCH  16  17
ENDBRANCH  15  16
ENDBRANCH  14  15
ENDBRANCH  13  14
ENDBRANCH  12  13
ENDBRANCH   1  12
TORSDOF 16
ENDMDL
MODEL 2
REMARK VINA RESULT:    -4.981      1.615      3.109
REMARK INTER + INTRA:         -11.575
REMARK INTER:                  -9.889
REMARK INTRA:                  -1.687
REMARK UNBOUND:                -1.935
REMARK SMILES CCCCCCCCCCCCCCCCCC(=O)[O-]
REMARK SMILES IDX 10 1 11 2 12 3 13 4 14 5 15 6 16 7 17 8 18 9 19 10 20 11
REMARK SMILES IDX 9 12 8 13 7 14 6 15 5 16 4 17 3 18 2 19 1 20
REMARK H PARENT
REMARK Flexibility Score: inf
ROOT
ATOM      1  C   UNL     1      30.885  -9.841  14.659  1.00  0.00     0.000 C 
ENDROOT
BRANCH   1   2
ATOM      2  C   UNL     1      30.813  -9.191  16.050  1.00  0.00     0.000 C 
BRANCH   2   3
ATOM      3  C   UNL     1      29.366  -8.986  16.534  1.00  0.00     0.000 C 
BRANCH   3   4
ATOM      4  C   UNL     1      28.348  -9.031  15.384  1.00  0.00     0.000 C 
BRANCH   4   5
ATOM      5  C   UNL     1      27.369 -10.211  15.508  1.00  0.00     0.000 C 
BRANCH   5   6
ATOM      6  C   UNL     1      27.150 -10.939  14.173  1.00  0.00     0.000 C 
BRANCH   6   7
ATOM      7  C   UNL     1      28.068 -12.162  14.009  1.00  0.00     0.006 C 
BRANCH   7   8
ATOM      8  C   UNL     1      27.527 -13.396  14.745  1.00  0.00     0.053 C 
BRANCH   8   9
ATOM      9  C   UNL     1      28.512 -13.924  15.743  1.00  0.00     0.041 C 
ATOM     10  O   UNL     1      29.043 -15.052  15.572  1.00  0.00    -0.550 OA
ATOM     11  O   UNL     1      28.871 -13.153  16.842  1.00  0.00    -0.550 OA
ENDBRANCH   8   9
ENDBRANCH   7   8
ENDBRANCH   6   7
ENDBRANCH   5   6
ENDBRANCH   4   5
ENDBRANCH   3   4
ENDBRANCH   2   3
ENDBRANCH   1   2
BRANCH   1  12
ATOM     12  C   UNL     1      31.757  -9.041  13.679  1.00  0.00     0.000 C 
BRANCH  12  13
ATOM     13  C   UNL     1      30.954  -8.634  12.438  1.00  0.00    -0.000 C 
BRANCH  13  14
ATOM     14  C   UNL     1      30.584  -7.145  12.485  1.00  0.00    -0.000 C 
BRANCH  14  15
ATOM     15  C   UNL     1      30.998  -6.383  11.214  1.00  0.00    -0.000 C 
BRANCH  15  16
ATOM     16  C   UNL     1      32.228  -5.472  11.416  1.00  0.00    -0.000 C 
BRANCH  16  17
ATOM     17  C   UNL     1      33.227  -5.584  10.251  1.00  0.00    -0.000 C 
BRANCH  17  18
ATOM     18  C   UNL     1      34.430  -6.479  10.587  1.00  0.00    -0.000 C 
BRANCH  18  19
ATOM     19  C   UNL     1      34.367  -7.028  12.021  1.00  0.00    -0.003 C 
ATOM     20  C   UNL     1      35.641  -7.791  12.372  1.00  0.00     0.004 C 
ENDBRANCH  18  19
ENDBRANCH  17  18
ENDBRANCH  16  17
ENDBRANCH  15  16
ENDBRANCH  14  15
ENDBRANCH  13  14
ENDBRANCH  12  13
ENDBRANCH   1  12
TORSDOF 16
ENDMDL
MODEL 3
REMARK VINA RESULT:    -4.973      1.318      2.301
REMARK INTER + INTRA:         -11.560
REMARK INTER:                  -9.663
REMARK INTRA:                  -1.897
REMARK UNBOUND:                -1.935
REMARK SMILES CCCCCCCCCCCCCCCCCC(=O)[O-]
REMARK SMILES IDX 10 1 11 2 12 3 13 4 14 5 15 6 16 7 17 8 18 9 19 10 20 11
REMARK SMILES IDX 9 12 8 13 7 14 6 15 5 16 4 17 3 18 2 19 1 20
REMARK H PARENT
REMARK Flexibility Score: inf
ROOT
ATOM      1  C   UNL     1      31.511  -8.740  11.537  1.00  0.00     0.000 C 
ENDROOT
BRANCH   1   2
ATOM      2  C   UNL     1      31.550  -9.903  12.542  1.00  0.00     0.000 C 
BRANCH   2   3
ATOM      3  C   UNL     1      30.161 -10.520  12.788  1.00  0.00     0.000 C 
BRANCH   3   4
ATOM      4  C   UNL     1      29.838 -10.663  14.283  1.00  0.00     0.000 C 
BRANCH   4   5
ATOM      5  C   UNL     1      28.713  -9.718  14.738  1.00  0.00     0.000 C 
BRANCH   5   6
ATOM      6  C   UNL     1      27.498 -10.473  15.297  1.00  0.00     0.000 C 
BRANCH   6   7
ATOM      7  C   UNL     1      27.208 -11.776  14.532  1.00  0.00     0.006 C 
BRANCH   7   8
ATOM      8  C   UNL     1      27.294 -13.012  15.439  1.00  0.00     0.053 C 
BRANCH   8   9
ATOM      9  C   UNL     1      27.941 -14.170  14.740  1.00  0.00     0.041 C 
ATOM     10  O   UNL     1      27.741 -14.359  13.511  1.00  0.00    -0.550 OA
ATOM     11  O   UNL     1      28.793 -15.016  15.437  1.00  0.00    -0.550 OA
ENDBRANCH   8   9
ENDBRANCH   7   8
ENDBRANCH   6   7
ENDBRANCH   5   6
ENDBRANCH   4   5
ENDBRANCH   3   4
ENDBRANCH   2   3
ENDBRANCH   1   2
BRANCH   1  12
ATOM     12  C   UNL     1      30.932  -7.454  12.145  1.00  0.00     0.000 C 
BRANCH  12  13
ATOM     13  C   UNL     1      31.070  -6.277  11.171  1.00  0.00    -0.000 C 
BRANCH  13  14
ATOM     14  C   UNL     1      32.142  -5.289  11.647  1.00  0.00    -0.000 C 
BRANCH  14  15
ATOM     15  C   UNL     1      33.383  -5.263  10.737  1.00  0.00    -0.000 C 
BRANCH  15  16
ATOM     16  C   UNL     1      33.252  -6.166   9.493  1.00  0.00    -0.000 C 
BRANCH  16  17
ATOM     17  C   UNL     1      34.428  -7.151   9.367  1.00  0.00    -0.000 C 
BRANCH  17  18
ATOM     18  C   UNL     1      35.334  -7.150  10.608  1.00  0.00    -0.000 C 
BRANCH  18  19
ATOM     19  C   UNL     1      35.075  -8.357  11.522  1.00  0.00    -0.003 C 
ATOM     20  C   UNL     1      34.882  -7.916  12.970  1.00  0.00     0.004 C 
ENDBRANCH  18  19
ENDBRANCH  17  18
ENDBRANCH  16  17
ENDBRANCH  15  16
ENDBRANCH  14  15
ENDBRANCH  13  14
ENDBRANCH  12  13
ENDBRANCH   1  12
TORSDOF 16
ENDMDL
MODEL 4
REMARK VINA RESULT:    -4.948      3.381      7.972
REMARK INTER + INTRA:         -11.512
REMARK INTER:                  -9.193
REMARK INTRA:                  -2.319
REMARK UNBOUND:                -1.935
REMARK SMILES CCCCCCCCCCCCCCCCCC(=O)[O-]
REMARK SMILES IDX 10 1 11 2 12 3 13 4 14 5 15 6 16 7 17 8 18 9 19 10 20 11
REMARK SMILES IDX 9 12 8 13 7 14 6 15 5 16 4 17 3 18 2 19 1 20
REMARK H PARENT
REMARK Flexibility Score: inf
ROOT
ATOM      1  C   UNL     1      31.511 -10.130  12.923  1.00  0.00     0.000 C 
ENDROOT
BRANCH   1   2
ATOM      2  C   UNL     1      31.697  -8.636  13.228  1.00  0.00     0.000 C 
BRANCH   2   3
ATOM      3  C   UNL     1      30.412  -7.820  12.999  1.00  0.00     0.000 C 
BRANCH   3   4
ATOM      4  C   UNL     1      30.628  -6.637  12.043  1.00  0.00     0.000 C 
BRANCH   4   5
ATOM      5  C   UNL     1      31.154  -7.078  10.666  1.00  0.00     0.000 C 
BRANCH   5   6
ATOM      6  C   UNL     1      32.178  -6.093  10.082  1.00  0.00     0.000 C 
BRANCH   6   7
ATOM      7  C   UNL     1      33.103  -5.496  11.157  1.00  0.00     0.006 C 
BRANCH   7   8
ATOM      8  C   UNL     1      34.551  -5.982  11.012  1.00  0.00     0.053 C 
BRANCH   8   9
ATOM      9  C   UNL     1      34.728  -7.369  11.552  1.00  0.00     0.041 C 
ATOM     10  O   UNL     1      34.586  -8.366  10.796  1.00  0.00    -0.550 OA
ATOM     11  O   UNL     1      35.085  -7.559  12.881  1.00  0.00    -0.550 OA
ENDBRANCH   8   9
ENDBRANCH   7   8
ENDBRANCH   6   7
ENDBRANCH   5   6
ENDBRANCH   4   5
ENDBRANCH   3   4
ENDBRANCH   2   3
ENDBRANCH   1   2
BRANCH   1  12
ATOM     12  C   UNL     1      30.035 -10.517  12.742  1.00  0.00     0.000 C 
BRANCH  12  13
ATOM     13  C   UNL     1      29.506 -11.253  13.978  1.00  0.00    -0.000 C 
BRANCH  13  14
ATOM     14  C   UNL     1      27.976 -11.173  14.056  1.00  0.00    -0.000 C 
BRANCH  14  15
ATOM     15  C   UNL     1      27.476 -10.384  15.278  1.00  0.00    -0.000 C 
BRANCH  15  16
ATOM     16  C   UNL     1      28.252  -9.072  15.522  1.00  0.00    -0.000 C 
BRANCH  16  17
ATOM     17  C   UNL     1      28.910  -9.039  16.913  1.00  0.00    -0.000 C 
BRANCH  17  18
ATOM     18  C   UNL     1      30.415  -8.737  16.846  1.00  0.00    -0.000 C 
BRANCH  18  19
ATOM     19  C   UNL     1      31.266 -10.015  16.794  1.00  0.00    -0.003 C 
ATOM     20  C   UNL     1      32.648  -9.779  17.396  1.00  0.00     0.004 C 
ENDBRANCH  18  19
ENDBRANCH  17  18
ENDBRANCH  16  17
ENDBRANCH  15  16
ENDBRANCH  14  15
ENDBRANCH  13  14
ENDBRANCH  12  13
ENDBRANCH   1  12
TORSDOF 16
ENDMDL
MODEL 5
REMARK VINA RESULT:    -4.911      3.864      8.461
REMARK INTER + INTRA:         -11.440
REMARK INTER:                  -9.257
REMARK INTRA:                  -2.183
REMARK UNBOUND:                -1.935
REMARK SMILES CCCCCCCCCCCCCCCCCC(=O)[O-]
REMARK SMILES IDX 10 1 11 2 12 3 13 4 14 5 15 6 16 7 17 8 18 9 19 10 20 11
REMARK SMILES IDX 9 12 8 13 7 14 6 15 5 16 4 17 3 18 2 19 1 20
REMARK H PARENT
REMARK Flexibility Score: inf
ROOT
ATOM      1  C   UNL     1      31.925 -11.826  15.634  1.00  0.00     0.000 C 
ENDROOT
BRANCH   1   2
ATOM      2  C   UNL     1      31.772 -10.427  15.016  1.00  0.00     0.000 C 
BRANCH   2   3
ATOM      3  C   UNL     1      31.644 -10.468  13.482  1.00  0.00     0.000 C 
BRANCH   3   4
ATOM      4  C   UNL     1      30.713  -9.372  12.940  1.00  0.00     0.000 C 
BRANCH   4   5
ATOM      5  C   UNL     1      31.469  -8.085  12.569  1.00  0.00     0.000 C 
BRANCH   5   6
ATOM      6  C   UNL     1      30.536  -6.982  12.048  1.00  0.00     0.000 C 
BRANCH   6   7
ATOM      7  C   UNL     1      31.304  -5.759  11.518  1.00  0.00     0.006 C 
BRANCH   7   8
ATOM      8  C   UNL     1      32.823  -5.974  11.540  1.00  0.00     0.053 C 
BRANCH   8   9
ATOM      9  C   UNL     1      33.416  -5.887  10.166  1.00  0.00     0.041 C 
ATOM     10  O   UNL     1      34.660  -5.758  10.021  1.00  0.00    -0.550 OA
ATOM     11  O   UNL     1      32.599  -5.985   9.047  1.00  0.00    -0.550 OA
ENDBRANCH   8   9
ENDBRANCH   7   8
ENDBRANCH   6   7
ENDBRANCH   5   6
ENDBRANCH   4   5
ENDBRANCH   3   4
ENDBRANCH   2   3
ENDBRANCH   1   2
BRANCH   1  12
ATOM     12  C   UNL     1      30.763 -12.187  16.572  1.00  0.00     0.000 C 
BRANCH  12  13
ATOM     13  C   UNL     1      29.819 -13.198  15.911  1.00  0.00    -0.000 C 
BRANCH  13  14
ATOM     14  C   UNL     1      28.464 -13.242  16.632  1.00  0.00    -0.000 C 
BRANCH  14  15
ATOM     15  C   UNL     1      27.319 -12.647  15.794  1.00  0.00    -0.000 C 
BRANCH  15  16
ATOM     16  C   UNL     1      27.796 -11.972  14.491  1.00  0.00    -0.000 C 
BRANCH  16  17
ATOM     17  C   UNL     1      27.554 -10.452  14.505  1.00  0.00    -0.000 C 
BRANCH  17  18
ATOM     18  C   UNL     1      27.661  -9.850  15.915  1.00  0.00    -0.000 C 
BRANCH  18  19
ATOM     19  C   UNL     1      28.774  -8.796  16.018  1.00  0.00    -0.003 C 
ATOM     20  C   UNL     1      29.382  -8.776  17.417  1.00  0.00     0.004 C 
ENDBRANCH  18  19
ENDBRANCH  17  18
ENDBRANCH  16  17
ENDBRANCH  15  16
ENDBRANCH  14  15
ENDBRANCH  13  14
ENDBRANCH  12  13
ENDBRANCH   1  12
TORSDOF 16
ENDMDL
MODEL 6
REMARK VINA RESULT:    -4.888      2.865      8.319
REMARK INTER + INTRA:         -11.395
REMARK INTER:                  -9.679
REMARK INTRA:                  -1.716
REMARK UNBOUND:                -1.935
REMARK SMILES CCCCCCCCCCCCCCCCCC(=O)[O-]
REMARK SMILES IDX 10 1 11 2 12 3 13 4 14 5 15 6 16 7 17 8 18 9 19 10 20 11
REMARK SMILES IDX 9 12 8 13 7 14 6 15 5 16 4 17 3 18 2 19 1 20
REMARK H PARENT
REMARK Flexibility Score: inf
ROOT
ATOM      1  C   UNL     1      30.984  -8.541  13.149  1.00  0.00     0.000 C 
ENDROOT
BRANCH   1   2
ATOM      2  C   UNL     1      31.044  -7.908  11.749  1.00  0.00     0.000 C 
BRANCH   2   3
ATOM      3  C   UNL     1      30.744  -6.398  11.768  1.00  0.00     0.000 C 
BRANCH   3   4
ATOM      4  C   UNL     1      31.926  -5.557  11.263  1.00  0.00     0.000 C 
BRANCH   4   5
ATOM      5  C   UNL     1      32.481  -6.064   9.921  1.00  0.00     0.000 C 
BRANCH   5   6
ATOM      6  C   UNL     1      34.009  -5.934   9.828  1.00  0.00     0.000 C 
BRANCH   6   7
ATOM      7  C   UNL     1      34.692  -5.988  11.206  1.00  0.00     0.006 C 
BRANCH   7   8
ATOM      8  C   UNL     1      35.508  -7.274  11.400  1.00  0.00     0.053 C 
BRANCH   8   9
ATOM      9  C   UNL     1      34.742  -8.306  12.170  1.00  0.00     0.041 C 
ATOM     10  O   UNL     1      34.239  -9.296  11.575  1.00  0.00    -0.550 OA
ATOM     11  O   UNL     1      34.616  -8.195  13.549  1.00  0.00    -0.550 OA
ENDBRANCH   8   9
ENDBRANCH   7   8
ENDBRANCH   6   7
ENDBRANCH   5   6
ENDBRANCH   4   5
ENDBRANCH   3   4
ENDBRANCH   2   3
ENDBRANCH   1   2
BRANCH   1  12
ATOM     12  C   UNL     1      30.744 -10.058  13.101  1.00  0.00     0.000 C 
BRANCH  12  13
ATOM     13  C   UNL     1      30.006 -10.535  14.357  1.00  0.00    -0.000 C 
BRANCH  13  14
ATOM     14  C   UNL     1      28.864  -9.578  14.725  1.00  0.00    -0.000 C 
BRANCH  14  15
ATOM     15  C   UNL     1      27.516 -10.295  14.913  1.00  0.00    -0.000 C 
BRANCH  15  16
ATOM     16  C   UNL     1      27.213 -11.335  13.813  1.00  0.00    -0.000 C 
BRANCH  16  17
ATOM     17  C   UNL     1      26.983 -12.741  14.394  1.00  0.00    -0.000 C 
BRANCH  17  18
ATOM     18  C   UNL     1      27.269 -12.811  15.903  1.00  0.00    -0.000 C 
BRANCH  18  19
ATOM     19  C   UNL     1      28.566 -13.570  16.218  1.00  0.00    -0.003 C 
ATOM     20  C   UNL     1      28.703 -14.811  15.341  1.00  0.00     0.004 C 
ENDBRANCH  18  19
ENDBRANCH  17  18
ENDBRANCH  16  17
ENDBRANCH  15  16
ENDBRANCH  14  15
ENDBRANCH  13  14
ENDBRANCH  12  13
ENDBRANCH   1  12
TORSDOF 16
ENDMDL
MODEL 7
REMARK VINA RESULT:    -4.842      3.666      8.537
REMARK INTER + INTRA:         -11.306
REMARK INTER:                  -9.683
REMARK INTRA:                  -1.623
REMARK UNBOUND:                -1.935
REMARK SMILES CCCCCCCCCCCCCCCCCC(=O)[O-]
REMARK SMILES IDX 10 1 11 2 12 3 13 4 14 5 15 6 16 7 17 8 18 9 19 10 20 11
REMARK SMILES IDX 9 12 8 13 7 14 6 15 5 16 4 17 3 18 2 19 1 20
REMARK H PARENT
REMARK Flexibility Score: inf
ROOT
ATOM      1  C   UNL     1      31.928  -9.228  13.279  1.00  0.00     0.000 C 
ENDROOT
BRANCH   1   2
ATOM      2  C   UNL     1      31.004  -8.665  12.187  1.00  0.00     0.000 C 
BRANCH   2   3
ATOM      3  C   UNL     1      30.626  -7.193  12.431  1.00  0.00     0.000 C 
BRANCH   3   4
ATOM      4  C   UNL     1      30.988  -6.287  11.244  1.00  0.00     0.000 C 
BRANCH   4   5
ATOM      5  C   UNL     1      32.235  -5.428  11.515  1.00  0.00     0.000 C 
BRANCH   5   6
ATOM      6  C   UNL     1      33.247  -5.475  10.360  1.00  0.00     0.000 C 
BRANCH   6   7
ATOM      7  C   UNL     1      33.533  -6.910   9.884  1.00  0.00     0.006 C 
BRANCH   7   8
ATOM      8  C   UNL     1      33.479  -7.035   8.355  1.00  0.00     0.053 C 
BRANCH   8   9
ATOM      9  C   UNL     1      32.071  -6.986   7.843  1.00  0.00     0.041 C 
ATOM     10  O   UNL     1      31.658  -5.969   7.227  1.00  0.00    -0.550 OA
ATOM     11  O   UNL     1      31.229  -8.077   8.015  1.00  0.00    -0.550 OA
ENDBRANCH   8   9
ENDBRANCH   7   8
ENDBRANCH   6   7
ENDBRANCH   5   6
ENDBRANCH   4   5
ENDBRANCH   3   4
ENDBRANCH   2   3
ENDBRANCH   1   2
BRANCH   1  12
ATOM     12  C   UNL     1      31.220  -9.368  14.635  1.00  0.00     0.000 C 
BRANCH  12  13
ATOM     13  C   UNL     1      29.989 -10.274  14.520  1.00  0.00    -0.000 C 
BRANCH  13  14
ATOM     14  C   UNL     1      28.780  -9.657  15.235  1.00  0.00    -0.000 C 
BRANCH  14  15
ATOM     15  C   UNL     1      27.436 -10.206  14.728  1.00  0.00    -0.000 C 
BRANCH  15  16
ATOM     16  C   UNL     1      27.586 -11.351  13.704  1.00  0.00    -0.000 C 
BRANCH  16  17
ATOM     17  C   UNL     1      26.929 -12.654  14.191  1.00  0.00    -0.000 C 
BRANCH  17  18
ATOM     18  C   UNL     1      27.800 -13.891  13.924  1.00  0.00    -0.000 C 
BRANCH  18  19
ATOM     19  C   UNL     1      28.291 -14.553  15.220  1.00  0.00    -0.003 C 
ATOM     20  C   UNL     1      29.030 -13.550  16.101  1.00  0.00     0.004 C 
ENDBRANCH  18  19
ENDBRANCH  17  18
ENDBRANCH  16  17
ENDBRANCH  15  16
ENDBRANCH  14  15
ENDBRANCH  13  14
ENDBRANCH  12  13
ENDBRANCH   1  12
TORSDOF 16
ENDMDL
MODEL 8
REMARK VINA RESULT:    -4.792      1.688      2.777
REMARK INTER + INTRA:         -11.209
REMARK INTER:                  -8.922
REMARK INTRA:                  -2.287
REMARK UNBOUND:                -1.935
REMARK SMILES CCCCCCCCCCCCCCCCCC(=O)[O-]
REMARK SMILES IDX 10 1 11 2 12 3 13 4 14 5 15 6 16 7 17 8 18 9 19 10 20 11
REMARK SMILES IDX 9 12 8 13 7 14 6 15 5 16 4 17 3 18 2 19 1 20
REMARK H PARENT
REMARK Flexibility Score: inf
ROOT
ATOM      1  C   UNL     1      31.015  -7.343  10.672  1.00  0.00     0.000 C 
ENDROOT
BRANCH   1   2
ATOM      2  C   UNL     1      30.612  -7.139  12.141  1.00  0.00     0.000 C 
BRANCH   2   3
ATOM      3  C   UNL     1      31.021  -8.320  13.038  1.00  0.00     0.000 C 
BRANCH   3   4
ATOM      4  C   UNL     1      30.907  -9.673  12.319  1.00  0.00     0.000 C 
BRANCH   4   5
ATOM      5  C   UNL     1      29.891 -10.614  12.988  1.00  0.00     0.000 C 
BRANCH   5   6
ATOM      6  C   UNL     1      29.446 -10.115  14.371  1.00  0.00     0.000 C 
BRANCH   6   7
ATOM      7  C   UNL     1      27.926 -10.231  14.580  1.00  0.00     0.006 C 
BRANCH   7   8
ATOM      8  C   UNL     1      27.317 -11.390  13.780  1.00  0.00     0.053 C 
BRANCH   8   9
ATOM      9  C   UNL     1      27.442 -12.694  14.509  1.00  0.00     0.041 C 
ATOM     10  O   UNL     1      27.103 -12.778  15.719  1.00  0.00    -0.550 OA
ATOM     11  O   UNL     1      27.897 -13.824  13.842  1.00  0.00    -0.550 OA
ENDBRANCH   8   9
ENDBRANCH   7   8
ENDBRANCH   6   7
ENDBRANCH   5   6
ENDBRANCH   4   5
ENDBRANCH   3   4
ENDBRANCH   2   3
ENDBRANCH   1   2
BRANCH   1  12
ATOM     12  C   UNL     1      31.911  -6.213  10.143  1.00  0.00     0.000 C 
BRANCH  12  13
ATOM     13  C   UNL     1      32.438  -5.348  11.294  1.00  0.00    -0.000 C 
BRANCH  13  14
ATOM     14  C   UNL     1      33.957  -5.152  11.187  1.00  0.00    -0.000 C 
BRANCH  14  15
ATOM     15  C   UNL     1      34.567  -5.848   9.958  1.00  0.00    -0.000 C 
BRANCH  15  16
ATOM     16  C   UNL     1      35.568  -6.966  10.317  1.00  0.00    -0.000 C 
BRANCH  16  17
ATOM     17  C   UNL     1      35.025  -8.363   9.966  1.00  0.00    -0.000 C 
BRANCH  17  18
ATOM     18  C   UNL     1      34.341  -9.047  11.160  1.00  0.00    -0.000 C 
BRANCH  18  19
ATOM     19  C   UNL     1      35.226  -9.057  12.415  1.00  0.00    -0.003 C 
ATOM     20  C   UNL     1      34.642  -8.163  13.505  1.00  0.00     0.004 C 
ENDBRANCH  18  19
ENDBRANCH  17  18
ENDBRANCH  16  17
ENDBRANCH  15  16
ENDBRANCH  14  15
ENDBRANCH  13  14
ENDBRANCH  12  13
ENDBRANCH   1  12
TORSDOF 16
ENDMDL
MODEL 9
REMARK VINA RESULT:    -4.775      3.199      8.091
REMARK INTER + INTRA:         -11.176
REMARK INTER:                  -9.158
REMARK INTRA:                  -2.018
REMARK UNBOUND:                -1.935
REMARK SMILES CCCCCCCCCCCCCCCCCC(=O)[O-]
REMARK SMILES IDX 10 1 11 2 12 3 13 4 14 5 15 6 16 7 17 8 18 9 19 10 20 11
REMARK SMILES IDX 9 12 8 13 7 14 6 15 5 16 4 17 3 18 2 19 1 20
REMARK H PARENT
REMARK Flexibility Score: inf
ROOT
ATOM      1  C   UNL     1      31.493  -8.275  12.773  1.00  0.00     0.000 C 
ENDROOT
BRANCH   1   2
ATOM      2  C   UNL     1      30.612  -7.089  12.349  1.00  0.00     0.000 C 
BRANCH   2   3
ATOM      3  C   UNL     1      31.153  -6.363  11.105  1.00  0.00     0.000 C 
BRANCH   3   4
ATOM      4  C   UNL     1      32.141  -5.241  11.461  1.00  0.00     0.000 C 
BRANCH   4   5
ATOM      5  C   UNL     1      33.502  -5.408  10.764  1.00  0.00     0.000 C 
BRANCH   5   6
ATOM      6  C   UNL     1      33.424  -6.322   9.531  1.00  0.00     0.000 C 
BRANCH   6   7
ATOM      7  C   UNL     1      34.399  -7.509   9.613  1.00  0.00     0.006 C 
BRANCH   7   8
ATOM      8  C   UNL     1      33.671  -8.845   9.816  1.00  0.00     0.053 C 
BRANCH   8   9
ATOM      9  C   UNL     1      32.636  -9.080   8.758  1.00  0.00     0.041 C 
ATOM     10  O   UNL     1      32.981  -9.210   7.554  1.00  0.00    -0.550 OA
ATOM     11  O   UNL     1      31.296  -9.192   9.107  1.00  0.00    -0.550 OA
ENDBRANCH   8   9
ENDBRANCH   7   8
ENDBRANCH   6   7
ENDBRANCH   5   6
ENDBRANCH   4   5
ENDBRANCH   3   4
ENDBRANCH   2   3
ENDBRANCH   1   2
BRANCH   1  12
ATOM     12  C   UNL     1      30.765  -9.623  12.653  1.00  0.00     0.000 C 
BRANCH  12  13
ATOM     13  C   UNL     1      30.809 -10.389  13.980  1.00  0.00    -0.000 C 
BRANCH  13  14
ATOM     14  C   UNL     1      30.118  -9.596  15.098  1.00  0.00    -0.000 C 
BRANCH  14  15
ATOM     15  C   UNL     1      28.677  -9.187  14.743  1.00  0.00    -0.000 C 
BRANCH  15  16
ATOM     16  C   UNL     1      27.609 -10.148  15.307  1.00  0.00    -0.000 C 
BRANCH  16  17
ATOM     17  C   UNL     1      27.161 -11.189  14.267  1.00  0.00    -0.000 C 
BRANCH  17  18
ATOM     18  C   UNL     1      27.742 -12.585  14.541  1.00  0.00    -0.000 C 
BRANCH  18  19
ATOM     19  C   UNL     1      27.810 -12.906  16.042  1.00  0.00    -0.003 C 
ATOM     20  C   UNL     1      29.254 -13.096  16.497  1.00  0.00     0.004 C 
ENDBRANCH  18  19
ENDBRANCH  17  18
ENDBRANCH  16  17
ENDBRANCH  15  16
ENDBRANCH  14  15
ENDBRANCH  13  14
ENDBRANCH  12  13
ENDBRANCH   1  12
TORSDOF 16
ENDMDL
