MODEL 1
REMARK VINA RESULT:    -5.888      0.000      0.000
REMARK INTER + INTRA:          -6.742
REMARK INTER:                  -6.577
REMARK INTRA:                  -0.165
REMARK UNBOUND:                -0.165
REMARK SMILES COc1cc2ccc(=O)oc2cc1OC
REMARK SMILES IDX 3 1 13 2 12 3 11 4 5 5 4 6 6 7 7 8 8 9 9 10 10 11 2 12 1 13
REMARK SMILES IDX 14 14 15 15
REMARK H PARENT
REMARK Flexibility Score: inf
ROOT
ATOM      1  C   UNL     1      -4.930  -4.314   7.758  1.00  0.00     0.161 A 
ATOM      2  C   UNL     1      -5.609  -3.918   6.593  1.00  0.00     0.164 A 
ATOM      3  C   UNL     1      -5.727  -4.816   5.513  1.00  0.00     0.098 A 
ATOM      4  C   UNL     1      -5.172  -6.095   5.593  1.00  0.00     0.142 A 
ATOM      5  C   UNL     1      -4.492  -6.493   6.761  1.00  0.00     0.022 A 
ATOM      6  C   UNL     1      -4.372  -5.605   7.837  1.00  0.00     0.062 A 
ATOM      7  C   UNL     1      -3.947  -7.781   6.810  1.00  0.00     0.019 A 
ATOM      8  C   UNL     1      -4.094  -8.629   5.713  1.00  0.00     0.094 A 
ATOM      9  C   UNL     1      -4.783  -8.165   4.587  1.00  0.00     0.336 A 
ATOM     10  O   UNL     1      -4.925  -8.914   3.585  1.00  0.00    -0.246 OA
ATOM     11  O   UNL     1      -5.290  -6.936   4.567  1.00  0.00    -0.423 OA
ENDROOT
BRANCH   1  12
ATOM     12  O   UNL     1      -4.832  -3.395   8.814  1.00  0.00    -0.493 OA
ATOM     13  C   UNL     1      -5.585  -3.468  10.021  1.00  0.00     0.278 C 
ENDBRANCH   1  12
BRANCH   2  14
ATOM     14  O   UNL     1      -6.152  -2.625   6.548  1.00  0.00    -0.493 OA
ATOM     15  C   UNL     1      -7.536  -2.325   6.704  1.00  0.00     0.278 C 
ENDBRANCH   2  14
TORSDOF 2
ENDMDL
MODEL 2
REMARK VINA RESULT:    -5.844      1.400      2.769
REMARK INTER + INTRA:          -6.692
REMARK INTER:                  -6.578
REMARK INTRA:                  -0.113
REMARK UNBOUND:                -0.165
REMARK SMILES COc1cc2ccc(=O)oc2cc1OC
REMARK SMILES IDX 3 1 13 2 12 3 11 4 5 5 4 6 6 7 7 8 8 9 9 10 10 11 2 12 1 13
REMARK SMILES IDX 14 14 15 15
REMARK H PARENT
REMARK Flexibility Score: inf
ROOT
ATOM      1  C   UNL     1      -5.909  -3.918   6.431  1.00  0.00     0.161 A 
ATOM      2  C   UNL     1      -5.237  -4.043   7.659  1.00  0.00     0.164 A 
ATOM      3  C   UNL     1      -4.504  -5.214   7.940  1.00  0.00     0.098 A 
ATOM      4  C   UNL     1      -4.443  -6.251   7.006  1.00  0.00     0.142 A 
ATOM      5  C   UNL     1      -5.117  -6.126   5.775  1.00  0.00     0.022 A 
ATOM      6  C   UNL     1      -5.846  -4.965   5.490  1.00  0.00     0.062 A 
ATOM      7  C   UNL     1      -5.037  -7.183   4.860  1.00  0.00     0.019 A 
ATOM      8  C   UNL     1      -4.298  -8.318   5.189  1.00  0.00     0.094 A 
ATOM      9  C   UNL     1      -3.654  -8.371   6.431  1.00  0.00     0.336 A 
ATOM     10  O   UNL     1      -2.983  -9.388   6.747  1.00  0.00    -0.246 OA
ATOM     11  O   UNL     1      -3.748  -7.353   7.281  1.00  0.00    -0.423 OA
ENDROOT
BRANCH   1  12
ATOM     12  O   UNL     1      -6.628  -2.739   6.185  1.00  0.00    -0.493 OA
ATOM     13  C   UNL     1      -7.861  -2.678   5.473  1.00  0.00     0.278 C 
ENDBRANCH   1  12
BRANCH   2  14
ATOM     14  O   UNL     1      -5.320  -2.982   8.573  1.00  0.00    -0.493 OA
ATOM     15  C   UNL     1      -5.635  -3.128   9.954  1.00  0.00     0.278 C 
ENDBRANCH   2  14
TORSDOF 2
ENDMDL
MODEL 3
REMARK VINA RESULT:    -5.843      2.122      3.379
REMARK INTER + INTRA:          -6.691
REMARK INTER:                  -6.589
REMARK INTRA:                  -0.101
REMARK UNBOUND:                -0.165
REMARK SMILES COc1cc2ccc(=O)oc2cc1OC
REMARK SMILES IDX 3 1 13 2 12 3 11 4 5 5 4 6 6 7 7 8 8 9 9 10 10 11 2 12 1 13
REMARK SMILES IDX 14 14 15 15
REMARK H PARENT
REMARK Flexibility Score: inf
ROOT
ATOM      1  C   UNL     1      -7.338  -5.061   4.812  1.00  0.00     0.161 A 
ATOM      2  C   UNL     1      -6.483  -4.254   5.582  1.00  0.00     0.164 A 
ATOM      3  C   UNL     1      -5.198  -4.721   5.921  1.00  0.00     0.098 A 
ATOM      4  C   UNL     1      -4.769  -5.981   5.497  1.00  0.00     0.142 A 
ATOM      5  C   UNL     1      -5.625  -6.791   4.725  1.00  0.00     0.022 A 
ATOM      6  C   UNL     1      -6.904  -6.332   4.385  1.00  0.00     0.062 A 
ATOM      7  C   UNL     1      -5.166  -8.048   4.316  1.00  0.00     0.019 A 
ATOM      8  C   UNL     1      -3.885  -8.460   4.679  1.00  0.00     0.094 A 
ATOM      9  C   UNL     1      -3.090  -7.602   5.447  1.00  0.00     0.336 A 
ATOM     10  O   UNL     1      -1.930  -7.956   5.786  1.00  0.00    -0.246 OA
ATOM     11  O   UNL     1      -3.552  -6.413   5.823  1.00  0.00    -0.423 OA
ENDROOT
BRANCH   1  12
ATOM     12  O   UNL     1      -8.611  -4.564   4.493  1.00  0.00    -0.493 OA
ATOM     13  C   UNL     1      -9.516  -5.185   3.585  1.00  0.00     0.278 C 
ENDBRANCH   1  12
BRANCH   2  14
ATOM     14  O   UNL     1      -6.948  -2.995   5.990  1.00  0.00    -0.493 OA
ATOM     15  C   UNL     1      -6.295  -2.163   6.945  1.00  0.00     0.278 C 
ENDBRANCH   2  14
TORSDOF 2
ENDMDL
MODEL 4
REMARK VINA RESULT:    -5.813      2.377      3.841
REMARK INTER + INTRA:          -6.658
REMARK INTER:                  -6.544
REMARK INTRA:                  -0.114
REMARK UNBOUND:                -0.165
REMARK SMILES COc1cc2ccc(=O)oc2cc1OC
REMARK SMILES IDX 3 1 13 2 12 3 11 4 5 5 4 6 6 7 7 8 8 9 9 10 10 11 2 12 1 13
REMARK SMILES IDX 14 14 15 15
REMARK H PARENT
REMARK Flexibility Score: inf
ROOT
ATOM      1  C   UNL     1      -5.795  -7.386   5.997  1.00  0.00     0.161 A 
ATOM      2  C   UNL     1      -4.755  -6.640   6.577  1.00  0.00     0.164 A 
ATOM      3  C   UNL     1      -3.422  -6.877   6.187  1.00  0.00     0.098 A 
ATOM      4  C   UNL     1      -3.128  -7.850   5.228  1.00  0.00     0.142 A 
ATOM      5  C   UNL     1      -4.170  -8.599   4.647  1.00  0.00     0.022 A 
ATOM      6  C   UNL     1      -5.497  -8.367   5.030  1.00  0.00     0.062 A 
ATOM      7  C   UNL     1      -3.843  -9.566   3.690  1.00  0.00     0.019 A 
ATOM      8  C   UNL     1      -2.507  -9.760   3.341  1.00  0.00     0.094 A 
ATOM      9  C   UNL     1      -1.525  -8.978   3.961  1.00  0.00     0.336 A 
ATOM     10  O   UNL     1      -0.313  -9.137   3.660  1.00  0.00    -0.246 OA
ATOM     11  O   UNL     1      -1.865  -8.066   4.867  1.00  0.00    -0.423 OA
ENDROOT
BRANCH   1  12
ATOM     12  O   UNL     1      -7.111  -7.124   6.408  1.00  0.00    -0.493 OA
ATOM     13  C   UNL     1      -8.034  -6.308   5.692  1.00  0.00     0.278 C 
ENDBRANCH   1  12
BRANCH   2  14
ATOM     14  O   UNL     1      -5.088  -5.671   7.536  1.00  0.00    -0.493 OA
ATOM     15  C   UNL     1      -4.167  -4.745   8.102  1.00  0.00     0.278 C 
ENDBRANCH   2  14
TORSDOF 2
ENDMDL
MODEL 5
REMARK VINA RESULT:    -5.791      1.298      5.021
REMARK INTER + INTRA:          -6.632
REMARK INTER:                  -6.587
REMARK INTRA:                  -0.045
REMARK UNBOUND:                -0.165
REMARK SMILES COc1cc2ccc(=O)oc2cc1OC
REMARK SMILES IDX 3 1 13 2 12 3 11 4 5 5 4 6 6 7 7 8 8 9 9 10 10 11 2 12 1 13
REMARK SMILES IDX 14 14 15 15
REMARK H PARENT
REMARK Flexibility Score: inf
ROOT
ATOM      1  C   UNL     1      -4.487  -6.810   6.742  1.00  0.00     0.161 A 
ATOM      2  C   UNL     1      -5.068  -6.557   5.487  1.00  0.00     0.164 A 
ATOM      3  C   UNL     1      -5.708  -5.324   5.249  1.00  0.00     0.098 A 
ATOM      4  C   UNL     1      -5.769  -4.353   6.252  1.00  0.00     0.142 A 
ATOM      5  C   UNL     1      -5.187  -4.606   7.509  1.00  0.00     0.022 A 
ATOM      6  C   UNL     1      -4.549  -5.829   7.752  1.00  0.00     0.062 A 
ATOM      7  C   UNL     1      -5.266  -3.614   8.493  1.00  0.00     0.019 A 
ATOM      8  C   UNL     1      -5.911  -2.412   8.203  1.00  0.00     0.094 A 
ATOM      9  C   UNL     1      -6.465  -2.231   6.931  1.00  0.00     0.336 A 
ATOM     10  O   UNL     1      -7.053  -1.154   6.649  1.00  0.00    -0.246 OA
ATOM     11  O   UNL     1      -6.377  -3.192   6.015  1.00  0.00    -0.423 OA
ENDROOT
BRANCH   1  12
ATOM     12  O   UNL     1      -3.857  -8.047   6.944  1.00  0.00    -0.493 OA
ATOM     13  C   UNL     1      -2.515  -8.342   6.569  1.00  0.00     0.278 C 
ENDBRANCH   1  12
BRANCH   2  14
ATOM     14  O   UNL     1      -4.987  -7.555   4.504  1.00  0.00    -0.493 OA
ATOM     15  C   UNL     1      -5.958  -8.578   4.310  1.00  0.00     0.278 C 
ENDBRANCH   2  14
TORSDOF 2
ENDMDL
MODEL 6
REMARK VINA RESULT:    -5.588      1.464      5.630
REMARK INTER + INTRA:          -6.406
REMARK INTER:                  -6.246
REMARK INTRA:                  -0.161
REMARK UNBOUND:                -0.165
REMARK SMILES COc1cc2ccc(=O)oc2cc1OC
REMARK SMILES IDX 3 1 13 2 12 3 11 4 5 5 4 6 6 7 7 8 8 9 9 10 10 11 2 12 1 13
REMARK SMILES IDX 14 14 15 15
REMARK H PARENT
REMARK Flexibility Score: inf
ROOT
ATOM      1  C   UNL     1      -5.071  -7.526   4.589  1.00  0.00     0.161 A 
ATOM      2  C   UNL     1      -4.051  -7.369   5.543  1.00  0.00     0.164 A 
ATOM      3  C   UNL     1      -4.044  -6.235   6.380  1.00  0.00     0.098 A 
ATOM      4  C   UNL     1      -5.043  -5.265   6.265  1.00  0.00     0.142 A 
ATOM      5  C   UNL     1      -6.066  -5.422   5.308  1.00  0.00     0.022 A 
ATOM      6  C   UNL     1      -6.078  -6.547   4.474  1.00  0.00     0.062 A 
ATOM      7  C   UNL     1      -7.052  -4.433   5.217  1.00  0.00     0.019 A 
ATOM      8  C   UNL     1      -6.996  -3.331   6.070  1.00  0.00     0.094 A 
ATOM      9  C   UNL     1      -5.951  -3.243   6.996  1.00  0.00     0.336 A 
ATOM     10  O   UNL     1      -5.883  -2.256   7.774  1.00  0.00    -0.246 OA
ATOM     11  O   UNL     1      -5.027  -4.197   7.060  1.00  0.00    -0.423 OA
ENDROOT
BRANCH   1  12
ATOM     12  O   UNL     1      -5.047  -8.668   3.773  1.00  0.00    -0.493 OA
ATOM     13  C   UNL     1      -5.871  -9.814   3.965  1.00  0.00     0.278 C 
ENDBRANCH   1  12
BRANCH   2  14
ATOM     14  O   UNL     1      -3.065  -8.363   5.630  1.00  0.00    -0.493 OA
ATOM     15  C   UNL     1      -3.077  -9.433   6.570  1.00  0.00     0.278 C 
ENDBRANCH   2  14
TORSDOF 2
ENDMDL
MODEL 7
REMARK VINA RESULT:    -5.577      1.058      1.109
REMARK INTER + INTRA:          -6.394
REMARK INTER:                  -6.233
REMARK INTRA:                  -0.161
REMARK UNBOUND:                -0.165
REMARK SMILES COc1cc2ccc(=O)oc2cc1OC
REMARK SMILES IDX 3 1 13 2 12 3 11 4 5 5 4 6 6 7 7 8 8 9 9 10 10 11 2 12 1 13
REMARK SMILES IDX 14 14 15 15
REMARK H PARENT
REMARK Flexibility Score: inf
ROOT
ATOM      1  C   UNL     1      -5.395  -4.347   6.934  1.00  0.00     0.161 A 
ATOM      2  C   UNL     1      -6.058  -4.433   5.697  1.00  0.00     0.164 A 
ATOM      3  C   UNL     1      -5.887  -5.576   4.890  1.00  0.00     0.098 A 
ATOM      4  C   UNL     1      -5.062  -6.622   5.311  1.00  0.00     0.142 A 
ATOM      5  C   UNL     1      -4.397  -6.536   6.551  1.00  0.00     0.022 A 
ATOM      6  C   UNL     1      -4.563  -5.402   7.357  1.00  0.00     0.062 A 
ATOM      7  C   UNL     1      -3.577  -7.600   6.943  1.00  0.00     0.019 A 
ATOM      8  C   UNL     1      -3.444  -8.706   6.106  1.00  0.00     0.094 A 
ATOM      9  C   UNL     1      -4.135  -8.722   4.890  1.00  0.00     0.336 A 
ATOM     10  O   UNL     1      -4.027  -9.712   4.119  1.00  0.00    -0.246 OA
ATOM     11  O   UNL     1      -4.907  -7.697   4.541  1.00  0.00    -0.423 OA
ENDROOT
BRANCH   1  12
ATOM     12  O   UNL     1      -5.589  -3.195   7.712  1.00  0.00    -0.493 OA
ATOM     13  C   UNL     1      -6.435  -3.126   8.855  1.00  0.00     0.278 C 
ENDBRANCH   1  12
BRANCH   2  14
ATOM     14  O   UNL     1      -6.878  -3.364   5.307  1.00  0.00    -0.493 OA
ATOM     15  C   UNL     1      -8.300  -3.415   5.253  1.00  0.00     0.278 C 
ENDBRANCH   2  14
TORSDOF 2
ENDMDL
MODEL 8
REMARK VINA RESULT:    -5.559      1.669      2.322
REMARK INTER + INTRA:          -6.374
REMARK INTER:                  -6.268
REMARK INTRA:                  -0.106
REMARK UNBOUND:                -0.165
REMARK SMILES COc1cc2ccc(=O)oc2cc1OC
REMARK SMILES IDX 3 1 13 2 12 3 11 4 5 5 4 6 6 7 7 8 8 9 9 10 10 11 2 12 1 13
REMARK SMILES IDX 14 14 15 15
REMARK H PARENT
REMARK Flexibility Score: inf
ROOT
ATOM      1  C   UNL     1      -6.454  -2.759   8.810  1.00  0.00     0.161 A 
ATOM      2  C   UNL     1      -6.522  -2.401   7.452  1.00  0.00     0.164 A 
ATOM      3  C   UNL     1      -5.982  -3.261   6.475  1.00  0.00     0.098 A 
ATOM      4  C   UNL     1      -5.379  -4.465   6.848  1.00  0.00     0.142 A 
ATOM      5  C   UNL     1      -5.311  -4.824   8.208  1.00  0.00     0.022 A 
ATOM      6  C   UNL     1      -5.846  -3.973   9.184  1.00  0.00     0.062 A 
ATOM      7  C   UNL     1      -4.700  -6.036   8.549  1.00  0.00     0.019 A 
ATOM      8  C   UNL     1      -4.182  -6.848   7.541  1.00  0.00     0.094 A 
ATOM      9  C   UNL     1      -4.287  -6.427   6.211  1.00  0.00     0.336 A 
ATOM     10  O   UNL     1      -3.825  -7.146   5.286  1.00  0.00    -0.246 OA
ATOM     11  O   UNL     1      -4.872  -5.270   5.916  1.00  0.00    -0.423 OA
ENDROOT
BRANCH   1  12
ATOM     12  O   UNL     1      -7.003  -1.879   9.756  1.00  0.00    -0.493 OA
ATOM     13  C   UNL     1      -7.546  -2.279  11.011  1.00  0.00     0.278 C 
ENDBRANCH   1  12
BRANCH   2  14
ATOM     14  O   UNL     1      -7.135  -1.185   7.116  1.00  0.00    -0.493 OA
ATOM     15  C   UNL     1      -7.809  -0.933   5.887  1.00  0.00     0.278 C 
ENDBRANCH   2  14
TORSDOF 2
ENDMDL
MODEL 9
REMARK VINA RESULT:    -5.281     11.374     13.166
REMARK INTER + INTRA:          -6.063
REMARK INTER:                  -5.948
REMARK INTRA:                  -0.115
REMARK UNBOUND:                -0.165
REMARK SMILES COc1cc2ccc(=O)oc2cc1OC
REMARK SMILES IDX 3 1 13 2 12 3 11 4 5 5 4 6 6 7 7 8 8 9 9 10 10 11 2 12 1 13
REMARK SMILES IDX 14 14 15 15
REMARK H PARENT
REMARK Flexibility Score: inf
ROOT
ATOM      1  C   UNL     1      -3.324  -6.901  -6.036  1.00  0.00     0.161 A 
ATOM      2  C   UNL     1      -2.491  -5.833  -6.411  1.00  0.00     0.164 A 
ATOM      3  C   UNL     1      -2.883  -4.509  -6.131  1.00  0.00     0.098 A 
ATOM      4  C   UNL     1      -4.094  -4.251  -5.485  1.00  0.00     0.142 A 
ATOM      5  C   UNL     1      -4.930  -5.321  -5.109  1.00  0.00     0.022 A 
ATOM      6  C   UNL     1      -4.546  -6.639  -5.384  1.00  0.00     0.062 A 
ATOM      7  C   UNL     1      -6.137  -5.029  -4.464  1.00  0.00     0.019 A 
ATOM      8  C   UNL     1      -6.476  -3.701  -4.212  1.00  0.00     0.094 A 
ATOM      9  C   UNL     1      -5.595  -2.690  -4.614  1.00  0.00     0.336 A 
ATOM     10  O   UNL     1      -5.882  -1.484  -4.397  1.00  0.00    -0.246 OA
ATOM     11  O   UNL     1      -4.454  -2.995  -5.226  1.00  0.00    -0.423 OA
ENDROOT
BRANCH   1  12
ATOM     12  O   UNL     1      -2.903  -8.207  -6.329  1.00  0.00    -0.493 OA
ATOM     13  C   UNL     1      -2.281  -9.084  -5.395  1.00  0.00     0.278 C 
ENDBRANCH   1  12
BRANCH   2  14
ATOM     14  O   UNL     1      -1.282  -6.130  -7.058  1.00  0.00    -0.493 OA
ATOM     15  C   UNL     1      -0.208  -5.210  -7.224  1.00  0.00     0.278 C 
ENDBRANCH   2  14
TORSDOF 2
ENDMDL
