MODEL 1
REMARK VINA RESULT:    -3.188      0.000      0.000
REMARK INTER + INTRA:          -7.223
REMARK INTER:                  -5.425
REMARK INTRA:                  -1.798
REMARK UNBOUND:                -1.798
REMARK SMILES CCCCCCCCCCCCCC(=O)[O-]
REMARK SMILES IDX 8 1 9 2 10 3 11 4 12 5 13 6 14 7 15 8 16 9 7 10 6 11 5 12
REMARK SMILES IDX 4 13 3 14 2 15 1 16
REMARK H PARENT
REMARK Flexibility Score: inf
ROOT
ATOM      1  C   UNL     1       7.743  10.635  10.585  1.00  0.00     0.000 C 
ENDROOT
BRANCH   1   2
ATOM      2  C   UNL     1       8.227   9.555   9.602  1.00  0.00     0.000 C 
BRANCH   2   3
ATOM      3  C   UNL     1       9.155  10.115   8.509  1.00  0.00     0.000 C 
BRANCH   3   4
ATOM      4  C   UNL     1       8.593  10.053   7.073  1.00  0.00     0.000 C 
BRANCH   4   5
ATOM      5  C   UNL     1       9.635  10.234   5.955  1.00  0.00     0.006 C 
BRANCH   5   6
ATOM      6  C   UNL     1       9.901   8.941   5.175  1.00  0.00     0.053 C 
BRANCH   6   7
ATOM      7  C   UNL     1      11.331   8.527   5.322  1.00  0.00     0.041 C 
ATOM      8  O   UNL     1      12.244   9.192   4.765  1.00  0.00    -0.550 OA
ATOM      9  O   UNL     1      11.653   7.380   6.035  1.00  0.00    -0.550 OA
ENDBRANCH   6   7
ENDBRANCH   5   6
ENDBRANCH   4   5
ENDBRANCH   3   4
ENDBRANCH   2   3
ENDBRANCH   1   2
BRANCH   1  10
ATOM     10  C   UNL     1       8.298  12.029  10.249  1.00  0.00     0.000 C 
BRANCH  10  11
ATOM     11  C   UNL     1       7.201  13.018   9.827  1.00  0.00    -0.000 C 
BRANCH  11  12
ATOM     12  C   UNL     1       7.358  13.415   8.354  1.00  0.00    -0.000 C 
BRANCH  12  13
ATOM     13  C   UNL     1       6.052  13.185   7.578  1.00  0.00    -0.000 C 
BRANCH  13  14
ATOM     14  C   UNL     1       5.117  12.184   8.289  1.00  0.00    -0.000 C 
BRANCH  14  15
ATOM     15  C   UNL     1       5.054  10.807   7.607  1.00  0.00    -0.003 C 
ATOM     16  C   UNL     1       4.648   9.684   8.560  1.00  0.00     0.004 C 
ENDBRANCH  14  15
ENDBRANCH  13  14
ENDBRANCH  12  13
ENDBRANCH  11  12
ENDBRANCH  10  11
ENDBRANCH   1  10
TORSDOF 12
ENDMDL
MODEL 2
REMARK VINA RESULT:    -3.048      1.054      2.531
REMARK INTER + INTRA:          -6.984
REMARK INTER:                  -5.211
REMARK INTRA:                  -1.773
REMARK UNBOUND:                -1.798
REMARK SMILES CCCCCCCCCCCCCC(=O)[O-]
REMARK SMILES IDX 8 1 9 2 10 3 11 4 12 5 13 6 14 7 15 8 16 9 7 10 6 11 5 12
REMARK SMILES IDX 4 13 3 14 2 15 1 16
REMARK H PARENT
REMARK Flexibility Score: inf
ROOT
ATOM      1  C   UNL     1       6.547   9.562   7.472  1.00  0.00     0.000 C 
ENDROOT
BRANCH   1   2
ATOM      2  C   UNL     1       7.585   9.003   8.460  1.00  0.00     0.000 C 
BRANCH   2   3
ATOM      3  C   UNL     1       9.008   9.520   8.188  1.00  0.00     0.000 C 
BRANCH   3   4
ATOM      4  C   UNL     1       9.135  10.507   7.010  1.00  0.00     0.000 C 
BRANCH   4   5
ATOM      5  C   UNL     1       9.802   9.935   5.746  1.00  0.00     0.006 C 
BRANCH   5   6
ATOM      6  C   UNL     1      10.706   8.733   6.043  1.00  0.00     0.053 C 
BRANCH   6   7
ATOM      7  C   UNL     1      11.587   8.440   4.870  1.00  0.00     0.041 C 
ATOM      8  O   UNL     1      12.555   9.199   4.600  1.00  0.00    -0.550 OA
ATOM      9  O   UNL     1      11.310   7.358   4.045  1.00  0.00    -0.550 OA
ENDBRANCH   6   7
ENDBRANCH   5   6
ENDBRANCH   4   5
ENDBRANCH   3   4
ENDBRANCH   2   3
ENDBRANCH   1   2
BRANCH   1  10
ATOM     10  C   UNL     1       5.175   9.795   8.126  1.00  0.00     0.000 C 
BRANCH  10  11
ATOM     11  C   UNL     1       4.538  11.128   7.707  1.00  0.00    -0.000 C 
BRANCH  11  12
ATOM     12  C   UNL     1       5.593  12.238   7.623  1.00  0.00    -0.000 C 
BRANCH  12  13
ATOM     13  C   UNL     1       5.802  12.906   8.990  1.00  0.00    -0.000 C 
BRANCH  13  14
ATOM     14  C   UNL     1       7.289  13.212   9.271  1.00  0.00    -0.000 C 
BRANCH  14  15
ATOM     15  C   UNL     1       7.928  12.270  10.305  1.00  0.00    -0.003 C 
ATOM     16  C   UNL     1       6.898  11.520  11.148  1.00  0.00     0.004 C 
ENDBRANCH  14  15
ENDBRANCH  13  14
ENDBRANCH  12  13
ENDBRANCH  11  12
ENDBRANCH  10  11
ENDBRANCH   1  10
TORSDOF 12
ENDMDL
MODEL 3
REMARK VINA RESULT:    -3.039      3.067      5.730
REMARK INTER + INTRA:          -6.969
REMARK INTER:                  -5.243
REMARK INTRA:                  -1.726
REMARK UNBOUND:                -1.798
REMARK SMILES CCCCCCCCCCCCCC(=O)[O-]
REMARK SMILES IDX 8 1 9 2 10 3 11 4 12 5 13 6 14 7 15 8 16 9 7 10 6 11 5 12
REMARK SMILES IDX 4 13 3 14 2 15 1 16
REMARK H PARENT
REMARK Flexibility Score: inf
ROOT
ATOM      1  C   UNL     1       4.743  11.447   7.875  1.00  0.00     0.000 C 
ENDROOT
BRANCH   1   2
ATOM      2  C   UNL     1       5.865  12.435   7.511  1.00  0.00     0.000 C 
BRANCH   2   3
ATOM      3  C   UNL     1       5.674  13.819   8.158  1.00  0.00     0.000 C 
BRANCH   3   4
ATOM      4  C   UNL     1       6.451  14.042   9.472  1.00  0.00     0.000 C 
BRANCH   4   5
ATOM      5  C   UNL     1       7.576  13.029   9.748  1.00  0.00     0.006 C 
BRANCH   5   6
ATOM      6  C   UNL     1       7.356  12.234  11.041  1.00  0.00     0.053 C 
BRANCH   6   7
ATOM      7  C   UNL     1       8.620  12.177  11.839  1.00  0.00     0.041 C 
ATOM      8  O   UNL     1       8.581  12.263  13.095  1.00  0.00    -0.550 OA
ATOM      9  O   UNL     1       9.846  12.078  11.194  1.00  0.00    -0.550 OA
ENDBRANCH   6   7
ENDBRANCH   5   6
ENDBRANCH   4   5
ENDBRANCH   3   4
ENDBRANCH   2   3
ENDBRANCH   1   2
BRANCH   1  10
ATOM     10  C   UNL     1       5.270  10.023   8.122  1.00  0.00     0.000 C 
BRANCH  10  11
ATOM     11  C   UNL     1       6.664   9.793   7.521  1.00  0.00    -0.000 C 
BRANCH  11  12
ATOM     12  C   UNL     1       7.680   9.438   8.614  1.00  0.00    -0.000 C 
BRANCH  12  13
ATOM     13  C   UNL     1       9.073   9.990   8.274  1.00  0.00    -0.000 C 
BRANCH  13  14
ATOM     14  C   UNL     1       9.122  10.631   6.870  1.00  0.00    -0.000 C 
BRANCH  14  15
ATOM     15  C   UNL     1       9.983   9.848   5.865  1.00  0.00    -0.003 C 
ATOM     16  C   UNL     1       9.157   8.976   4.920  1.00  0.00     0.004 C 
ENDBRANCH  14  15
ENDBRANCH  13  14
ENDBRANCH  12  13
ENDBRANCH  11  12
ENDBRANCH  10  11
ENDBRANCH   1  10
TORSDOF 12
ENDMDL
MODEL 4
REMARK VINA RESULT:    -3.035      3.127      5.286
REMARK INTER + INTRA:          -6.961
REMARK INTER:                  -5.222
REMARK INTRA:                  -1.739
REMARK UNBOUND:                -1.798
REMARK SMILES CCCCCCCCCCCCCC(=O)[O-]
REMARK SMILES IDX 8 1 9 2 10 3 11 4 12 5 13 6 14 7 15 8 16 9 7 10 6 11 5 12
REMARK SMILES IDX 4 13 3 14 2 15 1 16
REMARK H PARENT
REMARK Flexibility Score: inf
ROOT
ATOM      1  C   UNL     1       9.072   9.857   8.376  1.00  0.00     0.000 C 
ENDROOT
BRANCH   1   2
ATOM      2  C   UNL     1       7.938   9.041   9.021  1.00  0.00     0.000 C 
BRANCH   2   3
ATOM      3  C   UNL     1       6.539   9.542   8.619  1.00  0.00     0.000 C 
BRANCH   3   4
ATOM      4  C   UNL     1       6.520  10.666   7.563  1.00  0.00     0.000 C 
BRANCH   4   5
ATOM      5  C   UNL     1       5.610  11.862   7.896  1.00  0.00     0.006 C 
BRANCH   5   6
ATOM      6  C   UNL     1       6.256  13.212   7.564  1.00  0.00     0.053 C 
BRANCH   6   7
ATOM      7  C   UNL     1       7.660  13.260   8.079  1.00  0.00     0.041 C 
ATOM      8  O   UNL     1       7.889  13.119   9.309  1.00  0.00    -0.550 OA
ATOM      9  O   UNL     1       8.712  13.509   7.208  1.00  0.00    -0.550 OA
ENDBRANCH   6   7
ENDBRANCH   5   6
ENDBRANCH   4   5
ENDBRANCH   3   4
ENDBRANCH   2   3
ENDBRANCH   1   2
BRANCH   1  10
ATOM     10  C   UNL     1       9.878   9.040   7.353  1.00  0.00     0.000 C 
BRANCH  10  11
ATOM     11  C   UNL     1       9.919   9.699   5.967  1.00  0.00    -0.000 C 
BRANCH  11  12
ATOM     12  C   UNL     1       8.923   9.029   5.012  1.00  0.00    -0.000 C 
BRANCH  12  13
ATOM     13  C   UNL     1       8.721   7.550   5.374  1.00  0.00    -0.000 C 
BRANCH  13  14
ATOM     14  C   UNL     1       7.238   7.128   5.303  1.00  0.00    -0.000 C 
BRANCH  14  15
ATOM     15  C   UNL     1       6.712   6.503   6.606  1.00  0.00    -0.003 C 
ATOM     16  C   UNL     1       7.489   5.257   7.028  1.00  0.00     0.004 C 
ENDBRANCH  14  15
ENDBRANCH  13  14
ENDBRANCH  12  13
ENDBRANCH  11  12
ENDBRANCH  10  11
ENDBRANCH   1  10
TORSDOF 12
ENDMDL
MODEL 5
REMARK VINA RESULT:    -3.032      1.429      3.417
REMARK INTER + INTRA:          -6.957
REMARK INTER:                  -5.108
REMARK INTRA:                  -1.849
REMARK UNBOUND:                -1.798
REMARK SMILES CCCCCCCCCCCCCC(=O)[O-]
REMARK SMILES IDX 8 1 9 2 10 3 11 4 12 5 13 6 14 7 15 8 16 9 7 10 6 11 5 12
REMARK SMILES IDX 4 13 3 14 2 15 1 16
REMARK H PARENT
REMARK Flexibility Score: inf
ROOT
ATOM      1  C   UNL     1       5.282  12.020   8.169  1.00  0.00     0.000 C 
ENDROOT
BRANCH   1   2
ATOM      2  C   UNL     1       5.318  10.489   8.026  1.00  0.00     0.000 C 
BRANCH   2   3
ATOM      3  C   UNL     1       6.591   9.984   7.324  1.00  0.00     0.000 C 
BRANCH   3   4
ATOM      4  C   UNL     1       7.586   9.228   8.228  1.00  0.00     0.000 C 
BRANCH   4   5
ATOM      5  C   UNL     1       9.072   9.458   7.901  1.00  0.00     0.006 C 
BRANCH   5   6
ATOM      6  C   UNL     1       9.280  10.379   6.692  1.00  0.00     0.053 C 
BRANCH   6   7
ATOM      7  C   UNL     1       9.829   9.606   5.535  1.00  0.00     0.041 C 
ATOM      8  O   UNL     1      11.073   9.529   5.358  1.00  0.00    -0.550 OA
ATOM      9  O   UNL     1       8.966   9.011   4.624  1.00  0.00    -0.550 OA
ENDBRANCH   6   7
ENDBRANCH   5   6
ENDBRANCH   4   5
ENDBRANCH   3   4
ENDBRANCH   2   3
ENDBRANCH   1   2
BRANCH   1  10
ATOM     10  C   UNL     1       6.496  12.702   7.517  1.00  0.00     0.000 C 
BRANCH  10  11
ATOM     11  C   UNL     1       7.410  13.391   8.540  1.00  0.00    -0.000 C 
BRANCH  11  12
ATOM     12  C   UNL     1       6.685  13.589   9.877  1.00  0.00    -0.000 C 
BRANCH  12  13
ATOM     13  C   UNL     1       7.548  13.103  11.051  1.00  0.00    -0.000 C 
BRANCH  13  14
ATOM     14  C   UNL     1       7.870  11.596  10.956  1.00  0.00    -0.000 C 
BRANCH  14  15
ATOM     15  C   UNL     1       9.376  11.285  10.990  1.00  0.00    -0.003 C 
ATOM     16  C   UNL     1      10.166  12.247  11.876  1.00  0.00     0.004 C 
ENDBRANCH  14  15
ENDBRANCH  13  14
ENDBRANCH  12  13
ENDBRANCH  11  12
ENDBRANCH  10  11
ENDBRANCH   1  10
TORSDOF 12
ENDMDL
MODEL 6
REMARK VINA RESULT:    -3.014      2.373      3.479
REMARK INTER + INTRA:          -6.926
REMARK INTER:                  -5.266
REMARK INTRA:                  -1.660
REMARK UNBOUND:                -1.798
REMARK SMILES CCCCCCCCCCCCCC(=O)[O-]
REMARK SMILES IDX 8 1 9 2 10 3 11 4 12 5 13 6 14 7 15 8 16 9 7 10 6 11 5 12
REMARK SMILES IDX 4 13 3 14 2 15 1 16
REMARK H PARENT
REMARK Flexibility Score: inf
ROOT
ATOM      1  C   UNL     1       5.800  10.850   7.625  1.00  0.00     0.000 C 
ENDROOT
BRANCH   1   2
ATOM      2  C   UNL     1       6.131   9.837   8.735  1.00  0.00     0.000 C 
BRANCH   2   3
ATOM      3  C   UNL     1       7.010   8.674   8.240  1.00  0.00     0.000 C 
BRANCH   3   4
ATOM      4  C   UNL     1       7.689   8.899   6.874  1.00  0.00     0.000 C 
BRANCH   4   5
ATOM      5  C   UNL     1       9.190   9.232   6.936  1.00  0.00     0.006 C 
BRANCH   5   6
ATOM      6  C   UNL     1       9.517  10.615   6.359  1.00  0.00     0.053 C 
BRANCH   6   7
ATOM      7  C   UNL     1       9.348  11.670   7.406  1.00  0.00     0.041 C 
ATOM      8  O   UNL     1       9.210  12.876   7.073  1.00  0.00    -0.550 OA
ATOM      9  O   UNL     1       9.394  11.328   8.752  1.00  0.00    -0.550 OA
ENDBRANCH   6   7
ENDBRANCH   5   6
ENDBRANCH   4   5
ENDBRANCH   3   4
ENDBRANCH   2   3
ENDBRANCH   1   2
BRANCH   1  10
ATOM     10  C   UNL     1       4.383  11.432   7.762  1.00  0.00     0.000 C 
BRANCH  10  11
ATOM     11  C   UNL     1       4.381  12.962   7.894  1.00  0.00    -0.000 C 
BRANCH  11  12
ATOM     12  C   UNL     1       5.737  13.549   7.486  1.00  0.00    -0.000 C 
BRANCH  12  13
ATOM     13  C   UNL     1       6.292  14.472   8.583  1.00  0.00    -0.000 C 
BRANCH  13  14
ATOM     14  C   UNL     1       6.039  13.914  10.000  1.00  0.00    -0.000 C 
BRANCH  14  15
ATOM     15  C   UNL     1       7.260  13.210  10.613  1.00  0.00    -0.003 C 
ATOM     16  C   UNL     1       6.882  12.096  11.588  1.00  0.00     0.004 C 
ENDBRANCH  14  15
ENDBRANCH  13  14
ENDBRANCH  12  13
ENDBRANCH  11  12
ENDBRANCH  10  11
ENDBRANCH   1  10
TORSDOF 12
ENDMDL
MODEL 7
REMARK VINA RESULT:    -2.987      3.263      5.715
REMARK INTER + INTRA:          -6.881
REMARK INTER:                  -5.170
REMARK INTRA:                  -1.710
REMARK UNBOUND:                -1.798
REMARK SMILES CCCCCCCCCCCCCC(=O)[O-]
REMARK SMILES IDX 8 1 9 2 10 3 11 4 12 5 13 6 14 7 15 8 16 9 7 10 6 11 5 12
REMARK SMILES IDX 4 13 3 14 2 15 1 16
REMARK H PARENT
REMARK Flexibility Score: inf
ROOT
ATOM      1  C   UNL     1       6.005   9.069   8.678  1.00  0.00     0.000 C 
ENDROOT
BRANCH   1   2
ATOM      2  C   UNL     1       5.476   9.991   7.566  1.00  0.00     0.000 C 
BRANCH   2   3
ATOM      3  C   UNL     1       4.477  11.041   8.085  1.00  0.00     0.000 C 
BRANCH   3   4
ATOM      4  C   UNL     1       4.759  12.492   7.644  1.00  0.00     0.000 C 
BRANCH   4   5
ATOM      5  C   UNL     1       6.228  12.937   7.759  1.00  0.00     0.006 C 
BRANCH   5   6
ATOM      6  C   UNL     1       6.439  14.020   8.824  1.00  0.00     0.053 C 
BRANCH   6   7
ATOM      7  C   UNL     1       6.736  13.397  10.151  1.00  0.00     0.041 C 
ATOM      8  O   UNL     1       5.796  13.072  10.923  1.00  0.00    -0.550 OA
ATOM      9  O   UNL     1       8.052  13.218  10.557  1.00  0.00    -0.550 OA
ENDBRANCH   6   7
ENDBRANCH   5   6
ENDBRANCH   4   5
ENDBRANCH   3   4
ENDBRANCH   2   3
ENDBRANCH   1   2
BRANCH   1  10
ATOM     10  C   UNL     1       7.119   9.727   9.510  1.00  0.00     0.000 C 
BRANCH  10  11
ATOM     11  C   UNL     1       8.520   9.457   8.943  1.00  0.00    -0.000 C 
BRANCH  11  12
ATOM     12  C   UNL     1       9.233  10.769   8.596  1.00  0.00    -0.000 C 
BRANCH  12  13
ATOM     13  C   UNL     1       9.147  11.064   7.091  1.00  0.00    -0.000 C 
BRANCH  13  14
ATOM     14  C   UNL     1       9.024   9.776   6.248  1.00  0.00    -0.000 C 
BRANCH  14  15
ATOM     15  C   UNL     1      10.351   9.326   5.614  1.00  0.00    -0.003 C 
ATOM     16  C   UNL     1      10.954   8.098   6.295  1.00  0.00     0.004 C 
ENDBRANCH  14  15
ENDBRANCH  13  14
ENDBRANCH  12  13
ENDBRANCH  11  12
ENDBRANCH  10  11
ENDBRANCH   1  10
TORSDOF 12
ENDMDL
MODEL 8
REMARK VINA RESULT:    -2.949      4.250      5.898
REMARK INTER + INTRA:          -6.815
REMARK INTER:                  -4.801
REMARK INTRA:                  -2.014
REMARK UNBOUND:                -1.798
REMARK SMILES CCCCCCCCCCCCCC(=O)[O-]
REMARK SMILES IDX 8 1 9 2 10 3 11 4 12 5 13 6 14 7 15 8 16 9 7 10 6 11 5 12
REMARK SMILES IDX 4 13 3 14 2 15 1 16
REMARK H PARENT
REMARK Flexibility Score: inf
ROOT
ATOM      1  C   UNL     1       7.758  11.768  11.186  1.00  0.00     0.000 C 
ENDROOT
BRANCH   1   2
ATOM      2  C   UNL     1       7.545  13.248  10.823  1.00  0.00     0.000 C 
BRANCH   2   3
ATOM      3  C   UNL     1       6.327  13.470   9.909  1.00  0.00     0.000 C 
BRANCH   3   4
ATOM      4  C   UNL     1       6.622  14.202   8.584  1.00  0.00     0.000 C 
BRANCH   4   5
ATOM      5  C   UNL     1       5.843  13.684   7.362  1.00  0.00     0.006 C 
BRANCH   5   6
ATOM      6  C   UNL     1       4.326  13.851   7.510  1.00  0.00     0.053 C 
BRANCH   6   7
ATOM      7  C   UNL     1       3.908  15.226   7.092  1.00  0.00     0.041 C 
ATOM      8  O   UNL     1       3.618  16.090   7.960  1.00  0.00    -0.550 OA
ATOM      9  O   UNL     1       3.793  15.537   5.744  1.00  0.00    -0.550 OA
ENDBRANCH   6   7
ENDBRANCH   5   6
ENDBRANCH   4   5
ENDBRANCH   3   4
ENDBRANCH   2   3
ENDBRANCH   1   2
BRANCH   1  10
ATOM     10  C   UNL     1       9.083  11.212  10.639  1.00  0.00     0.000 C 
BRANCH  10  11
ATOM     11  C   UNL     1       8.879  10.210   9.493  1.00  0.00    -0.000 C 
BRANCH  11  12
ATOM     12  C   UNL     1       9.077  10.886   8.132  1.00  0.00    -0.000 C 
BRANCH  12  13
ATOM     13  C   UNL     1       7.851  10.681   7.229  1.00  0.00    -0.000 C 
BRANCH  13  14
ATOM     14  C   UNL     1       6.845   9.676   7.828  1.00  0.00    -0.000 C 
BRANCH  14  15
ATOM     15  C   UNL     1       5.384  10.153   7.762  1.00  0.00    -0.003 C 
ATOM     16  C   UNL     1       4.740  10.301   9.139  1.00  0.00     0.004 C 
ENDBRANCH  14  15
ENDBRANCH  13  14
ENDBRANCH  12  13
ENDBRANCH  11  12
ENDBRANCH  10  11
ENDBRANCH   1  10
TORSDOF 12
ENDMDL
MODEL 9
REMARK VINA RESULT:    -2.895      3.029      5.659
REMARK INTER + INTRA:          -6.723
REMARK INTER:                  -5.054
REMARK INTRA:                  -1.669
REMARK UNBOUND:                -1.798
REMARK SMILES CCCCCCCCCCCCCC(=O)[O-]
REMARK SMILES IDX 8 1 9 2 10 3 11 4 12 5 13 6 14 7 15 8 16 9 7 10 6 11 5 12
REMARK SMILES IDX 4 13 3 14 2 15 1 16
REMARK H PARENT
REMARK Flexibility Score: inf
ROOT
ATOM      1  C   UNL     1       6.588  10.561   7.800  1.00  0.00     0.000 C 
ENDROOT
BRANCH   1   2
ATOM      2  C   UNL     1       5.633  11.767   7.825  1.00  0.00     0.000 C 
BRANCH   2   3
ATOM      3  C   UNL     1       6.352  13.103   7.570  1.00  0.00     0.000 C 
BRANCH   3   4
ATOM      4  C   UNL     1       6.370  14.078   8.765  1.00  0.00     0.000 C 
BRANCH   4   5
ATOM      5  C   UNL     1       6.153  13.429  10.143  1.00  0.00     0.006 C 
BRANCH   5   6
ATOM      6  C   UNL     1       7.458  13.245  10.927  1.00  0.00     0.053 C 
BRANCH   6   7
ATOM      7  C   UNL     1       7.677  11.799  11.244  1.00  0.00     0.041 C 
ATOM      8  O   UNL     1       6.705  10.999  11.254  1.00  0.00    -0.550 OA
ATOM      9  O   UNL     1       8.946  11.344  11.577  1.00  0.00    -0.550 OA
ENDBRANCH   6   7
ENDBRANCH   5   6
ENDBRANCH   4   5
ENDBRANCH   3   4
ENDBRANCH   2   3
ENDBRANCH   1   2
BRANCH   1  10
ATOM     10  C   UNL     1       8.054  10.973   7.585  1.00  0.00     0.000 C 
BRANCH  10  11
ATOM     11  C   UNL     1       9.045  10.018   8.264  1.00  0.00    -0.000 C 
BRANCH  11  12
ATOM     12  C   UNL     1       9.873   9.255   7.222  1.00  0.00    -0.000 C 
BRANCH  12  13
ATOM     13  C   UNL     1       9.667   9.841   5.817  1.00  0.00    -0.000 C 
BRANCH  13  14
ATOM     14  C   UNL     1       9.046   8.818   4.842  1.00  0.00    -0.000 C 
BRANCH  14  15
ATOM     15  C   UNL     1       8.572   7.525   5.525  1.00  0.00    -0.003 C 
ATOM     16  C   UNL     1       7.056   7.465   5.708  1.00  0.00     0.004 C 
ENDBRANCH  14  15
ENDBRANCH  13  14
ENDBRANCH  12  13
ENDBRANCH  11  12
ENDBRANCH  10  11
ENDBRANCH   1  10
TORSDOF 12
ENDMDL
