MODEL 1
REMARK VINA RESULT:     0.614      0.000      0.000
REMARK INTER + INTRA:           1.578
REMARK INTER:                   0.758
REMARK INTRA:                   0.820
REMARK UNBOUND:                 0.820
REMARK SMILES CC1=CC=CC(C)(C)CC1=O
REMARK SMILES IDX 1 1 2 2 3 3 10 4 11 5 9 6 4 8 5 9 6 10 7 11 8 12
REMARK H PARENT
REMARK Flexibility Score: 80.00
ROOT
ATOM      1  C   UNL     1      -2.463   6.834   9.518  1.00  0.00     0.048 C 
ATOM      2  C   UNL     1      -3.574   5.854   9.217  1.00  0.00    -0.008 C 
ATOM      3  C   UNL     1      -4.629   5.818  10.059  1.00  0.00     0.007 C 
ENDROOT
BRANCH   2   4
ATOM      4  C   UNL     1      -3.433   5.046   7.976  1.00  0.00     0.159 C 
ATOM      5  O   UNL     1      -2.394   5.192   7.275  1.00  0.00    -0.295 OA
BRANCH   4   6
ATOM      6  C   UNL     1      -4.472   4.086   7.476  1.00  0.00     0.091 CG0
ATOM      7  G   UNL     1      -5.003   3.117   8.555  1.00  0.00     0.000 G0
ENDBRANCH   4   6
ENDBRANCH   2   4
BRANCH   3   8
ATOM      8  C   UNL     1      -5.840   4.966  10.024  1.00  0.00    -0.003 C 
ATOM      9  C   UNL     1      -6.018   3.794   9.403  1.00  0.00    -0.020 C 
BRANCH   9  10
ATOM     10  C   UNL     1      -5.015   3.093   8.518  1.00  0.00    -0.010 CG0
ATOM     11  C   UNL     1      -5.753   1.981   7.737  1.00  0.00     0.016 C 
ATOM     12  C   UNL     1      -3.918   2.423   9.376  1.00  0.00     0.016 C 
ATOM     13  G   UNL     1      -4.441   4.100   7.495  1.00  0.00     0.000 G0
ENDBRANCH   9  10
ENDBRANCH   3   8
TORSDOF 0
ENDMDL
MODEL 2
REMARK VINA RESULT:     0.705      1.401      3.448
REMARK INTER + INTRA:           1.690
REMARK INTER:                   0.811
REMARK INTRA:                   0.880
REMARK UNBOUND:                 0.820
REMARK SMILES CC1=CC=CC(C)(C)CC1=O
REMARK SMILES IDX 1 1 2 2 3 3 10 4 11 5 9 6 4 8 5 9 6 10 7 11 8 12
REMARK H PARENT
REMARK Flexibility Score: 80.00
ROOT
ATOM      1  C   UNL     1      -6.420   2.255   7.903  1.00  0.00     0.048 C 
ATOM      2  C   UNL     1      -5.492   3.292   8.491  1.00  0.00    -0.008 C 
ATOM      3  C   UNL     1      -6.001   4.151   9.400  1.00  0.00     0.007 C 
ENDROOT
BRANCH   2   4
ATOM      4  C   UNL     1      -4.071   3.240   8.055  1.00  0.00     0.159 C 
ATOM      5  O   UNL     1      -3.738   2.392   7.182  1.00  0.00    -0.295 OA
BRANCH   4   6
ATOM      6  C   UNL     1      -2.987   4.111   8.617  1.00  0.00     0.091 CG0
ATOM      7  G   UNL     1      -3.333   5.617   8.625  1.00  0.00     0.000 G0
ENDBRANCH   4   6
ENDBRANCH   2   4
BRANCH   3   8
ATOM      8  C   UNL     1      -5.342   5.262  10.125  1.00  0.00    -0.003 C 
ATOM      9  C   UNL     1      -4.223   5.920   9.804  1.00  0.00    -0.020 C 
BRANCH   9  10
ATOM     10  C   UNL     1      -3.318   5.621   8.633  1.00  0.00    -0.010 CG0
ATOM     11  C   UNL     1      -2.006   6.419   8.818  1.00  0.00     0.016 C 
ATOM     12  C   UNL     1      -3.976   6.088   7.314  1.00  0.00     0.016 C 
ATOM     13  G   UNL     1      -2.968   4.116   8.625  1.00  0.00     0.000 G0
ENDBRANCH   9  10
ENDBRANCH   3   8
TORSDOF 0
ENDMDL
MODEL 3
REMARK VINA RESULT:     0.750      1.903      3.800
REMARK INTER + INTRA:           1.746
REMARK INTER:                   0.623
REMARK INTRA:                   1.123
REMARK UNBOUND:                 0.820
REMARK SMILES CC1=CC=CC(C)(C)CC1=O
REMARK SMILES IDX 1 1 2 2 3 3 10 4 11 5 9 6 4 8 5 9 6 10 7 11 8 12
REMARK H PARENT
REMARK Flexibility Score: 80.00
ROOT
ATOM      1  C   UNL     1      -7.077   3.036   9.262  1.00  0.00     0.048 C 
ATOM      2  C   UNL     1      -5.669   3.564   9.114  1.00  0.00    -0.008 C 
ATOM      3  C   UNL     1      -4.787   2.819   8.414  1.00  0.00     0.007 C 
ENDROOT
BRANCH   2   4
ATOM      4  C   UNL     1      -5.389   4.897   9.713  1.00  0.00     0.159 C 
ATOM      5  O   UNL     1      -6.359   5.589  10.125  1.00  0.00    -0.295 OA
BRANCH   4   6
ATOM      6  C   UNL     1      -4.019   5.496   9.825  1.00  0.00     0.091 CG0
ATOM      7  G   UNL     1      -3.256   5.574   8.483  1.00  0.00     0.000 G0
ENDBRANCH   4   6
ENDBRANCH   2   4
BRANCH   3   8
ATOM      8  C   UNL     1      -3.358   3.073   8.119  1.00  0.00    -0.003 C 
ATOM      9  C   UNL     1      -2.687   4.229   8.174  1.00  0.00    -0.020 C 
BRANCH   9  10
ATOM     10  C   UNL     1      -3.272   5.585   8.492  1.00  0.00    -0.010 CG0
ATOM     11  C   UNL     1      -4.290   5.945   7.385  1.00  0.00     0.016 C 
ATOM     12  C   UNL     1      -2.164   6.663   8.487  1.00  0.00     0.016 C 
ATOM     13  G   UNL     1      -4.030   5.514   9.837  1.00  0.00     0.000 G0
ENDBRANCH   9  10
ENDBRANCH   3   8
TORSDOF 0
ENDMDL
MODEL 4
REMARK VINA RESULT:     1.294      1.485      2.471
REMARK INTER + INTRA:           2.417
REMARK INTER:                   1.411
REMARK INTRA:                   1.006
REMARK UNBOUND:                 0.820
REMARK SMILES CC1=CC=CC(C)(C)CC1=O
REMARK SMILES IDX 1 1 2 2 3 3 10 4 11 5 9 6 4 8 5 9 6 10 7 11 8 12
REMARK H PARENT
REMARK Flexibility Score: 80.00
ROOT
ATOM      1  C   UNL     1      -1.742   6.630   8.482  1.00  0.00     0.048 C 
ATOM      2  C   UNL     1      -2.960   5.749   8.318  1.00  0.00    -0.008 C 
ATOM      3  C   UNL     1      -2.891   4.736   7.428  1.00  0.00     0.007 C 
ENDROOT
BRANCH   2   4
ATOM      4  C   UNL     1      -4.120   6.043   9.201  1.00  0.00     0.159 C 
ATOM      5  O   UNL     1      -3.978   6.895  10.121  1.00  0.00    -0.295 OA
BRANCH   4   6
ATOM      6  C   UNL     1      -5.451   5.360   9.095  1.00  0.00     0.091 CG0
ATOM      7  G   UNL     1      -5.367   3.817   9.095  1.00  0.00     0.000 G0
ENDBRANCH   4   6
ENDBRANCH   2   4
BRANCH   3   8
ATOM      8  C   UNL     1      -3.915   3.734   7.053  1.00  0.00    -0.003 C 
ATOM      9  C   UNL     1      -5.008   3.365   7.729  1.00  0.00    -0.020 C 
BRANCH   9  10
ATOM     10  C   UNL     1      -5.416   3.855   9.098  1.00  0.00    -0.010 CG0
ATOM     11  C   UNL     1      -4.374   3.350  10.123  1.00  0.00     0.016 C 
ATOM     12  C   UNL     1      -6.791   3.267   9.491  1.00  0.00     0.016 C 
ATOM     13  G   UNL     1      -5.401   5.400   9.117  1.00  0.00     0.000 G0
ENDBRANCH   9  10
ENDBRANCH   3   8
TORSDOF 0
ENDMDL
MODEL 5
REMARK VINA RESULT:     1.517      1.950      3.986
REMARK INTER + INTRA:           2.692
REMARK INTER:                   1.860
REMARK INTRA:                   0.833
REMARK UNBOUND:                 0.820
REMARK SMILES CC1=CC=CC(C)(C)CC1=O
REMARK SMILES IDX 1 1 2 2 3 3 10 4 11 5 9 6 4 8 5 9 6 10 7 11 8 12
REMARK H PARENT
REMARK Flexibility Score: 80.00
ROOT
ATOM      1  C   UNL     1      -4.307   2.227   7.638  1.00  0.00     0.048 C 
ATOM      2  C   UNL     1      -4.141   3.709   7.885  1.00  0.00    -0.008 C 
ATOM      3  C   UNL     1      -3.640   4.463   6.883  1.00  0.00     0.007 C 
ENDROOT
BRANCH   2   4
ATOM      4  C   UNL     1      -4.601   4.222   9.203  1.00  0.00     0.159 C 
ATOM      5  O   UNL     1      -5.008   3.395  10.064  1.00  0.00    -0.295 OA
BRANCH   4   6
ATOM      6  C   UNL     1      -4.652   5.676   9.567  1.00  0.00     0.091 CG0
ATOM      7  G   UNL     1      -3.320   6.427   9.340  1.00  0.00     0.000 G0
ENDBRANCH   4   6
ENDBRANCH   2   4
BRANCH   3   8
ATOM      8  C   UNL     1      -3.361   5.917   6.840  1.00  0.00    -0.003 C 
ATOM      9  C   UNL     1      -3.200   6.766   7.862  1.00  0.00    -0.020 C 
BRANCH   9  10
ATOM     10  C   UNL     1      -3.340   6.432   9.328  1.00  0.00    -0.010 CG0
ATOM     11  C   UNL     1      -3.428   7.758  10.120  1.00  0.00     0.016 C 
ATOM     12  C   UNL     1      -2.094   5.664   9.825  1.00  0.00     0.016 C 
ATOM     13  G   UNL     1      -4.653   5.649   9.553  1.00  0.00     0.000 G0
ENDBRANCH   9  10
ENDBRANCH   3   8
TORSDOF 0
ENDMDL
MODEL 6
REMARK VINA RESULT:     2.430      1.711      3.333
REMARK INTER + INTRA:           3.819
REMARK INTER:                   2.740
REMARK INTRA:                   1.079
REMARK UNBOUND:                 0.820
REMARK SMILES CC1=CC=CC(C)(C)CC1=O
REMARK SMILES IDX 1 1 2 2 3 3 10 4 11 5 9 6 4 8 5 9 6 10 7 11 8 12
REMARK H PARENT
REMARK Flexibility Score: 80.00
ROOT
ATOM      1  C   UNL     1      -2.658   3.819   5.017  1.00  0.00     0.048 C 
ATOM      2  C   UNL     1      -3.389   4.219   6.278  1.00  0.00    -0.008 C 
ATOM      3  C   UNL     1      -3.746   3.241   7.137  1.00  0.00     0.007 C 
ENDROOT
BRANCH   2   4
ATOM      4  C   UNL     1      -3.605   5.675   6.491  1.00  0.00     0.159 C 
ATOM      5  O   UNL     1      -3.057   6.489   5.698  1.00  0.00    -0.295 OA
BRANCH   4   6
ATOM      6  C   UNL     1      -4.407   6.250   7.621  1.00  0.00     0.091 CG0
ATOM      7  G   UNL     1      -3.996   5.722   9.014  1.00  0.00     0.000 G0
ENDBRANCH   4   6
ENDBRANCH   2   4
BRANCH   3   8
ATOM      8  C   UNL     1      -4.471   3.331   8.426  1.00  0.00    -0.003 C 
ATOM      9  C   UNL     1      -4.632   4.395   9.220  1.00  0.00    -0.020 C 
BRANCH   9  10
ATOM     10  C   UNL     1      -4.034   5.765   9.006  1.00  0.00    -0.010 CG0
ATOM     11  C   UNL     1      -2.494   5.640   9.088  1.00  0.00     0.016 C 
ATOM     12  C   UNL     1      -4.492   6.731  10.123  1.00  0.00     0.016 C 
ATOM     13  G   UNL     1      -4.400   6.271   7.592  1.00  0.00     0.000 G0
ENDBRANCH   9  10
ENDBRANCH   3   8
TORSDOF 0
ENDMDL
MODEL 7
REMARK VINA RESULT:     2.871      1.754      2.757
REMARK INTER + INTRA:           4.363
REMARK INTER:                   3.282
REMARK INTRA:                   1.081
REMARK UNBOUND:                 0.820
REMARK SMILES CC1=CC=CC(C)(C)CC1=O
REMARK SMILES IDX 1 1 2 2 3 3 10 4 11 5 9 6 4 8 5 9 6 10 7 11 8 12
REMARK H PARENT
REMARK Flexibility Score: 80.00
ROOT
ATOM      1  C   UNL     1      -4.386   6.171  10.125  1.00  0.00     0.048 C 
ATOM      2  C   UNL     1      -4.347   5.253   8.925  1.00  0.00    -0.008 C 
ATOM      3  C   UNL     1      -3.521   5.579   7.908  1.00  0.00     0.007 C 
ENDROOT
BRANCH   2   4
ATOM      4  C   UNL     1      -5.190   4.030   8.993  1.00  0.00     0.159 C 
ATOM      5  O   UNL     1      -5.701   3.709  10.100  1.00  0.00    -0.295 OA
BRANCH   4   6
ATOM      6  C   UNL     1      -5.444   3.119   7.828  1.00  0.00     0.091 CG0
ATOM      7  G   UNL     1      -4.160   2.540   7.192  1.00  0.00     0.000 G0
ENDBRANCH   4   6
ENDBRANCH   2   4
BRANCH   3   8
ATOM      8  C   UNL     1      -3.284   4.886   6.621  1.00  0.00    -0.003 C 
ATOM      9  C   UNL     1      -3.580   3.626   6.285  1.00  0.00    -0.020 C 
BRANCH   9  10
ATOM     10  C   UNL     1      -4.177   2.579   7.195  1.00  0.00    -0.010 CG0
ATOM     11  C   UNL     1      -3.151   2.262   8.307  1.00  0.00     0.016 C 
ATOM     12  C   UNL     1      -4.444   1.274   6.409  1.00  0.00     0.016 C 
ATOM     13  G   UNL     1      -5.451   3.143   7.862  1.00  0.00     0.000 G0
ENDBRANCH   9  10
ENDBRANCH   3   8
TORSDOF 0
ENDMDL
