MODEL 1
REMARK VINA RESULT:    -4.404      0.000      0.000
REMARK INTER + INTRA:          -5.138
REMARK INTER:                  -4.919
REMARK INTRA:                  -0.219
REMARK UNBOUND:                -0.219
REMARK SMILES CC(C)c1ccc(C(=O)[O-])cc1
REMARK SMILES IDX 7 1 6 2 11 3 5 4 12 5 4 6 8 7 9 8 10 9 2 10 1 11 3 12
REMARK H PARENT
REMARK Flexibility Score: inf
ROOT
ATOM      1  C   UNL     1      59.202  27.150  49.759  1.00  0.00    -0.003 A 
ATOM      2  C   UNL     1      58.819  28.487  49.955  1.00  0.00     0.010 A 
ATOM      3  C   UNL     1      58.218  26.147  49.797  1.00  0.00     0.010 A 
ATOM      4  C   UNL     1      57.480  28.815  50.184  1.00  0.00     0.004 A 
ATOM      5  C   UNL     1      56.879  26.475  50.026  1.00  0.00     0.004 A 
ATOM      6  C   UNL     1      56.494  27.813  50.223  1.00  0.00    -0.045 A 
ENDROOT
BRANCH   1   7
ATOM      7  C   UNL     1      60.621  26.806  49.517  1.00  0.00     0.071 C 
ATOM      8  O   UNL     1      61.028  25.622  49.663  1.00  0.00    -0.545 OA
ATOM      9  O   UNL     1      61.525  27.785  49.123  1.00  0.00    -0.545 OA
ENDBRANCH   1   7
BRANCH   6  10
ATOM     10  C   UNL     1      55.037  28.155  50.471  1.00  0.00     0.013 C 
ATOM     11  C   UNL     1      54.813  29.670  50.445  1.00  0.00     0.012 C 
ATOM     12  C   UNL     1      54.124  27.444  49.465  1.00  0.00     0.012 C 
ENDBRANCH   6  10
TORSDOF 2
ENDMDL
MODEL 2
REMARK VINA RESULT:    -4.384      0.092      1.400
REMARK INTER + INTRA:          -5.116
REMARK INTER:                  -4.898
REMARK INTRA:                  -0.218
REMARK UNBOUND:                -0.219
REMARK SMILES CC(C)c1ccc(C(=O)[O-])cc1
REMARK SMILES IDX 7 1 6 2 11 3 5 4 12 5 4 6 8 7 9 8 10 9 2 10 1 11 3 12
REMARK H PARENT
REMARK Flexibility Score: inf
ROOT
ATOM      1  C   UNL     1      59.252  27.179  49.740  1.00  0.00    -0.003 A 
ATOM      2  C   UNL     1      58.300  26.148  49.809  1.00  0.00     0.010 A 
ATOM      3  C   UNL     1      58.828  28.509  49.900  1.00  0.00     0.010 A 
ATOM      4  C   UNL     1      56.952  26.442  50.034  1.00  0.00     0.004 A 
ATOM      5  C   UNL     1      57.480  28.802  50.125  1.00  0.00     0.004 A 
ATOM      6  C   UNL     1      56.526  27.772  50.194  1.00  0.00    -0.045 A 
ENDROOT
BRANCH   1   7
ATOM      7  C   UNL     1      60.678  26.865  49.503  1.00  0.00     0.071 C 
ATOM      8  O   UNL     1      61.132  25.716  49.752  1.00  0.00    -0.545 OA
ATOM      9  O   UNL     1      61.539  27.834  49.000  1.00  0.00    -0.545 OA
ENDBRANCH   1   7
BRANCH   6  10
ATOM     10  C   UNL     1      55.066  28.105  50.437  1.00  0.00     0.013 C 
ATOM     11  C   UNL     1      54.846  29.620  50.495  1.00  0.00     0.012 C 
ATOM     12  C   UNL     1      54.168  27.457  49.375  1.00  0.00     0.012 C 
ENDBRANCH   6  10
TORSDOF 2
ENDMDL
MODEL 3
REMARK VINA RESULT:    -4.372      3.385      4.901
REMARK INTER + INTRA:          -5.103
REMARK INTER:                  -4.899
REMARK INTRA:                  -0.203
REMARK UNBOUND:                -0.219
REMARK SMILES CC(C)c1ccc(C(=O)[O-])cc1
REMARK SMILES IDX 7 1 6 2 11 3 5 4 12 5 4 6 8 7 9 8 10 9 2 10 1 11 3 12
REMARK H PARENT
REMARK Flexibility Score: inf
ROOT
ATOM      1  C   UNL     1      55.148  26.497  49.527  1.00  0.00    -0.003 A 
ATOM      2  C   UNL     1      56.473  26.037  49.600  1.00  0.00     0.010 A 
ATOM      3  C   UNL     1      54.876  27.842  49.828  1.00  0.00     0.010 A 
ATOM      4  C   UNL     1      57.506  26.905  49.966  1.00  0.00     0.004 A 
ATOM      5  C   UNL     1      55.909  28.710  50.194  1.00  0.00     0.004 A 
ATOM      6  C   UNL     1      57.236  28.252  50.267  1.00  0.00    -0.045 A 
ENDROOT
BRANCH   1   7
ATOM      7  C   UNL     1      54.057  25.575  49.140  1.00  0.00     0.071 C 
ATOM      8  O   UNL     1      54.016  24.401  49.596  1.00  0.00    -0.545 OA
ATOM      9  O   UNL     1      53.059  25.993  48.266  1.00  0.00    -0.545 OA
ENDBRANCH   1   7
BRANCH   6  10
ATOM     10  C   UNL     1      58.347  29.204  50.667  1.00  0.00     0.013 C 
ATOM     11  C   UNL     1      59.031  28.745  51.959  1.00  0.00     0.012 C 
ATOM     12  C   UNL     1      59.366  29.370  49.532  1.00  0.00     0.012 C 
ENDBRANCH   6  10
TORSDOF 2
ENDMDL
MODEL 4
REMARK VINA RESULT:    -4.363     12.293     13.133
REMARK INTER + INTRA:          -5.093
REMARK INTER:                  -4.873
REMARK INTRA:                  -0.219
REMARK UNBOUND:                -0.219
REMARK SMILES CC(C)c1ccc(C(=O)[O-])cc1
REMARK SMILES IDX 7 1 6 2 11 3 5 4 12 5 4 6 8 7 9 8 10 9 2 10 1 11 3 12
REMARK H PARENT
REMARK Flexibility Score: inf
ROOT
ATOM      1  C   UNL     1      63.343  31.014  60.641  1.00  0.00    -0.003 A 
ATOM      2  C   UNL     1      62.017  31.433  60.442  1.00  0.00     0.010 A 
ATOM      3  C   UNL     1      64.372  31.971  60.599  1.00  0.00     0.010 A 
ATOM      4  C   UNL     1      61.726  32.779  60.208  1.00  0.00     0.004 A 
ATOM      5  C   UNL     1      64.081  33.317  60.365  1.00  0.00     0.004 A 
ATOM      6  C   UNL     1      62.754  33.737  60.165  1.00  0.00    -0.045 A 
ENDROOT
BRANCH   1   7
ATOM      7  C   UNL     1      63.648  29.588  60.890  1.00  0.00     0.071 C 
ATOM      8  O   UNL     1      64.817  29.145  60.731  1.00  0.00    -0.545 OA
ATOM      9  O   UNL     1      62.648  28.716  61.304  1.00  0.00    -0.545 OA
ENDBRANCH   1   7
BRANCH   6  10
ATOM     10  C   UNL     1      62.452  35.202  59.910  1.00  0.00     0.013 C 
ATOM     11  C   UNL     1      60.943  35.466  59.927  1.00  0.00     0.012 C 
ATOM     12  C   UNL     1      63.181  36.100  60.917  1.00  0.00     0.012 C 
ENDBRANCH   6  10
TORSDOF 2
ENDMDL
MODEL 5
REMARK VINA RESULT:    -4.356     12.320     13.143
REMARK INTER + INTRA:          -5.085
REMARK INTER:                  -4.865
REMARK INTRA:                  -0.220
REMARK UNBOUND:                -0.219
REMARK SMILES CC(C)c1ccc(C(=O)[O-])cc1
REMARK SMILES IDX 7 1 6 2 11 3 5 4 12 5 4 6 8 7 9 8 10 9 2 10 1 11 3 12
REMARK H PARENT
REMARK Flexibility Score: inf
ROOT
ATOM      1  C   UNL     1      63.349  30.991  60.659  1.00  0.00    -0.003 A 
ATOM      2  C   UNL     1      64.414  31.906  60.621  1.00  0.00     0.010 A 
ATOM      3  C   UNL     1      62.040  31.462  60.454  1.00  0.00     0.010 A 
ATOM      4  C   UNL     1      64.176  33.263  60.384  1.00  0.00     0.004 A 
ATOM      5  C   UNL     1      61.802  32.818  60.217  1.00  0.00     0.004 A 
ATOM      6  C   UNL     1      62.867  33.735  60.179  1.00  0.00    -0.045 A 
ENDROOT
BRANCH   1   7
ATOM      7  C   UNL     1      63.604  29.556  60.910  1.00  0.00     0.071 C 
ATOM      8  O   UNL     1      64.761  29.076  60.770  1.00  0.00    -0.545 OA
ATOM      9  O   UNL     1      62.570  28.715  61.306  1.00  0.00    -0.545 OA
ENDBRANCH   1   7
BRANCH   6  10
ATOM     10  C   UNL     1      62.595  35.205  59.922  1.00  0.00     0.013 C 
ATOM     11  C   UNL     1      61.093  35.504  59.961  1.00  0.00     0.012 C 
ATOM     12  C   UNL     1      63.360  36.090  60.913  1.00  0.00     0.012 C 
ENDBRANCH   6  10
TORSDOF 2
ENDMDL
MODEL 6
REMARK VINA RESULT:    -4.251     12.946     13.874
REMARK INTER + INTRA:          -4.967
REMARK INTER:                  -4.762
REMARK INTRA:                  -0.206
REMARK UNBOUND:                -0.219
REMARK SMILES CC(C)c1ccc(C(=O)[O-])cc1
REMARK SMILES IDX 7 1 6 2 11 3 5 4 12 5 4 6 8 7 9 8 10 9 2 10 1 11 3 12
REMARK H PARENT
REMARK Flexibility Score: inf
ROOT
ATOM      1  C   UNL     1      64.108  35.061  60.806  1.00  0.00    -0.003 A 
ATOM      2  C   UNL     1      64.460  33.708  60.674  1.00  0.00     0.010 A 
ATOM      3  C   UNL     1      62.775  35.444  60.577  1.00  0.00     0.010 A 
ATOM      4  C   UNL     1      63.499  32.756  60.322  1.00  0.00     0.004 A 
ATOM      5  C   UNL     1      61.814  34.492  60.226  1.00  0.00     0.004 A 
ATOM      6  C   UNL     1      62.165  33.137  60.093  1.00  0.00    -0.045 A 
ENDROOT
BRANCH   1   7
ATOM      7  C   UNL     1      65.128  36.066  61.179  1.00  0.00     0.071 C 
ATOM      8  O   UNL     1      64.805  37.099  61.825  1.00  0.00    -0.545 OA
ATOM      9  O   UNL     1      66.460  35.885  60.823  1.00  0.00    -0.545 OA
ENDBRANCH   1   7
BRANCH   6  10
ATOM     10  C   UNL     1      61.112  32.114  59.709  1.00  0.00     0.013 C 
ATOM     11  C   UNL     1      61.438  31.466  58.360  1.00  0.00     0.012 C 
ATOM     12  C   UNL     1      60.946  31.055  60.805  1.00  0.00     0.012 C 
ENDBRANCH   6  10
TORSDOF 2
ENDMDL
MODEL 7
REMARK VINA RESULT:    -4.145     12.728     13.879
REMARK INTER + INTRA:          -4.849
REMARK INTER:                  -4.644
REMARK INTRA:                  -0.204
REMARK UNBOUND:                -0.219
REMARK SMILES CC(C)c1ccc(C(=O)[O-])cc1
REMARK SMILES IDX 7 1 6 2 11 3 5 4 12 5 4 6 8 7 9 8 10 9 2 10 1 11 3 12
REMARK H PARENT
REMARK Flexibility Score: inf
ROOT
ATOM      1  C   UNL     1      62.129  32.718  59.997  1.00  0.00    -0.003 A 
ATOM      2  C   UNL     1      61.868  34.095  60.090  1.00  0.00     0.010 A 
ATOM      3  C   UNL     1      63.433  32.255  60.241  1.00  0.00     0.010 A 
ATOM      4  C   UNL     1      62.888  34.991  60.420  1.00  0.00     0.004 A 
ATOM      5  C   UNL     1      64.454  33.150  60.572  1.00  0.00     0.004 A 
ATOM      6  C   UNL     1      64.194  34.529  60.664  1.00  0.00    -0.045 A 
ENDROOT
BRANCH   1   7
ATOM      7  C   UNL     1      61.046  31.773  59.648  1.00  0.00     0.071 C 
ATOM      8  O   UNL     1      60.783  30.794  60.396  1.00  0.00    -0.545 OA
ATOM      9  O   UNL     1      60.301  31.953  58.488  1.00  0.00    -0.545 OA
ENDBRANCH   1   7
BRANCH   6  10
ATOM     10  C   UNL     1      65.312  35.490  61.023  1.00  0.00     0.013 C 
ATOM     11  C   UNL     1      66.064  35.954  59.771  1.00  0.00     0.012 C 
ATOM     12  C   UNL     1      64.778  36.685  61.820  1.00  0.00     0.012 C 
ENDBRANCH   6  10
TORSDOF 2
ENDMDL
MODEL 8
REMARK VINA RESULT:    -4.114      3.538      5.160
REMARK INTER + INTRA:          -4.814
REMARK INTER:                  -4.603
REMARK INTRA:                  -0.211
REMARK UNBOUND:                -0.219
REMARK SMILES CC(C)c1ccc(C(=O)[O-])cc1
REMARK SMILES IDX 7 1 6 2 11 3 5 4 12 5 4 6 8 7 9 8 10 9 2 10 1 11 3 12
REMARK H PARENT
REMARK Flexibility Score: inf
ROOT
ATOM      1  C   UNL     1      54.972  26.908  49.797  1.00  0.00    -0.003 A 
ATOM      2  C   UNL     1      55.293  28.240  50.108  1.00  0.00     0.010 A 
ATOM      3  C   UNL     1      56.014  25.988  49.589  1.00  0.00     0.010 A 
ATOM      4  C   UNL     1      56.627  28.644  50.210  1.00  0.00     0.004 A 
ATOM      5  C   UNL     1      57.348  26.392  49.690  1.00  0.00     0.004 A 
ATOM      6  C   UNL     1      57.670  27.724  50.001  1.00  0.00    -0.045 A 
ENDROOT
BRANCH   1   7
ATOM      7  C   UNL     1      53.558  26.484  49.691  1.00  0.00     0.071 C 
ATOM      8  O   UNL     1      52.955  26.534  48.585  1.00  0.00    -0.545 OA
ATOM      9  O   UNL     1      52.875  26.024  50.810  1.00  0.00    -0.545 OA
ENDBRANCH   1   7
BRANCH   6  10
ATOM     10  C   UNL     1      59.123  28.149  50.107  1.00  0.00     0.013 C 
ATOM     11  C   UNL     1      60.062  27.023  49.661  1.00  0.00     0.012 C 
ATOM     12  C   UNL     1      59.382  29.433  49.309  1.00  0.00     0.012 C 
ENDBRANCH   6  10
TORSDOF 2
ENDMDL
MODEL 9
REMARK VINA RESULT:    -4.084     12.319     13.058
REMARK INTER + INTRA:          -4.781
REMARK INTER:                  -4.568
REMARK INTRA:                  -0.213
REMARK UNBOUND:                -0.219
REMARK SMILES CC(C)c1ccc(C(=O)[O-])cc1
REMARK SMILES IDX 7 1 6 2 11 3 5 4 12 5 4 6 8 7 9 8 10 9 2 10 1 11 3 12
REMARK H PARENT
REMARK Flexibility Score: inf
ROOT
ATOM      1  C   UNL     1      63.737  32.274  60.240  1.00  0.00    -0.003 A 
ATOM      2  C   UNL     1      64.298  33.518  60.573  1.00  0.00     0.010 A 
ATOM      3  C   UNL     1      62.372  32.208  59.911  1.00  0.00     0.010 A 
ATOM      4  C   UNL     1      63.511  34.672  60.578  1.00  0.00     0.004 A 
ATOM      5  C   UNL     1      61.585  33.363  59.916  1.00  0.00     0.004 A 
ATOM      6  C   UNL     1      62.144  34.608  60.250  1.00  0.00    -0.045 A 
ENDROOT
BRANCH   1   7
ATOM      7  C   UNL     1      64.574  31.053  60.235  1.00  0.00     0.071 C 
ATOM      8  O   UNL     1      64.384  30.142  61.085  1.00  0.00    -0.545 OA
ATOM      9  O   UNL     1      65.582  30.894  59.292  1.00  0.00    -0.545 OA
ENDBRANCH   1   7
BRANCH   6  10
ATOM     10  C   UNL     1      61.278  35.854  60.252  1.00  0.00     0.013 C 
ATOM     11  C   UNL     1      62.135  37.124  60.247  1.00  0.00     0.012 C 
ATOM     12  C   UNL     1      60.297  35.846  59.073  1.00  0.00     0.012 C 
ENDBRANCH   6  10
TORSDOF 2
ENDMDL
