MODEL 1
REMARK VINA RESULT:    -5.889      0.000      0.000
REMARK INTER + INTRA:          -5.889
REMARK INTER:                  -5.889
REMARK INTRA:                   0.000
REMARK UNBOUND:                 0.000
REMARK SMILES O=c1ccc2ccccc2o1
REMARK SMILES IDX 7 1 8 2 9 3 10 4 5 5 6 6 4 7 3 8 2 9 1 10 11 11
REMARK H PARENT
REMARK Flexibility Score: inf
ROOT
ATOM      1  C   UNL     1      41.832  61.088  48.914  1.00  0.00     0.001 A 
ATOM      2  C   UNL     1      43.014  61.379  49.602  1.00  0.00     0.004 A 
ATOM      3  C   UNL     1      44.095  60.493  49.552  1.00  0.00     0.048 A 
ATOM      4  C   UNL     1      43.996  59.309  48.813  1.00  0.00     0.138 A 
ATOM      5  C   UNL     1      42.801  59.013  48.118  1.00  0.00     0.018 A 
ATOM      6  C   UNL     1      41.722  59.907  48.172  1.00  0.00     0.012 A 
ATOM      7  C   UNL     1      42.733  57.823  47.387  1.00  0.00     0.019 A 
ATOM      8  C   UNL     1      43.834  56.969  47.366  1.00  0.00     0.094 A 
ATOM      9  C   UNL     1      44.985  57.326  48.079  1.00  0.00     0.336 A 
ATOM     10  O   UNL     1      45.990  56.568  48.071  1.00  0.00    -0.246 OA
ATOM     11  O   UNL     1      45.025  58.465  48.766  1.00  0.00    -0.423 OA
ENDROOT
TORSDOF 0
ENDMDL
MODEL 2
REMARK VINA RESULT:    -5.867      2.400      3.746
REMARK INTER + INTRA:          -5.867
REMARK INTER:                  -5.867
REMARK INTRA:                   0.000
REMARK UNBOUND:                 0.000
REMARK SMILES O=c1ccc2ccccc2o1
REMARK SMILES IDX 7 1 8 2 9 3 10 4 5 5 6 6 4 7 3 8 2 9 1 10 11 11
REMARK H PARENT
REMARK Flexibility Score: inf
ROOT
ATOM      1  C   UNL     1      45.222  58.685  49.267  1.00  0.00     0.001 A 
ATOM      2  C   UNL     1      45.522  57.643  48.384  1.00  0.00     0.004 A 
ATOM      3  C   UNL     1      44.494  56.962  47.723  1.00  0.00     0.048 A 
ATOM      4  C   UNL     1      43.160  57.322  47.944  1.00  0.00     0.138 A 
ATOM      5  C   UNL     1      42.856  58.375  48.836  1.00  0.00     0.018 A 
ATOM      6  C   UNL     1      43.892  59.053  49.495  1.00  0.00     0.012 A 
ATOM      7  C   UNL     1      41.514  58.713  49.036  1.00  0.00     0.019 A 
ATOM      8  C   UNL     1      40.523  58.007  48.356  1.00  0.00     0.094 A 
ATOM      9  C   UNL     1      40.898  56.975  47.487  1.00  0.00     0.336 A 
ATOM     10  O   UNL     1      40.017  56.327  46.864  1.00  0.00    -0.246 OA
ATOM     11  O   UNL     1      42.182  56.674  47.314  1.00  0.00    -0.423 OA
ENDROOT
TORSDOF 0
ENDMDL
MODEL 3
REMARK VINA RESULT:    -5.859      2.039      3.038
REMARK INTER + INTRA:          -5.859
REMARK INTER:                  -5.859
REMARK INTRA:                   0.000
REMARK UNBOUND:                 0.000
REMARK SMILES O=c1ccc2ccccc2o1
REMARK SMILES IDX 7 1 8 2 9 3 10 4 5 5 6 6 4 7 3 8 2 9 1 10 11 11
REMARK H PARENT
REMARK Flexibility Score: inf
ROOT
ATOM      1  C   UNL     1      40.428  57.249  46.751  1.00  0.00     0.001 A 
ATOM      2  C   UNL     1      40.011  57.704  48.006  1.00  0.00     0.004 A 
ATOM      3  C   UNL     1      40.953  58.100  48.961  1.00  0.00     0.048 A 
ATOM      4  C   UNL     1      42.319  58.041  48.663  1.00  0.00     0.138 A 
ATOM      5  C   UNL     1      42.742  57.581  47.395  1.00  0.00     0.018 A 
ATOM      6  C   UNL     1      41.792  57.187  46.443  1.00  0.00     0.012 A 
ATOM      7  C   UNL     1      44.113  57.535  47.127  1.00  0.00     0.019 A 
ATOM      8  C   UNL     1      45.016  57.939  48.109  1.00  0.00     0.094 A 
ATOM      9  C   UNL     1      44.525  58.382  49.342  1.00  0.00     0.336 A 
ATOM     10  O   UNL     1      45.326  58.752  50.241  1.00  0.00    -0.246 OA
ATOM     11  O   UNL     1      43.216  58.418  49.573  1.00  0.00    -0.423 OA
ENDROOT
TORSDOF 0
ENDMDL
MODEL 4
REMARK VINA RESULT:    -5.839      1.743      3.663
REMARK INTER + INTRA:          -5.839
REMARK INTER:                  -5.839
REMARK INTRA:                   0.000
REMARK UNBOUND:                 0.000
REMARK SMILES O=c1ccc2ccccc2o1
REMARK SMILES IDX 7 1 8 2 9 3 10 4 5 5 6 6 4 7 3 8 2 9 1 10 11 11
REMARK H PARENT
REMARK Flexibility Score: inf
ROOT
ATOM      1  C   UNL     1      41.435  57.262  45.902  1.00  0.00     0.001 A 
ATOM      2  C   UNL     1      42.720  57.330  45.354  1.00  0.00     0.004 A 
ATOM      3  C   UNL     1      43.689  58.157  45.930  1.00  0.00     0.048 A 
ATOM      4  C   UNL     1      43.375  58.922  47.059  1.00  0.00     0.138 A 
ATOM      5  C   UNL     1      42.077  58.855  47.613  1.00  0.00     0.018 A 
ATOM      6  C   UNL     1      41.110  58.022  47.030  1.00  0.00     0.012 A 
ATOM      7  C   UNL     1      41.793  59.630  48.742  1.00  0.00     0.019 A 
ATOM      8  C   UNL     1      42.790  60.440  49.283  1.00  0.00     0.094 A 
ATOM      9  C   UNL     1      44.053  60.458  48.680  1.00  0.00     0.336 A 
ATOM     10  O   UNL     1      44.966  61.183  49.155  1.00  0.00    -0.246 OA
ATOM     11  O   UNL     1      44.298  59.710  47.608  1.00  0.00    -0.423 OA
ENDROOT
TORSDOF 0
ENDMDL
MODEL 5
REMARK VINA RESULT:    -5.815      1.632      3.824
REMARK INTER + INTRA:          -5.815
REMARK INTER:                  -5.815
REMARK INTRA:                   0.000
REMARK UNBOUND:                 0.000
REMARK SMILES O=c1ccc2ccccc2o1
REMARK SMILES IDX 7 1 8 2 9 3 10 4 5 5 6 6 4 7 3 8 2 9 1 10 11 11
REMARK H PARENT
REMARK Flexibility Score: inf
ROOT
ATOM      1  C   UNL     1      44.940  56.561  47.630  1.00  0.00     0.001 A 
ATOM      2  C   UNL     1      45.858  57.161  48.498  1.00  0.00     0.004 A 
ATOM      3  C   UNL     1      45.546  58.370  49.127  1.00  0.00     0.048 A 
ATOM      4  C   UNL     1      44.312  58.986  48.888  1.00  0.00     0.138 A 
ATOM      5  C   UNL     1      43.384  58.380  48.011  1.00  0.00     0.018 A 
ATOM      6  C   UNL     1      43.704  57.167  47.385  1.00  0.00     0.012 A 
ATOM      7  C   UNL     1      42.159  59.018  47.794  1.00  0.00     0.019 A 
ATOM      8  C   UNL     1      41.891  60.223  48.442  1.00  0.00     0.094 A 
ATOM      9  C   UNL     1      42.858  60.765  49.296  1.00  0.00     0.336 A 
ATOM     10  O   UNL     1      42.633  61.852  49.891  1.00  0.00    -0.246 OA
ATOM     11  O   UNL     1      44.015  60.137  49.488  1.00  0.00    -0.423 OA
ENDROOT
TORSDOF 0
ENDMDL
MODEL 6
REMARK VINA RESULT:    -5.791      2.785      3.680
REMARK INTER + INTRA:          -5.791
REMARK INTER:                  -5.791
REMARK INTRA:                   0.000
REMARK UNBOUND:                 0.000
REMARK SMILES O=c1ccc2ccccc2o1
REMARK SMILES IDX 7 1 8 2 9 3 10 4 5 5 6 6 4 7 3 8 2 9 1 10 11 11
REMARK H PARENT
REMARK Flexibility Score: inf
ROOT
ATOM      1  C   UNL     1      40.800  58.389  49.538  1.00  0.00     0.001 A 
ATOM      2  C   UNL     1      39.826  57.704  48.804  1.00  0.00     0.004 A 
ATOM      3  C   UNL     1      40.098  57.276  47.501  1.00  0.00     0.048 A 
ATOM      4  C   UNL     1      41.347  57.532  46.925  1.00  0.00     0.138 A 
ATOM      5  C   UNL     1      42.332  58.224  47.666  1.00  0.00     0.018 A 
ATOM      6  C   UNL     1      42.053  58.650  48.972  1.00  0.00     0.012 A 
ATOM      7  C   UNL     1      43.572  58.464  47.065  1.00  0.00     0.019 A 
ATOM      8  C   UNL     1      43.798  58.019  45.763  1.00  0.00     0.094 A 
ATOM      9  C   UNL     1      42.776  57.340  45.090  1.00  0.00     0.336 A 
ATOM     10  O   UNL     1      42.962  56.930  43.914  1.00  0.00    -0.246 OA
ATOM     11  O   UNL     1      41.606  57.123  45.685  1.00  0.00    -0.423 OA
ENDROOT
TORSDOF 0
ENDMDL
MODEL 7
REMARK VINA RESULT:    -5.781      2.315      3.059
REMARK INTER + INTRA:          -5.781
REMARK INTER:                  -5.781
REMARK INTRA:                   0.000
REMARK UNBOUND:                 0.000
REMARK SMILES O=c1ccc2ccccc2o1
REMARK SMILES IDX 7 1 8 2 9 3 10 4 5 5 6 6 4 7 3 8 2 9 1 10 11 11
REMARK H PARENT
REMARK Flexibility Score: inf
ROOT
ATOM      1  C   UNL     1      44.466  60.159  49.513  1.00  0.00     0.001 A 
ATOM      2  C   UNL     1      43.239  60.829  49.500  1.00  0.00     0.004 A 
ATOM      3  C   UNL     1      42.254  60.477  48.571  1.00  0.00     0.048 A 
ATOM      4  C   UNL     1      42.495  59.453  47.649  1.00  0.00     0.138 A 
ATOM      5  C   UNL     1      43.736  58.775  47.661  1.00  0.00     0.018 A 
ATOM      6  C   UNL     1      44.718  59.133  48.596  1.00  0.00     0.012 A 
ATOM      7  C   UNL     1      43.947  57.755  46.729  1.00  0.00     0.019 A 
ATOM      8  C   UNL     1      42.938  57.438  45.821  1.00  0.00     0.094 A 
ATOM      9  C   UNL     1      41.735  58.152  45.867  1.00  0.00     0.336 A 
ATOM     10  O   UNL     1      40.811  57.880  45.055  1.00  0.00    -0.246 OA
ATOM     11  O   UNL     1      41.558  59.118  46.765  1.00  0.00    -0.423 OA
ENDROOT
TORSDOF 0
ENDMDL
MODEL 8
REMARK VINA RESULT:    -5.644      2.812      4.587
REMARK INTER + INTRA:          -5.644
REMARK INTER:                  -5.644
REMARK INTRA:                   0.000
REMARK UNBOUND:                 0.000
REMARK SMILES O=c1ccc2ccccc2o1
REMARK SMILES IDX 7 1 8 2 9 3 10 4 5 5 6 6 4 7 3 8 2 9 1 10 11 11
REMARK H PARENT
REMARK Flexibility Score: inf
ROOT
ATOM      1  C   UNL     1      43.876  57.682  45.029  1.00  0.00     0.001 A 
ATOM      2  C   UNL     1      42.633  57.245  44.562  1.00  0.00     0.004 A 
ATOM      3  C   UNL     1      41.526  57.229  45.417  1.00  0.00     0.048 A 
ATOM      4  C   UNL     1      41.660  57.649  46.745  1.00  0.00     0.138 A 
ATOM      5  C   UNL     1      42.917  58.090  47.217  1.00  0.00     0.018 A 
ATOM      6  C   UNL     1      44.023  58.104  46.354  1.00  0.00     0.012 A 
ATOM      7  C   UNL     1      43.021  58.505  48.549  1.00  0.00     0.019 A 
ATOM      8  C   UNL     1      41.891  58.472  49.365  1.00  0.00     0.094 A 
ATOM      9  C   UNL     1      40.679  58.022  48.829  1.00  0.00     0.336 A 
ATOM     10  O   UNL     1      39.648  57.986  49.551  1.00  0.00    -0.246 OA
ATOM     11  O   UNL     1      40.607  57.634  47.559  1.00  0.00    -0.423 OA
ENDROOT
TORSDOF 0
ENDMDL
MODEL 9
REMARK VINA RESULT:    -5.621      2.053      3.041
REMARK INTER + INTRA:          -5.621
REMARK INTER:                  -5.621
REMARK INTRA:                   0.000
REMARK UNBOUND:                 0.000
REMARK SMILES O=c1ccc2ccccc2o1
REMARK SMILES IDX 7 1 8 2 9 3 10 4 5 5 6 6 4 7 3 8 2 9 1 10 11 11
REMARK H PARENT
REMARK Flexibility Score: inf
ROOT
ATOM      1  C   UNL     1      44.888  59.500  49.867  1.00  0.00     0.001 A 
ATOM      2  C   UNL     1      45.641  58.393  49.463  1.00  0.00     0.004 A 
ATOM      3  C   UNL     1      45.273  57.669  48.325  1.00  0.00     0.048 A 
ATOM      4  C   UNL     1      44.148  58.048  47.586  1.00  0.00     0.138 A 
ATOM      5  C   UNL     1      43.386  59.167  47.993  1.00  0.00     0.018 A 
ATOM      6  C   UNL     1      43.760  59.889  49.135  1.00  0.00     0.012 A 
ATOM      7  C   UNL     1      42.267  59.523  47.234  1.00  0.00     0.019 A 
ATOM      8  C   UNL     1      41.938  58.772  46.107  1.00  0.00     0.094 A 
ATOM      9  C   UNL     1      42.738  57.676  45.763  1.00  0.00     0.336 A 
ATOM     10  O   UNL     1      42.457  56.986  44.748  1.00  0.00    -0.246 OA
ATOM     11  O   UNL     1      43.798  57.358  46.502  1.00  0.00    -0.423 OA
ENDROOT
TORSDOF 0
ENDMDL
