MODEL 1
REMARK VINA RESULT:    -3.008      0.000      0.000
REMARK INTER + INTRA:          -4.073
REMARK INTER:                  -3.712
REMARK INTRA:                  -0.361
REMARK UNBOUND:                -0.361
REMARK SMILES C=CC[C@@H](C)C(=O)CC
REMARK SMILES IDX 4 1 5 2 6 3 7 4 8 5 9 6 3 7 2 8 1 9
REMARK H PARENT
REMARK Flexibility Score: inf
ROOT
ATOM      1  C   UNL     1     185.612 202.000 211.557  1.00  0.00     0.057 C 
ATOM      2  C   UNL     1     184.116 201.959 211.218  1.00  0.00     0.016 C 
ENDROOT
BRANCH   1   3
ATOM      3  C   UNL     1     185.892 201.119 212.756  1.00  0.00     0.135 C 
ATOM      4  O   UNL     1     185.772 199.906 212.659  1.00  0.00    -0.299 OA
BRANCH   3   5
ATOM      5  C   UNL     1     186.325 201.709 214.073  1.00  0.00     0.072 C 
ATOM      6  C   UNL     1     187.842 201.861 214.123  1.00  0.00     0.012 C 
ENDBRANCH   3   5
ENDBRANCH   1   3
BRANCH   1   7
ATOM      7  C   UNL     1     186.481 201.552 210.362  1.00  0.00     0.038 C 
BRANCH   7   8
ATOM      8  C   UNL     1     187.462 202.614 209.938  1.00  0.00    -0.034 C 
ATOM      9  C   UNL     1     188.328 203.157 210.798  1.00  0.00     0.004 C 
ENDBRANCH   7   8
ENDBRANCH   1   7
TORSDOF 4
ENDMDL
MODEL 2
REMARK VINA RESULT:    -2.904      1.213      3.142
REMARK INTER + INTRA:          -3.945
REMARK INTER:                  -3.436
REMARK INTRA:                  -0.508
REMARK UNBOUND:                -0.361
REMARK SMILES C=CC[C@@H](C)C(=O)CC
REMARK SMILES IDX 4 1 5 2 6 3 7 4 8 5 9 6 3 7 2 8 1 9
REMARK H PARENT
REMARK Flexibility Score: inf
ROOT
ATOM      1  C   UNL     1     186.635 200.803 213.621  1.00  0.00     0.057 C 
ATOM      2  C   UNL     1     185.763 201.998 214.031  1.00  0.00     0.016 C 
ENDROOT
BRANCH   1   3
ATOM      3  C   UNL     1     186.626 200.652 212.115  1.00  0.00     0.135 C 
ATOM      4  O   UNL     1     187.157 199.678 211.600  1.00  0.00    -0.299 OA
BRANCH   3   5
ATOM      5  C   UNL     1     185.963 201.677 211.233  1.00  0.00     0.072 C 
ATOM      6  C   UNL     1     186.993 202.378 210.352  1.00  0.00     0.012 C 
ENDBRANCH   3   5
ENDBRANCH   1   3
BRANCH   1   7
ATOM      7  C   UNL     1     188.087 200.956 214.125  1.00  0.00     0.038 C 
BRANCH   7   8
ATOM      8  C   UNL     1     188.545 202.391 214.124  1.00  0.00    -0.034 C 
ATOM      9  C   UNL     1     189.536 202.813 213.332  1.00  0.00     0.004 C 
ENDBRANCH   7   8
ENDBRANCH   1   7
TORSDOF 4
ENDMDL
MODEL 3
REMARK VINA RESULT:    -2.894      1.134      3.052
REMARK INTER + INTRA:          -3.932
REMARK INTER:                  -3.418
REMARK INTRA:                  -0.514
REMARK UNBOUND:                -0.361
REMARK SMILES C=CC[C@@H](C)C(=O)CC
REMARK SMILES IDX 4 1 5 2 6 3 7 4 8 5 9 6 3 7 2 8 1 9
REMARK H PARENT
REMARK Flexibility Score: inf
ROOT
ATOM      1  C   UNL     1     185.492 200.780 211.517  1.00  0.00     0.057 C 
ATOM      2  C   UNL     1     184.601 202.030 211.548  1.00  0.00     0.016 C 
ENDROOT
BRANCH   1   3
ATOM      3  C   UNL     1     186.683 201.019 210.614  1.00  0.00     0.135 C 
ATOM      4  O   UNL     1     187.411 200.085 210.310  1.00  0.00    -0.299 OA
BRANCH   3   5
ATOM      5  C   UNL     1     186.987 202.391 210.072  1.00  0.00     0.072 C 
ATOM      6  C   UNL     1     188.256 202.954 210.706  1.00  0.00     0.012 C 
ENDBRANCH   3   5
ENDBRANCH   1   3
BRANCH   1   7
ATOM      7  C   UNL     1     185.974 200.387 212.930  1.00  0.00     0.038 C 
BRANCH   7   8
ATOM      8  C   UNL     1     186.325 201.587 213.770  1.00  0.00    -0.034 C 
ATOM      9  C   UNL     1     187.585 201.854 214.125  1.00  0.00     0.004 C 
ENDBRANCH   7   8
ENDBRANCH   1   7
TORSDOF 4
ENDMDL
MODEL 4
REMARK VINA RESULT:    -2.886      1.552      3.223
REMARK INTER + INTRA:          -3.923
REMARK INTER:                  -3.489
REMARK INTRA:                  -0.434
REMARK UNBOUND:                -0.361
REMARK SMILES C=CC[C@@H](C)C(=O)CC
REMARK SMILES IDX 4 1 5 2 6 3 7 4 8 5 9 6 3 7 2 8 1 9
REMARK H PARENT
REMARK Flexibility Score: inf
ROOT
ATOM      1  C   UNL     1     187.455 201.274 213.113  1.00  0.00     0.057 C 
ATOM      2  C   UNL     1     187.422 199.778 213.457  1.00  0.00     0.016 C 
ENDROOT
BRANCH   1   3
ATOM      3  C   UNL     1     186.046 201.824 213.077  1.00  0.00     0.135 C 
ATOM      4  O   UNL     1     185.466 202.074 214.124  1.00  0.00    -0.299 OA
BRANCH   3   5
ATOM      5  C   UNL     1     185.342 202.081 211.770  1.00  0.00     0.072 C 
ATOM      6  C   UNL     1     186.329 202.040 210.608  1.00  0.00     0.012 C 
ENDBRANCH   3   5
ENDBRANCH   1   3
BRANCH   1   7
ATOM      7  C   UNL     1     188.307 202.073 214.122  1.00  0.00     0.038 C 
BRANCH   7   8
ATOM      8  C   UNL     1     189.508 202.715 213.477  1.00  0.00    -0.034 C 
ATOM      9  C   UNL     1     189.484 203.135 212.209  1.00  0.00     0.004 C 
ENDBRANCH   7   8
ENDBRANCH   1   7
TORSDOF 4
ENDMDL
MODEL 5
REMARK VINA RESULT:    -2.872      1.399      2.906
REMARK INTER + INTRA:          -3.906
REMARK INTER:                  -3.686
REMARK INTRA:                  -0.220
REMARK UNBOUND:                -0.361
REMARK SMILES C=CC[C@@H](C)C(=O)CC
REMARK SMILES IDX 4 1 5 2 6 3 7 4 8 5 9 6 3 7 2 8 1 9
REMARK H PARENT
REMARK Flexibility Score: inf
ROOT
ATOM      1  C   UNL     1     187.398 201.675 212.627  1.00  0.00     0.057 C 
ATOM      2  C   UNL     1     188.256 201.971 213.865  1.00  0.00     0.016 C 
ENDROOT
BRANCH   1   3
ATOM      3  C   UNL     1     185.938 201.923 212.942  1.00  0.00     0.135 C 
ATOM      4  O   UNL     1     185.565 201.948 214.106  1.00  0.00    -0.299 OA
BRANCH   3   5
ATOM      5  C   UNL     1     184.932 202.149 211.844  1.00  0.00     0.072 C 
ATOM      6  C   UNL     1     184.620 200.844 211.119  1.00  0.00     0.012 C 
ENDBRANCH   3   5
ENDBRANCH   1   3
BRANCH   1   7
ATOM      7  C   UNL     1     187.828 202.531 211.416  1.00  0.00     0.038 C 
BRANCH   7   8
ATOM      8  C   UNL     1     189.122 203.262 211.662  1.00  0.00    -0.034 C 
ATOM      9  C   UNL     1     189.390 204.435 211.078  1.00  0.00     0.004 C 
ENDBRANCH   7   8
ENDBRANCH   1   7
TORSDOF 4
ENDMDL
MODEL 6
REMARK VINA RESULT:    -2.870      1.911      3.691
REMARK INTER + INTRA:          -3.903
REMARK INTER:                  -3.437
REMARK INTRA:                  -0.466
REMARK UNBOUND:                -0.361
REMARK SMILES C=CC[C@@H](C)C(=O)CC
REMARK SMILES IDX 4 1 5 2 6 3 7 4 8 5 9 6 3 7 2 8 1 9
REMARK H PARENT
REMARK Flexibility Score: inf
ROOT
ATOM      1  C   UNL     1     187.408 201.188 214.094  1.00  0.00     0.057 C 
ATOM      2  C   UNL     1     187.431 199.760 213.532  1.00  0.00     0.016 C 
ENDROOT
BRANCH   1   3
ATOM      3  C   UNL     1     188.495 202.015 213.442  1.00  0.00     0.135 C 
ATOM      4  O   UNL     1     189.136 202.811 214.113  1.00  0.00    -0.299 OA
BRANCH   3   5
ATOM      5  C   UNL     1     188.810 201.871 211.976  1.00  0.00     0.072 C 
ATOM      6  C   UNL     1     188.555 203.180 211.237  1.00  0.00     0.012 C 
ENDBRANCH   3   5
ENDBRANCH   1   3
BRANCH   1   7
ATOM      7  C   UNL     1     186.036 201.863 213.884  1.00  0.00     0.038 C 
BRANCH   7   8
ATOM      8  C   UNL     1     185.319 201.338 212.667  1.00  0.00    -0.034 C 
ATOM      9  C   UNL     1     184.886 202.152 211.700  1.00  0.00     0.004 C 
ENDBRANCH   7   8
ENDBRANCH   1   7
TORSDOF 4
ENDMDL
MODEL 7
REMARK VINA RESULT:    -2.852      1.668      2.884
REMARK INTER + INTRA:          -3.881
REMARK INTER:                  -3.496
REMARK INTRA:                  -0.385
REMARK UNBOUND:                -0.361
REMARK SMILES C=CC[C@@H](C)C(=O)CC
REMARK SMILES IDX 4 1 5 2 6 3 7 4 8 5 9 6 3 7 2 8 1 9
REMARK H PARENT
REMARK Flexibility Score: inf
ROOT
ATOM      1  C   UNL     1     186.333 201.535 211.929  1.00  0.00     0.057 C 
ATOM      2  C   UNL     1     187.483 202.399 211.392  1.00  0.00     0.016 C 
ENDROOT
BRANCH   1   3
ATOM      3  C   UNL     1     186.411 201.456 213.438  1.00  0.00     0.135 C 
ATOM      4  O   UNL     1     185.613 202.083 214.120  1.00  0.00    -0.299 OA
BRANCH   3   5
ATOM      5  C   UNL     1     187.452 200.608 214.121  1.00  0.00     0.072 C 
ATOM      6  C   UNL     1     187.387 199.168 213.624  1.00  0.00     0.012 C 
ENDBRANCH   3   5
ENDBRANCH   1   3
BRANCH   1   7
ATOM      7  C   UNL     1     184.956 202.087 211.501  1.00  0.00     0.038 C 
BRANCH   7   8
ATOM      8  C   UNL     1     184.104 201.043 210.829  1.00  0.00    -0.034 C 
ATOM      9  C   UNL     1     184.510 199.776 210.705  1.00  0.00     0.004 C 
ENDBRANCH   7   8
ENDBRANCH   1   7
TORSDOF 4
ENDMDL
MODEL 8
REMARK VINA RESULT:    -2.765      1.609      3.468
REMARK INTER + INTRA:          -3.773
REMARK INTER:                  -3.323
REMARK INTRA:                  -0.450
REMARK UNBOUND:                -0.361
REMARK SMILES C=CC[C@@H](C)C(=O)CC
REMARK SMILES IDX 4 1 5 2 6 3 7 4 8 5 9 6 3 7 2 8 1 9
REMARK H PARENT
REMARK Flexibility Score: inf
ROOT
ATOM      1  C   UNL     1     185.782 202.262 212.322  1.00  0.00     0.057 C 
ATOM      2  C   UNL     1     185.825 201.702 213.751  1.00  0.00     0.016 C 
ENDROOT
BRANCH   1   3
ATOM      3  C   UNL     1     187.106 202.014 211.632  1.00  0.00     0.135 C 
ATOM      4  O   UNL     1     187.945 201.305 212.167  1.00  0.00    -0.299 OA
BRANCH   3   5
ATOM      5  C   UNL     1     187.408 202.619 210.285  1.00  0.00     0.072 C 
ATOM      6  C   UNL     1     187.655 201.529 209.247  1.00  0.00     0.012 C 
ENDBRANCH   3   5
ENDBRANCH   1   3
BRANCH   1   7
ATOM      7  C   UNL     1     184.634 201.639 211.499  1.00  0.00     0.038 C 
BRANCH   7   8
ATOM      8  C   UNL     1     184.804 200.153 211.311  1.00  0.00    -0.034 C 
ATOM      9  C   UNL     1     184.545 199.557 210.144  1.00  0.00     0.004 C 
ENDBRANCH   7   8
ENDBRANCH   1   7
TORSDOF 4
ENDMDL
