MODEL 1
REMARK VINA RESULT:    -5.260      0.000      0.000
REMARK INTER + INTRA:          -6.211
REMARK INTER:                  -6.029
REMARK INTRA:                  -0.183
REMARK UNBOUND:                -0.183
REMARK SMILES C=C(C)[C@@H]1CC[C@]2(C(=O)[O-])CC[C@]3(C)[C@H](CC[C@H]4[C@@]5(C)CC[C@@H](O)C(C)(C)[C@@H]5CC[C@]43C)[C@@H]12
REMARK SMILES IDX 7 1 6 2 33 3 11 4 5 5 15 6 4 7 12 8 16 9 13 10 17 11 31 12
REMARK SMILES IDX 14 13 18 14 30 15 32 16 19 17 29 18 21 19 20 20 28 21 22 22
REMARK SMILES IDX 25 23 23 24 26 25 27 26 8 27 9 28 10 29 2 30 3 31 1 32 24 33
REMARK H PARENT 24 34
REMARK Flexibility Score: inf
ROOT
ATOM      1  C   UNL     1      10.035  22.301  61.859  1.00  0.00     0.014 C 
ATOM      2  C   UNL     1       9.229  21.004  61.793  1.00  0.00     0.014 C 
ATOM      3  C   UNL     1      10.223  22.467  63.374  1.00  0.00     0.012 C 
ATOM      4  C   UNL     1      11.442  22.234  61.230  1.00  0.00     0.014 C 
ATOM      5  C   UNL     1       8.240  21.106  62.968  1.00  0.00     0.009 C 
ATOM      6  C   UNL     1      10.918  23.813  63.732  1.00  0.00     0.000 C 
ATOM      7  C   UNL     1       8.847  22.112  63.977  1.00  0.00     0.018 C 
ATOM      8  C   UNL     1      12.191  23.565  61.493  1.00  0.00     0.008 C 
ATOM      9  C   UNL     1      11.054  23.979  65.256  1.00  0.00     0.005 C 
ATOM     10  C   UNL     1      12.320  23.977  63.023  1.00  0.00    -0.024 C 
ATOM     11  C   UNL     1      12.004  25.115  65.686  1.00  0.00     0.005 C 
ATOM     12  C   UNL     1      12.817  25.530  63.233  1.00  0.00    -0.024 C 
ATOM     13  C   UNL     1      13.344  22.945  63.625  1.00  0.00     0.012 C 
ATOM     14  C   UNL     1      12.236  26.188  64.587  1.00  0.00     0.002 C 
ATOM     15  C   UNL     1      14.378  25.607  63.212  1.00  0.00     0.008 C 
ATOM     16  C   UNL     1      12.308  26.401  62.040  1.00  0.00     0.012 C 
ATOM     17  C   UNL     1      12.976  27.532  65.115  1.00  0.00    -0.026 C 
ATOM     18  C   UNL     1      14.956  26.975  63.563  1.00  0.00     0.005 C 
ATOM     19  C   UNL     1      12.662  27.814  66.626  1.00  0.00     0.010 C 
ATOM     20  C   UNL     1      12.425  28.759  64.300  1.00  0.00     0.012 C 
ATOM     21  C   UNL     1      14.539  27.368  64.998  1.00  0.00     0.003 C 
ATOM     22  C   UNL     1      13.450  28.986  67.237  1.00  0.00     0.033 C 
ATOM     23  C   UNL     1      15.422  28.519  65.642  1.00  0.00    -0.006 C 
ATOM     24  C   UNL     1      14.966  28.771  67.116  1.00  0.00     0.120 C 
ATOM     25  C   UNL     1      15.378  29.849  64.846  1.00  0.00     0.014 C 
ATOM     26  C   UNL     1      16.915  28.085  65.685  1.00  0.00     0.014 C 
ENDROOT
BRANCH   1  27
ATOM     27  C   UNL     1       9.208  23.393  61.168  1.00  0.00     0.048 C 
ATOM     28  O   UNL     1       9.241  24.593  61.550  1.00  0.00    -0.550 OA
ATOM     29  O   UNL     1       8.325  23.045  60.152  1.00  0.00    -0.550 OA
ENDBRANCH   1  27
BRANCH   7  30
ATOM     30  C   UNL     1       8.923  21.526  65.385  1.00  0.00    -0.077 C 
ATOM     31  C   UNL     1       8.102  22.089  66.520  1.00  0.00     0.039 C 
ATOM     32  C   UNL     1       9.754  20.504  65.643  1.00  0.00     0.008 C 
ENDBRANCH   7  30
BRANCH  24  33
ATOM     33  O   UNL     1      15.343  27.687  67.933  1.00  0.00    -0.393 OA
ATOM     34  H   UNL     1      15.909  28.053  68.662  1.00  0.00     0.210 HD
ENDBRANCH  24  33
TORSDOF 3
ENDMDL
MODEL 2
REMARK VINA RESULT:    -5.253      1.545      7.769
REMARK INTER + INTRA:          -6.204
REMARK INTER:                  -5.854
REMARK INTRA:                  -0.350
REMARK UNBOUND:                -0.183
REMARK SMILES C=C(C)[C@@H]1CC[C@]2(C(=O)[O-])CC[C@]3(C)[C@H](CC[C@H]4[C@@]5(C)CC[C@@H](O)C(C)(C)[C@@H]5CC[C@]43C)[C@@H]12
REMARK SMILES IDX 7 1 6 2 33 3 11 4 5 5 15 6 4 7 12 8 16 9 13 10 17 11 31 12
REMARK SMILES IDX 14 13 18 14 30 15 32 16 19 17 29 18 21 19 20 20 28 21 22 22
REMARK SMILES IDX 25 23 23 24 26 25 27 26 8 27 9 28 10 29 2 30 3 31 1 32 24 33
REMARK H PARENT 24 34
REMARK Flexibility Score: inf
ROOT
ATOM      1  C   UNL     1      15.493  29.040  65.987  1.00  0.00     0.014 C 
ATOM      2  C   UNL     1      15.794  30.125  67.020  1.00  0.00     0.014 C 
ATOM      3  C   UNL     1      14.311  28.312  66.644  1.00  0.00     0.012 C 
ATOM      4  C   UNL     1      15.007  29.554  64.616  1.00  0.00     0.014 C 
ATOM      5  C   UNL     1      15.619  29.421  68.378  1.00  0.00     0.009 C 
ATOM      6  C   UNL     1      13.883  27.050  65.839  1.00  0.00     0.000 C 
ATOM      7  C   UNL     1      14.706  28.194  68.131  1.00  0.00     0.018 C 
ATOM      8  C   UNL     1      14.607  28.351  63.723  1.00  0.00     0.008 C 
ATOM      9  C   UNL     1      12.728  26.311  66.540  1.00  0.00     0.005 C 
ATOM     10  C   UNL     1      13.506  27.386  64.343  1.00  0.00    -0.024 C 
ATOM     11  C   UNL     1      12.035  25.248  65.665  1.00  0.00     0.005 C 
ATOM     12  C   UNL     1      13.360  25.967  63.524  1.00  0.00    -0.024 C 
ATOM     13  C   UNL     1      12.178  28.228  64.304  1.00  0.00     0.012 C 
ATOM     14  C   UNL     1      12.905  24.747  64.478  1.00  0.00     0.002 C 
ATOM     15  C   UNL     1      12.363  26.131  62.331  1.00  0.00     0.008 C 
ATOM     16  C   UNL     1      14.742  25.582  62.907  1.00  0.00     0.012 C 
ATOM     17  C   UNL     1      12.324  23.426  63.737  1.00  0.00    -0.026 C 
ATOM     18  C   UNL     1      12.021  24.835  61.600  1.00  0.00     0.005 C 
ATOM     19  C   UNL     1      11.500  22.523  64.720  1.00  0.00     0.010 C 
ATOM     20  C   UNL     1      13.537  22.561  63.233  1.00  0.00     0.012 C 
ATOM     21  C   UNL     1      11.345  23.846  62.576  1.00  0.00     0.003 C 
ATOM     22  C   UNL     1      10.791  21.331  64.054  1.00  0.00     0.033 C 
ATOM     23  C   UNL     1      10.544  22.674  61.866  1.00  0.00    -0.006 C 
ATOM     24  C   UNL     1       9.834  21.791  62.944  1.00  0.00     0.120 C 
ATOM     25  C   UNL     1      11.431  21.781  60.961  1.00  0.00     0.014 C 
ATOM     26  C   UNL     1       9.437  23.265  60.946  1.00  0.00     0.014 C 
ENDROOT
BRANCH   1  27
ATOM     27  C   UNL     1      16.769  28.208  65.807  1.00  0.00     0.048 C 
ATOM     28  O   UNL     1      16.821  26.991  66.131  1.00  0.00    -0.550 OA
ATOM     29  O   UNL     1      17.933  28.824  65.361  1.00  0.00    -0.550 OA
ENDBRANCH   1  27
BRANCH   7  30
ATOM     30  C   UNL     1      13.515  28.174  69.086  1.00  0.00    -0.077 C 
ATOM     31  C   UNL     1      12.361  29.137  68.930  1.00  0.00     0.039 C 
ATOM     32  C   UNL     1      13.488  27.307  70.110  1.00  0.00     0.008 C 
ENDBRANCH   7  30
BRANCH  24  33
ATOM     33  O   UNL     1       8.765  22.501  63.524  1.00  0.00    -0.393 OA
ATOM     34  H   UNL     1       8.576  23.279  62.936  1.00  0.00     0.210 HD
ENDBRANCH  24  33
TORSDOF 3
ENDMDL
MODEL 3
REMARK VINA RESULT:    -5.095      3.854      6.557
REMARK INTER + INTRA:          -6.023
REMARK INTER:                  -5.721
REMARK INTRA:                  -0.302
REMARK UNBOUND:                -0.183
REMARK SMILES C=C(C)[C@@H]1CC[C@]2(C(=O)[O-])CC[C@]3(C)[C@H](CC[C@H]4[C@@]5(C)CC[C@@H](O)C(C)(C)[C@@H]5CC[C@]43C)[C@@H]12
REMARK SMILES IDX 7 1 6 2 33 3 11 4 5 5 15 6 4 7 12 8 16 9 13 10 17 11 31 12
REMARK SMILES IDX 14 13 18 14 30 15 32 16 19 17 29 18 21 19 20 20 28 21 22 22
REMARK SMILES IDX 25 23 23 24 26 25 27 26 8 27 9 28 10 29 2 30 3 31 1 32 24 33
REMARK H PARENT 24 34
REMARK Flexibility Score: inf
ROOT
ATOM      1  C   UNL     1      10.223  22.588  64.207  1.00  0.00     0.014 C 
ATOM      2  C   UNL     1      10.830  21.339  64.845  1.00  0.00     0.014 C 
ATOM      3  C   UNL     1      11.243  22.893  63.101  1.00  0.00     0.012 C 
ATOM      4  C   UNL     1       8.856  22.380  63.523  1.00  0.00     0.014 C 
ATOM      5  C   UNL     1      12.344  21.612  64.860  1.00  0.00     0.009 C 
ATOM      6  C   UNL     1      10.924  24.226  62.363  1.00  0.00     0.000 C 
ATOM      7  C   UNL     1      12.617  22.678  63.770  1.00  0.00     0.018 C 
ATOM      8  C   UNL     1       8.432  23.686  62.804  1.00  0.00     0.008 C 
ATOM      9  C   UNL     1      11.984  24.534  61.290  1.00  0.00     0.005 C 
ATOM     10  C   UNL     1       9.474  24.239  61.738  1.00  0.00    -0.024 C 
ATOM     11  C   UNL     1      11.582  25.651  60.307  1.00  0.00     0.005 C 
ATOM     12  C   UNL     1       9.144  25.775  61.252  1.00  0.00    -0.024 C 
ATOM     13  C   UNL     1       9.399  23.216  60.545  1.00  0.00     0.012 C 
ATOM     14  C   UNL     1      10.474  26.596  60.849  1.00  0.00     0.002 C 
ATOM     15  C   UNL     1       8.128  25.761  60.064  1.00  0.00     0.008 C 
ATOM     16  C   UNL     1       8.457  26.551  62.421  1.00  0.00     0.012 C 
ATOM     17  C   UNL     1      10.256  27.941  59.970  1.00  0.00    -0.026 C 
ATOM     18  C   UNL     1       7.875  27.122  59.422  1.00  0.00     0.005 C 
ATOM     19  C   UNL     1      11.579  28.389  59.254  1.00  0.00     0.010 C 
ATOM     20  C   UNL     1       9.845  29.111  60.937  1.00  0.00     0.012 C 
ATOM     21  C   UNL     1       9.193  27.679  58.837  1.00  0.00     0.003 C 
ATOM     22  C   UNL     1      11.414  29.569  58.281  1.00  0.00     0.033 C 
ATOM     23  C   UNL     1       8.996  28.836  57.768  1.00  0.00    -0.006 C 
ATOM     24  C   UNL     1      10.383  29.258  57.185  1.00  0.00     0.120 C 
ATOM     25  C   UNL     1       8.265  30.081  58.335  1.00  0.00     0.014 C 
ATOM     26  C   UNL     1       8.128  28.324  56.582  1.00  0.00     0.014 C 
ENDROOT
BRANCH   1  27
ATOM     27  C   UNL     1      10.098  23.651  65.306  1.00  0.00     0.048 C 
ATOM     28  O   UNL     1      10.476  24.840  65.128  1.00  0.00    -0.550 OA
ATOM     29  O   UNL     1       9.640  23.285  66.567  1.00  0.00    -0.550 OA
ENDBRANCH   1  27
BRANCH   7  30
ATOM     30  C   UNL     1      13.711  22.231  62.802  1.00  0.00    -0.077 C 
ATOM     31  C   UNL     1      13.492  21.092  61.835  1.00  0.00     0.039 C 
ATOM     32  C   UNL     1      14.910  22.834  62.818  1.00  0.00     0.008 C 
ENDBRANCH   7  30
BRANCH  24  33
ATOM     33  O   UNL     1      10.890  28.241  56.353  1.00  0.00    -0.393 OA
ATOM     34  H   UNL     1      11.833  28.086  56.621  1.00  0.00     0.210 HD
ENDBRANCH  24  33
TORSDOF 3
ENDMDL
MODEL 4
REMARK VINA RESULT:    -5.063      3.490      6.343
REMARK INTER + INTRA:          -5.986
REMARK INTER:                  -5.700
REMARK INTRA:                  -0.286
REMARK UNBOUND:                -0.183
REMARK SMILES C=C(C)[C@@H]1CC[C@]2(C(=O)[O-])CC[C@]3(C)[C@H](CC[C@H]4[C@@]5(C)CC[C@@H](O)C(C)(C)[C@@H]5CC[C@]43C)[C@@H]12
REMARK SMILES IDX 7 1 6 2 33 3 11 4 5 5 15 6 4 7 12 8 16 9 13 10 17 11 31 12
REMARK SMILES IDX 14 13 18 14 30 15 32 16 19 17 29 18 21 19 20 20 28 21 22 22
REMARK SMILES IDX 25 23 23 24 26 25 27 26 8 27 9 28 10 29 2 30 3 31 1 32 24 33
REMARK H PARENT 24 34
REMARK Flexibility Score: inf
ROOT
ATOM      1  C   UNL     1      11.727  22.693  64.229  1.00  0.00     0.014 C 
ATOM      2  C   UNL     1      12.327  22.339  65.589  1.00  0.00     0.014 C 
ATOM      3  C   UNL     1      11.750  24.228  64.275  1.00  0.00     0.012 C 
ATOM      4  C   UNL     1      12.566  22.261  63.008  1.00  0.00     0.014 C 
ATOM      5  C   UNL     1      11.717  23.369  66.557  1.00  0.00     0.009 C 
ATOM      6  C   UNL     1      11.057  24.860  63.033  1.00  0.00     0.000 C 
ATOM      7  C   UNL     1      11.273  24.580  65.700  1.00  0.00     0.018 C 
ATOM      8  C   UNL     1      11.913  22.806  61.712  1.00  0.00     0.008 C 
ATOM      9  C   UNL     1      11.051  26.397  63.123  1.00  0.00     0.005 C 
ATOM     10  C   UNL     1      11.701  24.381  61.672  1.00  0.00    -0.024 C 
ATOM     11  C   UNL     1      10.678  27.105  61.805  1.00  0.00     0.005 C 
ATOM     12  C   UNL     1      10.720  24.868  60.446  1.00  0.00    -0.024 C 
ATOM     13  C   UNL     1      13.153  24.971  61.534  1.00  0.00     0.012 C 
ATOM     14  C   UNL     1       9.894  26.207  60.809  1.00  0.00     0.002 C 
ATOM     15  C   UNL     1      11.550  25.075  59.137  1.00  0.00     0.008 C 
ATOM     16  C   UNL     1       9.675  23.747  60.144  1.00  0.00     0.012 C 
ATOM     17  C   UNL     1       9.234  27.010  59.564  1.00  0.00    -0.026 C 
ATOM     18  C   UNL     1      10.772  25.686  57.976  1.00  0.00     0.005 C 
ATOM     19  C   UNL     1       8.875  28.488  59.951  1.00  0.00     0.010 C 
ATOM     20  C   UNL     1       7.886  26.303  59.169  1.00  0.00     0.012 C 
ATOM     21  C   UNL     1      10.259  27.090  58.369  1.00  0.00     0.003 C 
ATOM     22  C   UNL     1       8.386  29.357  58.779  1.00  0.00     0.033 C 
ATOM     23  C   UNL     1       9.843  28.002  57.139  1.00  0.00    -0.006 C 
ATOM     24  C   UNL     1       9.425  29.419  57.649  1.00  0.00     0.120 C 
ATOM     25  C   UNL     1       8.701  27.397  56.281  1.00  0.00     0.014 C 
ATOM     26  C   UNL     1      11.055  28.190  56.181  1.00  0.00     0.014 C 
ENDROOT
BRANCH   1  27
ATOM     27  C   UNL     1      10.336  22.051  64.157  1.00  0.00     0.048 C 
ATOM     28  O   UNL     1       9.298  22.735  63.949  1.00  0.00    -0.550 OA
ATOM     29  O   UNL     1      10.193  20.692  64.417  1.00  0.00    -0.550 OA
ENDBRANCH   1  27
BRANCH   7  30
ATOM     30  C   UNL     1      11.845  25.891  66.235  1.00  0.00    -0.077 C 
ATOM     31  C   UNL     1      10.993  26.863  67.016  1.00  0.00     0.039 C 
ATOM     32  C   UNL     1      13.125  26.216  65.991  1.00  0.00     0.008 C 
ENDBRANCH   7  30
BRANCH  24  33
ATOM     33  O   UNL     1      10.557  30.124  58.105  1.00  0.00    -0.393 OA
ATOM     34  H   UNL     1      10.558  30.066  59.096  1.00  0.00     0.210 HD
ENDBRANCH  24  33
TORSDOF 3
ENDMDL
MODEL 5
REMARK VINA RESULT:    -5.000      2.985      5.980
REMARK INTER + INTRA:          -5.914
REMARK INTER:                  -5.597
REMARK INTRA:                  -0.317
REMARK UNBOUND:                -0.183
REMARK SMILES C=C(C)[C@@H]1CC[C@]2(C(=O)[O-])CC[C@]3(C)[C@H](CC[C@H]4[C@@]5(C)CC[C@@H](O)C(C)(C)[C@@H]5CC[C@]43C)[C@@H]12
REMARK SMILES IDX 7 1 6 2 33 3 11 4 5 5 15 6 4 7 12 8 16 9 13 10 17 11 31 12
REMARK SMILES IDX 14 13 18 14 30 15 32 16 19 17 29 18 21 19 20 20 28 21 22 22
REMARK SMILES IDX 25 23 23 24 26 25 27 26 8 27 9 28 10 29 2 30 3 31 1 32 24 33
REMARK H PARENT 24 34
REMARK Flexibility Score: inf
ROOT
ATOM      1  C   UNL     1      10.499  25.565  60.944  1.00  0.00     0.014 C 
ATOM      2  C   UNL     1      11.255  25.728  59.626  1.00  0.00     0.014 C 
ATOM      3  C   UNL     1      11.426  24.612  61.712  1.00  0.00     0.012 C 
ATOM      4  C   UNL     1      10.365  26.849  61.789  1.00  0.00     0.014 C 
ATOM      5  C   UNL     1      11.800  24.322  59.319  1.00  0.00     0.009 C 
ATOM      6  C   UNL     1      10.812  24.169  63.072  1.00  0.00     0.000 C 
ATOM      7  C   UNL     1      11.852  23.559  60.666  1.00  0.00     0.018 C 
ATOM      8  C   UNL     1       9.707  26.507  63.150  1.00  0.00     0.008 C 
ATOM      9  C   UNL     1      11.737  23.178  63.802  1.00  0.00     0.005 C 
ATOM     10  C   UNL     1      10.457  25.395  64.002  1.00  0.00    -0.024 C 
ATOM     11  C   UNL     1      11.366  22.939  65.279  1.00  0.00     0.005 C 
ATOM     12  C   UNL     1       9.560  24.834  65.261  1.00  0.00    -0.024 C 
ATOM     13  C   UNL     1      11.780  26.095  64.488  1.00  0.00     0.012 C 
ATOM     14  C   UNL     1       9.893  23.296  65.622  1.00  0.00     0.002 C 
ATOM     15  C   UNL     1       9.756  25.746  66.515  1.00  0.00     0.008 C 
ATOM     16  C   UNL     1       8.045  24.904  64.887  1.00  0.00     0.012 C 
ATOM     17  C   UNL     1       9.401  22.771  67.076  1.00  0.00    -0.026 C 
ATOM     18  C   UNL     1       9.101  25.228  67.793  1.00  0.00     0.005 C 
ATOM     19  C   UNL     1      10.157  21.466  67.509  1.00  0.00     0.010 C 
ATOM     20  C   UNL     1       7.875  22.404  66.986  1.00  0.00     0.012 C 
ATOM     21  C   UNL     1       9.707  23.859  68.174  1.00  0.00     0.003 C 
ATOM     22  C   UNL     1       9.854  20.994  68.942  1.00  0.00     0.033 C 
ATOM     23  C   UNL     1       9.458  23.432  69.683  1.00  0.00    -0.006 C 
ATOM     24  C   UNL     1      10.186  22.081  69.976  1.00  0.00     0.120 C 
ATOM     25  C   UNL     1       7.956  23.308  70.048  1.00  0.00     0.014 C 
ATOM     26  C   UNL     1      10.054  24.501  70.645  1.00  0.00     0.014 C 
ENDROOT
BRANCH   1  27
ATOM     27  C   UNL     1       9.107  25.014  60.611  1.00  0.00     0.048 C 
ATOM     28  O   UNL     1       8.718  23.891  61.032  1.00  0.00    -0.550 OA
ATOM     29  O   UNL     1       8.276  25.721  59.749  1.00  0.00    -0.550 OA
ENDBRANCH   1  27
BRANCH   7  30
ATOM     30  C   UNL     1      13.233  22.958  60.923  1.00  0.00    -0.077 C 
ATOM     31  C   UNL     1      13.481  21.473  60.805  1.00  0.00     0.039 C 
ATOM     32  C   UNL     1      14.253  23.750  61.290  1.00  0.00     0.008 C 
ENDBRANCH   7  30
BRANCH  24  33
ATOM     33  O   UNL     1      11.580  22.277  70.005  1.00  0.00    -0.393 OA
ATOM     34  H   UNL     1      11.895  22.009  70.908  1.00  0.00     0.210 HD
ENDBRANCH  24  33
TORSDOF 3
ENDMDL
MODEL 6
REMARK VINA RESULT:    -4.710      2.609      4.086
REMARK INTER + INTRA:          -5.582
REMARK INTER:                  -6.072
REMARK INTRA:                   0.491
REMARK UNBOUND:                -0.183
REMARK SMILES C=C(C)[C@@H]1CC[C@]2(C(=O)[O-])CC[C@]3(C)[C@H](CC[C@H]4[C@@]5(C)CC[C@@H](O)C(C)(C)[C@@H]5CC[C@]43C)[C@@H]12
REMARK SMILES IDX 7 1 6 2 33 3 11 4 5 5 15 6 4 7 12 8 16 9 13 10 17 11 31 12
REMARK SMILES IDX 14 13 18 14 30 15 32 16 19 17 29 18 21 19 20 20 28 21 22 22
REMARK SMILES IDX 25 23 23 24 26 25 27 26 8 27 9 28 10 29 2 30 3 31 1 32 24 33
REMARK H PARENT 24 34
REMARK Flexibility Score: inf
ROOT
ATOM      1  C   UNL     1      10.130  20.677  63.695  1.00  0.00     0.014 C 
ATOM      2  C   UNL     1      10.126  19.204  63.287  1.00  0.00     0.014 C 
ATOM      3  C   UNL     1      11.458  21.157  63.091  1.00  0.00     0.012 C 
ATOM      4  C   UNL     1       9.010  21.535  63.072  1.00  0.00     0.014 C 
ATOM      5  C   UNL     1      11.585  18.751  63.469  1.00  0.00     0.009 C 
ATOM      6  C   UNL     1      11.779  22.630  63.480  1.00  0.00     0.000 C 
ATOM      7  C   UNL     1      12.461  20.027  63.411  1.00  0.00     0.018 C 
ATOM      8  C   UNL     1       9.221  23.022  63.456  1.00  0.00     0.008 C 
ATOM      9  C   UNL     1      13.135  23.073  62.903  1.00  0.00     0.005 C 
ATOM     10  C   UNL     1      10.634  23.630  63.054  1.00  0.00    -0.024 C 
ATOM     11  C   UNL     1      13.381  24.594  62.966  1.00  0.00     0.005 C 
ATOM     12  C   UNL     1      10.937  25.082  63.765  1.00  0.00    -0.024 C 
ATOM     13  C   UNL     1      10.582  23.743  61.485  1.00  0.00     0.012 C 
ATOM     14  C   UNL     1      12.511  25.328  64.024  1.00  0.00     0.002 C 
ATOM     15  C   UNL     1      10.335  26.242  62.906  1.00  0.00     0.008 C 
ATOM     16  C   UNL     1      10.225  25.135  65.154  1.00  0.00     0.012 C 
ATOM     17  C   UNL     1      12.966  26.857  64.317  1.00  0.00    -0.026 C 
ATOM     18  C   UNL     1      10.698  27.645  63.383  1.00  0.00     0.005 C 
ATOM     19  C   UNL     1      14.506  27.058  64.091  1.00  0.00     0.010 C 
ATOM     20  C   UNL     1      12.682  27.183  65.829  1.00  0.00     0.012 C 
ATOM     21  C   UNL     1      12.230  27.838  63.328  1.00  0.00     0.003 C 
ATOM     22  C   UNL     1      14.985  28.516  64.203  1.00  0.00     0.033 C 
ATOM     23  C   UNL     1      12.698  29.354  63.355  1.00  0.00    -0.006 C 
ATOM     24  C   UNL     1      14.253  29.429  63.207  1.00  0.00     0.120 C 
ATOM     25  C   UNL     1      12.257  30.114  64.632  1.00  0.00     0.014 C 
ATOM     26  C   UNL     1      12.079  30.125  62.153  1.00  0.00     0.014 C 
ENDROOT
BRANCH   1  27
ATOM     27  C   UNL     1      10.038  20.732  65.225  1.00  0.00     0.048 C 
ATOM     28  O   UNL     1      10.807  21.456  65.912  1.00  0.00    -0.550 OA
ATOM     29  O   UNL     1       9.146  19.898  65.889  1.00  0.00    -0.550 OA
ENDBRANCH   1  27
BRANCH   7  30
ATOM     30  C   UNL     1      13.588  19.894  62.389  1.00  0.00    -0.077 C 
ATOM     31  C   UNL     1      13.685  20.817  61.197  1.00  0.00     0.039 C 
ATOM     32  C   UNL     1      14.505  18.924  62.523  1.00  0.00     0.008 C 
ENDBRANCH   7  30
BRANCH  24  33
ATOM     33  O   UNL     1      14.633  29.078  61.897  1.00  0.00    -0.393 OA
ATOM     34  H   UNL     1      14.388  29.839  61.308  1.00  0.00     0.210 HD
ENDBRANCH  24  33
TORSDOF 3
ENDMDL
MODEL 7
REMARK VINA RESULT:    -4.680      3.246      3.899
REMARK INTER + INTRA:          -5.546
REMARK INTER:                  -5.428
REMARK INTRA:                  -0.118
REMARK UNBOUND:                -0.183
REMARK SMILES C=C(C)[C@@H]1CC[C@]2(C(=O)[O-])CC[C@]3(C)[C@H](CC[C@H]4[C@@]5(C)CC[C@@H](O)C(C)(C)[C@@H]5CC[C@]43C)[C@@H]12
REMARK SMILES IDX 7 1 6 2 33 3 11 4 5 5 15 6 4 7 12 8 16 9 13 10 17 11 31 12
REMARK SMILES IDX 14 13 18 14 30 15 32 16 19 17 29 18 21 19 20 20 28 21 22 22
REMARK SMILES IDX 25 23 23 24 26 25 27 26 8 27 9 28 10 29 2 30 3 31 1 32 24 33
REMARK H PARENT 24 34
REMARK Flexibility Score: inf
ROOT
ATOM      1  C   UNL     1      10.423  20.494  63.316  1.00  0.00     0.014 C 
ATOM      2  C   UNL     1      10.422  19.283  64.248  1.00  0.00     0.014 C 
ATOM      3  C   UNL     1      10.362  21.653  64.322  1.00  0.00     0.012 C 
ATOM      4  C   UNL     1      11.707  20.682  62.482  1.00  0.00     0.014 C 
ATOM      5  C   UNL     1       9.425  19.655  65.360  1.00  0.00     0.009 C 
ATOM      6  C   UNL     1      10.217  23.033  63.616  1.00  0.00     0.000 C 
ATOM      7  C   UNL     1       9.326  21.200  65.373  1.00  0.00     0.018 C 
ATOM      8  C   UNL     1      11.625  22.016  61.697  1.00  0.00     0.008 C 
ATOM      9  C   UNL     1      10.112  24.174  64.643  1.00  0.00     0.005 C 
ATOM     10  C   UNL     1      11.384  23.310  62.588  1.00  0.00    -0.024 C 
ATOM     11  C   UNL     1      10.287  25.583  64.043  1.00  0.00     0.005 C 
ATOM     12  C   UNL     1      10.977  24.635  61.702  1.00  0.00    -0.024 C 
ATOM     13  C   UNL     1      12.739  23.514  63.363  1.00  0.00     0.012 C 
ATOM     14  C   UNL     1      10.021  25.651  62.514  1.00  0.00     0.002 C 
ATOM     15  C   UNL     1      12.264  25.371  61.206  1.00  0.00     0.008 C 
ATOM     16  C   UNL     1      10.197  24.184  60.427  1.00  0.00     0.012 C 
ATOM     17  C   UNL     1       9.902  27.158  61.925  1.00  0.00    -0.026 C 
ATOM     18  C   UNL     1      12.010  26.707  60.514  1.00  0.00     0.005 C 
ATOM     19  C   UNL     1       9.354  28.161  63.001  1.00  0.00     0.010 C 
ATOM     20  C   UNL     1       8.866  27.152  60.741  1.00  0.00     0.012 C 
ATOM     21  C   UNL     1      11.323  27.684  61.495  1.00  0.00     0.003 C 
ATOM     22  C   UNL     1       9.357  29.636  62.563  1.00  0.00     0.033 C 
ATOM     23  C   UNL     1      11.415  29.210  61.068  1.00  0.00    -0.006 C 
ATOM     24  C   UNL     1      10.767  30.107  62.172  1.00  0.00     0.120 C 
ATOM     25  C   UNL     1      10.755  29.508  59.697  1.00  0.00     0.014 C 
ATOM     26  C   UNL     1      12.905  29.638  60.937  1.00  0.00     0.014 C 
ENDROOT
BRANCH   1  27
ATOM     27  C   UNL     1       9.212  20.359  62.383  1.00  0.00     0.048 C 
ATOM     28  O   UNL     1       9.246  19.638  61.351  1.00  0.00    -0.550 OA
ATOM     29  O   UNL     1       8.073  21.119  62.623  1.00  0.00    -0.550 OA
ENDBRANCH   1  27
BRANCH   7  30
ATOM     30  C   UNL     1       9.571  21.772  66.767  1.00  0.00    -0.077 C 
ATOM     31  C   UNL     1       8.428  22.171  67.670  1.00  0.00     0.039 C 
ATOM     32  C   UNL     1      10.826  21.956  67.207  1.00  0.00     0.008 C 
ENDBRANCH   7  30
BRANCH  24  33
ATOM     33  O   UNL     1      11.580  30.125  63.322  1.00  0.00    -0.393 OA
ATOM     34  H   UNL     1      11.243  29.416  63.930  1.00  0.00     0.210 HD
ENDBRANCH  24  33
TORSDOF 3
ENDMDL
MODEL 8
REMARK VINA RESULT:    -4.651      1.892      7.547
REMARK INTER + INTRA:          -5.514
REMARK INTER:                  -5.235
REMARK INTRA:                  -0.279
REMARK UNBOUND:                -0.183
REMARK SMILES C=C(C)[C@@H]1CC[C@]2(C(=O)[O-])CC[C@]3(C)[C@H](CC[C@H]4[C@@]5(C)CC[C@@H](O)C(C)(C)[C@@H]5CC[C@]43C)[C@@H]12
REMARK SMILES IDX 7 1 6 2 33 3 11 4 5 5 15 6 4 7 12 8 16 9 13 10 17 11 31 12
REMARK SMILES IDX 14 13 18 14 30 15 32 16 19 17 29 18 21 19 20 20 28 21 22 22
REMARK SMILES IDX 25 23 23 24 26 25 27 26 8 27 9 28 10 29 2 30 3 31 1 32 24 33
REMARK H PARENT 24 34
REMARK Flexibility Score: inf
ROOT
ATOM      1  C   UNL     1      13.972  29.030  65.978  1.00  0.00     0.014 C 
ATOM      2  C   UNL     1      14.060  30.125  67.041  1.00  0.00     0.014 C 
ATOM      3  C   UNL     1      13.127  27.971  66.700  1.00  0.00     0.012 C 
ATOM      4  C   UNL     1      13.214  29.420  64.693  1.00  0.00     0.014 C 
ATOM      5  C   UNL     1      14.242  29.362  68.365  1.00  0.00     0.009 C 
ATOM      6  C   UNL     1      12.993  26.662  65.867  1.00  0.00     0.000 C 
ATOM      7  C   UNL     1      13.697  27.930  68.134  1.00  0.00     0.018 C 
ATOM      8  C   UNL     1      13.081  28.179  63.772  1.00  0.00     0.008 C 
ATOM      9  C   UNL     1      12.181  25.600  66.629  1.00  0.00     0.005 C 
ATOM     10  C   UNL     1      12.376  26.919  64.436  1.00  0.00    -0.024 C 
ATOM     11  C   UNL     1      11.731  24.407  65.762  1.00  0.00     0.005 C 
ATOM     12  C   UNL     1      12.554  25.543  63.552  1.00  0.00    -0.024 C 
ATOM     13  C   UNL     1      10.866  27.338  64.573  1.00  0.00     0.012 C 
ATOM     14  C   UNL     1      12.573  24.216  64.471  1.00  0.00     0.002 C 
ATOM     15  C   UNL     1      11.429  25.444  62.471  1.00  0.00     0.008 C 
ATOM     16  C   UNL     1      13.913  25.594  62.784  1.00  0.00     0.012 C 
ATOM     17  C   UNL     1      12.318  22.805  63.712  1.00  0.00    -0.026 C 
ATOM     18  C   UNL     1      11.396  24.127  61.701  1.00  0.00     0.005 C 
ATOM     19  C   UNL     1      11.899  21.673  64.714  1.00  0.00     0.010 C 
ATOM     20  C   UNL     1      13.666  22.345  63.044  1.00  0.00     0.012 C 
ATOM     21  C   UNL     1      11.140  22.956  62.676  1.00  0.00     0.003 C 
ATOM     22  C   UNL     1      11.493  20.346  64.049  1.00  0.00     0.033 C 
ATOM     23  C   UNL     1      10.637  21.622  61.978  1.00  0.00    -0.006 C 
ATOM     24  C   UNL     1      10.330  20.541  63.064  1.00  0.00     0.120 C 
ATOM     25  C   UNL     1      11.639  21.053  60.941  1.00  0.00     0.014 C 
ATOM     26  C   UNL     1       9.314  21.893  61.203  1.00  0.00     0.014 C 
ENDROOT
BRANCH   1  27
ATOM     27  C   UNL     1      15.406  28.610  65.629  1.00  0.00     0.048 C 
ATOM     28  O   UNL     1      16.181  29.365  64.982  1.00  0.00    -0.550 OA
ATOM     29  O   UNL     1      15.845  27.331  65.950  1.00  0.00    -0.550 OA
ENDBRANCH   1  27
BRANCH   7  30
ATOM     30  C   UNL     1      12.672  27.537  69.195  1.00  0.00    -0.077 C 
ATOM     31  C   UNL     1      11.245  28.028  69.135  1.00  0.00     0.039 C 
ATOM     32  C   UNL     1      13.037  26.760  70.227  1.00  0.00     0.008 C 
ENDBRANCH   7  30
BRANCH  24  33
ATOM     33  O   UNL     1       9.171  20.892  63.784  1.00  0.00    -0.393 OA
ATOM     34  H   UNL     1       8.996  20.159  64.431  1.00  0.00     0.210 HD
ENDBRANCH  24  33
TORSDOF 3
ENDMDL
MODEL 9
REMARK VINA RESULT:    -3.594      3.660      5.675
REMARK INTER + INTRA:          -4.302
REMARK INTER:                  -4.714
REMARK INTRA:                   0.411
REMARK UNBOUND:                -0.183
REMARK SMILES C=C(C)[C@@H]1CC[C@]2(C(=O)[O-])CC[C@]3(C)[C@H](CC[C@H]4[C@@]5(C)CC[C@@H](O)C(C)(C)[C@@H]5CC[C@]43C)[C@@H]12
REMARK SMILES IDX 7 1 6 2 33 3 11 4 5 5 15 6 4 7 12 8 16 9 13 10 17 11 31 12
REMARK SMILES IDX 14 13 18 14 30 15 32 16 19 17 29 18 21 19 20 20 28 21 22 22
REMARK SMILES IDX 25 23 23 24 26 25 27 26 8 27 9 28 10 29 2 30 3 31 1 32 24 33
REMARK H PARENT 24 34
REMARK Flexibility Score: inf
ROOT
ATOM      1  C   UNL     1      12.822  21.160  63.082  1.00  0.00     0.014 C 
ATOM      2  C   UNL     1      12.736  19.980  64.049  1.00  0.00     0.014 C 
ATOM      3  C   UNL     1      11.372  21.668  63.091  1.00  0.00     0.012 C 
ATOM      4  C   UNL     1      13.716  22.328  63.546  1.00  0.00     0.014 C 
ATOM      5  C   UNL     1      11.389  19.312  63.723  1.00  0.00     0.009 C 
ATOM      6  C   UNL     1      11.148  22.815  62.063  1.00  0.00     0.000 C 
ATOM      7  C   UNL     1      10.512  20.387  63.034  1.00  0.00     0.018 C 
ATOM      8  C   UNL     1      13.596  23.504  62.543  1.00  0.00     0.008 C 
ATOM      9  C   UNL     1       9.680  23.276  62.057  1.00  0.00     0.005 C 
ATOM     10  C   UNL     1      12.119  24.038  62.302  1.00  0.00    -0.024 C 
ATOM     11  C   UNL     1       9.438  24.605  61.314  1.00  0.00     0.005 C 
ATOM     12  C   UNL     1      12.000  25.042  61.005  1.00  0.00    -0.024 C 
ATOM     13  C   UNL     1      11.739  24.765  63.645  1.00  0.00     0.012 C 
ATOM     14  C   UNL     1      10.553  24.966  60.294  1.00  0.00     0.002 C 
ATOM     15  C   UNL     1      12.328  26.512  61.425  1.00  0.00     0.008 C 
ATOM     16  C   UNL     1      13.063  24.632  59.936  1.00  0.00     0.012 C 
ATOM     17  C   UNL     1      10.172  26.186  59.294  1.00  0.00    -0.026 C 
ATOM     18  C   UNL     1      12.088  27.556  60.338  1.00  0.00     0.005 C 
ATOM     19  C   UNL     1       8.626  26.264  59.035  1.00  0.00     0.010 C 
ATOM     20  C   UNL     1      10.853  25.922  57.902  1.00  0.00     0.012 C 
ATOM     21  C   UNL     1      10.596  27.561  59.936  1.00  0.00     0.003 C 
ATOM     22  C   UNL     1       8.174  27.488  58.219  1.00  0.00     0.033 C 
ATOM     23  C   UNL     1      10.130  28.872  59.172  1.00  0.00    -0.006 C 
ATOM     24  C   UNL     1       8.594  28.803  58.893  1.00  0.00     0.120 C 
ATOM     25  C   UNL     1      10.892  29.116  57.844  1.00  0.00     0.014 C 
ATOM     26  C   UNL     1      10.387  30.125  60.058  1.00  0.00     0.014 C 
ENDROOT
BRANCH   1  27
ATOM     27  C   UNL     1      13.328  20.619  61.738  1.00  0.00     0.048 C 
ATOM     28  O   UNL     1      14.268  19.783  61.670  1.00  0.00    -0.550 OA
ATOM     29  O   UNL     1      12.804  21.125  60.554  1.00  0.00    -0.550 OA
ENDBRANCH   1  27
BRANCH   7  30
ATOM     30  C   UNL     1       9.151  20.527  63.712  1.00  0.00    -0.077 C 
ATOM     31  C   UNL     1       7.944  21.039  62.963  1.00  0.00     0.039 C 
ATOM     32  C   UNL     1       9.013  20.219  65.011  1.00  0.00     0.008 C 
ENDBRANCH   7  30
BRANCH  24  33
ATOM     33  O   UNL     1       7.875  28.952  60.096  1.00  0.00    -0.393 OA
ATOM     34  H   UNL     1       8.341  28.409  60.784  1.00  0.00     0.210 HD
ENDBRANCH  24  33
TORSDOF 3
ENDMDL
