MODEL 1
REMARK VINA RESULT:    -3.920      0.000      0.000
REMARK INTER + INTRA:          -4.898
REMARK INTER:                  -4.607
REMARK INTRA:                  -0.290
REMARK UNBOUND:                -0.290
REMARK SMILES O=c1c(O)c(-c2ccc(O)c(O)c2)oc2cc(O)ccc12
REMARK SMILES IDX 5 1 3 2 2 3 1 4 21 5 15 6 14 7 16 8 17 9 19 10 20 11 6 12
REMARK SMILES IDX 7 13 8 14 9 15 13 16 11 17 10 18 12 20 4 22 18 24
REMARK H PARENT 10 19 12 21 4 23 18 25
REMARK Flexibility Score: inf
ROOT
ATOM      1  C   UNL     1     122.514 125.023 135.664  1.00  0.00     0.180 A 
ATOM      2  C   UNL     1     123.238 123.827 135.478  1.00  0.00     0.208 A 
ATOM      3  C   UNL     1     123.331 123.288 134.186  1.00  0.00     0.235 A 
ATOM      4  O   UNL     1     123.964 122.213 133.995  1.00  0.00    -0.285 OA
ATOM      5  C   UNL     1     122.723 123.957 133.112  1.00  0.00     0.069 A 
ATOM      6  C   UNL     1     122.037 125.162 133.378  1.00  0.00     0.142 A 
ATOM      7  O   UNL     1     121.964 125.635 134.617  1.00  0.00    -0.452 OA
ATOM      8  C   UNL     1     121.425 125.864 132.332  1.00  0.00     0.094 A 
ATOM      9  C   UNL     1     121.490 125.377 131.023  1.00  0.00     0.119 A 
ATOM     10  C   UNL     1     122.168 124.179 130.756  1.00  0.00     0.047 A 
ATOM     11  C   UNL     1     122.783 123.471 131.793  1.00  0.00     0.020 A 
ENDROOT
BRANCH   1  12
ATOM     12  C   UNL     1     122.355 125.647 136.997  1.00  0.00     0.025 A 
ATOM     13  C   UNL     1     121.189 125.403 137.740  1.00  0.00     0.016 A 
ATOM     14  C   UNL     1     121.027 125.964 139.009  1.00  0.00     0.051 A 
ATOM     15  C   UNL     1     122.036 126.763 139.563  1.00  0.00     0.157 A 
ATOM     16  C   UNL     1     123.374 126.432 137.565  1.00  0.00     0.062 A 
ATOM     17  C   UNL     1     123.217 126.994 138.838  1.00  0.00     0.158 A 
BRANCH  15  18
ATOM     18  O   UNL     1     121.871 127.323 140.828  1.00  0.00    -0.504 OA
ATOM     19  H   UNL     1     121.047 127.137 141.388  1.00  0.00     0.293 HD
ENDBRANCH  15  18
BRANCH  17  20
ATOM     20  O   UNL     1     124.245 127.773 139.366  1.00  0.00    -0.504 OA
ATOM     21  H   UNL     1     124.498 127.737 140.346  1.00  0.00     0.293 HD
ENDBRANCH  17  20
ENDBRANCH   1  12
BRANCH   2  22
ATOM     22  O   UNL     1     123.874 123.210 136.558  1.00  0.00    -0.502 OA
ATOM     23  H   UNL     1     123.577 123.353 137.515  1.00  0.00     0.293 HD
ENDBRANCH   2  22
BRANCH   9  24
ATOM     24  O   UNL     1     120.875 126.087 129.995  1.00  0.00    -0.508 OA
ATOM     25  H   UNL     1     120.074 126.684 130.167  1.00  0.00     0.293 HD
ENDBRANCH   9  24
TORSDOF 5
ENDMDL
MODEL 2
REMARK VINA RESULT:    -3.842      6.552     11.964
REMARK INTER + INTRA:          -4.806
REMARK INTER:                  -4.497
REMARK INTRA:                  -0.309
REMARK UNBOUND:                -0.290
REMARK SMILES O=c1c(O)c(-c2ccc(O)c(O)c2)oc2cc(O)ccc12
REMARK SMILES IDX 5 1 3 2 2 3 1 4 21 5 15 6 14 7 16 8 17 9 19 10 20 11 6 12
REMARK SMILES IDX 7 13 8 14 9 15 13 16 11 17 10 18 12 20 4 22 18 24
REMARK H PARENT 10 19 12 21 4 23 18 25
REMARK Flexibility Score: inf
ROOT
ATOM      1  C   UNL     1     121.690 126.157 125.299  1.00  0.00     0.180 A 
ATOM      2  C   UNL     1     121.529 127.519 124.971  1.00  0.00     0.208 A 
ATOM      3  C   UNL     1     121.265 128.435 126.003  1.00  0.00     0.235 A 
ATOM      4  O   UNL     1     121.105 129.658 125.734  1.00  0.00    -0.285 OA
ATOM      5  C   UNL     1     121.189 127.980 127.328  1.00  0.00     0.069 A 
ATOM      6  C   UNL     1     121.387 126.604 127.575  1.00  0.00     0.142 A 
ATOM      7  O   UNL     1     121.626 125.768 126.570  1.00  0.00    -0.452 OA
ATOM      8  C   UNL     1     121.329 126.113 128.884  1.00  0.00     0.094 A 
ATOM      9  C   UNL     1     121.074 126.979 129.952  1.00  0.00     0.119 A 
ATOM     10  C   UNL     1     120.875 128.345 129.711  1.00  0.00     0.047 A 
ATOM     11  C   UNL     1     120.933 128.846 128.406  1.00  0.00     0.020 A 
ENDROOT
BRANCH   1  12
ATOM     12  C   UNL     1     121.953 125.127 124.268  1.00  0.00     0.025 A 
ATOM     13  C   UNL     1     120.879 124.570 123.557  1.00  0.00     0.016 A 
ATOM     14  C   UNL     1     121.105 123.612 122.565  1.00  0.00     0.051 A 
ATOM     15  C   UNL     1     122.411 123.210 122.257  1.00  0.00     0.157 A 
ATOM     16  C   UNL     1     123.264 124.736 123.941  1.00  0.00     0.062 A 
ATOM     17  C   UNL     1     123.496 123.778 122.946  1.00  0.00     0.158 A 
BRANCH  15  18
ATOM     18  O   UNL     1     122.634 122.253 121.269  1.00  0.00    -0.504 OA
ATOM     19  H   UNL     1     122.233 122.342 120.343  1.00  0.00     0.293 HD
ENDBRANCH  15  18
BRANCH  17  20
ATOM     20  O   UNL     1     124.808 123.410 122.654  1.00  0.00    -0.504 OA
ATOM     21  H   UNL     1     125.041 122.493 122.291  1.00  0.00     0.293 HD
ENDBRANCH  17  20
ENDBRANCH   1  12
BRANCH   2  22
ATOM     22  O   UNL     1     121.658 127.950 123.649  1.00  0.00    -0.502 OA
ATOM     23  H   UNL     1     121.241 128.811 123.317  1.00  0.00     0.293 HD
ENDBRANCH   2  22
BRANCH   9  24
ATOM     24  O   UNL     1     121.019 126.473 131.249  1.00  0.00    -0.508 OA
ATOM     25  H   UNL     1     120.449 126.909 131.964  1.00  0.00     0.293 HD
ENDBRANCH   9  24
TORSDOF 5
ENDMDL
MODEL 3
REMARK VINA RESULT:    -3.724     18.056     20.379
REMARK INTER + INTRA:          -4.667
REMARK INTER:                  -4.370
REMARK INTRA:                  -0.296
REMARK UNBOUND:                -0.290
REMARK SMILES O=c1c(O)c(-c2ccc(O)c(O)c2)oc2cc(O)ccc12
REMARK SMILES IDX 5 1 3 2 2 3 1 4 21 5 15 6 14 7 16 8 17 9 19 10 20 11 6 12
REMARK SMILES IDX 7 13 8 14 9 15 13 16 11 17 10 18 12 20 4 22 18 24
REMARK H PARENT 10 19 12 21 4 23 18 25
REMARK Flexibility Score: inf
ROOT
ATOM      1  C   UNL     1     139.564 124.847 126.182  1.00  0.00     0.180 A 
ATOM      2  C   UNL     1     138.804 123.660 126.239  1.00  0.00     0.208 A 
ATOM      3  C   UNL     1     138.673 123.001 127.471  1.00  0.00     0.235 A 
ATOM      4  O   UNL     1     138.007 121.931 127.546  1.00  0.00    -0.285 OA
ATOM      5  C   UNL     1     139.279 123.545 128.615  1.00  0.00     0.069 A 
ATOM      6  C   UNL     1     140.001 124.750 128.478  1.00  0.00     0.142 A 
ATOM      7  O   UNL     1     140.110 125.339 127.293  1.00  0.00    -0.452 OA
ATOM      8  C   UNL     1     140.612 125.330 129.597  1.00  0.00     0.094 A 
ATOM      9  C   UNL     1     140.510 124.720 130.851  1.00  0.00     0.119 A 
ATOM     10  C   UNL     1     139.795 123.523 130.990  1.00  0.00     0.047 A 
ATOM     11  C   UNL     1     139.180 122.936 129.878  1.00  0.00     0.020 A 
ENDROOT
BRANCH   1  12
ATOM     12  C   UNL     1     139.765 125.592 124.919  1.00  0.00     0.025 A 
ATOM     13  C   UNL     1     140.925 125.368 124.161  1.00  0.00     0.016 A 
ATOM     14  C   UNL     1     141.125 126.044 122.954  1.00  0.00     0.051 A 
ATOM     15  C   UNL     1     140.160 126.941 122.479  1.00  0.00     0.157 A 
ATOM     16  C   UNL     1     138.789 126.478 124.428  1.00  0.00     0.062 A 
ATOM     17  C   UNL     1     138.985 127.156 123.218  1.00  0.00     0.158 A 
BRANCH  15  18
ATOM     18  O   UNL     1     140.363 127.616 121.276  1.00  0.00    -0.504 OA
ATOM     19  H   UNL     1     140.918 127.215 120.530  1.00  0.00     0.293 HD
ENDBRANCH  15  18
BRANCH  17  20
ATOM     20  O   UNL     1     137.999 128.032 122.766  1.00  0.00    -0.504 OA
ATOM     21  H   UNL     1     137.464 127.851 121.925  1.00  0.00     0.293 HD
ENDBRANCH  17  20
ENDBRANCH   1  12
BRANCH   2  22
ATOM     22  O   UNL     1     138.172 123.169 125.094  1.00  0.00    -0.502 OA
ATOM     23  H   UNL     1     137.877 122.204 125.011  1.00  0.00     0.293 HD
ENDBRANCH   2  22
BRANCH   9  24
ATOM     24  O   UNL     1     141.124 125.310 131.954  1.00  0.00    -0.508 OA
ATOM     25  H   UNL     1     142.118 125.214 132.122  1.00  0.00     0.293 HD
ENDBRANCH   9  24
TORSDOF 5
ENDMDL
MODEL 4
REMARK VINA RESULT:    -3.716     18.336     20.465
REMARK INTER + INTRA:          -4.658
REMARK INTER:                  -4.342
REMARK INTRA:                  -0.315
REMARK UNBOUND:                -0.290
REMARK SMILES O=c1c(O)c(-c2ccc(O)c(O)c2)oc2cc(O)ccc12
REMARK SMILES IDX 5 1 3 2 2 3 1 4 21 5 15 6 14 7 16 8 17 9 19 10 20 11 6 12
REMARK SMILES IDX 7 13 8 14 9 15 13 16 11 17 10 18 12 20 4 22 18 24
REMARK H PARENT 10 19 12 21 4 23 18 25
REMARK Flexibility Score: inf
ROOT
ATOM      1  C   UNL     1     138.804 124.125 125.145  1.00  0.00     0.180 A 
ATOM      2  C   UNL     1     139.340 125.416 124.952  1.00  0.00     0.208 A 
ATOM      3  C   UNL     1     139.904 126.083 126.050  1.00  0.00     0.235 A 
ATOM      4  O   UNL     1     140.379 127.244 125.906  1.00  0.00    -0.285 OA
ATOM      5  C   UNL     1     139.941 125.448 127.302  1.00  0.00     0.069 A 
ATOM      6  C   UNL     1     139.406 124.146 127.405  1.00  0.00     0.142 A 
ATOM      7  O   UNL     1     138.873 123.551 126.344  1.00  0.00    -0.452 OA
ATOM      8  C   UNL     1     139.433 123.475 128.634  1.00  0.00     0.094 A 
ATOM      9  C   UNL     1     139.987 124.089 129.761  1.00  0.00     0.119 A 
ATOM     10  C   UNL     1     140.517 125.382 129.662  1.00  0.00     0.047 A 
ATOM     11  C   UNL     1     140.496 126.061 128.439  1.00  0.00     0.020 A 
ENDROOT
BRANCH   1  12
ATOM     12  C   UNL     1     138.177 123.362 124.042  1.00  0.00     0.025 A 
ATOM     13  C   UNL     1     136.800 123.497 123.804  1.00  0.00     0.016 A 
ATOM     14  C   UNL     1     136.191 122.803 122.755  1.00  0.00     0.051 A 
ATOM     15  C   UNL     1     136.952 121.976 121.919  1.00  0.00     0.157 A 
ATOM     16  C   UNL     1     138.941 122.548 123.187  1.00  0.00     0.062 A 
ATOM     17  C   UNL     1     138.335 121.852 122.134  1.00  0.00     0.158 A 
BRANCH  15  18
ATOM     18  O   UNL     1     136.341 121.283 120.875  1.00  0.00    -0.504 OA
ATOM     19  H   UNL     1     135.702 121.741 120.237  1.00  0.00     0.293 HD
ENDBRANCH  15  18
BRANCH  17  20
ATOM     20  O   UNL     1     139.123 121.049 121.311  1.00  0.00    -0.504 OA
ATOM     21  H   UNL     1     139.427 121.354 120.394  1.00  0.00     0.293 HD
ENDBRANCH  17  20
ENDBRANCH   1  12
BRANCH   2  22
ATOM     22  O   UNL     1     139.333 126.003 123.685  1.00  0.00    -0.502 OA
ATOM     23  H   UNL     1     139.056 125.495 122.854  1.00  0.00     0.293 HD
ENDBRANCH   2  22
BRANCH   9  24
ATOM     24  O   UNL     1     140.005 123.407 130.976  1.00  0.00    -0.508 OA
ATOM     25  H   UNL     1     140.861 123.015 131.352  1.00  0.00     0.293 HD
ENDBRANCH   9  24
TORSDOF 5
ENDMDL
MODEL 5
REMARK VINA RESULT:    -3.618      1.393      2.191
REMARK INTER + INTRA:          -4.542
REMARK INTER:                  -4.244
REMARK INTRA:                  -0.298
REMARK UNBOUND:                -0.290
REMARK SMILES O=c1c(O)c(-c2ccc(O)c(O)c2)oc2cc(O)ccc12
REMARK SMILES IDX 5 1 3 2 2 3 1 4 21 5 15 6 14 7 16 8 17 9 19 10 20 11 6 12
REMARK SMILES IDX 7 13 8 14 9 15 13 16 11 17 10 18 12 20 4 22 18 24
REMARK H PARENT 10 19 12 21 4 23 18 25
REMARK Flexibility Score: inf
ROOT
ATOM      1  C   UNL     1     122.486 125.266 134.246  1.00  0.00     0.180 A 
ATOM      2  C   UNL     1     122.728 123.952 133.793  1.00  0.00     0.208 A 
ATOM      3  C   UNL     1     122.522 123.657 132.436  1.00  0.00     0.235 A 
ATOM      4  O   UNL     1     122.721 122.486 132.008  1.00  0.00    -0.285 OA
ATOM      5  C   UNL     1     122.103 124.673 131.564  1.00  0.00     0.069 A 
ATOM      6  C   UNL     1     121.906 125.968 132.092  1.00  0.00     0.142 A 
ATOM      7  O   UNL     1     122.104 126.205 133.384  1.00  0.00    -0.452 OA
ATOM      8  C   UNL     1     121.498 127.011 131.252  1.00  0.00     0.094 A 
ATOM      9  C   UNL     1     121.282 126.777 129.890  1.00  0.00     0.119 A 
ATOM     10  C   UNL     1     121.474 125.492 129.363  1.00  0.00     0.047 A 
ATOM     11  C   UNL     1     121.883 124.444 130.194  1.00  0.00     0.020 A 
ENDROOT
BRANCH   1  12
ATOM     12  C   UNL     1     122.663 125.653 135.664  1.00  0.00     0.025 A 
ATOM     13  C   UNL     1     123.798 126.385 136.045  1.00  0.00     0.016 A 
ATOM     14  C   UNL     1     123.975 126.779 137.374  1.00  0.00     0.051 A 
ATOM     15  C   UNL     1     123.011 126.461 138.339  1.00  0.00     0.157 A 
ATOM     16  C   UNL     1     121.687 125.353 136.632  1.00  0.00     0.062 A 
ATOM     17  C   UNL     1     121.859 125.748 137.965  1.00  0.00     0.158 A 
BRANCH  15  18
ATOM     18  O   UNL     1     123.191 126.853 139.664  1.00  0.00    -0.504 OA
ATOM     19  H   UNL     1     122.472 127.355 140.171  1.00  0.00     0.293 HD
ENDBRANCH  15  18
BRANCH  17  20
ATOM     20  O   UNL     1     120.875 125.428 138.898  1.00  0.00    -0.504 OA
ATOM     21  H   UNL     1     120.620 126.059 139.648  1.00  0.00     0.293 HD
ENDBRANCH  17  20
ENDBRANCH   1  12
BRANCH   2  22
ATOM     22  O   UNL     1     123.192 122.973 134.675  1.00  0.00    -0.502 OA
ATOM     23  H   UNL     1     124.094 122.527 134.562  1.00  0.00     0.293 HD
ENDBRANCH   2  22
BRANCH   9  24
ATOM     24  O   UNL     1     120.875 127.826 129.069  1.00  0.00    -0.508 OA
ATOM     25  H   UNL     1     120.218 128.527 129.390  1.00  0.00     0.293 HD
ENDBRANCH   9  24
TORSDOF 5
ENDMDL
MODEL 6
REMARK VINA RESULT:    -3.614      4.686      8.164
REMARK INTER + INTRA:          -4.538
REMARK INTER:                  -4.451
REMARK INTRA:                  -0.087
REMARK UNBOUND:                -0.290
REMARK SMILES O=c1c(O)c(-c2ccc(O)c(O)c2)oc2cc(O)ccc12
REMARK SMILES IDX 5 1 3 2 2 3 1 4 21 5 15 6 14 7 16 8 17 9 19 10 20 11 6 12
REMARK SMILES IDX 7 13 8 14 9 15 13 16 11 17 10 18 12 20 4 22 18 24
REMARK H PARENT 10 19 12 21 4 23 18 25
REMARK Flexibility Score: inf
ROOT
ATOM      1  C   UNL     1     121.768 126.646 128.363  1.00  0.00     0.180 A 
ATOM      2  C   UNL     1     121.853 128.052 128.288  1.00  0.00     0.208 A 
ATOM      3  C   UNL     1     121.768 128.668 127.030  1.00  0.00     0.235 A 
ATOM      4  O   UNL     1     121.853 129.924 126.935  1.00  0.00    -0.285 OA
ATOM      5  C   UNL     1     121.580 127.878 125.885  1.00  0.00     0.069 A 
ATOM      6  C   UNL     1     121.480 126.479 126.048  1.00  0.00     0.142 A 
ATOM      7  O   UNL     1     121.574 125.933 127.255  1.00  0.00    -0.452 OA
ATOM      8  C   UNL     1     121.282 125.657 124.931  1.00  0.00     0.094 A 
ATOM      9  C   UNL     1     121.184 126.215 123.653  1.00  0.00     0.119 A 
ATOM     10  C   UNL     1     121.285 127.603 123.488  1.00  0.00     0.047 A 
ATOM     11  C   UNL     1     121.481 128.433 124.597  1.00  0.00     0.020 A 
ENDROOT
BRANCH   1  12
ATOM     12  C   UNL     1     121.866 125.921 129.650  1.00  0.00     0.025 A 
ATOM     13  C   UNL     1     120.925 126.173 130.660  1.00  0.00     0.016 A 
ATOM     14  C   UNL     1     120.986 125.484 131.874  1.00  0.00     0.051 A 
ATOM     15  C   UNL     1     121.980 124.521 132.091  1.00  0.00     0.157 A 
ATOM     16  C   UNL     1     122.850 124.938 129.863  1.00  0.00     0.062 A 
ATOM     17  C   UNL     1     122.914 124.244 131.078  1.00  0.00     0.158 A 
BRANCH  15  18
ATOM     18  O   UNL     1     122.041 123.838 133.304  1.00  0.00    -0.504 OA
ATOM     19  H   UNL     1     121.673 122.899 133.402  1.00  0.00     0.293 HD
ENDBRANCH  15  18
BRANCH  17  20
ATOM     20  O   UNL     1     123.906 123.282 131.256  1.00  0.00    -0.504 OA
ATOM     21  H   UNL     1     123.690 122.298 131.354  1.00  0.00     0.293 HD
ENDBRANCH  17  20
ENDBRANCH   1  12
BRANCH   2  22
ATOM     22  O   UNL     1     121.991 128.816 129.449  1.00  0.00    -0.502 OA
ATOM     23  H   UNL     1     122.847 129.309 129.675  1.00  0.00     0.293 HD
ENDBRANCH   2  22
BRANCH   9  24
ATOM     24  O   UNL     1     120.988 125.383 122.553  1.00  0.00    -0.508 OA
ATOM     25  H   UNL     1     121.035 124.375 122.636  1.00  0.00     0.293 HD
ENDBRANCH   9  24
TORSDOF 5
ENDMDL
MODEL 7
REMARK VINA RESULT:    -3.549      9.738     12.393
REMARK INTER + INTRA:          -4.462
REMARK INTER:                  -4.149
REMARK INTRA:                  -0.312
REMARK UNBOUND:                -0.290
REMARK SMILES O=c1c(O)c(-c2ccc(O)c(O)c2)oc2cc(O)ccc12
REMARK SMILES IDX 5 1 3 2 2 3 1 4 21 5 15 6 14 7 16 8 17 9 19 10 20 11 6 12
REMARK SMILES IDX 7 13 8 14 9 15 13 16 11 17 10 18 12 20 4 22 18 24
REMARK H PARENT 10 19 12 21 4 23 18 25
REMARK Flexibility Score: inf
ROOT
ATOM      1  C   UNL     1     121.628 126.868 124.764  1.00  0.00     0.180 A 
ATOM      2  C   UNL     1     121.397 127.154 126.125  1.00  0.00     0.208 A 
ATOM      3  C   UNL     1     121.158 128.484 126.505  1.00  0.00     0.235 A 
ATOM      4  O   UNL     1     120.959 128.767 127.719  1.00  0.00    -0.285 OA
ATOM      5  C   UNL     1     121.135 129.489 125.526  1.00  0.00     0.069 A 
ATOM      6  C   UNL     1     121.352 129.117 124.181  1.00  0.00     0.142 A 
ATOM      7  O   UNL     1     121.583 127.848 123.863  1.00  0.00    -0.452 OA
ATOM      8  C   UNL     1     121.327 130.089 123.174  1.00  0.00     0.094 A 
ATOM      9  C   UNL     1     121.089 131.429 123.492  1.00  0.00     0.119 A 
ATOM     10  C   UNL     1     120.875 131.802 124.826  1.00  0.00     0.047 A 
ATOM     11  C   UNL     1     120.897 130.839 125.840  1.00  0.00     0.020 A 
ENDROOT
BRANCH   1  12
ATOM     12  C   UNL     1     121.905 125.495 124.285  1.00  0.00     0.025 A 
ATOM     13  C   UNL     1     120.876 124.750 123.689  1.00  0.00     0.016 A 
ATOM     14  C   UNL     1     121.119 123.460 123.211  1.00  0.00     0.051 A 
ATOM     15  C   UNL     1     122.400 122.901 123.308  1.00  0.00     0.157 A 
ATOM     16  C   UNL     1     123.194 124.938 124.362  1.00  0.00     0.062 A 
ATOM     17  C   UNL     1     123.444 123.646 123.882  1.00  0.00     0.158 A 
BRANCH  15  18
ATOM     18  O   UNL     1     122.640 121.613 122.832  1.00  0.00    -0.504 OA
ATOM     19  H   UNL     1     122.933 121.446 121.877  1.00  0.00     0.293 HD
ENDBRANCH  15  18
BRANCH  17  20
ATOM     20  O   UNL     1     124.732 123.125 123.980  1.00  0.00    -0.504 OA
ATOM     21  H   UNL     1     124.940 122.158 123.758  1.00  0.00     0.293 HD
ENDBRANCH  17  20
ENDBRANCH   1  12
BRANCH   2  22
ATOM     22  O   UNL     1     121.377 126.126 127.071  1.00  0.00    -0.502 OA
ATOM     23  H   UNL     1     121.540 125.158 126.823  1.00  0.00     0.293 HD
ENDBRANCH   2  22
BRANCH   9  24
ATOM     24  O   UNL     1     121.068 132.383 122.478  1.00  0.00    -0.508 OA
ATOM     25  H   UNL     1     120.940 132.123 121.507  1.00  0.00     0.293 HD
ENDBRANCH   9  24
TORSDOF 5
ENDMDL
MODEL 8
REMARK VINA RESULT:    -3.542      4.861     10.546
REMARK INTER + INTRA:          -4.453
REMARK INTER:                  -4.143
REMARK INTRA:                  -0.311
REMARK UNBOUND:                -0.290
REMARK SMILES O=c1c(O)c(-c2ccc(O)c(O)c2)oc2cc(O)ccc12
REMARK SMILES IDX 5 1 3 2 2 3 1 4 21 5 15 6 14 7 16 8 17 9 19 10 20 11 6 12
REMARK SMILES IDX 7 13 8 14 9 15 13 16 11 17 10 18 12 20 4 22 18 24
REMARK H PARENT 10 19 12 21 4 23 18 25
REMARK Flexibility Score: inf
ROOT
ATOM      1  C   UNL     1     121.896 126.589 127.240  1.00  0.00     0.180 A 
ATOM      2  C   UNL     1     121.552 127.943 127.436  1.00  0.00     0.208 A 
ATOM      3  C   UNL     1     121.198 128.370 128.725  1.00  0.00     0.235 A 
ATOM      4  O   UNL     1     120.875 129.574 128.924  1.00  0.00    -0.285 OA
ATOM      5  C   UNL     1     121.214 127.452 129.786  1.00  0.00     0.069 A 
ATOM      6  C   UNL     1     121.594 126.121 129.512  1.00  0.00     0.142 A 
ATOM      7  O   UNL     1     121.914 125.753 128.276  1.00  0.00    -0.452 OA
ATOM      8  C   UNL     1     121.633 125.177 130.546  1.00  0.00     0.094 A 
ATOM      9  C   UNL     1     121.295 125.547 131.851  1.00  0.00     0.119 A 
ATOM     10  C   UNL     1     120.915 126.868 132.127  1.00  0.00     0.047 A 
ATOM     11  C   UNL     1     120.875 127.818 131.101  1.00  0.00     0.020 A 
ENDROOT
BRANCH   1  12
ATOM     12  C   UNL     1     122.265 126.056 125.909  1.00  0.00     0.025 A 
ATOM     13  C   UNL     1     121.254 125.653 125.022  1.00  0.00     0.016 A 
ATOM     14  C   UNL     1     121.578 125.167 123.752  1.00  0.00     0.051 A 
ATOM     15  C   UNL     1     122.916 125.093 123.344  1.00  0.00     0.157 A 
ATOM     16  C   UNL     1     123.605 126.000 125.488  1.00  0.00     0.062 A 
ATOM     17  C   UNL     1     123.934 125.516 124.215  1.00  0.00     0.158 A 
BRANCH  15  18
ATOM     18  O   UNL     1     123.236 124.606 122.078  1.00  0.00    -0.504 OA
ATOM     19  H   UNL     1     124.182 124.339 121.836  1.00  0.00     0.293 HD
ENDBRANCH  15  18
BRANCH  17  20
ATOM     20  O   UNL     1     125.274 125.468 123.834  1.00  0.00    -0.504 OA
ATOM     21  H   UNL     1     125.577 124.997 122.991  1.00  0.00     0.293 HD
ENDBRANCH  17  20
ENDBRANCH   1  12
BRANCH   2  22
ATOM     22  O   UNL     1     121.592 128.845 126.370  1.00  0.00    -0.502 OA
ATOM     23  H   UNL     1     122.207 129.649 126.364  1.00  0.00     0.293 HD
ENDBRANCH   2  22
BRANCH   9  24
ATOM     24  O   UNL     1     121.338 124.596 132.868  1.00  0.00    -0.508 OA
ATOM     25  H   UNL     1     121.193 123.611 132.679  1.00  0.00     0.293 HD
ENDBRANCH   9  24
TORSDOF 5
ENDMDL
MODEL 9
REMARK VINA RESULT:    -3.530      1.898      2.506
REMARK INTER + INTRA:          -4.439
REMARK INTER:                  -4.123
REMARK INTRA:                  -0.316
REMARK UNBOUND:                -0.290
REMARK SMILES O=c1c(O)c(-c2ccc(O)c(O)c2)oc2cc(O)ccc12
REMARK SMILES IDX 5 1 3 2 2 3 1 4 21 5 15 6 14 7 16 8 17 9 19 10 20 11 6 12
REMARK SMILES IDX 7 13 8 14 9 15 13 16 11 17 10 18 12 20 4 22 18 24
REMARK H PARENT 10 19 12 21 4 23 18 25
REMARK Flexibility Score: inf
ROOT
ATOM      1  C   UNL     1     123.165 124.488 137.367  1.00  0.00     0.180 A 
ATOM      2  C   UNL     1     124.122 123.531 137.763  1.00  0.00     0.208 A 
ATOM      3  C   UNL     1     124.628 122.643 136.800  1.00  0.00     0.235 A 
ATOM      4  O   UNL     1     125.476 121.770 137.132  1.00  0.00    -0.285 OA
ATOM      5  C   UNL     1     124.188 122.741 135.471  1.00  0.00     0.069 A 
ATOM      6  C   UNL     1     123.247 123.744 135.151  1.00  0.00     0.142 A 
ATOM      7  O   UNL     1     122.785 124.559 136.092  1.00  0.00    -0.452 OA
ATOM      8  C   UNL     1     122.791 123.881 133.834  1.00  0.00     0.094 A 
ATOM      9  C   UNL     1     123.264 123.028 132.832  1.00  0.00     0.119 A 
ATOM     10  C   UNL     1     124.197 122.030 133.147  1.00  0.00     0.047 A 
ATOM     11  C   UNL     1     124.659 121.886 134.459  1.00  0.00     0.020 A 
ENDROOT
BRANCH   1  12
ATOM     12  C   UNL     1     122.571 125.448 138.325  1.00  0.00     0.025 A 
ATOM     13  C   UNL     1     121.440 125.073 139.067  1.00  0.00     0.016 A 
ATOM     14  C   UNL     1     120.875 125.955 139.993  1.00  0.00     0.051 A 
ATOM     15  C   UNL     1     121.442 127.218 140.201  1.00  0.00     0.157 A 
ATOM     16  C   UNL     1     123.150 126.709 138.552  1.00  0.00     0.062 A 
ATOM     17  C   UNL     1     122.588 127.595 139.480  1.00  0.00     0.158 A 
BRANCH  15  18
ATOM     18  O   UNL     1     120.876 128.097 141.123  1.00  0.00    -0.504 OA
ATOM     19  H   UNL     1     121.267 129.016 141.290  1.00  0.00     0.293 HD
ENDBRANCH  15  18
BRANCH  17  20
ATOM     20  O   UNL     1     123.185 128.840 139.675  1.00  0.00    -0.504 OA
ATOM     21  H   UNL     1     122.695 129.706 139.486  1.00  0.00     0.293 HD
ENDBRANCH  17  20
ENDBRANCH   1  12
BRANCH   2  22
ATOM     22  O   UNL     1     124.577 123.488 139.083  1.00  0.00    -0.502 OA
ATOM     23  H   UNL     1     124.755 124.327 139.621  1.00  0.00     0.293 HD
ENDBRANCH   2  22
BRANCH   9  24
ATOM     24  O   UNL     1     122.800 123.177 131.527  1.00  0.00    -0.508 OA
ATOM     25  H   UNL     1     121.826 123.374 131.329  1.00  0.00     0.293 HD
ENDBRANCH   9  24
TORSDOF 5
ENDMDL
