MODEL 1
REMARK VINA RESULT:    -3.750      0.000      0.000
REMARK INTER + INTRA:          -8.387
REMARK INTER:                  -6.381
REMARK INTRA:                  -2.006
REMARK UNBOUND:                -2.006
REMARK SMILES CCCCCCCCCCCCCC(=O)[O-]
REMARK SMILES IDX 8 1 9 2 10 3 11 4 12 5 13 6 14 7 15 8 16 9 7 10 6 11 5 12
REMARK SMILES IDX 4 13 3 14 2 15 1 16
REMARK H PARENT
REMARK Flexibility Score: inf
ROOT
ATOM      1  C   UNL     1      48.648   0.440  74.222  1.00  0.00     0.000 C 
ENDROOT
BRANCH   1   2
ATOM      2  C   UNL     1      47.873   0.297  72.903  1.00  0.00     0.000 C 
BRANCH   2   3
ATOM      3  C   UNL     1      48.596  -0.601  71.888  1.00  0.00     0.000 C 
BRANCH   3   4
ATOM      4  C   UNL     1      50.115  -0.542  72.087  1.00  0.00     0.000 C 
BRANCH   4   5
ATOM      5  C   UNL     1      50.726  -1.951  72.079  1.00  0.00     0.006 C 
BRANCH   5   6
ATOM      6  C   UNL     1      51.977  -2.047  72.962  1.00  0.00     0.053 C 
BRANCH   6   7
ATOM      7  C   UNL     1      53.235  -2.005  72.150  1.00  0.00     0.041 C 
ATOM      8  O   UNL     1      53.946  -3.038  72.029  1.00  0.00    -0.550 OA
ATOM      9  O   UNL     1      53.607  -0.835  71.501  1.00  0.00    -0.550 OA
ENDBRANCH   6   7
ENDBRANCH   5   6
ENDBRANCH   4   5
ENDBRANCH   3   4
ENDBRANCH   2   3
ENDBRANCH   1   2
BRANCH   1  10
ATOM     10  C   UNL     1      47.826  -0.004  75.444  1.00  0.00     0.000 C 
BRANCH  10  11
ATOM     11  C   UNL     1      48.657  -0.794  76.471  1.00  0.00    -0.000 C 
BRANCH  11  12
ATOM     12  C   UNL     1      49.652  -1.804  75.869  1.00  0.00    -0.000 C 
BRANCH  12  13
ATOM     13  C   UNL     1      49.155  -3.258  75.951  1.00  0.00    -0.000 C 
BRANCH  13  14
ATOM     14  C   UNL     1      49.076  -3.942  74.574  1.00  0.00    -0.000 C 
BRANCH  14  15
ATOM     15  C   UNL     1      47.789  -3.664  73.778  1.00  0.00    -0.003 C 
ATOM     16  C   UNL     1      47.720  -4.435  72.460  1.00  0.00     0.004 C 
ENDBRANCH  14  15
ENDBRANCH  13  14
ENDBRANCH  12  13
ENDBRANCH  11  12
ENDBRANCH  10  11
ENDBRANCH   1  10
TORSDOF 12
ENDMDL
MODEL 2
REMARK VINA RESULT:    -3.619      1.560      2.468
REMARK INTER + INTRA:          -8.164
REMARK INTER:                  -6.754
REMARK INTRA:                  -1.411
REMARK UNBOUND:                -2.006
REMARK SMILES CCCCCCCCCCCCCC(=O)[O-]
REMARK SMILES IDX 8 1 9 2 10 3 11 4 12 5 13 6 14 7 15 8 16 9 7 10 6 11 5 12
REMARK SMILES IDX 4 13 3 14 2 15 1 16
REMARK H PARENT
REMARK Flexibility Score: inf
ROOT
ATOM      1  C   UNL     1      48.515  -1.153  75.218  1.00  0.00     0.000 C 
ENDROOT
BRANCH   1   2
ATOM      2  C   UNL     1      48.882  -0.127  74.134  1.00  0.00     0.000 C 
BRANCH   2   3
ATOM      3  C   UNL     1      48.208  -0.427  72.786  1.00  0.00     0.000 C 
BRANCH   3   4
ATOM      4  C   UNL     1      49.253  -0.642  71.685  1.00  0.00     0.000 C 
BRANCH   4   5
ATOM      5  C   UNL     1      50.675  -0.449  72.230  1.00  0.00     0.006 C 
BRANCH   5   6
ATOM      6  C   UNL     1      51.456  -1.768  72.300  1.00  0.00     0.053 C 
BRANCH   6   7
ATOM      7  C   UNL     1      52.935  -1.538  72.308  1.00  0.00     0.041 C 
ATOM      8  O   UNL     1      53.670  -2.162  73.119  1.00  0.00    -0.550 OA
ATOM      9  O   UNL     1      53.509  -0.659  71.398  1.00  0.00    -0.550 OA
ENDBRANCH   6   7
ENDBRANCH   5   6
ENDBRANCH   4   5
ENDBRANCH   3   4
ENDBRANCH   2   3
ENDBRANCH   1   2
BRANCH   1  10
ATOM     10  C   UNL     1      47.888  -2.431  74.635  1.00  0.00     0.000 C 
BRANCH  10  11
ATOM     11  C   UNL     1      48.906  -3.573  74.459  1.00  0.00    -0.000 C 
BRANCH  11  12
ATOM     12  C   UNL     1      48.870  -4.275  73.089  1.00  0.00    -0.000 C 
BRANCH  12  13
ATOM     13  C   UNL     1      47.439  -4.511  72.573  1.00  0.00    -0.000 C 
BRANCH  13  14
ATOM     14  C   UNL     1      46.741  -5.695  73.267  1.00  0.00    -0.000 C 
BRANCH  14  15
ATOM     15  C   UNL     1      45.581  -5.311  74.204  1.00  0.00    -0.003 C 
ATOM     16  C   UNL     1      44.378  -6.245  74.081  1.00  0.00     0.004 C 
ENDBRANCH  14  15
ENDBRANCH  13  14
ENDBRANCH  12  13
ENDBRANCH  11  12
ENDBRANCH  10  11
ENDBRANCH   1  10
TORSDOF 12
ENDMDL
MODEL 3
REMARK VINA RESULT:    -3.583      2.974      4.433
REMARK INTER + INTRA:          -8.103
REMARK INTER:                  -6.031
REMARK INTRA:                  -2.072
REMARK UNBOUND:                -2.006
REMARK SMILES CCCCCCCCCCCCCC(=O)[O-]
REMARK SMILES IDX 8 1 9 2 10 3 11 4 12 5 13 6 14 7 15 8 16 9 7 10 6 11 5 12
REMARK SMILES IDX 4 13 3 14 2 15 1 16
REMARK H PARENT
REMARK Flexibility Score: inf
ROOT
ATOM      1  C   UNL     1      50.431  -0.092  72.158  1.00  0.00     0.000 C 
ENDROOT
BRANCH   1   2
ATOM      2  C   UNL     1      49.018  -0.434  71.659  1.00  0.00     0.000 C 
BRANCH   2   3
ATOM      3  C   UNL     1      47.935  -0.143  72.708  1.00  0.00     0.000 C 
BRANCH   3   4
ATOM      4  C   UNL     1      48.549   0.002  74.106  1.00  0.00     0.000 C 
BRANCH   4   5
ATOM      5  C   UNL     1      48.033  -1.092  75.051  1.00  0.00     0.006 C 
BRANCH   5   6
ATOM      6  C   UNL     1      49.117  -1.582  76.020  1.00  0.00     0.053 C 
BRANCH   6   7
ATOM      7  C   UNL     1      48.575  -2.571  77.005  1.00  0.00     0.041 C 
ATOM      8  O   UNL     1      49.346  -3.138  77.824  1.00  0.00    -0.550 OA
ATOM      9  O   UNL     1      47.214  -2.845  77.041  1.00  0.00    -0.550 OA
ENDBRANCH   6   7
ENDBRANCH   5   6
ENDBRANCH   4   5
ENDBRANCH   3   4
ENDBRANCH   2   3
ENDBRANCH   1   2
BRANCH   1  10
ATOM     10  C   UNL     1      51.407  -1.273  72.026  1.00  0.00     0.000 C 
BRANCH  10  11
ATOM     11  C   UNL     1      51.578  -2.059  73.339  1.00  0.00    -0.000 C 
BRANCH  11  12
ATOM     12  C   UNL     1      51.076  -3.514  73.299  1.00  0.00    -0.000 C 
BRANCH  12  13
ATOM     13  C   UNL     1      50.339  -3.860  71.994  1.00  0.00    -0.000 C 
BRANCH  13  14
ATOM     14  C   UNL     1      49.059  -4.683  72.228  1.00  0.00    -0.000 C 
BRANCH  14  15
ATOM     15  C   UNL     1      47.830  -3.869  72.669  1.00  0.00    -0.003 C 
ATOM     16  C   UNL     1      47.074  -4.508  73.833  1.00  0.00     0.004 C 
ENDBRANCH  14  15
ENDBRANCH  13  14
ENDBRANCH  12  13
ENDBRANCH  11  12
ENDBRANCH  10  11
ENDBRANCH   1  10
TORSDOF 12
ENDMDL
MODEL 4
REMARK VINA RESULT:    -3.569      1.304      2.544
REMARK INTER + INTRA:          -8.079
REMARK INTER:                  -6.268
REMARK INTRA:                  -1.811
REMARK UNBOUND:                -2.006
REMARK SMILES CCCCCCCCCCCCCC(=O)[O-]
REMARK SMILES IDX 8 1 9 2 10 3 11 4 12 5 13 6 14 7 15 8 16 9 7 10 6 11 5 12
REMARK SMILES IDX 4 13 3 14 2 15 1 16
REMARK H PARENT
REMARK Flexibility Score: inf
ROOT
ATOM      1  C   UNL     1      48.253  -0.678  71.558  1.00  0.00     0.000 C 
ENDROOT
BRANCH   1   2
ATOM      2  C   UNL     1      48.270  -1.972  72.386  1.00  0.00     0.000 C 
BRANCH   2   3
ATOM      3  C   UNL     1      49.567  -2.773  72.204  1.00  0.00     0.000 C 
BRANCH   3   4
ATOM      4  C   UNL     1      50.250  -3.029  73.552  1.00  0.00     0.000 C 
BRANCH   4   5
ATOM      5  C   UNL     1      51.647  -2.393  73.593  1.00  0.00     0.006 C 
BRANCH   5   6
ATOM      6  C   UNL     1      51.871  -1.407  72.438  1.00  0.00     0.053 C 
BRANCH   6   7
ATOM      7  C   UNL     1      53.247  -1.533  71.860  1.00  0.00     0.041 C 
ATOM      8  O   UNL     1      53.796  -0.541  71.310  1.00  0.00    -0.550 OA
ATOM      9  O   UNL     1      53.937  -2.734  71.956  1.00  0.00    -0.550 OA
ENDBRANCH   6   7
ENDBRANCH   5   6
ENDBRANCH   4   5
ENDBRANCH   3   4
ENDBRANCH   2   3
ENDBRANCH   1   2
BRANCH   1  10
ATOM     10  C   UNL     1      48.152   0.584  72.432  1.00  0.00     0.000 C 
BRANCH  10  11
ATOM     11  C   UNL     1      49.002   0.495  73.713  1.00  0.00    -0.000 C 
BRANCH  11  12
ATOM     12  C   UNL     1      48.203   0.519  75.030  1.00  0.00    -0.000 C 
BRANCH  12  13
ATOM     13  C   UNL     1      48.397  -0.754  75.872  1.00  0.00    -0.000 C 
BRANCH  13  14
ATOM     14  C   UNL     1      47.123  -1.614  75.959  1.00  0.00    -0.000 C 
BRANCH  14  15
ATOM     15  C   UNL     1      47.356  -3.094  76.313  1.00  0.00    -0.003 C 
ATOM     16  C   UNL     1      46.923  -4.052  75.204  1.00  0.00     0.004 C 
ENDBRANCH  14  15
ENDBRANCH  13  14
ENDBRANCH  12  13
ENDBRANCH  11  12
ENDBRANCH  10  11
ENDBRANCH   1  10
TORSDOF 12
ENDMDL
MODEL 5
REMARK VINA RESULT:    -3.516      3.597      5.838
REMARK INTER + INTRA:          -7.988
REMARK INTER:                  -6.560
REMARK INTRA:                  -1.427
REMARK UNBOUND:                -2.006
REMARK SMILES CCCCCCCCCCCCCC(=O)[O-]
REMARK SMILES IDX 8 1 9 2 10 3 11 4 12 5 13 6 14 7 15 8 16 9 7 10 6 11 5 12
REMARK SMILES IDX 4 13 3 14 2 15 1 16
REMARK H PARENT
REMARK Flexibility Score: inf
ROOT
ATOM      1  C   UNL     1      48.632  -1.890  72.231  1.00  0.00     0.000 C 
ENDROOT
BRANCH   1   2
ATOM      2  C   UNL     1      48.932  -0.503  71.641  1.00  0.00     0.000 C 
BRANCH   2   3
ATOM      3  C   UNL     1      49.331   0.521  72.715  1.00  0.00     0.000 C 
BRANCH   3   4
ATOM      4  C   UNL     1      48.915   0.044  74.111  1.00  0.00     0.000 C 
BRANCH   4   5
ATOM      5  C   UNL     1      48.421   1.216  74.970  1.00  0.00     0.006 C 
BRANCH   5   6
ATOM      6  C   UNL     1      47.021   0.966  75.547  1.00  0.00     0.053 C 
BRANCH   6   7
ATOM      7  C   UNL     1      45.948   1.520  74.661  1.00  0.00     0.041 C 
ATOM      8  O   UNL     1      44.739   1.244  74.882  1.00  0.00    -0.550 OA
ATOM      9  O   UNL     1      46.279   2.367  73.612  1.00  0.00    -0.550 OA
ENDBRANCH   6   7
ENDBRANCH   5   6
ENDBRANCH   4   5
ENDBRANCH   3   4
ENDBRANCH   2   3
ENDBRANCH   1   2
BRANCH   1  10
ATOM     10  C   UNL     1      49.775  -2.892  71.995  1.00  0.00     0.000 C 
BRANCH  10  11
ATOM     11  C   UNL     1      50.534  -3.250  73.285  1.00  0.00    -0.000 C 
BRANCH  11  12
ATOM     12  C   UNL     1      51.744  -2.351  73.602  1.00  0.00    -0.000 C 
BRANCH  12  13
ATOM     13  C   UNL     1      53.043  -2.836  72.935  1.00  0.00    -0.000 C 
BRANCH  13  14
ATOM     14  C   UNL     1      53.558  -1.868  71.854  1.00  0.00    -0.000 C 
BRANCH  14  15
ATOM     15  C   UNL     1      52.786  -0.541  71.743  1.00  0.00    -0.003 C 
ATOM     16  C   UNL     1      53.493   0.493  70.868  1.00  0.00     0.004 C 
ENDBRANCH  14  15
ENDBRANCH  13  14
ENDBRANCH  12  13
ENDBRANCH  11  12
ENDBRANCH  10  11
ENDBRANCH   1  10
TORSDOF 12
ENDMDL
MODEL 6
REMARK VINA RESULT:    -3.508     13.509     15.354
REMARK INTER + INTRA:          -7.975
REMARK INTER:                  -6.816
REMARK INTRA:                  -1.159
REMARK UNBOUND:                -2.006
REMARK SMILES CCCCCCCCCCCCCC(=O)[O-]
REMARK SMILES IDX 8 1 9 2 10 3 11 4 12 5 13 6 14 7 15 8 16 9 7 10 6 11 5 12
REMARK SMILES IDX 4 13 3 14 2 15 1 16
REMARK H PARENT
REMARK Flexibility Score: inf
ROOT
ATOM      1  C   UNL     1      61.048  -8.163  80.545  1.00  0.00     0.000 C 
ENDROOT
BRANCH   1   2
ATOM      2  C   UNL     1      60.813  -8.405  82.045  1.00  0.00     0.000 C 
BRANCH   2   3
ATOM      3  C   UNL     1      61.127  -7.167  82.898  1.00  0.00     0.000 C 
BRANCH   3   4
ATOM      4  C   UNL     1      59.840  -6.524  83.428  1.00  0.00     0.000 C 
BRANCH   4   5
ATOM      5  C   UNL     1      59.518  -5.229  82.668  1.00  0.00     0.006 C 
BRANCH   5   6
ATOM      6  C   UNL     1      60.682  -4.773  81.778  1.00  0.00     0.053 C 
BRANCH   6   7
ATOM      7  C   UNL     1      60.498  -3.364  81.303  1.00  0.00     0.041 C 
ATOM      8  O   UNL     1      61.447  -2.755  80.742  1.00  0.00    -0.550 OA
ATOM      9  O   UNL     1      59.270  -2.733  81.452  1.00  0.00    -0.550 OA
ENDBRANCH   6   7
ENDBRANCH   5   6
ENDBRANCH   4   5
ENDBRANCH   3   4
ENDBRANCH   2   3
ENDBRANCH   1   2
BRANCH   1  10
ATOM     10  C   UNL     1      61.458  -9.443  79.796  1.00  0.00     0.000 C 
BRANCH  10  11
ATOM     11  C   UNL     1      60.316 -10.031  78.946  1.00  0.00    -0.000 C 
BRANCH  11  12
ATOM     12  C   UNL     1      60.457 -11.527  78.608  1.00  0.00    -0.000 C 
BRANCH  12  13
ATOM     13  C   UNL     1      60.720 -12.400  79.848  1.00  0.00    -0.000 C 
BRANCH  13  14
ATOM     14  C   UNL     1      59.576 -12.341  80.876  1.00  0.00    -0.000 C 
BRANCH  14  15
ATOM     15  C   UNL     1      59.993 -11.918  82.295  1.00  0.00    -0.003 C 
ATOM     16  C   UNL     1      61.503 -11.977  82.519  1.00  0.00     0.004 C 
ENDBRANCH  14  15
ENDBRANCH  13  14
ENDBRANCH  12  13
ENDBRANCH  11  12
ENDBRANCH  10  11
ENDBRANCH   1  10
TORSDOF 12
ENDMDL
MODEL 7
REMARK VINA RESULT:    -3.487      2.760      5.045
REMARK INTER + INTRA:          -7.939
REMARK INTER:                  -6.441
REMARK INTRA:                  -1.498
REMARK UNBOUND:                -2.006
REMARK SMILES CCCCCCCCCCCCCC(=O)[O-]
REMARK SMILES IDX 8 1 9 2 10 3 11 4 12 5 13 6 14 7 15 8 16 9 7 10 6 11 5 12
REMARK SMILES IDX 4 13 3 14 2 15 1 16
REMARK H PARENT
REMARK Flexibility Score: inf
ROOT
ATOM      1  C   UNL     1      47.549  -0.649  75.098  1.00  0.00     0.000 C 
ENDROOT
BRANCH   1   2
ATOM      2  C   UNL     1      48.169  -1.691  76.042  1.00  0.00     0.000 C 
BRANCH   2   3
ATOM      3  C   UNL     1      49.182  -2.601  75.332  1.00  0.00     0.000 C 
BRANCH   3   4
ATOM      4  C   UNL     1      48.498  -3.853  74.771  1.00  0.00     0.000 C 
BRANCH   4   5
ATOM      5  C   UNL     1      48.086  -3.646  73.307  1.00  0.00     0.006 C 
BRANCH   5   6
ATOM      6  C   UNL     1      48.656  -4.731  72.382  1.00  0.00     0.053 C 
BRANCH   6   7
ATOM      7  C   UNL     1      47.913  -6.024  72.519  1.00  0.00     0.041 C 
ATOM      8  O   UNL     1      48.471  -7.023  73.045  1.00  0.00    -0.550 OA
ATOM      9  O   UNL     1      46.594  -6.118  72.095  1.00  0.00    -0.550 OA
ENDBRANCH   6   7
ENDBRANCH   5   6
ENDBRANCH   4   5
ENDBRANCH   3   4
ENDBRANCH   2   3
ENDBRANCH   1   2
BRANCH   1  10
ATOM     10  C   UNL     1      48.593   0.016  74.184  1.00  0.00     0.000 C 
BRANCH  10  11
ATOM     11  C   UNL     1      48.116   0.149  72.726  1.00  0.00    -0.000 C 
BRANCH  11  12
ATOM     12  C   UNL     1      49.024  -0.521  71.677  1.00  0.00    -0.000 C 
BRANCH  12  13
ATOM     13  C   UNL     1      50.521  -0.384  72.006  1.00  0.00    -0.000 C 
BRANCH  13  14
ATOM     14  C   UNL     1      51.186  -1.732  72.342  1.00  0.00    -0.000 C 
BRANCH  14  15
ATOM     15  C   UNL     1      52.724  -1.729  72.304  1.00  0.00    -0.003 C 
ATOM     16  C   UNL     1      53.303  -0.554  71.516  1.00  0.00     0.004 C 
ENDBRANCH  14  15
ENDBRANCH  13  14
ENDBRANCH  12  13
ENDBRANCH  11  12
ENDBRANCH  10  11
ENDBRANCH   1  10
TORSDOF 12
ENDMDL
MODEL 8
REMARK VINA RESULT:    -3.480      3.362      5.729
REMARK INTER + INTRA:          -7.927
REMARK INTER:                  -6.400
REMARK INTRA:                  -1.527
REMARK UNBOUND:                -2.006
REMARK SMILES CCCCCCCCCCCCCC(=O)[O-]
REMARK SMILES IDX 8 1 9 2 10 3 11 4 12 5 13 6 14 7 15 8 16 9 7 10 6 11 5 12
REMARK SMILES IDX 4 13 3 14 2 15 1 16
REMARK H PARENT
REMARK Flexibility Score: inf
ROOT
ATOM      1  C   UNL     1      50.770  -2.511  72.942  1.00  0.00     0.000 C 
ENDROOT
BRANCH   1   2
ATOM      2  C   UNL     1      50.555  -3.711  72.006  1.00  0.00     0.000 C 
BRANCH   2   3
ATOM      3  C   UNL     1      49.450  -4.656  72.503  1.00  0.00     0.000 C 
BRANCH   3   4
ATOM      4  C   UNL     1      48.095  -3.940  72.552  1.00  0.00     0.000 C 
BRANCH   4   5
ATOM      5  C   UNL     1      47.053  -4.783  73.301  1.00  0.00     0.006 C 
BRANCH   5   6
ATOM      6  C   UNL     1      47.536  -6.218  73.550  1.00  0.00     0.053 C 
BRANCH   6   7
ATOM      7  C   UNL     1      46.872  -7.196  72.630  1.00  0.00     0.041 C 
ATOM      8  O   UNL     1      47.501  -7.668  71.646  1.00  0.00    -0.550 OA
ATOM      9  O   UNL     1      45.570  -7.610  72.876  1.00  0.00    -0.550 OA
ENDBRANCH   6   7
ENDBRANCH   5   6
ENDBRANCH   4   5
ENDBRANCH   3   4
ENDBRANCH   2   3
ENDBRANCH   1   2
BRANCH   1  10
ATOM     10  C   UNL     1      51.414  -1.310  72.227  1.00  0.00     0.000 C 
BRANCH  10  11
ATOM     11  C   UNL     1      50.454  -0.115  72.080  1.00  0.00    -0.000 C 
BRANCH  11  12
ATOM     12  C   UNL     1      49.033  -0.472  71.606  1.00  0.00    -0.000 C 
BRANCH  12  13
ATOM     13  C   UNL     1      47.941  -0.032  72.597  1.00  0.00    -0.000 C 
BRANCH  13  14
ATOM     14  C   UNL     1      48.493   0.815  73.758  1.00  0.00    -0.000 C 
BRANCH  14  15
ATOM     15  C   UNL     1      48.292   0.213  75.159  1.00  0.00    -0.003 C 
ATOM     16  C   UNL     1      48.068  -1.298  75.136  1.00  0.00     0.004 C 
ENDBRANCH  14  15
ENDBRANCH  13  14
ENDBRANCH  12  13
ENDBRANCH  11  12
ENDBRANCH  10  11
ENDBRANCH   1  10
TORSDOF 12
ENDMDL
MODEL 9
REMARK VINA RESULT:    -3.467      2.752      5.213
REMARK INTER + INTRA:          -7.905
REMARK INTER:                  -6.056
REMARK INTRA:                  -1.849
REMARK UNBOUND:                -2.006
REMARK SMILES CCCCCCCCCCCCCC(=O)[O-]
REMARK SMILES IDX 8 1 9 2 10 3 11 4 12 5 13 6 14 7 15 8 16 9 7 10 6 11 5 12
REMARK SMILES IDX 4 13 3 14 2 15 1 16
REMARK H PARENT
REMARK Flexibility Score: inf
ROOT
ATOM      1  C   UNL     1      50.590  -2.723  72.959  1.00  0.00     0.000 C 
ENDROOT
BRANCH   1   2
ATOM      2  C   UNL     1      50.390  -3.886  71.975  1.00  0.00     0.000 C 
BRANCH   2   3
ATOM      3  C   UNL     1      49.152  -4.733  72.305  1.00  0.00     0.000 C 
BRANCH   3   4
ATOM      4  C   UNL     1      47.984  -3.846  72.753  1.00  0.00     0.000 C 
BRANCH   4   5
ATOM      5  C   UNL     1      47.111  -4.568  73.789  1.00  0.00     0.006 C 
BRANCH   5   6
ATOM      6  C   UNL     1      47.947  -5.325  74.830  1.00  0.00     0.053 C 
BRANCH   6   7
ATOM      7  C   UNL     1      48.358  -4.438  75.964  1.00  0.00     0.041 C 
ATOM      8  O   UNL     1      49.566  -4.110  76.106  1.00  0.00    -0.550 OA
ATOM      9  O   UNL     1      47.404  -3.947  76.846  1.00  0.00    -0.550 OA
ENDBRANCH   6   7
ENDBRANCH   5   6
ENDBRANCH   4   5
ENDBRANCH   3   4
ENDBRANCH   2   3
ENDBRANCH   1   2
BRANCH   1  10
ATOM     10  C   UNL     1      51.342  -1.538  72.330  1.00  0.00     0.000 C 
BRANCH  10  11
ATOM     11  C   UNL     1      50.478  -0.268  72.223  1.00  0.00    -0.000 C 
BRANCH  11  12
ATOM     12  C   UNL     1      49.067  -0.486  71.645  1.00  0.00    -0.000 C 
BRANCH  12  13
ATOM     13  C   UNL     1      47.954   0.049  72.562  1.00  0.00    -0.000 C 
BRANCH  13  14
ATOM     14  C   UNL     1      48.428   0.277  74.009  1.00  0.00    -0.000 C 
BRANCH  14  15
ATOM     15  C   UNL     1      48.095  -0.859  74.992  1.00  0.00    -0.003 C 
ATOM     16  C   UNL     1      48.124  -0.415  76.454  1.00  0.00     0.004 C 
ENDBRANCH  14  15
ENDBRANCH  13  14
ENDBRANCH  12  13
ENDBRANCH  11  12
ENDBRANCH  10  11
ENDBRANCH   1  10
TORSDOF 12
ENDMDL
