MODEL 1
REMARK VINA RESULT:    -4.815      0.000      0.000
REMARK INTER + INTRA:          -4.815
REMARK INTER:                  -4.815
REMARK INTRA:                   0.000
REMARK UNBOUND:                 0.000
REMARK SMILES C=C1[C@H]2CC[C@H](C2)C1(C)C
REMARK SMILES IDX 9 1 8 2 6 3 5 4 4 5 3 6 7 7 2 8 1 9 10 10
REMARK H PARENT
REMARK Flexibility Score: inf
ROOT
ATOM      1  C   UNL     1     -44.772 -50.884  29.627  1.00  0.00     0.016 C 
ATOM      2  C   UNL     1     -45.001 -50.428  31.085  1.00  0.00    -0.012 C 
ATOM      3  C   UNL     1     -46.385 -50.930  31.627  1.00  0.00    -0.001 C 
ATOM      4  C   UNL     1     -46.698 -50.316  33.013  1.00  0.00     0.005 C 
ATOM      5  C   UNL     1     -45.648 -50.979  33.929  1.00  0.00     0.008 C 
ATOM      6  C   UNL     1     -44.941 -51.967  32.984  1.00  0.00     0.015 C 
ATOM      7  C   UNL     1     -46.073 -52.360  32.059  1.00  0.00     0.012 C 
ATOM      8  C   UNL     1     -44.089 -51.159  32.042  1.00  0.00    -0.068 C 
ATOM      9  C   UNL     1     -42.755 -51.070  32.092  1.00  0.00     0.008 C 
ATOM     10  C   UNL     1     -44.813 -48.896  31.168  1.00  0.00     0.016 C 
ENDROOT
TORSDOF 0
ENDMDL
MODEL 2
REMARK VINA RESULT:    -4.533      5.241      7.117
REMARK INTER + INTRA:          -4.533
REMARK INTER:                  -4.533
REMARK INTRA:                   0.000
REMARK UNBOUND:                 0.000
REMARK SMILES C=C1[C@H]2CC[C@H](C2)C1(C)C
REMARK SMILES IDX 9 1 8 2 6 3 5 4 4 5 3 6 7 7 2 8 1 9 10 10
REMARK H PARENT
REMARK Flexibility Score: inf
ROOT
ATOM      1  C   UNL     1     -41.004 -49.245  29.833  1.00  0.00     0.016 C 
ATOM      2  C   UNL     1     -40.741 -48.746  28.395  1.00  0.00    -0.012 C 
ATOM      3  C   UNL     1     -42.079 -48.617  27.584  1.00  0.00    -0.001 C 
ATOM      4  C   UNL     1     -41.799 -48.304  26.094  1.00  0.00     0.005 C 
ATOM      5  C   UNL     1     -41.225 -46.872  26.145  1.00  0.00     0.008 C 
ATOM      6  C   UNL     1     -41.348 -46.504  27.633  1.00  0.00     0.015 C 
ATOM      7  C   UNL     1     -42.603 -47.254  28.025  1.00  0.00     0.012 C 
ATOM      8  C   UNL     1     -40.313 -47.298  28.382  1.00  0.00    -0.068 C 
ATOM      9  C   UNL     1     -39.181 -46.800  28.895  1.00  0.00     0.008 C 
ATOM     10  C   UNL     1     -39.690 -49.664  27.729  1.00  0.00     0.016 C 
ENDROOT
TORSDOF 0
ENDMDL
MODEL 3
REMARK VINA RESULT:    -4.513     12.666     15.006
REMARK INTER + INTRA:          -4.513
REMARK INTER:                  -4.513
REMARK INTRA:                   0.000
REMARK UNBOUND:                 0.000
REMARK SMILES C=C1[C@H]2CC[C@H](C2)C1(C)C
REMARK SMILES IDX 9 1 8 2 6 3 5 4 4 5 3 6 7 7 2 8 1 9 10 10
REMARK H PARENT
REMARK Flexibility Score: inf
ROOT
ATOM      1  C   UNL     1     -49.024 -50.014  20.161  1.00  0.00     0.016 C 
ATOM      2  C   UNL     1     -48.947 -49.577  18.682  1.00  0.00    -0.012 C 
ATOM      3  C   UNL     1     -47.571 -49.978  18.041  1.00  0.00    -0.001 C 
ATOM      4  C   UNL     1     -47.419 -49.374  16.624  1.00  0.00     0.005 C 
ATOM      5  C   UNL     1     -48.478 -50.142  15.806  1.00  0.00     0.008 C 
ATOM      6  C   UNL     1     -49.026 -51.160  16.821  1.00  0.00     0.015 C 
ATOM      7  C   UNL     1     -47.798 -51.438  17.660  1.00  0.00     0.012 C 
ATOM      8  C   UNL     1     -49.866 -50.402  17.813  1.00  0.00    -0.068 C 
ATOM      9  C   UNL     1     -51.203 -50.422  17.867  1.00  0.00     0.008 C 
ATOM     10  C   UNL     1     -49.266 -48.067  18.586  1.00  0.00     0.016 C 
ENDROOT
TORSDOF 0
ENDMDL
MODEL 4
REMARK VINA RESULT:    -4.486      1.018      2.506
REMARK INTER + INTRA:          -4.486
REMARK INTER:                  -4.486
REMARK INTRA:                   0.000
REMARK UNBOUND:                 0.000
REMARK SMILES C=C1[C@H]2CC[C@H](C2)C1(C)C
REMARK SMILES IDX 9 1 8 2 6 3 5 4 4 5 3 6 7 7 2 8 1 9 10 10
REMARK H PARENT
REMARK Flexibility Score: inf
ROOT
ATOM      1  C   UNL     1     -45.051 -48.535  31.300  1.00  0.00     0.016 C 
ATOM      2  C   UNL     1     -45.844 -49.793  31.716  1.00  0.00    -0.012 C 
ATOM      3  C   UNL     1     -45.044 -51.103  31.387  1.00  0.00    -0.001 C 
ATOM      4  C   UNL     1     -45.914 -52.362  31.626  1.00  0.00     0.005 C 
ATOM      5  C   UNL     1     -46.087 -52.375  33.159  1.00  0.00     0.008 C 
ATOM      6  C   UNL     1     -45.211 -51.196  33.616  1.00  0.00     0.015 C 
ATOM      7  C   UNL     1     -44.105 -51.226  32.583  1.00  0.00     0.012 C 
ATOM      8  C   UNL     1     -45.917 -49.928  33.218  1.00  0.00    -0.068 C 
ATOM      9  C   UNL     1     -46.549 -49.101  34.060  1.00  0.00     0.008 C 
ATOM     10  C   UNL     1     -47.249 -49.738  31.073  1.00  0.00     0.016 C 
ENDROOT
TORSDOF 0
ENDMDL
MODEL 5
REMARK VINA RESULT:    -4.475     13.604     15.348
REMARK INTER + INTRA:          -4.475
REMARK INTER:                  -4.475
REMARK INTRA:                   0.000
REMARK UNBOUND:                 0.000
REMARK SMILES C=C1[C@H]2CC[C@H](C2)C1(C)C
REMARK SMILES IDX 9 1 8 2 6 3 5 4 4 5 3 6 7 7 2 8 1 9 10 10
REMARK H PARENT
REMARK Flexibility Score: inf
ROOT
ATOM      1  C   UNL     1     -49.226 -48.038  18.466  1.00  0.00     0.016 C 
ATOM      2  C   UNL     1     -48.297 -49.171  17.976  1.00  0.00    -0.012 C 
ATOM      3  C   UNL     1     -48.997 -50.571  18.092  1.00  0.00    -0.001 C 
ATOM      4  C   UNL     1     -48.005 -51.718  17.784  1.00  0.00     0.005 C 
ATOM      5  C   UNL     1     -47.725 -51.537  16.277  1.00  0.00     0.008 C 
ATOM      6  C   UNL     1     -48.669 -50.386  15.887  1.00  0.00     0.015 C 
ATOM      7  C   UNL     1     -49.837 -50.627  16.819  1.00  0.00     0.012 C 
ATOM      8  C   UNL     1     -48.107 -49.121  16.479  1.00  0.00    -0.068 C 
ATOM      9  C   UNL     1     -47.495 -48.152  15.788  1.00  0.00     0.008 C 
ATOM     10  C   UNL     1     -46.950 -49.080  18.731  1.00  0.00     0.016 C 
ENDROOT
TORSDOF 0
ENDMDL
MODEL 6
REMARK VINA RESULT:    -4.472     11.797     13.352
REMARK INTER + INTRA:          -4.472
REMARK INTER:                  -4.472
REMARK INTRA:                   0.000
REMARK UNBOUND:                 0.000
REMARK SMILES C=C1[C@H]2CC[C@H](C2)C1(C)C
REMARK SMILES IDX 9 1 8 2 6 3 5 4 4 5 3 6 7 7 2 8 1 9 10 10
REMARK H PARENT
REMARK Flexibility Score: inf
ROOT
ATOM      1  C   UNL     1     -53.361 -48.897  20.038  1.00  0.00     0.016 C 
ATOM      2  C   UNL     1     -53.527 -48.660  21.556  1.00  0.00    -0.012 C 
ATOM      3  C   UNL     1     -52.135 -48.620  22.280  1.00  0.00    -0.001 C 
ATOM      4  C   UNL     1     -52.308 -48.575  23.818  1.00  0.00     0.005 C 
ATOM      5  C   UNL     1     -52.921 -47.179  24.056  1.00  0.00     0.008 C 
ATOM      6  C   UNL     1     -52.921 -46.558  22.648  1.00  0.00     0.015 C 
ATOM      7  C   UNL     1     -51.681 -47.182  22.045  1.00  0.00     0.012 C 
ATOM      8  C   UNL     1     -53.990 -47.253  21.849  1.00  0.00    -0.068 C 
ATOM      9  C   UNL     1     -55.170 -46.720  21.511  1.00  0.00     0.008 C 
ATOM     10  C   UNL     1     -54.500 -49.718  22.127  1.00  0.00     0.016 C 
ENDROOT
TORSDOF 0
ENDMDL
MODEL 7
REMARK VINA RESULT:    -4.424      4.097      6.182
REMARK INTER + INTRA:          -4.424
REMARK INTER:                  -4.424
REMARK INTRA:                   0.000
REMARK UNBOUND:                 0.000
REMARK SMILES C=C1[C@H]2CC[C@H](C2)C1(C)C
REMARK SMILES IDX 9 1 8 2 6 3 5 4 4 5 3 6 7 7 2 8 1 9 10 10
REMARK H PARENT
REMARK Flexibility Score: inf
ROOT
ATOM      1  C   UNL     1     -42.060 -51.096  29.071  1.00  0.00     0.016 C 
ATOM      2  C   UNL     1     -41.508 -49.662  29.228  1.00  0.00    -0.012 C 
ATOM      3  C   UNL     1     -40.471 -49.325  28.100  1.00  0.00    -0.001 C 
ATOM      4  C   UNL     1     -39.778 -47.966  28.367  1.00  0.00     0.005 C 
ATOM      5  C   UNL     1     -40.924 -46.951  28.170  1.00  0.00     0.008 C 
ATOM      6  C   UNL     1     -42.095 -47.837  27.711  1.00  0.00     0.015 C 
ATOM      7  C   UNL     1     -41.369 -48.916  26.936  1.00  0.00     0.012 C 
ATOM      8  C   UNL     1     -42.559 -48.626  28.905  1.00  0.00    -0.068 C 
ATOM      9  C   UNL     1     -43.687 -48.400  29.588  1.00  0.00     0.008 C 
ATOM     10  C   UNL     1     -40.953 -49.491  30.661  1.00  0.00     0.016 C 
ENDROOT
TORSDOF 0
ENDMDL
MODEL 8
REMARK VINA RESULT:    -4.383     13.544     14.957
REMARK INTER + INTRA:          -4.383
REMARK INTER:                  -4.383
REMARK INTRA:                   0.000
REMARK UNBOUND:                 0.000
REMARK SMILES C=C1[C@H]2CC[C@H](C2)C1(C)C
REMARK SMILES IDX 9 1 8 2 6 3 5 4 4 5 3 6 7 7 2 8 1 9 10 10
REMARK H PARENT
REMARK Flexibility Score: inf
ROOT
ATOM      1  C   UNL     1     -48.141 -51.863  17.877  1.00  0.00     0.016 C 
ATOM      2  C   UNL     1     -48.769 -50.454  17.784  1.00  0.00    -0.012 C 
ATOM      3  C   UNL     1     -48.346 -49.561  19.004  1.00  0.00    -0.001 C 
ATOM      4  C   UNL     1     -49.124 -48.223  19.011  1.00  0.00     0.005 C 
ATOM      5  C   UNL     1     -48.566 -47.493  17.771  1.00  0.00     0.008 C 
ATOM      6  C   UNL     1     -47.467 -48.449  17.273  1.00  0.00     0.015 C 
ATOM      7  C   UNL     1     -46.977 -49.044  18.575  1.00  0.00     0.012 C 
ATOM      8  C   UNL     1     -48.150 -49.646  16.669  1.00  0.00    -0.068 C 
ATOM      9  C   UNL     1     -48.234 -49.906  15.359  1.00  0.00     0.008 C 
ATOM     10  C   UNL     1     -50.299 -50.596  17.612  1.00  0.00     0.016 C 
ENDROOT
TORSDOF 0
ENDMDL
MODEL 9
REMARK VINA RESULT:    -4.259      4.895      6.432
REMARK INTER + INTRA:          -4.259
REMARK INTER:                  -4.259
REMARK INTRA:                   0.000
REMARK UNBOUND:                 0.000
REMARK SMILES C=C1[C@H]2CC[C@H](C2)C1(C)C
REMARK SMILES IDX 9 1 8 2 6 3 5 4 4 5 3 6 7 7 2 8 1 9 10 10
REMARK H PARENT
REMARK Flexibility Score: inf
ROOT
ATOM      1  C   UNL     1     -42.684 -48.772  26.496  1.00  0.00     0.016 C 
ATOM      2  C   UNL     1     -42.095 -48.422  27.880  1.00  0.00    -0.012 C 
ATOM      3  C   UNL     1     -41.265 -49.619  28.464  1.00  0.00    -0.001 C 
ATOM      4  C   UNL     1     -40.837 -49.341  29.925  1.00  0.00     0.005 C 
ATOM      5  C   UNL     1     -39.821 -48.189  29.774  1.00  0.00     0.008 C 
ATOM      6  C   UNL     1     -39.710 -48.025  28.248  1.00  0.00     0.015 C 
ATOM      7  C   UNL     1     -39.912 -49.449  27.778  1.00  0.00     0.012 C 
ATOM      8  C   UNL     1     -40.991 -47.397  27.767  1.00  0.00    -0.068 C 
ATOM      9  C   UNL     1     -41.124 -46.128  27.365  1.00  0.00     0.008 C 
ATOM     10  C   UNL     1     -43.236 -47.940  28.805  1.00  0.00     0.016 C 
ENDROOT
TORSDOF 0
ENDMDL
