MODEL 1
REMARK VINA RESULT:    -3.828      0.000      0.000
REMARK INTER + INTRA:          -7.433
REMARK INTER:                  -6.066
REMARK INTRA:                  -1.367
REMARK UNBOUND:                -1.367
REMARK SMILES CCCCCCCCCCCC(=O)[O-]
REMARK SMILES IDX 7 1 8 2 9 3 10 4 11 5 12 6 13 7 14 8 6 9 5 10 4 11 3 12 2 13
REMARK SMILES IDX 1 14
REMARK H PARENT
REMARK Flexibility Score: inf
ROOT
ATOM      1  C   UNL     1       0.369  -1.088  -7.330  1.00  0.00     0.000 C 
ENDROOT
BRANCH   1   2
ATOM      2  C   UNL     1       0.917  -0.731  -8.721  1.00  0.00     0.000 C 
BRANCH   2   3
ATOM      3  C   UNL     1       1.147  -1.973  -9.600  1.00  0.00     0.000 C 
BRANCH   3   4
ATOM      4  C   UNL     1       2.619  -2.142 -10.008  1.00  0.00     0.006 C 
BRANCH   4   5
ATOM      5  C   UNL     1       3.537  -1.102  -9.351  1.00  0.00     0.053 C 
BRANCH   5   6
ATOM      6  C   UNL     1       4.968  -1.524  -9.461  1.00  0.00     0.041 C 
ATOM      7  O   UNL     1       5.885  -0.771  -9.043  1.00  0.00    -0.550 OA
ATOM      8  O   UNL     1       5.291  -2.730 -10.071  1.00  0.00    -0.550 OA
ENDBRANCH   5   6
ENDBRANCH   4   5
ENDBRANCH   3   4
ENDBRANCH   2   3
ENDBRANCH   1   2
BRANCH   1   9
ATOM      9  C   UNL     1       1.459  -1.074  -6.245  1.00  0.00     0.000 C 
BRANCH   9  10
ATOM     10  C   UNL     1       2.111  -2.451  -6.036  1.00  0.00    -0.000 C 
BRANCH  10  11
ATOM     11  C   UNL     1       1.100  -3.619  -6.036  1.00  0.00    -0.000 C 
BRANCH  11  12
ATOM     12  C   UNL     1       1.584  -4.805  -6.888  1.00  0.00    -0.000 C 
BRANCH  12  13
ATOM     13  C   UNL     1       0.625  -5.130  -8.043  1.00  0.00    -0.003 C 
ATOM     14  C   UNL     1       1.346  -5.700  -9.265  1.00  0.00     0.004 C 
ENDBRANCH  12  13
ENDBRANCH  11  12
ENDBRANCH  10  11
ENDBRANCH   9  10
ENDBRANCH   1   9
TORSDOF 10
ENDMDL
MODEL 2
REMARK VINA RESULT:    -3.708      4.003      4.790
REMARK INTER + INTRA:          -7.242
REMARK INTER:                  -6.202
REMARK INTRA:                  -1.040
REMARK UNBOUND:                -1.367
REMARK SMILES CCCCCCCCCCCC(=O)[O-]
REMARK SMILES IDX 7 1 8 2 9 3 10 4 11 5 12 6 13 7 14 8 6 9 5 10 4 11 3 12 2 13
REMARK SMILES IDX 1 14
REMARK H PARENT
REMARK Flexibility Score: inf
ROOT
ATOM      1  C   UNL     1       0.856  -0.921  -7.112  1.00  0.00     0.000 C 
ENDROOT
BRANCH   1   2
ATOM      2  C   UNL     1       1.399  -1.170  -8.529  1.00  0.00     0.000 C 
BRANCH   2   3
ATOM      3  C   UNL     1       0.276  -1.378  -9.561  1.00  0.00     0.000 C 
BRANCH   3   4
ATOM      4  C   UNL     1      -1.123  -1.166  -8.960  1.00  0.00     0.006 C 
BRANCH   4   5
ATOM      5  C   UNL     1      -1.794   0.118  -9.466  1.00  0.00     0.053 C 
BRANCH   5   6
ATOM      6  C   UNL     1      -3.204   0.199  -8.972  1.00  0.00     0.041 C 
ATOM      7  O   UNL     1      -3.908  -0.841  -8.892  1.00  0.00    -0.550 OA
ATOM      8  O   UNL     1      -3.757   1.432  -8.649  1.00  0.00    -0.550 OA
ENDBRANCH   5   6
ENDBRANCH   4   5
ENDBRANCH   3   4
ENDBRANCH   2   3
ENDBRANCH   1   2
BRANCH   1   9
ATOM      9  C   UNL     1       1.677  -1.644  -6.031  1.00  0.00     0.000 C 
BRANCH   9  10
ATOM     10  C   UNL     1       2.616  -2.715  -6.612  1.00  0.00    -0.000 C 
BRANCH  10  11
ATOM     11  C   UNL     1       2.240  -4.155  -6.201  1.00  0.00    -0.000 C 
BRANCH  11  12
ATOM     12  C   UNL     1       0.832  -4.546  -6.682  1.00  0.00    -0.000 C 
BRANCH  12  13
ATOM     13  C   UNL     1       0.774  -4.790  -8.197  1.00  0.00    -0.003 C 
ATOM     14  C   UNL     1      -0.147  -5.952  -8.572  1.00  0.00     0.004 C 
ENDBRANCH  12  13
ENDBRANCH  11  12
ENDBRANCH  10  11
ENDBRANCH   9  10
ENDBRANCH   1   9
TORSDOF 10
ENDMDL
MODEL 3
REMARK VINA RESULT:    -3.645      5.027      7.239
REMARK INTER + INTRA:          -7.142
REMARK INTER:                  -6.467
REMARK INTRA:                  -0.675
REMARK UNBOUND:                -1.367
REMARK SMILES CCCCCCCCCCCC(=O)[O-]
REMARK SMILES IDX 7 1 8 2 9 3 10 4 11 5 12 6 13 7 14 8 6 9 5 10 4 11 3 12 2 13
REMARK SMILES IDX 1 14
REMARK H PARENT
REMARK Flexibility Score: inf
ROOT
ATOM      1  C   UNL     1       1.539  -5.489  -9.064  1.00  0.00     0.000 C 
ENDROOT
BRANCH   1   2
ATOM      2  C   UNL     1       0.733  -6.711  -9.532  1.00  0.00     0.000 C 
BRANCH   2   3
ATOM      3  C   UNL     1      -0.786  -6.468  -9.483  1.00  0.00     0.000 C 
BRANCH   3   4
ATOM      4  C   UNL     1      -1.567  -7.708  -9.019  1.00  0.00     0.006 C 
BRANCH   4   5
ATOM      5  C   UNL     1      -3.038  -7.398  -8.712  1.00  0.00     0.053 C 
BRANCH   5   6
ATOM      6  C   UNL     1      -3.792  -8.661  -8.443  1.00  0.00     0.041 C 
ATOM      7  O   UNL     1      -3.793  -9.592  -9.290  1.00  0.00    -0.550 OA
ATOM      8  O   UNL     1      -4.537  -8.791  -7.277  1.00  0.00    -0.550 OA
ENDBRANCH   5   6
ENDBRANCH   4   5
ENDBRANCH   3   4
ENDBRANCH   2   3
ENDBRANCH   1   2
BRANCH   1   9
ATOM      9  C   UNL     1       0.692  -4.503  -8.243  1.00  0.00     0.000 C 
BRANCH   9  10
ATOM     10  C   UNL     1       0.869  -4.684  -6.726  1.00  0.00    -0.000 C 
BRANCH  10  11
ATOM     11  C   UNL     1       2.230  -4.178  -6.199  1.00  0.00    -0.000 C 
BRANCH  11  12
ATOM     12  C   UNL     1       2.581  -2.783  -6.745  1.00  0.00    -0.000 C 
BRANCH  12  13
ATOM     13  C   UNL     1       1.812  -1.661  -6.032  1.00  0.00    -0.003 C 
ATOM     14  C   UNL     1       0.768  -0.999  -6.931  1.00  0.00     0.004 C 
ENDBRANCH  12  13
ENDBRANCH  11  12
ENDBRANCH  10  11
ENDBRANCH   9  10
ENDBRANCH   1   9
TORSDOF 10
ENDMDL
MODEL 4
REMARK VINA RESULT:    -3.609      1.184      2.942
REMARK INTER + INTRA:          -7.085
REMARK INTER:                  -5.586
REMARK INTRA:                  -1.499
REMARK UNBOUND:                -1.367
REMARK SMILES CCCCCCCCCCCC(=O)[O-]
REMARK SMILES IDX 7 1 8 2 9 3 10 4 11 5 12 6 13 7 14 8 6 9 5 10 4 11 3 12 2 13
REMARK SMILES IDX 1 14
REMARK H PARENT
REMARK Flexibility Score: inf
ROOT
ATOM      1  C   UNL     1       2.453  -4.876  -6.847  1.00  0.00     0.000 C 
ENDROOT
BRANCH   1   2
ATOM      2  C   UNL     1       1.877  -4.928  -8.272  1.00  0.00     0.000 C 
BRANCH   2   3
ATOM      3  C   UNL     1       2.951  -4.699  -9.350  1.00  0.00     0.000 C 
BRANCH   3   4
ATOM      4  C   UNL     1       3.059  -3.225  -9.771  1.00  0.00     0.006 C 
BRANCH   4   5
ATOM      5  C   UNL     1       4.512  -2.741  -9.858  1.00  0.00     0.053 C 
BRANCH   5   6
ATOM      6  C   UNL     1       4.628  -1.340  -9.348  1.00  0.00     0.041 C 
ATOM      7  O   UNL     1       3.608  -0.606  -9.273  1.00  0.00    -0.550 OA
ATOM      8  O   UNL     1       5.872  -0.826  -9.002  1.00  0.00    -0.550 OA
ENDBRANCH   5   6
ENDBRANCH   4   5
ENDBRANCH   3   4
ENDBRANCH   2   3
ENDBRANCH   1   2
BRANCH   1   9
ATOM      9  C   UNL     1       1.834  -3.751  -6.002  1.00  0.00     0.000 C 
BRANCH   9  10
ATOM     10  C   UNL     1       2.506  -2.388  -6.238  1.00  0.00    -0.000 C 
BRANCH  10  11
ATOM     11  C   UNL     1       1.505  -1.248  -6.528  1.00  0.00    -0.000 C 
BRANCH  11  12
ATOM     12  C   UNL     1       0.262  -1.747  -7.285  1.00  0.00    -0.000 C 
BRANCH  12  13
ATOM     13  C   UNL     1       0.197  -1.217  -8.725  1.00  0.00    -0.003 C 
ATOM     14  C   UNL     1      -0.526  -2.174  -9.673  1.00  0.00     0.004 C 
ENDBRANCH  12  13
ENDBRANCH  11  12
ENDBRANCH  10  11
ENDBRANCH   9  10
ENDBRANCH   1   9
TORSDOF 10
ENDMDL
MODEL 5
REMARK VINA RESULT:    -3.580      3.076      5.047
REMARK INTER + INTRA:          -7.040
REMARK INTER:                  -6.267
REMARK INTRA:                  -0.773
REMARK UNBOUND:                -1.367
REMARK SMILES CCCCCCCCCCCC(=O)[O-]
REMARK SMILES IDX 7 1 8 2 9 3 10 4 11 5 12 6 13 7 14 8 6 9 5 10 4 11 3 12 2 13
REMARK SMILES IDX 1 14
REMARK H PARENT
REMARK Flexibility Score: inf
ROOT
ATOM      1  C   UNL     1       0.413  -0.884  -7.057  1.00  0.00     0.000 C 
ENDROOT
BRANCH   1   2
ATOM      2  C   UNL     1       1.589  -1.303  -6.160  1.00  0.00     0.000 C 
BRANCH   2   3
ATOM      3  C   UNL     1       2.431  -2.432  -6.782  1.00  0.00     0.000 C 
BRANCH   3   4
ATOM      4  C   UNL     1       2.234  -3.777  -6.065  1.00  0.00     0.006 C 
BRANCH   4   5
ATOM      5  C   UNL     1       0.949  -4.494  -6.498  1.00  0.00     0.053 C 
BRANCH   5   6
ATOM      6  C   UNL     1       1.021  -4.866  -7.946  1.00  0.00     0.041 C 
ATOM      7  O   UNL     1       0.156  -4.439  -8.753  1.00  0.00    -0.550 OA
ATOM      8  O   UNL     1       2.017  -5.726  -8.394  1.00  0.00    -0.550 OA
ENDBRANCH   5   6
ENDBRANCH   4   5
ENDBRANCH   3   4
ENDBRANCH   2   3
ENDBRANCH   1   2
BRANCH   1   9
ATOM      9  C   UNL     1       0.727  -1.044  -8.554  1.00  0.00     0.000 C 
BRANCH   9  10
ATOM     10  C   UNL     1      -0.306  -0.350  -9.458  1.00  0.00    -0.000 C 
BRANCH  10  11
ATOM     11  C   UNL     1      -1.720  -0.963  -9.363  1.00  0.00    -0.000 C 
BRANCH  11  12
ATOM     12  C   UNL     1      -2.750   0.038  -8.812  1.00  0.00    -0.000 C 
BRANCH  12  13
ATOM     13  C   UNL     1      -4.183  -0.285  -9.262  1.00  0.00    -0.003 C 
ATOM     14  C   UNL     1      -4.450  -1.788  -9.346  1.00  0.00     0.004 C 
ENDBRANCH  12  13
ENDBRANCH  11  12
ENDBRANCH  10  11
ENDBRANCH   9  10
ENDBRANCH   1   9
TORSDOF 10
ENDMDL
MODEL 6
REMARK VINA RESULT:    -3.541      3.075      5.071
REMARK INTER + INTRA:          -6.979
REMARK INTER:                  -5.990
REMARK INTRA:                  -0.988
REMARK UNBOUND:                -1.367
REMARK SMILES CCCCCCCCCCCC(=O)[O-]
REMARK SMILES IDX 7 1 8 2 9 3 10 4 11 5 12 6 13 7 14 8 6 9 5 10 4 11 3 12 2 13
REMARK SMILES IDX 1 14
REMARK H PARENT
REMARK Flexibility Score: inf
ROOT
ATOM      1  C   UNL     1       2.419  -2.359  -6.541  1.00  0.00     0.000 C 
ENDROOT
BRANCH   1   2
ATOM      2  C   UNL     1       2.145  -3.736  -5.915  1.00  0.00     0.000 C 
BRANCH   2   3
ATOM      3  C   UNL     1       2.015  -4.848  -6.971  1.00  0.00     0.000 C 
BRANCH   3   4
ATOM      4  C   UNL     1       0.634  -4.862  -7.645  1.00  0.00     0.006 C 
BRANCH   4   5
ATOM      5  C   UNL     1       0.712  -5.177  -9.144  1.00  0.00     0.053 C 
BRANCH   5   6
ATOM      6  C   UNL     1       0.620  -6.652  -9.374  1.00  0.00     0.041 C 
ATOM      7  O   UNL     1       1.601  -7.283  -9.847  1.00  0.00    -0.550 OA
ATOM      8  O   UNL     1      -0.568  -7.323  -9.111  1.00  0.00    -0.550 OA
ENDBRANCH   5   6
ENDBRANCH   4   5
ENDBRANCH   3   4
ENDBRANCH   2   3
ENDBRANCH   1   2
BRANCH   1   9
ATOM      9  C   UNL     1       1.463  -1.274  -6.019  1.00  0.00     0.000 C 
BRANCH   9  10
ATOM     10  C   UNL     1       0.458  -0.802  -7.084  1.00  0.00    -0.000 C 
BRANCH  10  11
ATOM     11  C   UNL     1       0.685  -1.439  -8.472  1.00  0.00    -0.000 C 
BRANCH  11  12
ATOM     12  C   UNL     1      -0.617  -1.534  -9.287  1.00  0.00    -0.000 C 
BRANCH  12  13
ATOM     13  C   UNL     1      -1.398  -0.212  -9.304  1.00  0.00    -0.003 C 
ATOM     14  C   UNL     1      -2.867  -0.390  -8.921  1.00  0.00     0.004 C 
ENDBRANCH  12  13
ENDBRANCH  11  12
ENDBRANCH  10  11
ENDBRANCH   9  10
ENDBRANCH   1   9
TORSDOF 10
ENDMDL
MODEL 7
REMARK VINA RESULT:    -3.541      2.645      4.083
REMARK INTER + INTRA:          -6.978
REMARK INTER:                  -5.863
REMARK INTRA:                  -1.114
REMARK UNBOUND:                -1.367
REMARK SMILES CCCCCCCCCCCC(=O)[O-]
REMARK SMILES IDX 7 1 8 2 9 3 10 4 11 5 12 6 13 7 14 8 6 9 5 10 4 11 3 12 2 13
REMARK SMILES IDX 1 14
REMARK H PARENT
REMARK Flexibility Score: inf
ROOT
ATOM      1  C   UNL     1       1.397  -4.539  -6.320  1.00  0.00     0.000 C 
ENDROOT
BRANCH   1   2
ATOM      2  C   UNL     1       1.127  -3.074  -5.940  1.00  0.00     0.000 C 
BRANCH   2   3
ATOM      3  C   UNL     1       2.255  -2.131  -6.394  1.00  0.00     0.000 C 
BRANCH   3   4
ATOM      4  C   UNL     1       1.840  -1.244  -7.578  1.00  0.00     0.006 C 
BRANCH   4   5
ATOM      5  C   UNL     1       0.318  -1.172  -7.757  1.00  0.00     0.053 C 
BRANCH   5   6
ATOM      6  C   UNL     1      -0.032  -0.255  -8.886  1.00  0.00     0.041 C 
ATOM      7  O   UNL     1      -1.153  -0.344  -9.451  1.00  0.00    -0.550 OA
ATOM      8  O   UNL     1       0.900   0.667  -9.348  1.00  0.00    -0.550 OA
ENDBRANCH   5   6
ENDBRANCH   4   5
ENDBRANCH   3   4
ENDBRANCH   2   3
ENDBRANCH   1   2
BRANCH   1   9
ATOM      9  C   UNL     1       2.595  -4.689  -7.272  1.00  0.00     0.000 C 
BRANCH   9  10
ATOM     10  C   UNL     1       2.194  -5.228  -8.656  1.00  0.00    -0.000 C 
BRANCH  10  11
ATOM     11  C   UNL     1       1.157  -4.346  -9.385  1.00  0.00    -0.000 C 
BRANCH  11  12
ATOM     12  C   UNL     1      -0.196  -5.058  -9.551  1.00  0.00    -0.000 C 
BRANCH  12  13
ATOM     13  C   UNL     1      -0.126  -6.548  -9.183  1.00  0.00    -0.003 C 
ATOM     14  C   UNL     1      -1.480  -7.112  -8.751  1.00  0.00     0.004 C 
ENDBRANCH  12  13
ENDBRANCH  11  12
ENDBRANCH  10  11
ENDBRANCH   9  10
ENDBRANCH   1   9
TORSDOF 10
ENDMDL
MODEL 8
REMARK VINA RESULT:    -3.453      3.043      4.727
REMARK INTER + INTRA:          -6.839
REMARK INTER:                  -6.173
REMARK INTRA:                  -0.666
REMARK UNBOUND:                -1.367
REMARK SMILES CCCCCCCCCCCC(=O)[O-]
REMARK SMILES IDX 7 1 8 2 9 3 10 4 11 5 12 6 13 7 14 8 6 9 5 10 4 11 3 12 2 13
REMARK SMILES IDX 1 14
REMARK H PARENT
REMARK Flexibility Score: inf
ROOT
ATOM      1  C   UNL     1       2.151  -5.004  -8.683  1.00  0.00     0.000 C 
ENDROOT
BRANCH   1   2
ATOM      2  C   UNL     1       2.636  -4.534  -7.301  1.00  0.00     0.000 C 
BRANCH   2   3
ATOM      3  C   UNL     1       1.513  -4.547  -6.248  1.00  0.00     0.000 C 
BRANCH   3   4
ATOM      4  C   UNL     1       1.110  -3.134  -5.800  1.00  0.00     0.006 C 
BRANCH   4   5
ATOM      5  C   UNL     1       2.038  -2.049  -6.361  1.00  0.00     0.053 C 
BRANCH   5   6
ATOM      6  C   UNL     1       1.307  -1.196  -7.350  1.00  0.00     0.041 C 
ATOM      7  O   UNL     1       0.111  -0.866  -7.139  1.00  0.00    -0.550 OA
ATOM      8  O   UNL     1       1.931  -0.808  -8.529  1.00  0.00    -0.550 OA
ENDBRANCH   5   6
ENDBRANCH   4   5
ENDBRANCH   3   4
ENDBRANCH   2   3
ENDBRANCH   1   2
BRANCH   1   9
ATOM      9  C   UNL     1       0.759  -5.655  -8.629  1.00  0.00     0.000 C 
BRANCH   9  10
ATOM     10  C   UNL     1      -0.239  -5.012  -9.606  1.00  0.00    -0.000 C 
BRANCH  10  11
ATOM     11  C   UNL     1      -1.468  -5.898  -9.905  1.00  0.00    -0.000 C 
BRANCH  11  12
ATOM     12  C   UNL     1      -1.545  -7.117  -8.970  1.00  0.00    -0.000 C 
BRANCH  12  13
ATOM     13  C   UNL     1      -2.991  -7.558  -8.696  1.00  0.00    -0.003 C 
ATOM     14  C   UNL     1      -3.222  -9.039  -8.996  1.00  0.00     0.004 C 
ENDBRANCH  12  13
ENDBRANCH  11  12
ENDBRANCH  10  11
ENDBRANCH   9  10
ENDBRANCH   1   9
TORSDOF 10
ENDMDL
MODEL 9
REMARK VINA RESULT:    -3.383      3.938      5.308
REMARK INTER + INTRA:          -6.728
REMARK INTER:                  -6.080
REMARK INTRA:                  -0.648
REMARK UNBOUND:                -1.367
REMARK SMILES CCCCCCCCCCCC(=O)[O-]
REMARK SMILES IDX 7 1 8 2 9 3 10 4 11 5 12 6 13 7 14 8 6 9 5 10 4 11 3 12 2 13
REMARK SMILES IDX 1 14
REMARK H PARENT
REMARK Flexibility Score: inf
ROOT
ATOM      1  C   UNL     1      -0.705  -1.269  -9.365  1.00  0.00     0.000 C 
ENDROOT
BRANCH   1   2
ATOM      2  C   UNL     1       0.035  -2.095  -8.301  1.00  0.00     0.000 C 
BRANCH   2   3
ATOM      3  C   UNL     1       0.688  -1.214  -7.221  1.00  0.00     0.000 C 
BRANCH   3   4
ATOM      4  C   UNL     1       1.624  -2.011  -6.298  1.00  0.00     0.006 C 
BRANCH   4   5
ATOM      5  C   UNL     1       1.143  -3.449  -6.069  1.00  0.00     0.053 C 
BRANCH   5   6
ATOM      6  C   UNL     1       2.220  -4.424  -6.429  1.00  0.00     0.041 C 
ATOM      7  O   UNL     1       2.610  -5.276  -5.590  1.00  0.00    -0.550 OA
ATOM      8  O   UNL     1       2.827  -4.357  -7.677  1.00  0.00    -0.550 OA
ENDBRANCH   5   6
ENDBRANCH   4   5
ENDBRANCH   3   4
ENDBRANCH   2   3
ENDBRANCH   1   2
BRANCH   1   9
ATOM      9  C   UNL     1      -1.720  -0.291  -8.751  1.00  0.00     0.000 C 
BRANCH   9  10
ATOM     10  C   UNL     1      -3.178  -0.686  -9.037  1.00  0.00    -0.000 C 
BRANCH  10  11
ATOM     11  C   UNL     1      -3.314  -1.905  -9.975  1.00  0.00    -0.000 C 
BRANCH  11  12
ATOM     12  C   UNL     1      -4.645  -2.650  -9.770  1.00  0.00    -0.000 C 
BRANCH  12  13
ATOM     13  C   UNL     1      -5.463  -2.081  -8.600  1.00  0.00    -0.003 C 
ATOM     14  C   UNL     1      -6.316  -3.143  -7.907  1.00  0.00     0.004 C 
ENDBRANCH  12  13
ENDBRANCH  11  12
ENDBRANCH  10  11
ENDBRANCH   9  10
ENDBRANCH   1   9
TORSDOF 10
ENDMDL
