MODEL 1
REMARK VINA RESULT:    -6.691      0.000      0.000
REMARK INTER + INTRA:         -11.543
REMARK INTER:                  -9.820
REMARK INTRA:                  -1.723
REMARK UNBOUND:                -1.723
REMARK SMILES O=c1c(O[C@@H]2O[C@@H](CO)[C@@H](O)[C@@H](O)[C@@H]2O)c(-c2ccc(O)c(O)c2)oc2cc(O)cc(O)c12
REMARK SMILES IDX 4 1 3 2 16 3 25 4 2 5 26 6 1 7 33 8 27 9 31 10 28 11 30 12
REMARK SMILES IDX 17 13 18 14 19 15 20 16 24 17 22 18 21 19 23 21 32 23 29 25
REMARK SMILES IDX 5 27 14 28 6 29 12 30 7 31 10 32 15 33 13 35 8 37 9 38 11 40
REMARK H PARENT 21 20 23 22 32 24 29 26 15 34 13 36 9 39 11 41
REMARK Flexibility Score: inf
ROOT
ATOM      1  O   UNL     1     -14.312  36.916  -0.863  1.00  0.00    -0.454 OA
ENDROOT
BRANCH   1   2
ATOM      2  C   UNL     1     -13.700  37.473  -2.005  1.00  0.00     0.214 A 
ATOM      3  C   UNL     1     -14.493  38.267  -2.860  1.00  0.00     0.180 A 
ATOM      4  O   UNL     1     -13.953  38.854  -3.923  1.00  0.00    -0.452 OA
ATOM      5  C   UNL     1     -12.333  37.306  -2.327  1.00  0.00     0.239 A 
ATOM      6  C   UNL     1     -12.679  38.720  -4.261  1.00  0.00     0.146 A 
ATOM      7  O   UNL     1     -11.583  36.612  -1.590  1.00  0.00    -0.285 OA
ATOM      8  C   UNL     1     -11.806  37.931  -3.478  1.00  0.00     0.111 A 
ATOM      9  C   UNL     1     -12.210  39.369  -5.406  1.00  0.00     0.094 A 
ATOM     10  C   UNL     1     -10.451  37.805  -3.876  1.00  0.00     0.134 A 
ATOM     11  C   UNL     1     -10.873  39.239  -5.794  1.00  0.00     0.123 A 
ATOM     12  C   UNL     1     -10.001  38.461  -5.033  1.00  0.00     0.093 A 
BRANCH   3  13
ATOM     13  C   UNL     1     -15.930  38.501  -2.596  1.00  0.00     0.025 A 
ATOM     14  C   UNL     1     -16.891  37.757  -3.294  1.00  0.00     0.016 A 
ATOM     15  C   UNL     1     -18.251  37.965  -3.063  1.00  0.00     0.051 A 
ATOM     16  C   UNL     1     -18.680  38.909  -2.123  1.00  0.00     0.157 A 
ATOM     17  C   UNL     1     -16.356  39.427  -1.630  1.00  0.00     0.062 A 
ATOM     18  C   UNL     1     -17.718  39.648  -1.394  1.00  0.00     0.158 A 
BRANCH  16  19
ATOM     19  O   UNL     1     -20.054  39.077  -1.946  1.00  0.00    -0.504 OA
ATOM     20  H   UNL     1     -20.754  38.517  -2.409  1.00  0.00     0.293 HD
ENDBRANCH  16  19
BRANCH  18  21
ATOM     21  O   UNL     1     -18.067  40.600  -0.435  1.00  0.00    -0.504 OA
ATOM     22  H   UNL     1     -18.816  40.480   0.233  1.00  0.00     0.293 HD
ENDBRANCH  18  21
ENDBRANCH   3  13
BRANCH  10  23
ATOM     23  O   UNL     1      -9.551  37.036  -3.136  1.00  0.00    -0.507 OA
ATOM     24  H   UNL     1      -9.120  36.203  -3.521  1.00  0.00     0.293 HD
ENDBRANCH  10  23
BRANCH  11  25
ATOM     25  O   UNL     1     -10.401  39.878  -6.939  1.00  0.00    -0.508 OA
ATOM     26  H   UNL     1     -10.682  40.823  -7.171  1.00  0.00     0.293 HD
ENDBRANCH  11  25
ENDBRANCH   1   2
BRANCH   1  27
ATOM     27  C   UNL     1     -15.061  35.698  -0.777  1.00  0.00     0.339 C 
ATOM     28  C   UNL     1     -14.290  34.659   0.064  1.00  0.00     0.214 C 
ATOM     29  O   UNL     1     -16.364  35.917  -0.253  1.00  0.00    -0.332 OA
ATOM     30  C   UNL     1     -14.257  35.079   1.541  1.00  0.00     0.180 C 
ATOM     31  C   UNL     1     -16.315  36.439   1.066  1.00  0.00     0.179 C 
ATOM     32  C   UNL     1     -15.673  35.417   2.033  1.00  0.00     0.177 C 
BRANCH  28  33
ATOM     33  O   UNL     1     -12.974  34.532  -0.411  1.00  0.00    -0.384 OA
ATOM     34  H   UNL     1     -12.795  35.328  -0.978  1.00  0.00     0.211 HD
ENDBRANCH  28  33
BRANCH  30  35
ATOM     35  O   UNL     1     -13.708  34.041   2.311  1.00  0.00    -0.387 OA
ATOM     36  H   UNL     1     -13.386  33.351   1.674  1.00  0.00     0.211 HD
ENDBRANCH  30  35
BRANCH  31  37
ATOM     37  C   UNL     1     -17.739  36.818   1.492  1.00  0.00     0.191 C 
BRANCH  37  38
ATOM     38  O   UNL     1     -18.613  35.745   1.272  1.00  0.00    -0.394 OA
ATOM     39  H   UNL     1     -19.162  35.993   0.487  1.00  0.00     0.210 HD
ENDBRANCH  37  38
ENDBRANCH  31  37
BRANCH  32  40
ATOM     40  O   UNL     1     -16.444  34.242   2.090  1.00  0.00    -0.387 OA
ATOM     41  H   UNL     1     -16.584  33.940   1.156  1.00  0.00     0.211 HD
ENDBRANCH  32  40
ENDBRANCH   1  27
TORSDOF 12
ENDMDL
MODEL 2
REMARK VINA RESULT:    -6.452      2.170      3.663
REMARK INTER + INTRA:         -11.193
REMARK INTER:                  -9.255
REMARK INTRA:                  -1.939
REMARK UNBOUND:                -1.723
REMARK SMILES O=c1c(O[C@@H]2O[C@@H](CO)[C@@H](O)[C@@H](O)[C@@H]2O)c(-c2ccc(O)c(O)c2)oc2cc(O)cc(O)c12
REMARK SMILES IDX 4 1 3 2 16 3 25 4 2 5 26 6 1 7 33 8 27 9 31 10 28 11 30 12
REMARK SMILES IDX 17 13 18 14 19 15 20 16 24 17 22 18 21 19 23 21 32 23 29 25
REMARK SMILES IDX 5 27 14 28 6 29 12 30 7 31 10 32 15 33 13 35 8 37 9 38 11 40
REMARK H PARENT 21 20 23 22 32 24 29 26 15 34 13 36 9 39 11 41
REMARK Flexibility Score: inf
ROOT
ATOM      1  O   UNL     1     -12.242  36.880  -3.252  1.00  0.00    -0.454 OA
ENDROOT
BRANCH   1   2
ATOM      2  C   UNL     1     -12.211  38.122  -3.919  1.00  0.00     0.214 A 
ATOM      3  C   UNL     1     -13.341  38.960  -3.810  1.00  0.00     0.180 A 
ATOM      4  O   UNL     1     -13.344  40.160  -4.380  1.00  0.00    -0.452 OA
ATOM      5  C   UNL     1     -11.105  38.588  -4.668  1.00  0.00     0.239 A 
ATOM      6  C   UNL     1     -12.330  40.633  -5.091  1.00  0.00     0.146 A 
ATOM      7  O   UNL     1     -10.071  37.879  -4.787  1.00  0.00    -0.285 OA
ATOM      8  C   UNL     1     -11.159  39.862  -5.274  1.00  0.00     0.111 A 
ATOM      9  C   UNL     1     -12.436  41.904  -5.661  1.00  0.00     0.094 A 
ATOM     10  C   UNL     1     -10.098  40.398  -6.047  1.00  0.00     0.134 A 
ATOM     11  C   UNL     1     -11.387  42.426  -6.424  1.00  0.00     0.123 A 
ATOM     12  C   UNL     1     -10.227  41.675  -6.615  1.00  0.00     0.093 A 
BRANCH   3  13
ATOM     13  C   UNL     1     -14.540  38.556  -3.042  1.00  0.00     0.025 A 
ATOM     14  C   UNL     1     -14.564  38.739  -1.653  1.00  0.00     0.016 A 
ATOM     15  C   UNL     1     -15.684  38.361  -0.910  1.00  0.00     0.051 A 
ATOM     16  C   UNL     1     -16.804  37.806  -1.539  1.00  0.00     0.157 A 
ATOM     17  C   UNL     1     -15.673  38.028  -3.680  1.00  0.00     0.062 A 
ATOM     18  C   UNL     1     -16.799  37.640  -2.944  1.00  0.00     0.158 A 
BRANCH  16  19
ATOM     19  O   UNL     1     -17.888  37.439  -0.739  1.00  0.00    -0.504 OA
ATOM     20  H   UNL     1     -18.707  38.012  -0.603  1.00  0.00     0.293 HD
ENDBRANCH  16  19
BRANCH  18  21
ATOM     21  O   UNL     1     -17.881  37.101  -3.644  1.00  0.00    -0.504 OA
ATOM     22  H   UNL     1     -18.040  36.110  -3.761  1.00  0.00     0.293 HD
ENDBRANCH  18  21
ENDBRANCH   3  13
BRANCH  10  23
ATOM     23  O   UNL     1      -8.923  39.675  -6.257  1.00  0.00    -0.507 OA
ATOM     24  H   UNL     1      -8.269  39.923  -6.989  1.00  0.00     0.293 HD
ENDBRANCH  10  23
BRANCH  11  25
ATOM     25  O   UNL     1     -11.489  43.690  -7.000  1.00  0.00    -0.508 OA
ATOM     26  H   UNL     1     -12.221  43.911  -7.664  1.00  0.00     0.293 HD
ENDBRANCH  11  25
ENDBRANCH   1   2
BRANCH   1  27
ATOM     27  C   UNL     1     -12.745  35.633  -3.745  1.00  0.00     0.339 C 
ATOM     28  C   UNL     1     -11.634  34.564  -3.720  1.00  0.00     0.214 C 
ATOM     29  O   UNL     1     -13.888  35.203  -3.017  1.00  0.00    -0.332 OA
ATOM     30  C   UNL     1     -11.288  34.180  -2.273  1.00  0.00     0.180 C 
ATOM     31  C   UNL     1     -13.584  34.987  -1.648  1.00  0.00     0.179 C 
ATOM     32  C   UNL     1     -12.565  33.833  -1.491  1.00  0.00     0.177 C 
BRANCH  28  33
ATOM     33  O   UNL     1     -10.480  35.048  -4.359  1.00  0.00    -0.384 OA
ATOM     34  H   UNL     1     -10.735  35.251  -5.297  1.00  0.00     0.211 HD
ENDBRANCH  28  33
BRANCH  30  35
ATOM     35  O   UNL     1     -10.407  33.087  -2.276  1.00  0.00    -0.387 OA
ATOM     36  H   UNL     1      -9.521  33.433  -2.560  1.00  0.00     0.211 HD
ENDBRANCH  30  35
BRANCH  31  37
ATOM     37  C   UNL     1     -14.892  34.705  -0.898  1.00  0.00     0.191 C 
BRANCH  37  38
ATOM     38  O   UNL     1     -14.638  33.939   0.249  1.00  0.00    -0.394 OA
ATOM     39  H   UNL     1     -13.741  34.209   0.568  1.00  0.00     0.210 HD
ENDBRANCH  37  38
ENDBRANCH  31  37
BRANCH  32  40
ATOM     40  O   UNL     1     -13.105  32.631  -1.982  1.00  0.00    -0.387 OA
ATOM     41  H   UNL     1     -12.400  32.195  -2.527  1.00  0.00     0.211 HD
ENDBRANCH  32  40
ENDBRANCH   1  27
TORSDOF 12
ENDMDL
MODEL 3
REMARK VINA RESULT:    -6.359      0.956      2.107
REMARK INTER + INTRA:         -11.056
REMARK INTER:                 -10.068
REMARK INTRA:                  -0.988
REMARK UNBOUND:                -1.723
REMARK SMILES O=c1c(O[C@@H]2O[C@@H](CO)[C@@H](O)[C@@H](O)[C@@H]2O)c(-c2ccc(O)c(O)c2)oc2cc(O)cc(O)c12
REMARK SMILES IDX 4 1 3 2 16 3 25 4 2 5 26 6 1 7 33 8 27 9 31 10 28 11 30 12
REMARK SMILES IDX 17 13 18 14 19 15 20 16 24 17 22 18 21 19 23 21 32 23 29 25
REMARK SMILES IDX 5 27 14 28 6 29 12 30 7 31 10 32 15 33 13 35 8 37 9 38 11 40
REMARK H PARENT 21 20 23 22 32 24 29 26 15 34 13 36 9 39 11 41
REMARK Flexibility Score: inf
ROOT
ATOM      1  O   UNL     1     -14.808  36.716  -0.976  1.00  0.00    -0.454 OA
ENDROOT
BRANCH   1   2
ATOM      2  C   UNL     1     -14.102  37.295  -2.051  1.00  0.00     0.214 A 
ATOM      3  C   UNL     1     -14.816  38.124  -2.942  1.00  0.00     0.180 A 
ATOM      4  O   UNL     1     -14.189  38.732  -3.943  1.00  0.00    -0.452 OA
ATOM      5  C   UNL     1     -12.716  37.117  -2.272  1.00  0.00     0.239 A 
ATOM      6  C   UNL     1     -12.893  38.588  -4.186  1.00  0.00     0.146 A 
ATOM      7  O   UNL     1     -12.035  36.392  -1.499  1.00  0.00    -0.285 OA
ATOM      8  C   UNL     1     -12.094  37.765  -3.361  1.00  0.00     0.111 A 
ATOM      9  C   UNL     1     -12.329  39.262  -5.272  1.00  0.00     0.094 A 
ATOM     10  C   UNL     1     -10.713  37.631  -3.657  1.00  0.00     0.134 A 
ATOM     11  C   UNL     1     -10.968  39.123  -5.560  1.00  0.00     0.123 A 
ATOM     12  C   UNL     1     -10.167  38.311  -4.756  1.00  0.00     0.093 A 
BRANCH   3  13
ATOM     13  C   UNL     1     -16.267  38.372  -2.783  1.00  0.00     0.025 A 
ATOM     14  C   UNL     1     -17.185  37.537  -3.434  1.00  0.00     0.016 A 
ATOM     15  C   UNL     1     -18.557  37.756  -3.300  1.00  0.00     0.051 A 
ATOM     16  C   UNL     1     -19.039  38.803  -2.506  1.00  0.00     0.157 A 
ATOM     17  C   UNL     1     -16.747  39.404  -1.961  1.00  0.00     0.062 A 
ATOM     18  C   UNL     1     -18.121  39.636  -1.825  1.00  0.00     0.158 A 
BRANCH  16  19
ATOM     19  O   UNL     1     -20.422  38.975  -2.422  1.00  0.00    -0.504 OA
ATOM     20  H   UNL     1     -20.941  39.638  -2.977  1.00  0.00     0.293 HD
ENDBRANCH  16  19
BRANCH  18  21
ATOM     21  O   UNL     1     -18.525  40.695  -1.009  1.00  0.00    -0.504 OA
ATOM     22  H   UNL     1     -18.724  41.625  -1.349  1.00  0.00     0.293 HD
ENDBRANCH  18  21
ENDBRANCH   3  13
BRANCH  10  23
ATOM     23  O   UNL     1      -9.884  36.828  -2.872  1.00  0.00    -0.507 OA
ATOM     24  H   UNL     1      -9.707  35.858  -3.104  1.00  0.00     0.293 HD
ENDBRANCH  10  23
BRANCH  11  25
ATOM     25  O   UNL     1     -10.400  39.786  -6.646  1.00  0.00    -0.508 OA
ATOM     26  H   UNL     1     -10.029  40.724  -6.556  1.00  0.00     0.293 HD
ENDBRANCH  11  25
ENDBRANCH   1   2
BRANCH   1  27
ATOM     27  C   UNL     1     -14.453  36.727   0.411  1.00  0.00     0.339 C 
ATOM     28  C   UNL     1     -15.715  36.911   1.280  1.00  0.00     0.214 C 
ATOM     29  O   UNL     1     -13.743  35.553   0.781  1.00  0.00    -0.332 OA
ATOM     30  C   UNL     1     -16.599  35.655   1.220  1.00  0.00     0.180 C 
ATOM     31  C   UNL     1     -14.526  34.385   0.587  1.00  0.00     0.179 C 
ATOM     32  C   UNL     1     -15.764  34.399   1.514  1.00  0.00     0.177 C 
BRANCH  28  33
ATOM     33  O   UNL     1     -16.454  38.019   0.833  1.00  0.00    -0.384 OA
ATOM     34  H   UNL     1     -16.411  38.011  -0.160  1.00  0.00     0.211 HD
ENDBRANCH  28  33
BRANCH  30  35
ATOM     35  O   UNL     1     -17.645  35.774   2.150  1.00  0.00    -0.387 OA
ATOM     36  H   UNL     1     -17.552  36.667   2.573  1.00  0.00     0.211 HD
ENDBRANCH  30  35
BRANCH  31  37
ATOM     37  C   UNL     1     -13.638  33.158   0.832  1.00  0.00     0.191 C 
BRANCH  37  38
ATOM     38  O   UNL     1     -14.348  32.180   1.542  1.00  0.00    -0.394 OA
ATOM     39  H   UNL     1     -15.287  32.491   1.577  1.00  0.00     0.210 HD
ENDBRANCH  37  38
ENDBRANCH  31  37
BRANCH  32  40
ATOM     40  O   UNL     1     -15.368  34.402   2.864  1.00  0.00    -0.387 OA
ATOM     41  H   UNL     1     -15.664  35.266   3.253  1.00  0.00     0.211 HD
ENDBRANCH  32  40
ENDBRANCH   1  27
TORSDOF 12
ENDMDL
MODEL 4
REMARK VINA RESULT:    -6.344      1.875      4.712
REMARK INTER + INTRA:         -11.035
REMARK INTER:                  -9.114
REMARK INTRA:                  -1.921
REMARK UNBOUND:                -1.723
REMARK SMILES O=c1c(O[C@@H]2O[C@@H](CO)[C@@H](O)[C@@H](O)[C@@H]2O)c(-c2ccc(O)c(O)c2)oc2cc(O)cc(O)c12
REMARK SMILES IDX 4 1 3 2 16 3 25 4 2 5 26 6 1 7 33 8 27 9 31 10 28 11 30 12
REMARK SMILES IDX 17 13 18 14 19 15 20 16 24 17 22 18 21 19 23 21 32 23 29 25
REMARK SMILES IDX 5 27 14 28 6 29 12 30 7 31 10 32 15 33 13 35 8 37 9 38 11 40
REMARK H PARENT 21 20 23 22 32 24 29 26 15 34 13 36 9 39 11 41
REMARK Flexibility Score: inf
ROOT
ATOM      1  O   UNL     1     -15.005  38.453  -1.936  1.00  0.00    -0.454 OA
ENDROOT
BRANCH   1   2
ATOM      2  C   UNL     1     -13.938  38.683  -2.829  1.00  0.00     0.214 A 
ATOM      3  C   UNL     1     -13.005  37.645  -3.027  1.00  0.00     0.180 A 
ATOM      4  O   UNL     1     -12.008  37.794  -3.893  1.00  0.00    -0.452 OA
ATOM      5  C   UNL     1     -13.765  39.884  -3.557  1.00  0.00     0.239 A 
ATOM      6  C   UNL     1     -11.809  38.902  -4.592  1.00  0.00     0.146 A 
ATOM      7  O   UNL     1     -14.577  40.837  -3.419  1.00  0.00    -0.285 OA
ATOM      8  C   UNL     1     -12.679  40.007  -4.451  1.00  0.00     0.111 A 
ATOM      9  C   UNL     1     -10.723  38.965  -5.469  1.00  0.00     0.094 A 
ATOM     10  C   UNL     1     -12.430  41.178  -5.211  1.00  0.00     0.134 A 
ATOM     11  C   UNL     1     -10.482  40.123  -6.213  1.00  0.00     0.123 A 
ATOM     12  C   UNL     1     -11.331  41.223  -6.082  1.00  0.00     0.093 A 
BRANCH   3  13
ATOM     13  C   UNL     1     -13.112  36.353  -2.312  1.00  0.00     0.025 A 
ATOM     14  C   UNL     1     -13.895  35.326  -2.855  1.00  0.00     0.016 A 
ATOM     15  C   UNL     1     -14.012  34.102  -2.194  1.00  0.00     0.051 A 
ATOM     16  C   UNL     1     -13.341  33.875  -0.987  1.00  0.00     0.157 A 
ATOM     17  C   UNL     1     -12.413  36.118  -1.117  1.00  0.00     0.062 A 
ATOM     18  C   UNL     1     -12.528  34.897  -0.443  1.00  0.00     0.158 A 
BRANCH  16  19
ATOM     19  O   UNL     1     -13.508  32.633  -0.371  1.00  0.00    -0.504 OA
ATOM     20  H   UNL     1     -13.651  32.511   0.620  1.00  0.00     0.293 HD
ENDBRANCH  16  19
BRANCH  18  21
ATOM     21  O   UNL     1     -11.822  34.742   0.752  1.00  0.00    -0.504 OA
ATOM     22  H   UNL     1     -12.056  35.219   1.611  1.00  0.00     0.293 HD
ENDBRANCH  18  21
ENDBRANCH   3  13
BRANCH  10  23
ATOM     23  O   UNL     1     -13.260  42.295  -5.105  1.00  0.00    -0.507 OA
ATOM     24  H   UNL     1     -14.249  42.246  -5.319  1.00  0.00     0.293 HD
ENDBRANCH  10  23
BRANCH  11  25
ATOM     25  O   UNL     1      -9.397  40.194  -7.085  1.00  0.00    -0.508 OA
ATOM     26  H   UNL     1      -8.471  39.897  -6.802  1.00  0.00     0.293 HD
ENDBRANCH  11  25
ENDBRANCH   1   2
BRANCH   1  27
ATOM     27  C   UNL     1     -15.277  39.129  -0.703  1.00  0.00     0.339 C 
ATOM     28  C   UNL     1     -16.748  39.592  -0.664  1.00  0.00     0.214 C 
ATOM     29  O   UNL     1     -14.965  38.318   0.422  1.00  0.00    -0.332 OA
ATOM     30  C   UNL     1     -17.690  38.384  -0.542  1.00  0.00     0.180 C 
ATOM     31  C   UNL     1     -15.747  37.134   0.445  1.00  0.00     0.179 C 
ATOM     32  C   UNL     1     -17.247  37.475   0.615  1.00  0.00     0.177 C 
BRANCH  28  33
ATOM     33  O   UNL     1     -17.062  40.308  -1.832  1.00  0.00    -0.384 OA
ATOM     34  H   UNL     1     -17.825  39.837  -2.261  1.00  0.00     0.211 HD
ENDBRANCH  28  33
BRANCH  30  35
ATOM     35  O   UNL     1     -19.004  38.834  -0.332  1.00  0.00    -0.387 OA
ATOM     36  H   UNL     1     -19.045  39.172   0.601  1.00  0.00     0.211 HD
ENDBRANCH  30  35
BRANCH  31  37
ATOM     37  C   UNL     1     -15.232  36.232   1.573  1.00  0.00     0.191 C 
BRANCH  37  38
ATOM     38  O   UNL     1     -14.793  37.009   2.654  1.00  0.00    -0.394 OA
ATOM     39  H   UNL     1     -13.918  36.635   2.926  1.00  0.00     0.210 HD
ENDBRANCH  37  38
ENDBRANCH  31  37
BRANCH  32  40
ATOM     40  O   UNL     1     -17.466  38.130   1.840  1.00  0.00    -0.387 OA
ATOM     41  H   UNL     1     -18.359  38.559   1.785  1.00  0.00     0.211 HD
ENDBRANCH  32  40
ENDBRANCH   1  27
TORSDOF 12
ENDMDL
MODEL 5
REMARK VINA RESULT:    -6.315      0.774      1.305
REMARK INTER + INTRA:         -10.992
REMARK INTER:                  -9.120
REMARK INTRA:                  -1.872
REMARK UNBOUND:                -1.723
REMARK SMILES O=c1c(O[C@@H]2O[C@@H](CO)[C@@H](O)[C@@H](O)[C@@H]2O)c(-c2ccc(O)c(O)c2)oc2cc(O)cc(O)c12
REMARK SMILES IDX 4 1 3 2 16 3 25 4 2 5 26 6 1 7 33 8 27 9 31 10 28 11 30 12
REMARK SMILES IDX 17 13 18 14 19 15 20 16 24 17 22 18 21 19 23 21 32 23 29 25
REMARK SMILES IDX 5 27 14 28 6 29 12 30 7 31 10 32 15 33 13 35 8 37 9 38 11 40
REMARK H PARENT 21 20 23 22 32 24 29 26 15 34 13 36 9 39 11 41
REMARK Flexibility Score: inf
ROOT
ATOM      1  O   UNL     1     -13.643  36.799  -0.952  1.00  0.00    -0.454 OA
ENDROOT
BRANCH   1   2
ATOM      2  C   UNL     1     -13.102  37.431  -2.091  1.00  0.00     0.214 A 
ATOM      3  C   UNL     1     -13.944  38.280  -2.838  1.00  0.00     0.180 A 
ATOM      4  O   UNL     1     -13.470  38.936  -3.892  1.00  0.00    -0.452 OA
ATOM      5  C   UNL     1     -11.759  37.284  -2.511  1.00  0.00     0.239 A 
ATOM      6  C   UNL     1     -12.220  38.824  -4.320  1.00  0.00     0.146 A 
ATOM      7  O   UNL     1     -10.968  36.541  -1.871  1.00  0.00    -0.285 OA
ATOM      8  C   UNL     1     -11.304  37.984  -3.649  1.00  0.00     0.111 A 
ATOM      9  C   UNL     1     -11.822  39.548  -5.447  1.00  0.00     0.094 A 
ATOM     10  C   UNL     1      -9.977  37.884  -4.140  1.00  0.00     0.134 A 
ATOM     11  C   UNL     1     -10.514  39.443  -5.928  1.00  0.00     0.123 A 
ATOM     12  C   UNL     1      -9.598  38.614  -5.277  1.00  0.00     0.093 A 
BRANCH   3  13
ATOM     13  C   UNL     1     -15.360  38.497  -2.468  1.00  0.00     0.025 A 
ATOM     14  C   UNL     1     -15.672  39.354  -1.404  1.00  0.00     0.016 A 
ATOM     15  C   UNL     1     -17.002  39.569  -1.037  1.00  0.00     0.051 A 
ATOM     16  C   UNL     1     -18.044  38.945  -1.731  1.00  0.00     0.157 A 
ATOM     17  C   UNL     1     -16.405  37.894  -3.187  1.00  0.00     0.062 A 
ATOM     18  C   UNL     1     -17.741  38.098  -2.823  1.00  0.00     0.158 A 
BRANCH  16  19
ATOM     19  O   UNL     1     -19.351  39.193  -1.307  1.00  0.00    -0.504 OA
ATOM     20  H   UNL     1     -19.621  39.990  -0.750  1.00  0.00     0.293 HD
ENDBRANCH  16  19
BRANCH  18  21
ATOM     21  O   UNL     1     -18.726  37.448  -3.569  1.00  0.00    -0.504 OA
ATOM     22  H   UNL     1     -19.399  37.925  -4.153  1.00  0.00     0.293 HD
ENDBRANCH  18  21
ENDBRANCH   3  13
BRANCH  10  23
ATOM     23  O   UNL     1      -9.036  37.066  -3.513  1.00  0.00    -0.507 OA
ATOM     24  H   UNL     1      -8.478  37.395  -2.734  1.00  0.00     0.293 HD
ENDBRANCH  10  23
BRANCH  11  25
ATOM     25  O   UNL     1     -10.112  40.157  -7.055  1.00  0.00    -0.508 OA
ATOM     26  H   UNL     1     -10.619  40.094  -7.929  1.00  0.00     0.293 HD
ENDBRANCH  11  25
ENDBRANCH   1   2
BRANCH   1  27
ATOM     27  C   UNL     1     -14.401  35.585  -0.901  1.00  0.00     0.339 C 
ATOM     28  C   UNL     1     -13.652  34.525  -0.066  1.00  0.00     0.214 C 
ATOM     29  O   UNL     1     -15.712  35.804  -0.395  1.00  0.00    -0.332 OA
ATOM     30  C   UNL     1     -13.642  34.918   1.419  1.00  0.00     0.180 C 
ATOM     31  C   UNL     1     -15.682  36.302   0.934  1.00  0.00     0.179 C 
ATOM     32  C   UNL     1     -15.064  35.257   1.893  1.00  0.00     0.177 C 
BRANCH  28  33
ATOM     33  O   UNL     1     -12.329  34.396  -0.521  1.00  0.00    -0.384 OA
ATOM     34  H   UNL     1     -11.972  33.557  -0.129  1.00  0.00     0.211 HD
ENDBRANCH  28  33
BRANCH  30  35
ATOM     35  O   UNL     1     -13.114  33.861   2.179  1.00  0.00    -0.387 OA
ATOM     36  H   UNL     1     -12.485  33.371   1.589  1.00  0.00     0.211 HD
ENDBRANCH  30  35
BRANCH  31  37
ATOM     37  C   UNL     1     -17.110  36.683   1.343  1.00  0.00     0.191 C 
BRANCH  37  38
ATOM     38  O   UNL     1     -18.032  35.795   0.773  1.00  0.00    -0.394 OA
ATOM     39  H   UNL     1     -18.327  36.210  -0.076  1.00  0.00     0.210 HD
ENDBRANCH  37  38
ENDBRANCH  31  37
BRANCH  32  40
ATOM     40  O   UNL     1     -15.844  34.088   1.915  1.00  0.00    -0.387 OA
ATOM     41  H   UNL     1     -15.448  33.460   1.258  1.00  0.00     0.211 HD
ENDBRANCH  32  40
ENDBRANCH   1  27
TORSDOF 12
ENDMDL
MODEL 6
REMARK VINA RESULT:    -6.146      2.584      3.632
REMARK INTER + INTRA:         -10.744
REMARK INTER:                  -9.824
REMARK INTRA:                  -0.920
REMARK UNBOUND:                -1.723
REMARK SMILES O=c1c(O[C@@H]2O[C@@H](CO)[C@@H](O)[C@@H](O)[C@@H]2O)c(-c2ccc(O)c(O)c2)oc2cc(O)cc(O)c12
REMARK SMILES IDX 4 1 3 2 16 3 25 4 2 5 26 6 1 7 33 8 27 9 31 10 28 11 30 12
REMARK SMILES IDX 17 13 18 14 19 15 20 16 24 17 22 18 21 19 23 21 32 23 29 25
REMARK SMILES IDX 5 27 14 28 6 29 12 30 7 31 10 32 15 33 13 35 8 37 9 38 11 40
REMARK H PARENT 21 20 23 22 32 24 29 26 15 34 13 36 9 39 11 41
REMARK Flexibility Score: inf
ROOT
ATOM      1  O   UNL     1     -15.163  37.540   0.655  1.00  0.00    -0.454 OA
ENDROOT
BRANCH   1   2
ATOM      2  C   UNL     1     -14.384  38.362  -0.186  1.00  0.00     0.214 A 
ATOM      3  C   UNL     1     -14.668  38.353  -1.568  1.00  0.00     0.180 A 
ATOM      4  O   UNL     1     -13.995  39.144  -2.397  1.00  0.00    -0.452 OA
ATOM      5  C   UNL     1     -13.355  39.215   0.278  1.00  0.00     0.239 A 
ATOM      6  C   UNL     1     -13.023  39.954  -2.003  1.00  0.00     0.146 A 
ATOM      7  O   UNL     1     -13.070  39.263   1.504  1.00  0.00    -0.285 OA
ATOM      8  C   UNL     1     -12.652  40.023  -0.641  1.00  0.00     0.111 A 
ATOM      9  C   UNL     1     -12.367  40.739  -2.956  1.00  0.00     0.094 A 
ATOM     10  C   UNL     1     -11.602  40.897  -0.259  1.00  0.00     0.134 A 
ATOM     11  C   UNL     1     -11.331  41.596  -2.573  1.00  0.00     0.123 A 
ATOM     12  C   UNL     1     -10.952  41.672  -1.232  1.00  0.00     0.093 A 
BRANCH   3  13
ATOM     13  C   UNL     1     -15.731  37.497  -2.140  1.00  0.00     0.025 A 
ATOM     14  C   UNL     1     -15.559  36.106  -2.167  1.00  0.00     0.016 A 
ATOM     15  C   UNL     1     -16.548  35.282  -2.705  1.00  0.00     0.051 A 
ATOM     16  C   UNL     1     -17.732  35.826  -3.215  1.00  0.00     0.157 A 
ATOM     17  C   UNL     1     -16.931  38.044  -2.622  1.00  0.00     0.062 A 
ATOM     18  C   UNL     1     -17.927  37.227  -3.169  1.00  0.00     0.158 A 
BRANCH  16  19
ATOM     19  O   UNL     1     -18.677  34.949  -3.749  1.00  0.00    -0.504 OA
ATOM     20  H   UNL     1     -18.693  34.659  -4.716  1.00  0.00     0.293 HD
ENDBRANCH  16  19
BRANCH  18  21
ATOM     21  O   UNL     1     -19.084  37.843  -3.650  1.00  0.00    -0.504 OA
ATOM     22  H   UNL     1     -19.502  38.663  -3.233  1.00  0.00     0.293 HD
ENDBRANCH  18  21
ENDBRANCH   3  13
BRANCH  10  23
ATOM     23  O   UNL     1     -11.198  40.998   1.073  1.00  0.00    -0.507 OA
ATOM     24  H   UNL     1     -11.467  40.310   1.765  1.00  0.00     0.293 HD
ENDBRANCH  10  23
BRANCH  11  25
ATOM     25  O   UNL     1     -10.669  42.376  -3.518  1.00  0.00    -0.508 OA
ATOM     26  H   UNL     1     -11.172  43.013  -4.124  1.00  0.00     0.293 HD
ENDBRANCH  11  25
ENDBRANCH   1   2
BRANCH   1  27
ATOM     27  C   UNL     1     -14.786  36.969   1.913  1.00  0.00     0.339 C 
ATOM     28  C   UNL     1     -16.044  36.556   2.706  1.00  0.00     0.214 C 
ATOM     29  O   UNL     1     -13.900  35.870   1.747  1.00  0.00    -0.332 OA
ATOM     30  C   UNL     1     -16.730  35.353   2.039  1.00  0.00     0.180 C 
ATOM     31  C   UNL     1     -14.503  34.820   1.006  1.00  0.00     0.179 C 
ATOM     32  C   UNL     1     -15.711  34.234   1.775  1.00  0.00     0.177 C 
BRANCH  28  33
ATOM     33  O   UNL     1     -16.949  37.628   2.772  1.00  0.00    -0.384 OA
ATOM     34  H   UNL     1     -17.397  37.572   3.657  1.00  0.00     0.211 HD
ENDBRANCH  28  33
BRANCH  30  35
ATOM     35  O   UNL     1     -17.764  34.886   2.868  1.00  0.00    -0.387 OA
ATOM     36  H   UNL     1     -18.254  35.685   3.192  1.00  0.00     0.211 HD
ENDBRANCH  30  35
BRANCH  31  37
ATOM     37  C   UNL     1     -13.437  33.756   0.714  1.00  0.00     0.191 C 
BRANCH  37  38
ATOM     38  O   UNL     1     -13.970  32.473   0.898  1.00  0.00    -0.394 OA
ATOM     39  H   UNL     1     -13.285  31.958   1.394  1.00  0.00     0.210 HD
ENDBRANCH  37  38
ENDBRANCH  31  37
BRANCH  32  40
ATOM     40  O   UNL     1     -15.293  33.679   2.998  1.00  0.00    -0.387 OA
ATOM     41  H   UNL     1     -15.333  32.693   2.900  1.00  0.00     0.211 HD
ENDBRANCH  32  40
ENDBRANCH   1  27
TORSDOF 12
ENDMDL
MODEL 7
REMARK VINA RESULT:    -6.101      2.280      4.890
REMARK INTER + INTRA:         -10.677
REMARK INTER:                  -9.147
REMARK INTRA:                  -1.530
REMARK UNBOUND:                -1.723
REMARK SMILES O=c1c(O[C@@H]2O[C@@H](CO)[C@@H](O)[C@@H](O)[C@@H]2O)c(-c2ccc(O)c(O)c2)oc2cc(O)cc(O)c12
REMARK SMILES IDX 4 1 3 2 16 3 25 4 2 5 26 6 1 7 33 8 27 9 31 10 28 11 30 12
REMARK SMILES IDX 17 13 18 14 19 15 20 16 24 17 22 18 21 19 23 21 32 23 29 25
REMARK SMILES IDX 5 27 14 28 6 29 12 30 7 31 10 32 15 33 13 35 8 37 9 38 11 40
REMARK H PARENT 21 20 23 22 32 24 29 26 15 34 13 36 9 39 11 41
REMARK Flexibility Score: inf
ROOT
ATOM      1  O   UNL     1     -14.050  37.851  -1.675  1.00  0.00    -0.454 OA
ENDROOT
BRANCH   1   2
ATOM      2  C   UNL     1     -13.422  38.701  -2.609  1.00  0.00     0.214 A 
ATOM      3  C   UNL     1     -12.369  38.170  -3.383  1.00  0.00     0.180 A 
ATOM      4  O   UNL     1     -11.777  38.915  -4.311  1.00  0.00    -0.452 OA
ATOM      5  C   UNL     1     -13.804  40.045  -2.834  1.00  0.00     0.239 A 
ATOM      6  C   UNL     1     -12.102  40.177  -4.550  1.00  0.00     0.146 A 
ATOM      7  O   UNL     1     -14.744  40.560  -2.172  1.00  0.00    -0.285 OA
ATOM      8  C   UNL     1     -13.133  40.806  -3.815  1.00  0.00     0.111 A 
ATOM      9  C   UNL     1     -11.410  40.880  -5.540  1.00  0.00     0.094 A 
ATOM     10  C   UNL     1     -13.449  42.160  -4.096  1.00  0.00     0.134 A 
ATOM     11  C   UNL     1     -11.724  42.215  -5.809  1.00  0.00     0.123 A 
ATOM     12  C   UNL     1     -12.738  42.849  -5.089  1.00  0.00     0.093 A 
BRANCH   3  13
ATOM     13  C   UNL     1     -11.908  36.774  -3.219  1.00  0.00     0.025 A 
ATOM     14  C   UNL     1     -12.509  35.755  -3.971  1.00  0.00     0.016 A 
ATOM     15  C   UNL     1     -12.091  34.431  -3.828  1.00  0.00     0.051 A 
ATOM     16  C   UNL     1     -11.059  34.100  -2.943  1.00  0.00     0.157 A 
ATOM     17  C   UNL     1     -10.851  36.449  -2.354  1.00  0.00     0.062 A 
ATOM     18  C   UNL     1     -10.428  35.124  -2.198  1.00  0.00     0.158 A 
BRANCH  16  19
ATOM     19  O   UNL     1     -10.695  32.756  -2.839  1.00  0.00    -0.504 OA
ATOM     20  H   UNL     1     -11.192  32.080  -2.278  1.00  0.00     0.293 HD
ENDBRANCH  16  19
BRANCH  18  21
ATOM     21  O   UNL     1      -9.387  34.873  -1.302  1.00  0.00    -0.504 OA
ATOM     22  H   UNL     1      -8.743  34.098  -1.388  1.00  0.00     0.293 HD
ENDBRANCH  18  21
ENDBRANCH   3  13
BRANCH  10  23
ATOM     23  O   UNL     1     -14.457  42.824  -3.395  1.00  0.00    -0.507 OA
ATOM     24  H   UNL     1     -15.333  42.370  -3.164  1.00  0.00     0.293 HD
ENDBRANCH  10  23
BRANCH  11  25
ATOM     25  O   UNL     1     -11.033  42.923  -6.790  1.00  0.00    -0.508 OA
ATOM     26  H   UNL     1     -10.760  43.888  -6.652  1.00  0.00     0.293 HD
ENDBRANCH  11  25
ENDBRANCH   1   2
BRANCH   1  27
ATOM     27  C   UNL     1     -15.092  36.899  -1.919  1.00  0.00     0.339 C 
ATOM     28  C   UNL     1     -15.050  35.782  -0.855  1.00  0.00     0.214 C 
ATOM     29  O   UNL     1     -16.370  37.519  -1.962  1.00  0.00    -0.332 OA
ATOM     30  C   UNL     1     -15.477  36.328   0.517  1.00  0.00     0.180 C 
ATOM     31  C   UNL     1     -16.692  38.142  -0.728  1.00  0.00     0.179 C 
ATOM     32  C   UNL     1     -16.807  37.089   0.400  1.00  0.00     0.177 C 
BRANCH  28  33
ATOM     33  O   UNL     1     -13.753  35.252  -0.759  1.00  0.00    -0.384 OA
ATOM     34  H   UNL     1     -13.823  34.417  -0.226  1.00  0.00     0.211 HD
ENDBRANCH  28  33
BRANCH  30  35
ATOM     35  O   UNL     1     -15.601  35.265   1.425  1.00  0.00    -0.387 OA
ATOM     36  H   UNL     1     -15.316  35.610   2.311  1.00  0.00     0.211 HD
ENDBRANCH  30  35
BRANCH  31  37
ATOM     37  C   UNL     1     -17.991  38.936  -0.907  1.00  0.00     0.191 C 
BRANCH  37  38
ATOM     38  O   UNL     1     -18.815  38.779   0.216  1.00  0.00    -0.394 OA
ATOM     39  H   UNL     1     -19.328  39.621   0.302  1.00  0.00     0.210 HD
ENDBRANCH  37  38
ENDBRANCH  31  37
BRANCH  32  40
ATOM     40  O   UNL     1     -17.845  36.181   0.121  1.00  0.00    -0.387 OA
ATOM     41  H   UNL     1     -17.539  35.287   0.421  1.00  0.00     0.211 HD
ENDBRANCH  32  40
ENDBRANCH   1  27
TORSDOF 12
ENDMDL
MODEL 8
REMARK VINA RESULT:    -6.047      1.995      6.887
REMARK INTER + INTRA:         -10.598
REMARK INTER:                  -8.644
REMARK INTRA:                  -1.954
REMARK UNBOUND:                -1.723
REMARK SMILES O=c1c(O[C@@H]2O[C@@H](CO)[C@@H](O)[C@@H](O)[C@@H]2O)c(-c2ccc(O)c(O)c2)oc2cc(O)cc(O)c12
REMARK SMILES IDX 4 1 3 2 16 3 25 4 2 5 26 6 1 7 33 8 27 9 31 10 28 11 30 12
REMARK SMILES IDX 17 13 18 14 19 15 20 16 24 17 22 18 21 19 23 21 32 23 29 25
REMARK SMILES IDX 5 27 14 28 6 29 12 30 7 31 10 32 15 33 13 35 8 37 9 38 11 40
REMARK H PARENT 21 20 23 22 32 24 29 26 15 34 13 36 9 39 11 41
REMARK Flexibility Score: inf
ROOT
ATOM      1  O   UNL     1     -13.151  36.298  -1.836  1.00  0.00    -0.454 OA
ENDROOT
BRANCH   1   2
ATOM      2  C   UNL     1     -14.229  36.916  -1.169  1.00  0.00     0.214 A 
ATOM      3  C   UNL     1     -14.541  38.249  -1.507  1.00  0.00     0.180 A 
ATOM      4  O   UNL     1     -15.577  38.860  -0.942  1.00  0.00    -0.452 OA
ATOM      5  C   UNL     1     -15.032  36.268  -0.200  1.00  0.00     0.239 A 
ATOM      6  C   UNL     1     -16.351  38.290  -0.029  1.00  0.00     0.146 A 
ATOM      7  O   UNL     1     -14.797  35.075   0.129  1.00  0.00    -0.285 OA
ATOM      8  C   UNL     1     -16.110  36.962   0.390  1.00  0.00     0.111 A 
ATOM      9  C   UNL     1     -17.410  39.022   0.514  1.00  0.00     0.094 A 
ATOM     10  C   UNL     1     -16.956  36.389   1.373  1.00  0.00     0.134 A 
ATOM     11  C   UNL     1     -18.238  38.452   1.485  1.00  0.00     0.123 A 
ATOM     12  C   UNL     1     -18.010  37.143   1.911  1.00  0.00     0.093 A 
BRANCH   3  13
ATOM     13  C   UNL     1     -13.759  39.001  -2.513  1.00  0.00     0.025 A 
ATOM     14  C   UNL     1     -12.832  39.963  -2.089  1.00  0.00     0.016 A 
ATOM     15  C   UNL     1     -12.088  40.686  -3.022  1.00  0.00     0.051 A 
ATOM     16  C   UNL     1     -12.243  40.455  -4.394  1.00  0.00     0.157 A 
ATOM     17  C   UNL     1     -13.895  38.745  -3.887  1.00  0.00     0.062 A 
ATOM     18  C   UNL     1     -13.158  39.469  -4.831  1.00  0.00     0.158 A 
BRANCH  16  19
ATOM     19  O   UNL     1     -11.476  41.219  -5.276  1.00  0.00    -0.504 OA
ATOM     20  H   UNL     1     -11.443  41.064  -6.272  1.00  0.00     0.293 HD
ENDBRANCH  16  19
BRANCH  18  21
ATOM     21  O   UNL     1     -13.362  39.176  -6.181  1.00  0.00    -0.504 OA
ATOM     22  H   UNL     1     -13.999  39.684  -6.779  1.00  0.00     0.293 HD
ENDBRANCH  18  21
ENDBRANCH   3  13
BRANCH  10  23
ATOM     23  O   UNL     1     -16.756  35.081   1.821  1.00  0.00    -0.507 OA
ATOM     24  H   UNL     1     -17.073  34.777   2.734  1.00  0.00     0.293 HD
ENDBRANCH  10  23
BRANCH  11  25
ATOM     25  O   UNL     1     -19.291  39.179   2.036  1.00  0.00    -0.508 OA
ATOM     26  H   UNL     1     -19.586  39.038   2.995  1.00  0.00     0.293 HD
ENDBRANCH  11  25
ENDBRANCH   1   2
BRANCH   1  27
ATOM     27  C   UNL     1     -11.807  36.140  -1.368  1.00  0.00     0.339 C 
ATOM     28  C   UNL     1     -11.394  34.654  -1.432  1.00  0.00     0.214 C 
ATOM     29  O   UNL     1     -10.898  36.957  -2.094  1.00  0.00    -0.332 OA
ATOM     30  C   UNL     1     -11.245  34.199  -2.892  1.00  0.00     0.180 C 
ATOM     31  C   UNL     1     -10.874  36.616  -3.472  1.00  0.00     0.179 C 
ATOM     32  C   UNL     1     -10.346  35.176  -3.668  1.00  0.00     0.177 C 
BRANCH  28  33
ATOM     33  O   UNL     1     -12.358  33.855  -0.795  1.00  0.00    -0.384 OA
ATOM     34  H   UNL     1     -13.148  34.435  -0.632  1.00  0.00     0.211 HD
ENDBRANCH  28  33
BRANCH  30  35
ATOM     35  O   UNL     1     -10.701  32.905  -2.926  1.00  0.00    -0.387 OA
ATOM     36  H   UNL     1      -9.744  32.990  -2.678  1.00  0.00     0.211 HD
ENDBRANCH  30  35
BRANCH  31  37
ATOM     37  C   UNL     1     -10.018  37.649  -4.214  1.00  0.00     0.191 C 
BRANCH  37  38
ATOM     38  O   UNL     1      -9.136  37.006  -5.094  1.00  0.00    -0.394 OA
ATOM     39  H   UNL     1      -9.590  36.175  -5.381  1.00  0.00     0.210 HD
ENDBRANCH  37  38
ENDBRANCH  31  37
BRANCH  32  40
ATOM     40  O   UNL     1      -9.023  35.069  -3.201  1.00  0.00    -0.387 OA
ATOM     41  H   UNL     1      -8.679  35.992  -3.089  1.00  0.00     0.211 HD
ENDBRANCH  32  40
ENDBRANCH   1  27
TORSDOF 12
ENDMDL
MODEL 9
REMARK VINA RESULT:    -5.990      2.308      5.218
REMARK INTER + INTRA:         -10.515
REMARK INTER:                  -8.532
REMARK INTRA:                  -1.983
REMARK UNBOUND:                -1.723
REMARK SMILES O=c1c(O[C@@H]2O[C@@H](CO)[C@@H](O)[C@@H](O)[C@@H]2O)c(-c2ccc(O)c(O)c2)oc2cc(O)cc(O)c12
REMARK SMILES IDX 4 1 3 2 16 3 25 4 2 5 26 6 1 7 33 8 27 9 31 10 28 11 30 12
REMARK SMILES IDX 17 13 18 14 19 15 20 16 24 17 22 18 21 19 23 21 32 23 29 25
REMARK SMILES IDX 5 27 14 28 6 29 12 30 7 31 10 32 15 33 13 35 8 37 9 38 11 40
REMARK H PARENT 21 20 23 22 32 24 29 26 15 34 13 36 9 39 11 41
REMARK Flexibility Score: inf
ROOT
ATOM      1  O   UNL     1     -14.278  37.771  -2.051  1.00  0.00    -0.454 OA
ENDROOT
BRANCH   1   2
ATOM      2  C   UNL     1     -13.541  38.670  -2.848  1.00  0.00     0.214 A 
ATOM      3  C   UNL     1     -12.367  38.195  -3.469  1.00  0.00     0.180 A 
ATOM      4  O   UNL     1     -11.662  38.988  -4.269  1.00  0.00    -0.452 OA
ATOM      5  C   UNL     1     -13.923  40.012  -3.084  1.00  0.00     0.239 A 
ATOM      6  C   UNL     1     -11.984  40.251  -4.513  1.00  0.00     0.146 A 
ATOM      7  O   UNL     1     -14.968  40.480  -2.556  1.00  0.00    -0.285 OA
ATOM      8  C   UNL     1     -13.133  40.826  -3.924  1.00  0.00     0.111 A 
ATOM      9  C   UNL     1     -11.170  41.007  -5.360  1.00  0.00     0.094 A 
ATOM     10  C   UNL     1     -13.442  42.182  -4.203  1.00  0.00     0.134 A 
ATOM     11  C   UNL     1     -11.479  42.343  -5.629  1.00  0.00     0.123 A 
ATOM     12  C   UNL     1     -12.608  42.925  -5.052  1.00  0.00     0.093 A 
BRANCH   3  13
ATOM     13  C   UNL     1     -11.895  36.804  -3.284  1.00  0.00     0.025 A 
ATOM     14  C   UNL     1     -12.521  35.764  -3.983  1.00  0.00     0.016 A 
ATOM     15  C   UNL     1     -12.093  34.445  -3.820  1.00  0.00     0.051 A 
ATOM     16  C   UNL     1     -11.027  34.141  -2.966  1.00  0.00     0.157 A 
ATOM     17  C   UNL     1     -10.805  36.507  -2.451  1.00  0.00     0.062 A 
ATOM     18  C   UNL     1     -10.372  35.187  -2.274  1.00  0.00     0.158 A 
BRANCH  16  19
ATOM     19  O   UNL     1     -10.655  32.802  -2.838  1.00  0.00    -0.504 OA
ATOM     20  H   UNL     1      -9.808  32.494  -2.382  1.00  0.00     0.293 HD
ENDBRANCH  16  19
BRANCH  18  21
ATOM     21  O   UNL     1      -9.296  34.964  -1.413  1.00  0.00    -0.504 OA
ATOM     22  H   UNL     1      -8.744  34.117  -1.407  1.00  0.00     0.293 HD
ENDBRANCH  18  21
ENDBRANCH   3  13
BRANCH  10  23
ATOM     23  O   UNL     1     -14.565  42.794  -3.643  1.00  0.00    -0.507 OA
ATOM     24  H   UNL     1     -15.046  42.398  -2.845  1.00  0.00     0.293 HD
ENDBRANCH  10  23
BRANCH  11  25
ATOM     25  O   UNL     1     -10.668  43.105  -6.468  1.00  0.00    -0.508 OA
ATOM     26  H   UNL     1     -10.046  42.670  -7.139  1.00  0.00     0.293 HD
ENDBRANCH  11  25
ENDBRANCH   1   2
BRANCH   1  27
ATOM     27  C   UNL     1     -14.368  37.739  -0.621  1.00  0.00     0.339 C 
ATOM     28  C   UNL     1     -15.847  37.701  -0.184  1.00  0.00     0.214 C 
ATOM     29  O   UNL     1     -13.642  36.647  -0.073  1.00  0.00    -0.332 OA
ATOM     30  C   UNL     1     -16.480  36.346  -0.541  1.00  0.00     0.180 C 
ATOM     31  C   UNL     1     -14.152  35.402  -0.524  1.00  0.00     0.179 C 
ATOM     32  C   UNL     1     -15.602  35.194  -0.027  1.00  0.00     0.177 C 
BRANCH  28  33
ATOM     33  O   UNL     1     -16.567  38.728  -0.815  1.00  0.00    -0.384 OA
ATOM     34  H   UNL     1     -16.663  39.462  -0.152  1.00  0.00     0.211 HD
ENDBRANCH  28  33
BRANCH  30  35
ATOM     35  O   UNL     1     -17.765  36.267   0.021  1.00  0.00    -0.387 OA
ATOM     36  H   UNL     1     -17.867  35.345   0.373  1.00  0.00     0.211 HD
ENDBRANCH  30  35
BRANCH  31  37
ATOM     37  C   UNL     1     -13.214  34.289  -0.041  1.00  0.00     0.191 C 
BRANCH  37  38
ATOM     38  O   UNL     1     -13.949  33.142   0.286  1.00  0.00    -0.394 OA
ATOM     39  H   UNL     1     -13.684  32.448  -0.369  1.00  0.00     0.210 HD
ENDBRANCH  37  38
ENDBRANCH  31  37
BRANCH  32  40
ATOM     40  O   UNL     1     -15.640  35.163   1.378  1.00  0.00    -0.387 OA
ATOM     41  H   UNL     1     -15.693  34.210   1.648  1.00  0.00     0.211 HD
ENDBRANCH  32  40
ENDBRANCH   1  27
TORSDOF 12
ENDMDL
