MODEL 1
REMARK VINA RESULT:    -3.701      0.000      0.000
REMARK INTER + INTRA:          -5.807
REMARK INTER:                  -5.432
REMARK INTRA:                  -0.374
REMARK UNBOUND:                -0.374
REMARK SMILES O=C([O-])CCCCCCCC(=O)[O-]
REMARK SMILES IDX 7 1 6 2 5 3 4 4 2 5 1 6 3 7 8 8 9 9 10 10 11 11 12 12 13 13
REMARK H PARENT
REMARK Flexibility Score: inf
ROOT
ATOM      1  C   UNL     1      -5.857 -26.815  24.733  1.00  0.00     0.000 C 
ENDROOT
BRANCH   1   2
ATOM      2  C   UNL     1      -7.113 -27.381  24.059  1.00  0.00     0.000 C 
BRANCH   2   3
ATOM      3  C   UNL     1      -6.947 -27.429  22.535  1.00  0.00     0.006 C 
BRANCH   3   4
ATOM      4  C   UNL     1      -6.308 -26.142  22.009  1.00  0.00     0.053 C 
BRANCH   4   5
ATOM      5  C   UNL     1      -5.210 -26.458  21.043  1.00  0.00     0.041 C 
ATOM      6  O   UNL     1      -4.056 -26.732  21.464  1.00  0.00    -0.550 OA
ATOM      7  O   UNL     1      -5.474 -26.497  19.680  1.00  0.00    -0.550 OA
ENDBRANCH   4   5
ENDBRANCH   3   4
ENDBRANCH   2   3
ENDBRANCH   1   2
BRANCH   1   8
ATOM      8  C   UNL     1      -4.704 -27.828  24.685  1.00  0.00     0.000 C 
BRANCH   8   9
ATOM      9  C   UNL     1      -3.953 -27.933  26.022  1.00  0.00     0.006 C 
BRANCH   9  10
ATOM     10  C   UNL     1      -4.891 -27.870  27.234  1.00  0.00     0.053 C 
BRANCH  10  11
ATOM     11  C   UNL     1      -4.210 -28.413  28.450  1.00  0.00     0.041 C 
ATOM     12  O   UNL     1      -4.881 -28.990  29.348  1.00  0.00    -0.550 OA
ATOM     13  O   UNL     1      -2.843 -28.238  28.618  1.00  0.00    -0.550 OA
ENDBRANCH  10  11
ENDBRANCH   9  10
ENDBRANCH   8   9
ENDBRANCH   1   8
TORSDOF 8
ENDMDL
MODEL 2
REMARK VINA RESULT:    -3.620      3.495      4.139
REMARK INTER + INTRA:          -5.688
REMARK INTER:                  -5.369
REMARK INTRA:                  -0.319
REMARK UNBOUND:                -0.374
REMARK SMILES O=C([O-])CCCCCCCC(=O)[O-]
REMARK SMILES IDX 7 1 6 2 5 3 4 4 2 5 1 6 3 7 8 8 9 9 10 10 11 11 12 12 13 13
REMARK H PARENT
REMARK Flexibility Score: inf
ROOT
ATOM      1  C   UNL     1      -6.808 -26.897  25.286  1.00  0.00     0.000 C 
ENDROOT
BRANCH   1   2
ATOM      2  C   UNL     1      -7.799 -27.827  24.574  1.00  0.00     0.000 C 
BRANCH   2   3
ATOM      3  C   UNL     1      -9.062 -28.037  25.417  1.00  0.00     0.006 C 
BRANCH   3   4
ATOM      4  C   UNL     1     -10.120 -28.824  24.639  1.00  0.00     0.053 C 
BRANCH   4   5
ATOM      5  C   UNL     1     -11.217 -27.917  24.180  1.00  0.00     0.041 C 
ATOM      6  O   UNL     1     -11.050 -27.178  23.175  1.00  0.00    -0.550 OA
ATOM      7  O   UNL     1     -12.442 -27.922  24.835  1.00  0.00    -0.550 OA
ENDBRANCH   4   5
ENDBRANCH   3   4
ENDBRANCH   2   3
ENDBRANCH   1   2
BRANCH   1   8
ATOM      8  C   UNL     1      -5.368 -27.182  24.836  1.00  0.00     0.000 C 
BRANCH   8   9
ATOM      9  C   UNL     1      -4.473 -27.668  25.987  1.00  0.00     0.006 C 
BRANCH   9  10
ATOM     10  C   UNL     1      -5.252 -27.882  27.292  1.00  0.00     0.053 C 
BRANCH  10  11
ATOM     11  C   UNL     1      -4.342 -28.387  28.366  1.00  0.00     0.041 C 
ATOM     12  O   UNL     1      -4.818 -28.969  29.377  1.00  0.00    -0.550 OA
ATOM     13  O   UNL     1      -2.973 -28.171  28.277  1.00  0.00    -0.550 OA
ENDBRANCH  10  11
ENDBRANCH   9  10
ENDBRANCH   8   9
ENDBRANCH   1   8
TORSDOF 8
ENDMDL
MODEL 3
REMARK VINA RESULT:    -3.583     15.851     16.512
REMARK INTER + INTRA:          -5.633
REMARK INTER:                  -5.365
REMARK INTRA:                  -0.267
REMARK UNBOUND:                -0.374
REMARK SMILES O=C([O-])CCCCCCCC(=O)[O-]
REMARK SMILES IDX 7 1 6 2 5 3 4 4 2 5 1 6 3 7 8 8 9 9 10 10 11 11 12 12 13 13
REMARK H PARENT
REMARK Flexibility Score: inf
ROOT
ATOM      1  C   UNL     1     -16.390 -16.445  26.872  1.00  0.00     0.000 C 
ENDROOT
BRANCH   1   2
ATOM      2  C   UNL     1     -16.749 -15.755  25.550  1.00  0.00     0.000 C 
BRANCH   2   3
ATOM      3  C   UNL     1     -16.447 -14.253  25.612  1.00  0.00     0.006 C 
BRANCH   3   4
ATOM      4  C   UNL     1     -17.169 -13.500  24.491  1.00  0.00     0.053 C 
BRANCH   4   5
ATOM      5  C   UNL     1     -18.363 -12.777  25.029  1.00  0.00     0.041 C 
ATOM      6  O   UNL     1     -18.602 -11.595  24.670  1.00  0.00    -0.550 OA
ATOM      7  O   UNL     1     -19.238 -13.426  25.891  1.00  0.00    -0.550 OA
ENDBRANCH   4   5
ENDBRANCH   3   4
ENDBRANCH   2   3
ENDBRANCH   1   2
BRANCH   1   8
ATOM      8  C   UNL     1     -14.876 -16.398  27.123  1.00  0.00     0.000 C 
BRANCH   8   9
ATOM      9  C   UNL     1     -14.527 -16.003  28.567  1.00  0.00     0.006 C 
BRANCH   9  10
ATOM     10  C   UNL     1     -13.934 -17.166  29.372  1.00  0.00     0.053 C 
BRANCH  10  11
ATOM     11  C   UNL     1     -12.458 -16.987  29.538  1.00  0.00     0.041 C 
ATOM     12  O   UNL     1     -11.830 -17.666  30.394  1.00  0.00    -0.550 OA
ATOM     13  O   UNL     1     -11.784 -16.035  28.785  1.00  0.00    -0.550 OA
ENDBRANCH  10  11
ENDBRANCH   9  10
ENDBRANCH   8   9
ENDBRANCH   1   8
TORSDOF 8
ENDMDL
MODEL 4
REMARK VINA RESULT:    -3.497     15.911     17.534
REMARK INTER + INTRA:          -5.506
REMARK INTER:                  -5.129
REMARK INTRA:                  -0.378
REMARK UNBOUND:                -0.374
REMARK SMILES O=C([O-])CCCCCCCC(=O)[O-]
REMARK SMILES IDX 7 1 6 2 5 3 4 4 2 5 1 6 3 7 8 8 9 9 10 10 11 11 12 12 13 13
REMARK H PARENT
REMARK Flexibility Score: inf
ROOT
ATOM      1  C   UNL     1     -15.216 -16.248  26.849  1.00  0.00     0.000 C 
ENDROOT
BRANCH   1   2
ATOM      2  C   UNL     1     -14.904 -15.203  27.928  1.00  0.00     0.000 C 
BRANCH   2   3
ATOM      3  C   UNL     1     -14.811 -15.852  29.314  1.00  0.00     0.006 C 
BRANCH   3   4
ATOM      4  C   UNL     1     -13.930 -17.103  29.278  1.00  0.00     0.053 C 
BRANCH   4   5
ATOM      5  C   UNL     1     -12.529 -16.770  29.684  1.00  0.00     0.041 C 
ATOM      6  O   UNL     1     -12.096 -17.121  30.813  1.00  0.00    -0.550 OA
ATOM      7  O   UNL     1     -11.686 -16.114  28.797  1.00  0.00    -0.550 OA
ENDBRANCH   4   5
ENDBRANCH   3   4
ENDBRANCH   2   3
ENDBRANCH   1   2
BRANCH   1   8
ATOM      8  C   UNL     1     -16.353 -15.770  25.935  1.00  0.00     0.000 C 
BRANCH   8   9
ATOM      9  C   UNL     1     -16.694 -14.286  26.141  1.00  0.00     0.006 C 
BRANCH   9  10
ATOM     10  C   UNL     1     -16.934 -13.545  24.819  1.00  0.00     0.053 C 
BRANCH  10  11
ATOM     11  C   UNL     1     -18.308 -12.954  24.793  1.00  0.00     0.041 C 
ATOM     12  O   UNL     1     -19.306 -13.683  24.546  1.00  0.00    -0.550 OA
ATOM     13  O   UNL     1     -18.483 -11.592  24.991  1.00  0.00    -0.550 OA
ENDBRANCH  10  11
ENDBRANCH   9  10
ENDBRANCH   8   9
ENDBRANCH   1   8
TORSDOF 8
ENDMDL
MODEL 5
REMARK VINA RESULT:    -3.472     15.834     16.482
REMARK INTER + INTRA:          -5.471
REMARK INTER:                  -5.143
REMARK INTRA:                  -0.328
REMARK UNBOUND:                -0.374
REMARK SMILES O=C([O-])CCCCCCCC(=O)[O-]
REMARK SMILES IDX 7 1 6 2 5 3 4 4 2 5 1 6 3 7 8 8 9 9 10 10 11 11 12 12 13 13
REMARK H PARENT
REMARK Flexibility Score: inf
ROOT
ATOM      1  C   UNL     1     -15.297 -16.286  26.733  1.00  0.00     0.000 C 
ENDROOT
BRANCH   1   2
ATOM      2  C   UNL     1     -15.943 -14.909  26.537  1.00  0.00     0.000 C 
BRANCH   2   3
ATOM      3  C   UNL     1     -16.712 -14.844  25.212  1.00  0.00     0.006 C 
BRANCH   3   4
ATOM      4  C   UNL     1     -17.076 -13.400  24.857  1.00  0.00     0.053 C 
BRANCH   4   5
ATOM      5  C   UNL     1     -18.199 -12.914  25.719  1.00  0.00     0.041 C 
ATOM      6  O   UNL     1     -19.263 -13.580  25.806  1.00  0.00    -0.550 OA
ATOM      7  O   UNL     1     -18.050 -11.752  26.465  1.00  0.00    -0.550 OA
ENDBRANCH   4   5
ENDBRANCH   3   4
ENDBRANCH   2   3
ENDBRANCH   1   2
BRANCH   1   8
ATOM      8  C   UNL     1     -14.854 -16.482  28.190  1.00  0.00     0.000 C 
BRANCH   8   9
ATOM      9  C   UNL     1     -13.838 -15.424  28.648  1.00  0.00     0.006 C 
BRANCH   9  10
ATOM     10  C   UNL     1     -12.438 -16.007  28.878  1.00  0.00     0.053 C 
BRANCH  10  11
ATOM     11  C   UNL     1     -12.452 -16.956  30.034  1.00  0.00     0.041 C 
ATOM     12  O   UNL     1     -12.238 -18.184  29.848  1.00  0.00    -0.550 OA
ATOM     13  O   UNL     1     -12.750 -16.495  31.309  1.00  0.00    -0.550 OA
ENDBRANCH  10  11
ENDBRANCH   9  10
ENDBRANCH   8   9
ENDBRANCH   1   8
TORSDOF 8
ENDMDL
MODEL 6
REMARK VINA RESULT:    -3.462     16.298     17.076
REMARK INTER + INTRA:          -5.455
REMARK INTER:                  -5.128
REMARK INTRA:                  -0.327
REMARK UNBOUND:                -0.374
REMARK SMILES O=C([O-])CCCCCCCC(=O)[O-]
REMARK SMILES IDX 7 1 6 2 5 3 4 4 2 5 1 6 3 7 8 8 9 9 10 10 11 11 12 12 13 13
REMARK H PARENT
REMARK Flexibility Score: inf
ROOT
ATOM      1  C   UNL     1     -16.677 -16.169  25.899  1.00  0.00     0.000 C 
ENDROOT
BRANCH   1   2
ATOM      2  C   UNL     1     -17.527 -15.446  24.846  1.00  0.00     0.000 C 
BRANCH   2   3
ATOM      3  C   UNL     1     -17.009 -14.024  24.600  1.00  0.00     0.006 C 
BRANCH   3   4
ATOM      4  C   UNL     1     -17.581 -13.447  23.303  1.00  0.00     0.053 C 
BRANCH   4   5
ATOM      5  C   UNL     1     -18.757 -12.568  23.593  1.00  0.00     0.041 C 
ATOM      6  O   UNL     1     -18.894 -12.049  24.732  1.00  0.00    -0.550 OA
ATOM      7  O   UNL     1     -19.676 -12.284  22.592  1.00  0.00    -0.550 OA
ENDBRANCH   4   5
ENDBRANCH   3   4
ENDBRANCH   2   3
ENDBRANCH   1   2
BRANCH   1   8
ATOM      8  C   UNL     1     -15.687 -15.202  26.564  1.00  0.00     0.000 C 
BRANCH   8   9
ATOM      9  C   UNL     1     -14.848 -15.875  27.661  1.00  0.00     0.006 C 
BRANCH   9  10
ATOM     10  C   UNL     1     -15.559 -17.078  28.294  1.00  0.00     0.053 C 
BRANCH  10  11
ATOM     11  C   UNL     1     -14.825 -17.534  29.515  1.00  0.00     0.041 C 
ATOM     12  O   UNL     1     -13.580 -17.727  29.471  1.00  0.00    -0.550 OA
ATOM     13  O   UNL     1     -15.521 -17.796  30.688  1.00  0.00    -0.550 OA
ENDBRANCH  10  11
ENDBRANCH   9  10
ENDBRANCH   8   9
ENDBRANCH   1   8
TORSDOF 8
ENDMDL
MODEL 7
REMARK VINA RESULT:    -3.458     15.804     17.388
REMARK INTER + INTRA:          -5.450
REMARK INTER:                  -5.197
REMARK INTRA:                  -0.253
REMARK UNBOUND:                -0.374
REMARK SMILES O=C([O-])CCCCCCCC(=O)[O-]
REMARK SMILES IDX 7 1 6 2 5 3 4 4 2 5 1 6 3 7 8 8 9 9 10 10 11 11 12 12 13 13
REMARK H PARENT
REMARK Flexibility Score: inf
ROOT
ATOM      1  C   UNL     1     -15.412 -16.385  26.854  1.00  0.00     0.000 C 
ENDROOT
BRANCH   1   2
ATOM      2  C   UNL     1     -15.878 -16.831  28.246  1.00  0.00     0.000 C 
BRANCH   2   3
ATOM      3  C   UNL     1     -14.726 -17.457  29.040  1.00  0.00     0.006 C 
BRANCH   3   4
ATOM      4  C   UNL     1     -13.832 -16.378  29.658  1.00  0.00     0.053 C 
BRANCH   4   5
ATOM      5  C   UNL     1     -12.394 -16.783  29.584  1.00  0.00     0.041 C 
ATOM      6  O   UNL     1     -12.015 -17.871  30.092  1.00  0.00    -0.550 OA
ATOM      7  O   UNL     1     -11.480 -15.982  28.912  1.00  0.00    -0.550 OA
ENDBRANCH   4   5
ENDBRANCH   3   4
ENDBRANCH   2   3
ENDBRANCH   1   2
BRANCH   1   8
ATOM      8  C   UNL     1     -15.818 -14.930  26.579  1.00  0.00     0.000 C 
BRANCH   8   9
ATOM      9  C   UNL     1     -16.804 -14.803  25.406  1.00  0.00     0.006 C 
BRANCH   9  10
ATOM     10  C   UNL     1     -16.855 -13.383  24.828  1.00  0.00     0.053 C 
BRANCH  10  11
ATOM     11  C   UNL     1     -18.164 -12.735  25.151  1.00  0.00     0.041 C 
ATOM     12  O   UNL     1     -18.192 -11.628  25.753  1.00  0.00    -0.550 OA
ATOM     13  O   UNL     1     -19.354 -13.376  24.834  1.00  0.00    -0.550 OA
ENDBRANCH  10  11
ENDBRANCH   9  10
ENDBRANCH   8   9
ENDBRANCH   1   8
TORSDOF 8
ENDMDL
MODEL 8
REMARK VINA RESULT:    -3.383     16.336     18.181
REMARK INTER + INTRA:          -5.339
REMARK INTER:                  -5.063
REMARK INTRA:                  -0.277
REMARK UNBOUND:                -0.374
REMARK SMILES O=C([O-])CCCCCCCC(=O)[O-]
REMARK SMILES IDX 7 1 6 2 5 3 4 4 2 5 1 6 3 7 8 8 9 9 10 10 11 11 12 12 13 13
REMARK H PARENT
REMARK Flexibility Score: inf
ROOT
ATOM      1  C   UNL     1     -16.673 -15.169  25.528  1.00  0.00     0.000 C 
ENDROOT
BRANCH   1   2
ATOM      2  C   UNL     1     -15.925 -16.232  26.342  1.00  0.00     0.000 C 
BRANCH   2   3
ATOM      3  C   UNL     1     -15.533 -15.695  27.724  1.00  0.00     0.006 C 
BRANCH   3   4
ATOM      4  C   UNL     1     -14.243 -16.350  28.224  1.00  0.00     0.053 C 
BRANCH   4   5
ATOM      5  C   UNL     1     -14.517 -17.193  29.430  1.00  0.00     0.041 C 
ATOM      6  O   UNL     1     -15.265 -18.201  29.341  1.00  0.00    -0.550 OA
ATOM      7  O   UNL     1     -13.906 -16.893  30.640  1.00  0.00    -0.550 OA
ENDBRANCH   4   5
ENDBRANCH   3   4
ENDBRANCH   2   3
ENDBRANCH   1   2
BRANCH   1   8
ATOM      8  C   UNL     1     -17.599 -15.821  24.492  1.00  0.00     0.000 C 
BRANCH   8   9
ATOM      9  C   UNL     1     -18.129 -14.818  23.456  1.00  0.00     0.006 C 
BRANCH   9  10
ATOM     10  C   UNL     1     -17.485 -13.432  23.592  1.00  0.00     0.053 C 
BRANCH  10  11
ATOM     11  C   UNL     1     -18.518 -12.409  23.944  1.00  0.00     0.041 C 
ATOM     12  O   UNL     1     -19.406 -12.092  23.108  1.00  0.00    -0.550 OA
ATOM     13  O   UNL     1     -18.471 -11.768  25.175  1.00  0.00    -0.550 OA
ENDBRANCH  10  11
ENDBRANCH   9  10
ENDBRANCH   8   9
ENDBRANCH   1   8
TORSDOF 8
ENDMDL
MODEL 9
REMARK VINA RESULT:    -3.347     17.014     18.567
REMARK INTER + INTRA:          -5.287
REMARK INTER:                  -4.452
REMARK INTRA:                  -0.835
REMARK UNBOUND:                -0.374
REMARK SMILES O=C([O-])CCCCCCCC(=O)[O-]
REMARK SMILES IDX 7 1 6 2 5 3 4 4 2 5 1 6 3 7 8 8 9 9 10 10 11 11 12 12 13 13
REMARK H PARENT
REMARK Flexibility Score: inf
ROOT
ATOM      1  C   UNL     1     -17.991 -16.219  23.792  1.00  0.00     0.000 C 
ENDROOT
BRANCH   1   2
ATOM      2  C   UNL     1     -18.769 -16.526  25.078  1.00  0.00     0.000 C 
BRANCH   2   3
ATOM      3  C   UNL     1     -17.890 -16.321  26.317  1.00  0.00     0.006 C 
BRANCH   3   4
ATOM      4  C   UNL     1     -16.404 -16.343  25.948  1.00  0.00     0.053 C 
BRANCH   4   5
ATOM      5  C   UNL     1     -15.636 -15.387  26.805  1.00  0.00     0.041 C 
ATOM      6  O   UNL     1     -15.962 -14.172  26.847  1.00  0.00    -0.550 OA
ATOM      7  O   UNL     1     -14.592 -15.848  27.596  1.00  0.00    -0.550 OA
ENDBRANCH   4   5
ENDBRANCH   3   4
ENDBRANCH   2   3
ENDBRANCH   1   2
BRANCH   1   8
ATOM      8  C   UNL     1     -18.792 -15.283  22.876  1.00  0.00     0.000 C 
BRANCH   8   9
ATOM      9  C   UNL     1     -18.052 -13.968  22.581  1.00  0.00     0.006 C 
BRANCH   9  10
ATOM     10  C   UNL     1     -17.432 -13.344  23.838  1.00  0.00     0.053 C 
BRANCH  10  11
ATOM     11  C   UNL     1     -18.461 -12.569  24.598  1.00  0.00     0.041 C 
ATOM     12  O   UNL     1     -18.947 -13.036  25.663  1.00  0.00    -0.550 OA
ATOM     13  O   UNL     1     -18.922 -11.355  24.106  1.00  0.00    -0.550 OA
ENDBRANCH  10  11
ENDBRANCH   9  10
ENDBRANCH   8   9
ENDBRANCH   1   8
TORSDOF 8
ENDMDL
