MODEL 1
REMARK VINA RESULT:    -5.402      0.000      0.000
REMARK INTER + INTRA:          -5.987
REMARK INTER:                  -5.876
REMARK INTRA:                  -0.112
REMARK UNBOUND:                -0.112
REMARK SMILES Cc1ccc(C(C)C)cc1O
REMARK SMILES IDX 1 1 2 2 10 3 9 4 5 5 4 6 3 7 11 8 6 10 7 11 8 12
REMARK H PARENT 11 9
REMARK Flexibility Score: inf
ROOT
ATOM      1  C   UNL     1      -7.913   0.526 -10.721  1.00  0.00     0.048 C 
ATOM      2  C   UNL     1      -8.639  -0.779 -10.552  1.00  0.00    -0.009 A 
ATOM      3  C   UNL     1      -8.593  -1.491  -9.333  1.00  0.00     0.118 A 
ATOM      4  C   UNL     1      -9.280  -2.704  -9.207  1.00  0.00     0.050 A 
ATOM      5  C   UNL     1     -10.019  -3.230 -10.281  1.00  0.00    -0.042 A 
ATOM      6  C   UNL     1     -10.061  -2.517 -11.491  1.00  0.00     0.004 A 
ATOM      7  C   UNL     1      -9.378  -1.305 -11.623  1.00  0.00     0.007 A 
ENDROOT
BRANCH   3   8
ATOM      8  O   UNL     1      -7.876  -1.022  -8.230  1.00  0.00    -0.508 OA
ATOM      9  H   UNL     1      -6.975  -0.568  -8.311  1.00  0.00     0.293 HD
ENDBRANCH   3   8
BRANCH   5  10
ATOM     10  C   UNL     1     -10.757  -4.547 -10.122  1.00  0.00     0.013 C 
ATOM     11  C   UNL     1     -10.881  -4.935  -8.644  1.00  0.00     0.012 C 
ATOM     12  C   UNL     1     -10.079  -5.660 -10.929  1.00  0.00     0.012 C 
ENDBRANCH   5  10
TORSDOF 2
ENDMDL
MODEL 2
REMARK VINA RESULT:    -5.221      1.279      4.139
REMARK INTER + INTRA:          -5.791
REMARK INTER:                  -5.681
REMARK INTRA:                  -0.110
REMARK UNBOUND:                -0.112
REMARK SMILES Cc1ccc(C(C)C)cc1O
REMARK SMILES IDX 1 1 2 2 10 3 9 4 5 5 4 6 3 7 11 8 6 10 7 11 8 12
REMARK H PARENT 11 9
REMARK Flexibility Score: inf
ROOT
ATOM      1  C   UNL     1     -10.962  -5.499  -8.247  1.00  0.00     0.048 C 
ATOM      2  C   UNL     1     -10.422  -4.319  -9.007  1.00  0.00    -0.009 A 
ATOM      3  C   UNL     1      -9.483  -3.440  -8.423  1.00  0.00     0.118 A 
ATOM      4  C   UNL     1      -8.998  -2.351  -9.156  1.00  0.00     0.050 A 
ATOM      5  C   UNL     1      -9.433  -2.115 -10.471  1.00  0.00    -0.042 A 
ATOM      6  C   UNL     1     -10.368  -2.993 -11.046  1.00  0.00     0.004 A 
ATOM      7  C   UNL     1     -10.855  -4.083 -10.320  1.00  0.00     0.007 A 
ENDROOT
BRANCH   3   8
ATOM      8  O   UNL     1      -9.011  -3.621  -7.120  1.00  0.00    -0.508 OA
ATOM      9  H   UNL     1      -9.551  -4.082  -6.398  1.00  0.00     0.293 HD
ENDBRANCH   3   8
BRANCH   5  10
ATOM     10  C   UNL     1      -8.894  -0.927 -11.247  1.00  0.00     0.013 C 
ATOM     11  C   UNL     1      -7.875  -1.373 -12.302  1.00  0.00     0.012 C 
ATOM     12  C   UNL     1      -8.289   0.121 -10.305  1.00  0.00     0.012 C 
ENDBRANCH   5  10
TORSDOF 2
ENDMDL
MODEL 3
REMARK VINA RESULT:    -4.992      1.518      3.288
REMARK INTER + INTRA:          -5.541
REMARK INTER:                  -5.415
REMARK INTRA:                  -0.125
REMARK UNBOUND:                -0.112
REMARK SMILES Cc1ccc(C(C)C)cc1O
REMARK SMILES IDX 1 1 2 2 10 3 9 4 5 5 4 6 3 7 11 8 6 10 7 11 8 12
REMARK H PARENT 11 9
REMARK Flexibility Score: inf
ROOT
ATOM      1  C   UNL     1      -8.435  -3.131  -6.351  1.00  0.00     0.048 C 
ATOM      2  C   UNL     1      -8.949  -2.732  -7.706  1.00  0.00    -0.009 A 
ATOM      3  C   UNL     1      -8.654  -1.465  -8.257  1.00  0.00     0.118 A 
ATOM      4  C   UNL     1      -9.148  -1.123  -9.522  1.00  0.00     0.050 A 
ATOM      5  C   UNL     1      -9.937  -2.024 -10.257  1.00  0.00    -0.042 A 
ATOM      6  C   UNL     1     -10.227  -3.283  -9.703  1.00  0.00     0.004 A 
ATOM      7  C   UNL     1      -9.737  -3.631  -8.442  1.00  0.00     0.007 A 
ENDROOT
BRANCH   3   8
ATOM      8  O   UNL     1      -7.876  -0.526  -7.577  1.00  0.00    -0.508 OA
ATOM      9  H   UNL     1      -8.270   0.173  -6.960  1.00  0.00     0.293 HD
ENDBRANCH   3   8
BRANCH   5  10
ATOM     10  C   UNL     1     -10.461  -1.632 -11.627  1.00  0.00     0.013 C 
ATOM     11  C   UNL     1     -11.623  -0.639 -11.509  1.00  0.00     0.012 C 
ATOM     12  C   UNL     1     -10.871  -2.868 -12.436  1.00  0.00     0.012 C 
ENDBRANCH   5  10
TORSDOF 2
ENDMDL
MODEL 4
REMARK VINA RESULT:    -4.988      2.117      3.878
REMARK INTER + INTRA:          -5.537
REMARK INTER:                  -5.412
REMARK INTRA:                  -0.125
REMARK UNBOUND:                -0.112
REMARK SMILES Cc1ccc(C(C)C)cc1O
REMARK SMILES IDX 1 1 2 2 10 3 9 4 5 5 4 6 3 7 11 8 6 10 7 11 8 12
REMARK H PARENT 11 9
REMARK Flexibility Score: inf
ROOT
ATOM      1  C   UNL     1     -11.039  -3.723 -12.911  1.00  0.00     0.048 C 
ATOM      2  C   UNL     1     -10.413  -3.107 -11.691  1.00  0.00    -0.009 A 
ATOM      3  C   UNL     1     -10.001  -3.902 -10.598  1.00  0.00     0.118 A 
ATOM      4  C   UNL     1      -9.421  -3.298  -9.477  1.00  0.00     0.050 A 
ATOM      5  C   UNL     1      -9.241  -1.905  -9.419  1.00  0.00    -0.042 A 
ATOM      6  C   UNL     1      -9.652  -1.120 -10.509  1.00  0.00     0.004 A 
ATOM      7  C   UNL     1     -10.231  -1.716 -11.632  1.00  0.00     0.007 A 
ENDROOT
BRANCH   3   8
ATOM      8  O   UNL     1     -10.153  -5.290 -10.595  1.00  0.00    -0.508 OA
ATOM      9  H   UNL     1     -10.988  -5.752 -10.255  1.00  0.00     0.293 HD
ENDBRANCH   3   8
BRANCH   5  10
ATOM     10  C   UNL     1      -8.609  -1.272  -8.192  1.00  0.00     0.013 C 
ATOM     11  C   UNL     1      -8.686  -2.213  -6.984  1.00  0.00     0.012 C 
ATOM     12  C   UNL     1      -9.252   0.084  -7.877  1.00  0.00     0.012 C 
ENDBRANCH   5  10
TORSDOF 2
ENDMDL
MODEL 5
REMARK VINA RESULT:    -4.981      2.172      3.958
REMARK INTER + INTRA:          -5.530
REMARK INTER:                  -5.407
REMARK INTRA:                  -0.123
REMARK UNBOUND:                -0.112
REMARK SMILES Cc1ccc(C(C)C)cc1O
REMARK SMILES IDX 1 1 2 2 10 3 9 4 5 5 4 6 3 7 11 8 6 10 7 11 8 12
REMARK H PARENT 11 9
REMARK Flexibility Score: inf
ROOT
ATOM      1  C   UNL     1     -11.250  -4.003 -13.125  1.00  0.00     0.048 C 
ATOM      2  C   UNL     1     -10.668  -3.348 -11.903  1.00  0.00    -0.009 A 
ATOM      3  C   UNL     1     -10.137  -4.116 -10.843  1.00  0.00     0.118 A 
ATOM      4  C   UNL     1      -9.602  -3.476  -9.719  1.00  0.00     0.050 A 
ATOM      5  C   UNL     1      -9.585  -2.074  -9.626  1.00  0.00    -0.042 A 
ATOM      6  C   UNL     1     -10.115  -1.316 -10.684  1.00  0.00     0.004 A 
ATOM      7  C   UNL     1     -10.649  -1.948 -11.810  1.00  0.00     0.007 A 
ENDROOT
BRANCH   3   8
ATOM      8  O   UNL     1     -10.125  -5.512 -10.875  1.00  0.00    -0.508 OA
ATOM      9  H   UNL     1      -9.521  -6.072 -10.286  1.00  0.00     0.293 HD
ENDBRANCH   3   8
BRANCH   5  10
ATOM     10  C   UNL     1      -9.000  -1.401  -8.397  1.00  0.00     0.013 C 
ATOM     11  C   UNL     1      -8.131  -0.199  -8.787  1.00  0.00     0.012 C 
ATOM     12  C   UNL     1      -8.209  -2.400  -7.545  1.00  0.00     0.012 C 
ENDBRANCH   5  10
TORSDOF 2
ENDMDL
MODEL 6
REMARK VINA RESULT:    -4.951      1.937      4.665
REMARK INTER + INTRA:          -5.497
REMARK INTER:                  -5.376
REMARK INTRA:                  -0.121
REMARK UNBOUND:                -0.112
REMARK SMILES Cc1ccc(C(C)C)cc1O
REMARK SMILES IDX 1 1 2 2 10 3 9 4 5 5 4 6 3 7 11 8 6 10 7 11 8 12
REMARK H PARENT 11 9
REMARK Flexibility Score: inf
ROOT
ATOM      1  C   UNL     1     -10.902  -5.331  -8.570  1.00  0.00     0.048 C 
ATOM      2  C   UNL     1     -10.128  -4.064  -8.804  1.00  0.00    -0.009 A 
ATOM      3  C   UNL     1     -10.109  -3.441 -10.072  1.00  0.00     0.118 A 
ATOM      4  C   UNL     1      -9.379  -2.261 -10.258  1.00  0.00     0.050 A 
ATOM      5  C   UNL     1      -8.660  -1.682  -9.199  1.00  0.00    -0.042 A 
ATOM      6  C   UNL     1      -8.684  -2.307  -7.940  1.00  0.00     0.004 A 
ATOM      7  C   UNL     1      -9.411  -3.484  -7.747  1.00  0.00     0.007 A 
ENDROOT
BRANCH   3   8
ATOM      8  O   UNL     1     -10.802  -3.967 -11.165  1.00  0.00    -0.508 OA
ATOM      9  H   UNL     1     -11.749  -4.320 -11.099  1.00  0.00     0.293 HD
ENDBRANCH   3   8
BRANCH   5  10
ATOM     10  C   UNL     1      -7.876  -0.402  -9.424  1.00  0.00     0.013 C 
ATOM     11  C   UNL     1      -8.218   0.648  -8.361  1.00  0.00     0.012 C 
ATOM     12  C   UNL     1      -8.107   0.146 -10.837  1.00  0.00     0.012 C 
ENDBRANCH   5  10
TORSDOF 2
ENDMDL
MODEL 7
REMARK VINA RESULT:    -4.945      2.003      3.805
REMARK INTER + INTRA:          -5.490
REMARK INTER:                  -5.364
REMARK INTRA:                  -0.126
REMARK UNBOUND:                -0.112
REMARK SMILES Cc1ccc(C(C)C)cc1O
REMARK SMILES IDX 1 1 2 2 10 3 9 4 5 5 4 6 3 7 11 8 6 10 7 11 8 12
REMARK H PARENT 11 9
REMARK Flexibility Score: inf
ROOT
ATOM      1  C   UNL     1     -10.912  -3.614 -12.263  1.00  0.00     0.048 C 
ATOM      2  C   UNL     1     -10.216  -3.305 -10.966  1.00  0.00    -0.009 A 
ATOM      3  C   UNL     1      -9.255  -2.274 -10.879  1.00  0.00     0.118 A 
ATOM      4  C   UNL     1      -8.624  -2.011  -9.657  1.00  0.00     0.050 A 
ATOM      5  C   UNL     1      -8.932  -2.761  -8.510  1.00  0.00    -0.042 A 
ATOM      6  C   UNL     1      -9.889  -3.786  -8.604  1.00  0.00     0.004 A 
ATOM      7  C   UNL     1     -10.523  -4.053  -9.819  1.00  0.00     0.007 A 
ENDROOT
BRANCH   3   8
ATOM      8  O   UNL     1      -8.905  -1.494 -11.983  1.00  0.00    -0.508 OA
ATOM      9  H   UNL     1      -8.057  -1.642 -12.517  1.00  0.00     0.293 HD
ENDBRANCH   3   8
BRANCH   5  10
ATOM     10  C   UNL     1      -8.235  -2.458  -7.195  1.00  0.00     0.013 C 
ATOM     11  C   UNL     1      -9.089  -2.904  -6.003  1.00  0.00     0.012 C 
ATOM     12  C   UNL     1      -7.875  -0.971  -7.091  1.00  0.00     0.012 C 
ENDBRANCH   5  10
TORSDOF 2
ENDMDL
MODEL 8
REMARK VINA RESULT:    -4.709      2.526      4.769
REMARK INTER + INTRA:          -5.233
REMARK INTER:                  -5.128
REMARK INTRA:                  -0.106
REMARK UNBOUND:                -0.112
REMARK SMILES Cc1ccc(C(C)C)cc1O
REMARK SMILES IDX 1 1 2 2 10 3 9 4 5 5 4 6 3 7 11 8 6 10 7 11 8 12
REMARK H PARENT 11 9
REMARK Flexibility Score: inf
ROOT
ATOM      1  C   UNL     1     -10.111  -6.361 -11.295  1.00  0.00     0.048 C 
ATOM      2  C   UNL     1     -10.294  -4.882 -11.087  1.00  0.00    -0.009 A 
ATOM      3  C   UNL     1     -10.721  -4.043 -12.140  1.00  0.00     0.118 A 
ATOM      4  C   UNL     1     -10.882  -2.670 -11.915  1.00  0.00     0.050 A 
ATOM      5  C   UNL     1     -10.623  -2.111 -10.652  1.00  0.00    -0.042 A 
ATOM      6  C   UNL     1     -10.197  -2.952  -9.610  1.00  0.00     0.004 A 
ATOM      7  C   UNL     1     -10.036  -4.322  -9.827  1.00  0.00     0.007 A 
ENDROOT
BRANCH   3   8
ATOM      8  O   UNL     1     -10.995  -4.538 -13.416  1.00  0.00    -0.508 OA
ATOM      9  H   UNL     1     -11.672  -5.271 -13.590  1.00  0.00     0.293 HD
ENDBRANCH   3   8
BRANCH   5  10
ATOM     10  C   UNL     1     -10.804  -0.620 -10.431  1.00  0.00     0.013 C 
ATOM     11  C   UNL     1     -11.896  -0.055 -11.347  1.00  0.00     0.012 C 
ATOM     12  C   UNL     1      -9.481   0.132 -10.622  1.00  0.00     0.012 C 
ENDBRANCH   5  10
TORSDOF 2
ENDMDL
MODEL 9
REMARK VINA RESULT:    -4.708      1.500      2.769
REMARK INTER + INTRA:          -5.233
REMARK INTER:                  -5.111
REMARK INTRA:                  -0.122
REMARK UNBOUND:                -0.112
REMARK SMILES Cc1ccc(C(C)C)cc1O
REMARK SMILES IDX 1 1 2 2 10 3 9 4 5 5 4 6 3 7 11 8 6 10 7 11 8 12
REMARK H PARENT 11 9
REMARK Flexibility Score: inf
ROOT
ATOM      1  C   UNL     1      -7.941  -1.116  -6.391  1.00  0.00     0.048 C 
ATOM      2  C   UNL     1      -8.652  -1.820  -7.514  1.00  0.00    -0.009 A 
ATOM      3  C   UNL     1      -8.880  -1.179  -8.752  1.00  0.00     0.118 A 
ATOM      4  C   UNL     1      -9.545  -1.861  -9.778  1.00  0.00     0.050 A 
ATOM      5  C   UNL     1      -9.993  -3.180  -9.595  1.00  0.00    -0.042 A 
ATOM      6  C   UNL     1      -9.763  -3.812  -8.361  1.00  0.00     0.004 A 
ATOM      7  C   UNL     1      -9.100  -3.137  -7.333  1.00  0.00     0.007 A 
ENDROOT
BRANCH   3   8
ATOM      8  O   UNL     1      -8.460   0.131  -8.995  1.00  0.00    -0.508 OA
ATOM      9  H   UNL     1      -8.208   0.466  -9.917  1.00  0.00     0.293 HD
ENDBRANCH   3   8
BRANCH   5  10
ATOM     10  C   UNL     1     -10.712  -3.901 -10.722  1.00  0.00     0.013 C 
ATOM     11  C   UNL     1     -10.144  -5.310 -10.927  1.00  0.00     0.012 C 
ATOM     12  C   UNL     1     -10.656  -3.088 -12.021  1.00  0.00     0.012 C 
ENDBRANCH   5  10
TORSDOF 2
ENDMDL
