MODEL 1
REMARK VINA RESULT:    -4.626      0.000      0.000
REMARK INTER + INTRA:          -9.784
REMARK INTER:                  -8.142
REMARK INTRA:                  -1.642
REMARK UNBOUND:                -1.642
REMARK SMILES CCCCCCCCCCCCCCC(=O)[O-]
REMARK SMILES IDX 9 1 10 2 11 3 12 4 13 5 14 6 15 7 16 8 17 9 8 10 7 11 6 12
REMARK SMILES IDX 5 13 4 14 3 15 2 16 1 17
REMARK H PARENT
REMARK Flexibility Score: inf
ROOT
ATOM      1  C   UNL     1     -18.172  -2.183  33.569  1.00  0.00     0.000 C 
ENDROOT
BRANCH   1   2
ATOM      2  C   UNL     1     -17.397  -1.130  34.389  1.00  0.00     0.000 C 
BRANCH   2   3
ATOM      3  C   UNL     1     -17.076  -1.582  35.824  1.00  0.00     0.000 C 
BRANCH   3   4
ATOM      4  C   UNL     1     -17.626  -0.620  36.889  1.00  0.00     0.000 C 
BRANCH   4   5
ATOM      5  C   UNL     1     -18.424   0.553  36.289  1.00  0.00     0.006 C 
BRANCH   5   6
ATOM      6  C   UNL     1     -17.880   1.939  36.676  1.00  0.00     0.053 C 
BRANCH   6   7
ATOM      7  C   UNL     1     -18.071   2.247  38.130  1.00  0.00     0.041 C 
ATOM      8  O   UNL     1     -19.218   2.179  38.646  1.00  0.00    -0.550 OA
ATOM      9  O   UNL     1     -16.978   2.573  38.925  1.00  0.00    -0.550 OA
ENDBRANCH   6   7
ENDBRANCH   5   6
ENDBRANCH   4   5
ENDBRANCH   3   4
ENDBRANCH   2   3
ENDBRANCH   1   2
BRANCH   1  10
ATOM     10  C   UNL     1     -17.986  -1.992  32.054  1.00  0.00     0.000 C 
BRANCH  10  11
ATOM     11  C   UNL     1     -16.513  -1.828  31.650  1.00  0.00    -0.000 C 
BRANCH  11  12
ATOM     12  C   UNL     1     -15.853  -3.163  31.263  1.00  0.00    -0.000 C 
BRANCH  12  13
ATOM     13  C   UNL     1     -14.739  -3.576  32.238  1.00  0.00    -0.000 C 
BRANCH  13  14
ATOM     14  C   UNL     1     -15.232  -4.540  33.328  1.00  0.00    -0.000 C 
BRANCH  14  15
ATOM     15  C   UNL     1     -14.688  -4.137  34.703  1.00  0.00    -0.000 C 
BRANCH  15  16
ATOM     16  C   UNL     1     -13.915  -2.815  34.624  1.00  0.00    -0.003 C 
ATOM     17  C   UNL     1     -12.992  -2.643  35.827  1.00  0.00     0.004 C 
ENDBRANCH  15  16
ENDBRANCH  14  15
ENDBRANCH  13  14
ENDBRANCH  12  13
ENDBRANCH  11  12
ENDBRANCH  10  11
ENDBRANCH   1  10
TORSDOF 13
ENDMDL
MODEL 2
REMARK VINA RESULT:    -4.578      0.986      3.558
REMARK INTER + INTRA:          -9.700
REMARK INTER:                  -8.387
REMARK INTRA:                  -1.313
REMARK UNBOUND:                -1.642
REMARK SMILES CCCCCCCCCCCCCCC(=O)[O-]
REMARK SMILES IDX 9 1 10 2 11 3 12 4 13 5 14 6 15 7 16 8 17 9 8 10 7 11 6 12
REMARK SMILES IDX 5 13 4 14 3 15 2 16 1 17
REMARK H PARENT
REMARK Flexibility Score: inf
ROOT
ATOM      1  C   UNL     1     -14.524  -2.671  35.430  1.00  0.00     0.000 C 
ENDROOT
BRANCH   1   2
ATOM      2  C   UNL     1     -15.988  -3.016  35.777  1.00  0.00     0.000 C 
BRANCH   2   3
ATOM      3  C   UNL     1     -16.762  -1.847  36.410  1.00  0.00     0.000 C 
BRANCH   3   4
ATOM      4  C   UNL     1     -17.207  -0.799  35.378  1.00  0.00     0.000 C 
BRANCH   4   5
ATOM      5  C   UNL     1     -18.212   0.220  35.948  1.00  0.00     0.006 C 
BRANCH   5   6
ATOM      6  C   UNL     1     -17.570   1.539  36.412  1.00  0.00     0.053 C 
BRANCH   6   7
ATOM      7  C   UNL     1     -17.954   1.903  37.814  1.00  0.00     0.041 C 
ATOM      8  O   UNL     1     -17.170   2.580  38.530  1.00  0.00    -0.550 OA
ATOM      9  O   UNL     1     -19.193   1.525  38.320  1.00  0.00    -0.550 OA
ENDBRANCH   6   7
ENDBRANCH   5   6
ENDBRANCH   4   5
ENDBRANCH   3   4
ENDBRANCH   2   3
ENDBRANCH   1   2
BRANCH   1  10
ATOM     10  C   UNL     1     -13.846  -3.777  34.603  1.00  0.00     0.000 C 
BRANCH  10  11
ATOM     11  C   UNL     1     -13.913  -3.515  33.090  1.00  0.00    -0.000 C 
BRANCH  11  12
ATOM     12  C   UNL     1     -15.009  -4.340  32.394  1.00  0.00    -0.000 C 
BRANCH  12  13
ATOM     13  C   UNL     1     -15.931  -3.476  31.518  1.00  0.00    -0.000 C 
BRANCH  13  14
ATOM     14  C   UNL     1     -16.216  -2.098  32.136  1.00  0.00    -0.000 C 
BRANCH  14  15
ATOM     15  C   UNL     1     -17.495  -1.488  31.549  1.00  0.00    -0.000 C 
BRANCH  15  16
ATOM     16  C   UNL     1     -18.743  -2.077  32.218  1.00  0.00    -0.003 C 
ATOM     17  C   UNL     1     -19.973  -1.914  31.330  1.00  0.00     0.004 C 
ENDBRANCH  15  16
ENDBRANCH  14  15
ENDBRANCH  13  14
ENDBRANCH  12  13
ENDBRANCH  11  12
ENDBRANCH  10  11
ENDBRANCH   1  10
TORSDOF 13
ENDMDL
MODEL 3
REMARK VINA RESULT:    -4.491      1.677      3.987
REMARK INTER + INTRA:          -9.546
REMARK INTER:                  -7.888
REMARK INTRA:                  -1.658
REMARK UNBOUND:                -1.642
REMARK SMILES CCCCCCCCCCCCCCC(=O)[O-]
REMARK SMILES IDX 9 1 10 2 11 3 12 4 13 5 14 6 15 7 16 8 17 9 8 10 7 11 6 12
REMARK SMILES IDX 5 13 4 14 3 15 2 16 1 17
REMARK H PARENT
REMARK Flexibility Score: inf
ROOT
ATOM      1  C   UNL     1     -13.471  -4.539  34.060  1.00  0.00     0.000 C 
ENDROOT
BRANCH   1   2
ATOM      2  C   UNL     1     -13.836  -3.044  34.175  1.00  0.00     0.000 C 
BRANCH   2   3
ATOM      3  C   UNL     1     -14.523  -2.679  35.501  1.00  0.00     0.000 C 
BRANCH   3   4
ATOM      4  C   UNL     1     -16.054  -2.793  35.430  1.00  0.00     0.000 C 
BRANCH   4   5
ATOM      5  C   UNL     1     -16.779  -1.731  36.278  1.00  0.00     0.006 C 
BRANCH   5   6
ATOM      6  C   UNL     1     -17.451  -0.622  35.449  1.00  0.00     0.053 C 
BRANCH   6   7
ATOM      7  C   UNL     1     -17.936   0.515  36.296  1.00  0.00     0.041 C 
ATOM      8  O   UNL     1     -17.694   1.704  35.958  1.00  0.00    -0.550 OA
ATOM      9  O   UNL     1     -18.685   0.265  37.439  1.00  0.00    -0.550 OA
ENDBRANCH   6   7
ENDBRANCH   5   6
ENDBRANCH   4   5
ENDBRANCH   3   4
ENDBRANCH   2   3
ENDBRANCH   1   2
BRANCH   1  10
ATOM     10  C   UNL     1     -13.276  -4.980  32.598  1.00  0.00     0.000 C 
BRANCH  10  11
ATOM     11  C   UNL     1     -14.319  -6.013  32.143  1.00  0.00    -0.000 C 
BRANCH  11  12
ATOM     12  C   UNL     1     -15.558  -5.361  31.505  1.00  0.00    -0.000 C 
BRANCH  12  13
ATOM     13  C   UNL     1     -16.779  -5.373  32.440  1.00  0.00    -0.000 C 
BRANCH  13  14
ATOM     14  C   UNL     1     -17.516  -4.025  32.469  1.00  0.00    -0.000 C 
BRANCH  14  15
ATOM     15  C   UNL     1     -16.697  -2.937  31.765  1.00  0.00    -0.000 C 
BRANCH  15  16
ATOM     16  C   UNL     1     -17.556  -1.699  31.478  1.00  0.00    -0.003 C 
ATOM     17  C   UNL     1     -19.043  -2.021  31.592  1.00  0.00     0.004 C 
ENDBRANCH  15  16
ENDBRANCH  14  15
ENDBRANCH  13  14
ENDBRANCH  12  13
ENDBRANCH  11  12
ENDBRANCH  10  11
ENDBRANCH   1  10
TORSDOF 13
ENDMDL
MODEL 4
REMARK VINA RESULT:    -4.452      1.738      3.530
REMARK INTER + INTRA:          -9.478
REMARK INTER:                  -7.574
REMARK INTRA:                  -1.904
REMARK UNBOUND:                -1.642
REMARK SMILES CCCCCCCCCCCCCCC(=O)[O-]
REMARK SMILES IDX 9 1 10 2 11 3 12 4 13 5 14 6 15 7 16 8 17 9 8 10 7 11 6 12
REMARK SMILES IDX 5 13 4 14 3 15 2 16 1 17
REMARK H PARENT
REMARK Flexibility Score: inf
ROOT
ATOM      1  C   UNL     1     -14.700  -4.912  35.229  1.00  0.00     0.000 C 
ENDROOT
BRANCH   1   2
ATOM      2  C   UNL     1     -16.002  -4.224  35.692  1.00  0.00     0.000 C 
BRANCH   2   3
ATOM      3  C   UNL     1     -15.792  -2.787  36.197  1.00  0.00     0.000 C 
BRANCH   3   4
ATOM      4  C   UNL     1     -16.486  -2.520  37.541  1.00  0.00     0.000 C 
BRANCH   4   5
ATOM      5  C   UNL     1     -17.475  -1.341  37.486  1.00  0.00     0.006 C 
BRANCH   5   6
ATOM      6  C   UNL     1     -17.470  -0.583  36.147  1.00  0.00     0.053 C 
BRANCH   6   7
ATOM      7  C   UNL     1     -18.165   0.741  36.233  1.00  0.00     0.041 C 
ATOM      8  O   UNL     1     -19.342   0.811  36.676  1.00  0.00    -0.550 OA
ATOM      9  O   UNL     1     -17.503   1.905  35.859  1.00  0.00    -0.550 OA
ENDBRANCH   6   7
ENDBRANCH   5   6
ENDBRANCH   4   5
ENDBRANCH   3   4
ENDBRANCH   2   3
ENDBRANCH   1   2
BRANCH   1  10
ATOM     10  C   UNL     1     -13.649  -3.900  34.739  1.00  0.00     0.000 C 
BRANCH  10  11
ATOM     11  C   UNL     1     -13.597  -3.791  33.207  1.00  0.00    -0.000 C 
BRANCH  11  12
ATOM     12  C   UNL     1     -13.943  -2.379  32.703  1.00  0.00    -0.000 C 
BRANCH  12  13
ATOM     13  C   UNL     1     -15.458  -2.153  32.574  1.00  0.00    -0.000 C 
BRANCH  13  14
ATOM     14  C   UNL     1     -16.131  -3.163  31.632  1.00  0.00    -0.000 C 
BRANCH  14  15
ATOM     15  C   UNL     1     -17.389  -3.759  32.275  1.00  0.00    -0.000 C 
BRANCH  15  16
ATOM     16  C   UNL     1     -17.272  -5.282  32.408  1.00  0.00    -0.003 C 
ATOM     17  C   UNL     1     -16.158  -5.829  31.522  1.00  0.00     0.004 C 
ENDBRANCH  15  16
ENDBRANCH  14  15
ENDBRANCH  13  14
ENDBRANCH  12  13
ENDBRANCH  11  12
ENDBRANCH  10  11
ENDBRANCH   1  10
TORSDOF 13
ENDMDL
MODEL 5
REMARK VINA RESULT:    -4.421      2.878      6.225
REMARK INTER + INTRA:          -9.424
REMARK INTER:                  -8.269
REMARK INTRA:                  -1.154
REMARK UNBOUND:                -1.642
REMARK SMILES CCCCCCCCCCCCCCC(=O)[O-]
REMARK SMILES IDX 9 1 10 2 11 3 12 4 13 5 14 6 15 7 16 8 17 9 8 10 7 11 6 12
REMARK SMILES IDX 5 13 4 14 3 15 2 16 1 17
REMARK H PARENT
REMARK Flexibility Score: inf
ROOT
ATOM      1  C   UNL     1     -13.934  -2.666  34.870  1.00  0.00     0.000 C 
ENDROOT
BRANCH   1   2
ATOM      2  C   UNL     1     -13.535  -3.638  33.739  1.00  0.00     0.000 C 
BRANCH   2   3
ATOM      3  C   UNL     1     -14.041  -3.209  32.352  1.00  0.00     0.000 C 
BRANCH   3   4
ATOM      4  C   UNL     1     -15.248  -2.261  32.425  1.00  0.00     0.000 C 
BRANCH   4   5
ATOM      5  C   UNL     1     -16.544  -2.889  31.879  1.00  0.00     0.006 C 
BRANCH   5   6
ATOM      6  C   UNL     1     -17.520  -1.871  31.264  1.00  0.00     0.053 C 
BRANCH   6   7
ATOM      7  C   UNL     1     -18.878  -1.922  31.897  1.00  0.00     0.041 C 
ATOM      8  O   UNL     1     -18.992  -1.915  33.151  1.00  0.00    -0.550 OA
ATOM      9  O   UNL     1     -20.019  -1.941  31.104  1.00  0.00    -0.550 OA
ENDBRANCH   6   7
ENDBRANCH   5   6
ENDBRANCH   4   5
ENDBRANCH   3   4
ENDBRANCH   2   3
ENDBRANCH   1   2
BRANCH   1  10
ATOM     10  C   UNL     1     -14.231  -3.400  36.190  1.00  0.00     0.000 C 
BRANCH  10  11
ATOM     11  C   UNL     1     -15.621  -3.070  36.755  1.00  0.00    -0.000 C 
BRANCH  11  12
ATOM     12  C   UNL     1     -16.454  -2.192  35.805  1.00  0.00    -0.000 C 
BRANCH  12  13
ATOM     13  C   UNL     1     -17.277  -1.130  36.551  1.00  0.00    -0.000 C 
BRANCH  13  14
ATOM     14  C   UNL     1     -17.734   0.017  35.636  1.00  0.00    -0.000 C 
BRANCH  14  15
ATOM     15  C   UNL     1     -18.883   0.805  36.277  1.00  0.00    -0.000 C 
BRANCH  15  16
ATOM     16  C   UNL     1     -18.665   0.968  37.786  1.00  0.00    -0.003 C 
ATOM     17  C   UNL     1     -17.917   2.260  38.099  1.00  0.00     0.004 C 
ENDBRANCH  15  16
ENDBRANCH  14  15
ENDBRANCH  13  14
ENDBRANCH  12  13
ENDBRANCH  11  12
ENDBRANCH  10  11
ENDBRANCH   1  10
TORSDOF 13
ENDMDL
MODEL 6
REMARK VINA RESULT:    -4.387      1.732      3.585
REMARK INTER + INTRA:          -9.362
REMARK INTER:                  -7.275
REMARK INTRA:                  -2.087
REMARK UNBOUND:                -1.642
REMARK SMILES CCCCCCCCCCCCCCC(=O)[O-]
REMARK SMILES IDX 9 1 10 2 11 3 12 4 13 5 14 6 15 7 16 8 17 9 8 10 7 11 6 12
REMARK SMILES IDX 5 13 4 14 3 15 2 16 1 17
REMARK H PARENT
REMARK Flexibility Score: inf
ROOT
ATOM      1  C   UNL     1     -15.270  -3.024  31.143  1.00  0.00     0.000 C 
ENDROOT
BRANCH   1   2
ATOM      2  C   UNL     1     -16.701  -2.660  31.593  1.00  0.00     0.000 C 
BRANCH   2   3
ATOM      3  C   UNL     1     -16.747  -1.575  32.681  1.00  0.00     0.000 C 
BRANCH   3   4
ATOM      4  C   UNL     1     -17.749  -1.895  33.802  1.00  0.00     0.000 C 
BRANCH   4   5
ATOM      5  C   UNL     1     -17.231  -1.516  35.201  1.00  0.00     0.006 C 
BRANCH   5   6
ATOM      6  C   UNL     1     -17.739  -0.154  35.707  1.00  0.00     0.053 C 
BRANCH   6   7
ATOM      7  C   UNL     1     -18.013  -0.154  37.180  1.00  0.00     0.041 C 
ATOM      8  O   UNL     1     -18.911   0.589  37.657  1.00  0.00    -0.550 OA
ATOM      9  O   UNL     1     -17.300  -0.998  38.024  1.00  0.00    -0.550 OA
ENDBRANCH   6   7
ENDBRANCH   5   6
ENDBRANCH   4   5
ENDBRANCH   3   4
ENDBRANCH   2   3
ENDBRANCH   1   2
BRANCH   1  10
ATOM     10  C   UNL     1     -14.252  -2.908  32.291  1.00  0.00     0.000 C 
BRANCH  10  11
ATOM     11  C   UNL     1     -13.409  -4.180  32.471  1.00  0.00    -0.000 C 
BRANCH  11  12
ATOM     12  C   UNL     1     -13.688  -4.890  33.808  1.00  0.00    -0.000 C 
BRANCH  12  13
ATOM     13  C   UNL     1     -14.896  -4.297  34.551  1.00  0.00    -0.000 C 
BRANCH  13  14
ATOM     14  C   UNL     1     -16.117  -5.229  34.537  1.00  0.00    -0.000 C 
BRANCH  14  15
ATOM     15  C   UNL     1     -15.905  -6.395  33.564  1.00  0.00    -0.000 C 
BRANCH  15  16
ATOM     16  C   UNL     1     -16.805  -6.254  32.330  1.00  0.00    -0.003 C 
ATOM     17  C   UNL     1     -16.081  -6.708  31.066  1.00  0.00     0.004 C 
ENDBRANCH  15  16
ENDBRANCH  14  15
ENDBRANCH  13  14
ENDBRANCH  12  13
ENDBRANCH  11  12
ENDBRANCH  10  11
ENDBRANCH   1  10
TORSDOF 13
ENDMDL
MODEL 7
REMARK VINA RESULT:    -4.374     12.420     14.941
REMARK INTER + INTRA:          -9.341
REMARK INTER:                  -7.450
REMARK INTRA:                  -1.890
REMARK UNBOUND:                -1.642
REMARK SMILES CCCCCCCCCCCCCCC(=O)[O-]
REMARK SMILES IDX 9 1 10 2 11 3 12 4 13 5 14 6 15 7 16 8 17 9 8 10 7 11 6 12
REMARK SMILES IDX 5 13 4 14 3 15 2 16 1 17
REMARK H PARENT
REMARK Flexibility Score: inf
ROOT
ATOM      1  C   UNL     1     -25.952  -3.294  24.056  1.00  0.00     0.000 C 
ENDROOT
BRANCH   1   2
ATOM      2  C   UNL     1     -26.621  -2.291  23.092  1.00  0.00     0.000 C 
BRANCH   2   3
ATOM      3  C   UNL     1     -25.718  -1.105  22.714  1.00  0.00     0.000 C 
BRANCH   3   4
ATOM      4  C   UNL     1     -24.973  -0.515  23.922  1.00  0.00     0.000 C 
BRANCH   4   5
ATOM      5  C   UNL     1     -23.539  -0.064  23.585  1.00  0.00     0.006 C 
BRANCH   5   6
ATOM      6  C   UNL     1     -23.327   1.457  23.675  1.00  0.00     0.053 C 
BRANCH   6   7
ATOM      7  C   UNL     1     -22.752   2.032  22.416  1.00  0.00     0.041 C 
ATOM      8  O   UNL     1     -21.579   1.737  22.063  1.00  0.00    -0.550 OA
ATOM      9  O   UNL     1     -23.520   2.867  21.614  1.00  0.00    -0.550 OA
ENDBRANCH   6   7
ENDBRANCH   5   6
ENDBRANCH   4   5
ENDBRANCH   3   4
ENDBRANCH   2   3
ENDBRANCH   1   2
BRANCH   1  10
ATOM     10  C   UNL     1     -26.965  -4.281  24.663  1.00  0.00     0.000 C 
BRANCH  10  11
ATOM     11  C   UNL     1     -28.423  -3.896  24.367  1.00  0.00    -0.000 C 
BRANCH  11  12
ATOM     12  C   UNL     1     -29.307  -3.920  25.626  1.00  0.00    -0.000 C 
BRANCH  12  13
ATOM     13  C   UNL     1     -28.796  -2.975  26.725  1.00  0.00    -0.000 C 
BRANCH  13  14
ATOM     14  C   UNL     1     -28.637  -1.527  26.236  1.00  0.00    -0.000 C 
BRANCH  14  15
ATOM     15  C   UNL     1     -27.276  -0.954  26.652  1.00  0.00    -0.000 C 
BRANCH  15  16
ATOM     16  C   UNL     1     -26.536  -1.917  27.588  1.00  0.00    -0.003 C 
ATOM     17  C   UNL     1     -25.029  -1.863  27.355  1.00  0.00     0.004 C 
ENDBRANCH  15  16
ENDBRANCH  14  15
ENDBRANCH  13  14
ENDBRANCH  12  13
ENDBRANCH  11  12
ENDBRANCH  10  11
ENDBRANCH   1  10
TORSDOF 13
ENDMDL
MODEL 8
REMARK VINA RESULT:    -4.369      1.572      3.046
REMARK INTER + INTRA:          -9.332
REMARK INTER:                  -7.457
REMARK INTRA:                  -1.875
REMARK UNBOUND:                -1.642
REMARK SMILES CCCCCCCCCCCCCCC(=O)[O-]
REMARK SMILES IDX 9 1 10 2 11 3 12 4 13 5 14 6 15 7 16 8 17 9 8 10 7 11 6 12
REMARK SMILES IDX 5 13 4 14 3 15 2 16 1 17
REMARK H PARENT
REMARK Flexibility Score: inf
ROOT
ATOM      1  C   UNL     1     -15.662  -3.068  31.298  1.00  0.00     0.000 C 
ENDROOT
BRANCH   1   2
ATOM      2  C   UNL     1     -17.001  -3.384  31.997  1.00  0.00     0.000 C 
BRANCH   2   3
ATOM      3  C   UNL     1     -17.910  -2.156  32.171  1.00  0.00     0.000 C 
BRANCH   3   4
ATOM      4  C   UNL     1     -18.270  -1.885  33.640  1.00  0.00     0.000 C 
BRANCH   4   5
ATOM      5  C   UNL     1     -17.230  -1.012  34.366  1.00  0.00     0.006 C 
BRANCH   5   6
ATOM      6  C   UNL     1     -17.571  -0.729  35.839  1.00  0.00     0.053 C 
BRANCH   6   7
ATOM      7  C   UNL     1     -18.126   0.647  36.046  1.00  0.00     0.041 C 
ATOM      8  O   UNL     1     -19.357   0.807  36.262  1.00  0.00    -0.550 OA
ATOM      9  O   UNL     1     -17.282   1.751  36.036  1.00  0.00    -0.550 OA
ENDBRANCH   6   7
ENDBRANCH   5   6
ENDBRANCH   4   5
ENDBRANCH   3   4
ENDBRANCH   2   3
ENDBRANCH   1   2
BRANCH   1  10
ATOM     10  C   UNL     1     -14.589  -2.582  32.289  1.00  0.00     0.000 C 
BRANCH  10  11
ATOM     11  C   UNL     1     -13.285  -3.390  32.199  1.00  0.00    -0.000 C 
BRANCH  11  12
ATOM     12  C   UNL     1     -13.484  -4.875  32.547  1.00  0.00    -0.000 C 
BRANCH  12  13
ATOM     13  C   UNL     1     -12.670  -5.307  33.778  1.00  0.00    -0.000 C 
BRANCH  13  14
ATOM     14  C   UNL     1     -13.518  -5.371  35.057  1.00  0.00    -0.000 C 
BRANCH  14  15
ATOM     15  C   UNL     1     -13.461  -4.042  35.819  1.00  0.00    -0.000 C 
BRANCH  15  16
ATOM     16  C   UNL     1     -14.824  -3.338  35.803  1.00  0.00    -0.003 C 
ATOM     17  C   UNL     1     -15.943  -4.311  35.448  1.00  0.00     0.004 C 
ENDBRANCH  15  16
ENDBRANCH  14  15
ENDBRANCH  13  14
ENDBRANCH  12  13
ENDBRANCH  11  12
ENDBRANCH  10  11
ENDBRANCH   1  10
TORSDOF 13
ENDMDL
MODEL 9
REMARK VINA RESULT:    -4.345      1.764      3.159
REMARK INTER + INTRA:          -9.290
REMARK INTER:                  -7.484
REMARK INTRA:                  -1.806
REMARK UNBOUND:                -1.642
REMARK SMILES CCCCCCCCCCCCCCC(=O)[O-]
REMARK SMILES IDX 9 1 10 2 11 3 12 4 13 5 14 6 15 7 16 8 17 9 8 10 7 11 6 12
REMARK SMILES IDX 5 13 4 14 3 15 2 16 1 17
REMARK H PARENT
REMARK Flexibility Score: inf
ROOT
ATOM      1  C   UNL     1     -17.113  -3.845  31.759  1.00  0.00     0.000 C 
ENDROOT
BRANCH   1   2
ATOM      2  C   UNL     1     -17.286  -2.357  31.384  1.00  0.00     0.000 C 
BRANCH   2   3
ATOM      3  C   UNL     1     -18.421  -1.658  32.151  1.00  0.00     0.000 C 
BRANCH   3   4
ATOM      4  C   UNL     1     -18.359  -1.909  33.666  1.00  0.00     0.000 C 
BRANCH   4   5
ATOM      5  C   UNL     1     -17.253  -1.099  34.368  1.00  0.00     0.006 C 
BRANCH   5   6
ATOM      6  C   UNL     1     -17.396  -1.042  35.899  1.00  0.00     0.053 C 
BRANCH   6   7
ATOM      7  C   UNL     1     -18.012   0.240  36.371  1.00  0.00     0.041 C 
ATOM      8  O   UNL     1     -18.912   0.223  37.252  1.00  0.00    -0.550 OA
ATOM      9  O   UNL     1     -17.569   1.456  35.866  1.00  0.00    -0.550 OA
ENDBRANCH   6   7
ENDBRANCH   5   6
ENDBRANCH   4   5
ENDBRANCH   3   4
ENDBRANCH   2   3
ENDBRANCH   1   2
BRANCH   1  10
ATOM     10  C   UNL     1     -15.658  -4.187  32.125  1.00  0.00     0.000 C 
BRANCH  10  11
ATOM     11  C   UNL     1     -14.688  -3.025  31.860  1.00  0.00    -0.000 C 
BRANCH  11  12
ATOM     12  C   UNL     1     -13.800  -2.706  33.075  1.00  0.00    -0.000 C 
BRANCH  12  13
ATOM     13  C   UNL     1     -14.316  -3.354  34.370  1.00  0.00    -0.000 C 
BRANCH  13  14
ATOM     14  C   UNL     1     -13.223  -4.129  35.123  1.00  0.00    -0.000 C 
BRANCH  14  15
ATOM     15  C   UNL     1     -12.344  -4.921  34.148  1.00  0.00    -0.000 C 
BRANCH  15  16
ATOM     16  C   UNL     1     -12.909  -6.328  33.914  1.00  0.00    -0.003 C 
ATOM     17  C   UNL     1     -13.059  -6.621  32.425  1.00  0.00     0.004 C 
ENDBRANCH  15  16
ENDBRANCH  14  15
ENDBRANCH  13  14
ENDBRANCH  12  13
ENDBRANCH  11  12
ENDBRANCH  10  11
ENDBRANCH   1  10
TORSDOF 13
ENDMDL
