MODEL 1
REMARK VINA RESULT:     5.111      0.000      0.000
REMARK INTER + INTRA:           5.733
REMARK INTER:                   5.858
REMARK INTRA:                  -0.125
REMARK UNBOUND:                -0.125
REMARK SMILES COc1ccc(C(C)=O)cc1O
REMARK SMILES IDX 6 1 10 2 11 3 3 4 4 5 5 6 7 7 8 8 9 9 12 10 2 12 1 13
REMARK H PARENT 12 11
REMARK Flexibility Score: inf
ROOT
ATOM      1  C   UNL     1      34.961  13.173  42.244  1.00  0.00     0.021 A 
ATOM      2  C   UNL     1      33.813  12.508  42.717  1.00  0.00     0.062 A 
ATOM      3  C   UNL     1      33.158  11.557  41.922  1.00  0.00     0.158 A 
ATOM      4  C   UNL     1      33.638  11.255  40.642  1.00  0.00     0.160 A 
ATOM      5  C   UNL     1      34.784  11.917  40.164  1.00  0.00     0.051 A 
ATOM      6  C   UNL     1      35.437  12.864  40.957  1.00  0.00     0.016 A 
ENDROOT
BRANCH   1   7
ATOM      7  C   UNL     1      35.668  14.184  43.075  1.00  0.00     0.159 C 
ATOM      8  C   UNL     1      37.116  14.040  43.441  1.00  0.00     0.093 C 
ATOM      9  O   UNL     1      35.044  15.199  43.492  1.00  0.00    -0.295 OA
ENDBRANCH   1   7
BRANCH   3  10
ATOM     10  O   UNL     1      32.023  10.905  42.401  1.00  0.00    -0.504 OA
ATOM     11  H   UNL     1      31.785  10.907  43.385  1.00  0.00     0.293 HD
ENDBRANCH   3  10
BRANCH   4  12
ATOM     12  O   UNL     1      32.954  10.297  39.877  1.00  0.00    -0.493 OA
ATOM     13  C   UNL     1      33.458   9.001  39.570  1.00  0.00     0.278 C 
ENDBRANCH   4  12
TORSDOF 3
ENDMDL
MODEL 2
REMARK VINA RESULT:     6.662      0.946      1.734
REMARK INTER + INTRA:           7.511
REMARK INTER:                   7.619
REMARK INTRA:                  -0.109
REMARK UNBOUND:                -0.125
REMARK SMILES COc1ccc(C(C)=O)cc1O
REMARK SMILES IDX 6 1 10 2 11 3 3 4 4 5 5 6 7 7 8 8 9 9 12 10 2 12 1 13
REMARK H PARENT 12 11
REMARK Flexibility Score: inf
ROOT
ATOM      1  C   UNL     1      34.896  13.175  42.342  1.00  0.00     0.021 A 
ATOM      2  C   UNL     1      34.483  13.349  41.007  1.00  0.00     0.062 A 
ATOM      3  C   UNL     1      33.759  12.348  40.344  1.00  0.00     0.158 A 
ATOM      4  C   UNL     1      33.436  11.155  41.005  1.00  0.00     0.160 A 
ATOM      5  C   UNL     1      33.847  10.975  42.338  1.00  0.00     0.051 A 
ATOM      6  C   UNL     1      34.567  11.974  42.998  1.00  0.00     0.016 A 
ENDROOT
BRANCH   1   7
ATOM      7  C   UNL     1      35.664  14.228  43.059  1.00  0.00     0.159 C 
ATOM      8  C   UNL     1      37.125  14.074  43.366  1.00  0.00     0.093 C 
ATOM      9  O   UNL     1      35.084  15.286  43.426  1.00  0.00    -0.295 OA
ENDBRANCH   1   7
BRANCH   3  10
ATOM     10  O   UNL     1      33.355  12.531  39.023  1.00  0.00    -0.504 OA
ATOM     11  H   UNL     1      33.429  13.432  38.565  1.00  0.00     0.293 HD
ENDBRANCH   3  10
BRANCH   4  12
ATOM     12  O   UNL     1      32.710  10.177  40.307  1.00  0.00    -0.493 OA
ATOM     13  C   UNL     1      33.297   9.092  39.595  1.00  0.00     0.278 C 
ENDBRANCH   4  12
TORSDOF 3
ENDMDL
MODEL 3
REMARK VINA RESULT:     7.523      1.352      4.960
REMARK INTER + INTRA:           8.498
REMARK INTER:                   8.606
REMARK INTRA:                  -0.108
REMARK UNBOUND:                -0.125
REMARK SMILES COc1ccc(C(C)=O)cc1O
REMARK SMILES IDX 6 1 10 2 11 3 3 4 4 5 5 6 7 7 8 8 9 9 12 10 2 12 1 13
REMARK H PARENT 12 11
REMARK Flexibility Score: inf
ROOT
ATOM      1  C   UNL     1      33.670  10.915  40.710  1.00  0.00     0.021 A 
ATOM      2  C   UNL     1      33.898  12.132  40.038  1.00  0.00     0.062 A 
ATOM      3  C   UNL     1      34.411  13.243  40.722  1.00  0.00     0.158 A 
ATOM      4  C   UNL     1      34.704  13.157  42.089  1.00  0.00     0.160 A 
ATOM      5  C   UNL     1      34.478  11.945  42.766  1.00  0.00     0.051 A 
ATOM      6  C   UNL     1      33.967  10.838  42.083  1.00  0.00     0.016 A 
ENDROOT
BRANCH   1   7
ATOM      7  C   UNL     1      33.127   9.727  39.999  1.00  0.00     0.159 C 
ATOM      8  C   UNL     1      34.015   8.765  39.266  1.00  0.00     0.093 C 
ATOM      9  O   UNL     1      31.884   9.509  40.003  1.00  0.00    -0.295 OA
ENDBRANCH   1   7
BRANCH   3  10
ATOM     10  O   UNL     1      34.632  14.441  40.046  1.00  0.00    -0.504 OA
ATOM     11  H   UNL     1      34.204  14.632  39.148  1.00  0.00     0.293 HD
ENDBRANCH   3  10
BRANCH   4  12
ATOM     12  O   UNL     1      35.216  14.292  42.738  1.00  0.00    -0.493 OA
ATOM     13  C   UNL     1      36.426  14.313  43.489  1.00  0.00     0.278 C 
ENDBRANCH   4  12
TORSDOF 3
ENDMDL
