MODEL 1
REMARK VINA RESULT:     3.471      0.000      0.000
REMARK INTER + INTRA:           3.751
REMARK INTER:                   3.775
REMARK INTRA:                  -0.024
REMARK UNBOUND:                -0.024
REMARK SMILES CC1(C)[C@H]2CC=C(CO)[C@@H]1C2
REMARK SMILES IDX 8 1 7 2 1 3 2 4 4 5 3 6 10 7 5 8 11 9 6 10 9 11
REMARK H PARENT 9 12
REMARK Flexibility Score: inf
ROOT
ATOM      1  C   UNL     1     -23.421   6.905 -49.582  1.00  0.00     0.187 C 
ENDROOT
BRANCH   1   2
ATOM      2  C   UNL     1     -22.693   7.141 -48.291  1.00  0.00    -0.045 C 
ATOM      3  C   UNL     1     -22.387   4.960 -45.072  1.00  0.00     0.012 C 
ATOM      4  C   UNL     1     -21.954   5.886 -46.238  1.00  0.00    -0.026 C 
ATOM      5  C   UNL     1     -21.642   7.330 -45.756  1.00  0.00    -0.000 C 
ATOM      6  C   UNL     1     -20.886   5.137 -47.083  1.00  0.00     0.012 C 
ATOM      7  C   UNL     1     -23.167   6.515 -46.971  1.00  0.00     0.023 C 
ATOM      8  C   UNL     1     -20.880   8.124 -46.871  1.00  0.00     0.031 C 
ATOM      9  C   UNL     1     -23.136   7.668 -45.948  1.00  0.00     0.013 C 
ATOM     10  C   UNL     1     -21.591   7.946 -48.228  1.00  0.00    -0.025 C 
ENDBRANCH   1   2
BRANCH   1  11
ATOM     11  O   UNL     1     -23.611   8.125 -50.242  1.00  0.00    -0.392 OA
ATOM     12  H   UNL     1     -24.146   7.920 -51.052  1.00  0.00     0.211 HD
ENDBRANCH   1  11
TORSDOF 2
ENDMDL
MODEL 2
REMARK VINA RESULT:     5.261      9.319     10.622
REMARK INTER + INTRA:           5.698
REMARK INTER:                   5.721
REMARK INTRA:                  -0.023
REMARK UNBOUND:                -0.024
REMARK SMILES CC1(C)[C@H]2CC=C(CO)[C@@H]1C2
REMARK SMILES IDX 8 1 7 2 1 3 2 4 4 5 3 6 10 7 5 8 11 9 6 10 9 11
REMARK H PARENT 9 12
REMARK Flexibility Score: inf
ROOT
ATOM      1  C   UNL     1     -25.031   6.507 -56.866  1.00  0.00     0.187 C 
ENDROOT
BRANCH   1   2
ATOM      2  C   UNL     1     -23.579   6.680 -57.203  1.00  0.00    -0.045 C 
ATOM      3  C   UNL     1     -20.878   4.113 -58.356  1.00  0.00     0.012 C 
ATOM      4  C   UNL     1     -21.694   5.431 -58.309  1.00  0.00    -0.026 C 
ATOM      5  C   UNL     1     -20.875   6.607 -57.708  1.00  0.00    -0.000 C 
ATOM      6  C   UNL     1     -22.377   5.629 -59.691  1.00  0.00     0.012 C 
ATOM      7  C   UNL     1     -22.568   5.537 -57.032  1.00  0.00     0.023 C 
ATOM      8  C   UNL     1     -21.587   7.973 -58.001  1.00  0.00     0.031 C 
ATOM      9  C   UNL     1     -21.364   6.173 -56.310  1.00  0.00     0.013 C 
ATOM     10  C   UNL     1     -23.086   7.873 -57.652  1.00  0.00    -0.025 C 
ENDBRANCH   1   2
BRANCH   1  11
ATOM     11  O   UNL     1     -25.578   7.743 -56.503  1.00  0.00    -0.392 OA
ATOM     12  H   UNL     1     -25.519   7.791 -55.514  1.00  0.00     0.211 HD
ENDBRANCH   1  11
TORSDOF 2
ENDMDL
