MODEL 1
REMARK VINA RESULT:    -5.310      0.000      0.000
REMARK INTER + INTRA:          -7.017
REMARK INTER:                  -7.483
REMARK INTRA:                   0.465
REMARK UNBOUND:                 0.465
REMARK SMILES CC1=CCC(=C(C)C)C(=O)CC(C)=CCC1
REMARK SMILES IDX 12 1 14 2 13 3 15 4 16 5 2 6 1 7 3 8 11 10 9 11 10 12 5 13
REMARK SMILES IDX 6 14 7 15 8 16 4 17
REMARK H PARENT
REMARK Flexibility Score: 60.00
ROOT
ATOM      1  C   UNL     1      -8.231  29.826  22.879  1.00  0.00    -0.070 C 
ATOM      2  C   UNL     1      -8.279  29.310  24.127  1.00  0.00    -0.027 C 
ATOM      3  C   UNL     1      -8.958  29.088  21.782  1.00  0.00     0.039 C 
ENDROOT
BRANCH   2   4
ATOM      4  C   UNL     1      -7.700  29.950  25.370  1.00  0.00     0.032 C 
BRANCH   4   5
ATOM      5  C   UNL     1      -8.744  30.409  26.409  1.00  0.00     0.034 C 
BRANCH   5   6
ATOM      6  C   UNL     1      -8.604  31.871  26.790  1.00  0.00    -0.077 C 
ATOM      7  C   UNL     1      -7.933  32.193  28.102  1.00  0.00     0.039 C 
ATOM      8  C   UNL     1      -8.980  32.907  26.000  1.00  0.00    -0.023 CG0
ATOM      9  G   UNL     1      -9.683  32.827  24.659  1.00  0.00     0.000 G0
ENDBRANCH   5   6
ENDBRANCH   4   5
ENDBRANCH   2   4
BRANCH   1  10
ATOM     10  C   UNL     1      -7.566  31.148  22.551  1.00  0.00     0.111 C 
BRANCH  10  11
ATOM     11  C   UNL     1      -8.574  32.259  22.422  1.00  0.00     0.163 C 
ATOM     12  O   UNL     1      -9.276  32.306  21.375  1.00  0.00    -0.294 OA
BRANCH  11  13
ATOM     13  C   UNL     1      -8.809  33.257  23.507  1.00  0.00    -0.002 C 
ATOM     14  C   UNL     1      -8.310  34.526  23.411  1.00  0.00    -0.069 C 
ATOM     15  C   UNL     1      -8.663  35.603  24.413  1.00  0.00     0.039 C 
ATOM     16  C   UNL     1      -7.375  34.918  22.288  1.00  0.00     0.039 C 
BRANCH  13  17
ATOM     17  C   UNL     1      -9.700  32.831  24.663  1.00  0.00     0.066 CG0
ATOM     18  G   UNL     1      -8.981  32.886  25.996  1.00  0.00     0.000 G0
ENDBRANCH  13  17
ENDBRANCH  11  13
ENDBRANCH  10  11
ENDBRANCH   1  10
TORSDOF 0
ENDMDL
MODEL 2
REMARK VINA RESULT:    -4.926      1.918      5.259
REMARK INTER + INTRA:          -6.477
REMARK INTER:                  -6.810
REMARK INTRA:                   0.333
REMARK UNBOUND:                 0.465
REMARK SMILES CC1=CCC(=C(C)C)C(=O)CC(C)=CCC1
REMARK SMILES IDX 12 1 14 2 13 3 15 4 16 5 2 6 1 7 3 8 11 10 9 11 10 12 5 13
REMARK SMILES IDX 6 14 7 15 8 16 4 17
REMARK H PARENT
REMARK Flexibility Score: 60.00
ROOT
ATOM      1  C   UNL     1      -8.225  34.720  25.324  1.00  0.00    -0.070 C 
ATOM      2  C   UNL     1      -7.919  35.415  24.207  1.00  0.00    -0.027 C 
ATOM      3  C   UNL     1      -8.996  35.432  26.408  1.00  0.00     0.039 C 
ENDROOT
BRANCH   2   4
ATOM      4  C   UNL     1      -7.241  34.853  22.976  1.00  0.00     0.032 C 
BRANCH   4   5
ATOM      5  C   UNL     1      -8.139  34.771  21.723  1.00  0.00     0.034 C 
BRANCH   5   6
ATOM      6  C   UNL     1      -8.037  33.439  21.002  1.00  0.00    -0.077 C 
ATOM      7  C   UNL     1      -7.116  33.356  19.810  1.00  0.00     0.039 C 
ATOM      8  C   UNL     1      -8.665  32.305  21.399  1.00  0.00    -0.023 CG0
ATOM      9  G   UNL     1      -9.643  32.155  22.547  1.00  0.00     0.000 G0
ENDBRANCH   5   6
ENDBRANCH   4   5
ENDBRANCH   2   4
BRANCH   1  10
ATOM     10  C   UNL     1      -7.916  33.247  25.499  1.00  0.00     0.111 C 
BRANCH  10  11
ATOM     11  C   UNL     1      -9.064  32.382  25.051  1.00  0.00     0.163 C 
ATOM     12  O   UNL     1     -10.125  32.403  25.731  1.00  0.00    -0.294 OA
BRANCH  11  13
ATOM     13  C   UNL     1      -9.008  31.558  23.807  1.00  0.00    -0.002 C 
ATOM     14  C   UNL     1      -8.475  30.298  23.825  1.00  0.00    -0.069 C 
ATOM     15  C   UNL     1      -8.548  29.381  22.624  1.00  0.00     0.039 C 
ATOM     16  C   UNL     1      -7.784  29.757  25.057  1.00  0.00     0.039 C 
BRANCH  13  17
ATOM     17  C   UNL     1      -9.651  32.139  22.558  1.00  0.00     0.066 CG0
ATOM     18  G   UNL     1      -8.662  32.297  21.421  1.00  0.00     0.000 G0
ENDBRANCH  13  17
ENDBRANCH  11  13
ENDBRANCH  10  11
ENDBRANCH   1  10
TORSDOF 0
ENDMDL
MODEL 3
REMARK VINA RESULT:    -4.903      1.680      3.746
REMARK INTER + INTRA:          -6.444
REMARK INTER:                  -6.516
REMARK INTRA:                   0.072
REMARK UNBOUND:                 0.465
REMARK SMILES CC1=CCC(=C(C)C)C(=O)CC(C)=CCC1
REMARK SMILES IDX 12 1 14 2 13 3 15 4 16 5 2 6 1 7 3 8 11 10 9 11 10 12 5 13
REMARK SMILES IDX 6 14 7 15 8 16 4 17
REMARK H PARENT
REMARK Flexibility Score: 60.00
ROOT
ATOM      1  C   UNL     1      -8.520  30.191  27.193  1.00  0.00    -0.070 C 
ATOM      2  C   UNL     1      -8.596  31.374  27.842  1.00  0.00    -0.027 C 
ATOM      3  C   UNL     1      -9.222  29.005  27.804  1.00  0.00     0.039 C 
ENDROOT
BRANCH   2   4
ATOM      4  C   UNL     1      -8.045  32.692  27.343  1.00  0.00     0.032 C 
BRANCH   4   5
ATOM      5  C   UNL     1      -9.037  33.537  26.515  1.00  0.00     0.034 C 
BRANCH   5   6
ATOM      6  C   UNL     1      -8.428  34.093  25.241  1.00  0.00    -0.077 C 
ATOM      7  C   UNL     1      -7.519  35.292  25.364  1.00  0.00     0.039 C 
ATOM      8  C   UNL     1      -8.591  33.545  24.011  1.00  0.00    -0.023 CG0
ATOM      9  G   UNL     1      -9.464  32.360  23.647  1.00  0.00     0.000 G0
ENDBRANCH   5   6
ENDBRANCH   4   5
ENDBRANCH   2   4
BRANCH   1  10
ATOM     10  C   UNL     1      -7.848  30.024  25.845  1.00  0.00     0.111 C 
BRANCH  10  11
ATOM     11  C   UNL     1      -8.843  30.090  24.717  1.00  0.00     0.163 C 
ATOM     12  O   UNL     1      -9.869  29.361  24.785  1.00  0.00    -0.294 OA
BRANCH  11  13
ATOM     13  C   UNL     1      -8.686  31.027  23.564  1.00  0.00    -0.002 C 
ATOM     14  C   UNL     1      -7.938  30.677  22.474  1.00  0.00    -0.069 C 
ATOM     15  C   UNL     1      -7.890  31.533  21.228  1.00  0.00     0.039 C 
ATOM     16  C   UNL     1      -7.119  29.405  22.462  1.00  0.00     0.039 C 
BRANCH  13  17
ATOM     17  C   UNL     1      -9.465  32.331  23.617  1.00  0.00     0.066 CG0
ATOM     18  G   UNL     1      -8.593  33.509  24.002  1.00  0.00     0.000 G0
ENDBRANCH  13  17
ENDBRANCH  11  13
ENDBRANCH  10  11
ENDBRANCH   1  10
TORSDOF 0
ENDMDL
MODEL 4
REMARK VINA RESULT:    -4.627      1.424      3.521
REMARK INTER + INTRA:          -6.055
REMARK INTER:                  -7.767
REMARK INTRA:                   1.712
REMARK UNBOUND:                 0.465
REMARK SMILES CC1=CCC(=C(C)C)C(=O)CC(C)=CCC1
REMARK SMILES IDX 12 1 14 2 13 3 15 4 16 5 2 6 1 7 3 8 11 10 9 11 10 12 5 13
REMARK SMILES IDX 6 14 7 15 8 16 4 17
REMARK H PARENT
REMARK Flexibility Score: 60.00
ROOT
ATOM      1  C   UNL     1      -7.924  33.374  21.412  1.00  0.00    -0.070 C 
ATOM      2  C   UNL     1      -7.183  34.225  22.156  1.00  0.00    -0.027 C 
ATOM      3  C   UNL     1      -7.335  32.872  20.117  1.00  0.00     0.039 C 
ENDROOT
BRANCH   2   4
ATOM      4  C   UNL     1      -7.557  34.758  23.522  1.00  0.00     0.032 C 
BRANCH   4   5
ATOM      5  C   UNL     1      -8.910  34.255  24.066  1.00  0.00     0.034 C 
BRANCH   5   6
ATOM      6  C   UNL     1      -8.799  33.599  25.430  1.00  0.00    -0.077 C 
ATOM      7  C   UNL     1      -8.206  34.413  26.553  1.00  0.00     0.039 C 
ATOM      8  C   UNL     1      -9.258  32.356  25.720  1.00  0.00    -0.023 CG0
ATOM      9  G   UNL     1      -9.869  31.359  24.757  1.00  0.00     0.000 G0
ENDBRANCH   5   6
ENDBRANCH   4   5
ENDBRANCH   2   4
BRANCH   1  10
ATOM     10  C   UNL     1      -9.267  32.832  21.858  1.00  0.00     0.111 C 
BRANCH  10  11
ATOM     11  C   UNL     1      -9.177  31.383  22.256  1.00  0.00     0.163 C 
ATOM     12  O   UNL     1      -9.319  30.510  21.358  1.00  0.00    -0.294 OA
BRANCH  11  13
ATOM     13  C   UNL     1      -8.867  30.954  23.652  1.00  0.00    -0.002 C 
ATOM     14  C   UNL     1      -7.699  30.304  23.941  1.00  0.00    -0.069 C 
ATOM     15  C   UNL     1      -7.284  29.998  25.363  1.00  0.00     0.039 C 
ATOM     16  C   UNL     1      -6.757  29.859  22.844  1.00  0.00     0.039 C 
BRANCH  13  17
ATOM     17  C   UNL     1      -9.853  31.353  24.738  1.00  0.00     0.066 CG0
ATOM     18  G   UNL     1      -9.264  32.356  25.711  1.00  0.00     0.000 G0
ENDBRANCH  13  17
ENDBRANCH  11  13
ENDBRANCH  10  11
ENDBRANCH   1  10
TORSDOF 0
ENDMDL
MODEL 5
REMARK VINA RESULT:    -4.080      1.830      3.789
REMARK INTER + INTRA:          -5.285
REMARK INTER:                  -7.148
REMARK INTRA:                   1.864
REMARK UNBOUND:                 0.465
REMARK SMILES CC1=CCC(=C(C)C)C(=O)CC(C)=CCC1
REMARK SMILES IDX 12 1 14 2 13 3 15 4 16 5 2 6 1 7 3 8 11 10 9 11 10 12 5 13
REMARK SMILES IDX 6 14 7 15 8 16 4 17
REMARK H PARENT
REMARK Flexibility Score: 60.00
ROOT
ATOM      1  C   UNL     1      -8.492  34.707  25.128  1.00  0.00    -0.070 C 
ATOM      2  C   UNL     1      -8.936  33.909  26.124  1.00  0.00    -0.027 C 
ATOM      3  C   UNL     1      -8.974  36.136  25.101  1.00  0.00     0.039 C 
ENDROOT
BRANCH   2   4
ATOM      4  C   UNL     1      -8.494  32.484  26.377  1.00  0.00     0.032 C 
BRANCH   4   5
ATOM      5  C   UNL     1      -7.982  31.733  25.130  1.00  0.00     0.034 C 
BRANCH   5   6
ATOM      6  C   UNL     1      -9.052  30.891  24.459  1.00  0.00    -0.077 C 
ATOM      7  C   UNL     1      -9.135  29.433  24.836  1.00  0.00     0.039 C 
ATOM      8  C   UNL     1      -9.979  31.377  23.596  1.00  0.00    -0.023 CG0
ATOM      9  G   UNL     1     -10.080  32.792  23.063  1.00  0.00     0.000 G0
ENDBRANCH   5   6
ENDBRANCH   4   5
ENDBRANCH   2   4
BRANCH   1  10
ATOM     10  C   UNL     1      -7.471  34.264  24.100  1.00  0.00     0.111 C 
BRANCH  10  11
ATOM     11  C   UNL     1      -8.036  34.299  22.705  1.00  0.00     0.163 C 
ATOM     12  O   UNL     1      -7.697  35.250  21.950  1.00  0.00    -0.294 OA
BRANCH  11  13
ATOM     13  C   UNL     1      -8.924  33.223  22.173  1.00  0.00    -0.002 C 
ATOM     14  C   UNL     1      -8.627  32.585  21.000  1.00  0.00    -0.069 C 
ATOM     15  C   UNL     1      -9.416  31.388  20.518  1.00  0.00     0.039 C 
ATOM     16  C   UNL     1      -7.483  33.048  20.124  1.00  0.00     0.039 C 
BRANCH  13  17
ATOM     17  C   UNL     1     -10.107  32.810  23.033  1.00  0.00     0.066 CG0
ATOM     18  G   UNL     1      -9.957  31.405  23.584  1.00  0.00     0.000 G0
ENDBRANCH  13  17
ENDBRANCH  11  13
ENDBRANCH  10  11
ENDBRANCH   1  10
TORSDOF 0
ENDMDL
MODEL 6
REMARK VINA RESULT:    -3.654     18.674     20.612
REMARK INTER + INTRA:          -4.684
REMARK INTER:                  -5.369
REMARK INTRA:                   0.686
REMARK UNBOUND:                 0.465
REMARK SMILES CC1=CCC(=C(C)C)C(=O)CC(C)=CCC1
REMARK SMILES IDX 12 1 14 2 13 3 15 4 16 5 2 6 1 7 3 8 11 10 9 11 10 12 5 13
REMARK SMILES IDX 6 14 7 15 8 16 4 17
REMARK H PARENT
REMARK Flexibility Score: 60.00
ROOT
ATOM      1  C   UNL     1      -3.433  47.881  14.124  1.00  0.00    -0.070 C 
ATOM      2  C   UNL     1      -4.534  47.516  13.433  1.00  0.00    -0.027 C 
ATOM      3  C   UNL     1      -3.171  47.201  15.444  1.00  0.00     0.039 C 
ENDROOT
BRANCH   2   4
ATOM      4  C   UNL     1      -4.915  48.008  12.053  1.00  0.00     0.032 C 
BRANCH   4   5
ATOM      5  C   UNL     1      -4.726  46.976  10.922  1.00  0.00     0.034 C 
BRANCH   5   6
ATOM      6  C   UNL     1      -3.420  47.149  10.168  1.00  0.00    -0.077 C 
ATOM      7  C   UNL     1      -3.454  47.925   8.875  1.00  0.00     0.039 C 
ATOM      8  C   UNL     1      -2.216  46.712  10.613  1.00  0.00    -0.023 CG0
ATOM      9  G   UNL     1      -1.943  45.902  11.865  1.00  0.00     0.000 G0
ENDBRANCH   5   6
ENDBRANCH   4   5
ENDBRANCH   2   4
BRANCH   1  10
ATOM     10  C   UNL     1      -2.408  48.865  13.596  1.00  0.00     0.111 C 
BRANCH  10  11
ATOM     11  C   UNL     1      -1.266  48.164  12.911  1.00  0.00     0.163 C 
ATOM     12  O   UNL     1      -0.371  48.870  12.373  1.00  0.00    -0.294 OA
BRANCH  11  13
ATOM     13  C   UNL     1      -1.128  46.677  12.903  1.00  0.00    -0.002 C 
ATOM     14  C   UNL     1      -0.370  46.039  13.846  1.00  0.00    -0.069 C 
ATOM     15  C   UNL     1      -0.339  44.531  13.961  1.00  0.00     0.039 C 
ATOM     16  C   UNL     1       0.478  46.817  14.828  1.00  0.00     0.039 C 
BRANCH  13  17
ATOM     17  C   UNL     1      -1.937  45.909  11.871  1.00  0.00     0.066 CG0
ATOM     18  G   UNL     1      -2.206  46.727  10.623  1.00  0.00     0.000 G0
ENDBRANCH  13  17
ENDBRANCH  11  13
ENDBRANCH  10  11
ENDBRANCH   1  10
TORSDOF 0
ENDMDL
MODEL 7
REMARK VINA RESULT:    -3.646     17.976     19.511
REMARK INTER + INTRA:          -4.672
REMARK INTER:                  -5.421
REMARK INTRA:                   0.749
REMARK UNBOUND:                 0.465
REMARK SMILES CC1=CCC(=C(C)C)C(=O)CC(C)=CCC1
REMARK SMILES IDX 12 1 14 2 13 3 15 4 16 5 2 6 1 7 3 8 11 10 9 11 10 12 5 13
REMARK SMILES IDX 6 14 7 15 8 16 4 17
REMARK H PARENT
REMARK Flexibility Score: 60.00
ROOT
ATOM      1  C   UNL     1      -0.463  45.374  13.763  1.00  0.00    -0.070 C 
ATOM      2  C   UNL     1      -1.433  45.263  12.829  1.00  0.00    -0.027 C 
ATOM      3  C   UNL     1      -0.044  44.124  14.497  1.00  0.00     0.039 C 
ENDROOT
BRANCH   2   4
ATOM      4  C   UNL     1      -1.919  46.374  11.925  1.00  0.00     0.032 C 
BRANCH   4   5
ATOM      5  C   UNL     1      -3.439  46.636  11.980  1.00  0.00     0.034 C 
BRANCH   5   6
ATOM      6  C   UNL     1      -3.801  47.887  12.760  1.00  0.00    -0.077 C 
ATOM      7  C   UNL     1      -4.424  49.031  12.000  1.00  0.00     0.039 C 
ATOM      8  C   UNL     1      -3.665  48.017  14.103  1.00  0.00    -0.023 CG0
ATOM      9  G   UNL     1      -3.054  47.014  15.061  1.00  0.00     0.000 G0
ENDBRANCH   5   6
ENDBRANCH   4   5
ENDBRANCH   2   4
BRANCH   1  10
ATOM     10  C   UNL     1       0.282  46.664  14.039  1.00  0.00     0.111 C 
BRANCH  10  11
ATOM     11  C   UNL     1      -0.638  47.735  14.564  1.00  0.00     0.163 C 
ATOM     12  O   UNL     1      -0.544  48.892  14.073  1.00  0.00    -0.294 OA
BRANCH  11  13
ATOM     13  C   UNL     1      -1.687  47.458  15.589  1.00  0.00    -0.002 C 
ATOM     14  C   UNL     1      -1.443  47.674  16.917  1.00  0.00    -0.069 C 
ATOM     15  C   UNL     1      -2.532  47.556  17.961  1.00  0.00     0.039 C 
ATOM     16  C   UNL     1      -0.062  48.049  17.409  1.00  0.00     0.039 C 
BRANCH  13  17
ATOM     17  C   UNL     1      -3.054  47.021  15.086  1.00  0.00     0.066 CG0
ATOM     18  G   UNL     1      -3.648  48.008  14.101  1.00  0.00     0.000 G0
ENDBRANCH  13  17
ENDBRANCH  11  13
ENDBRANCH  10  11
ENDBRANCH   1  10
TORSDOF 0
ENDMDL
MODEL 8
REMARK VINA RESULT:    -3.634     18.206     19.808
REMARK INTER + INTRA:          -4.656
REMARK INTER:                  -5.386
REMARK INTRA:                   0.730
REMARK UNBOUND:                 0.465
REMARK SMILES CC1=CCC(=C(C)C)C(=O)CC(C)=CCC1
REMARK SMILES IDX 12 1 14 2 13 3 15 4 16 5 2 6 1 7 3 8 11 10 9 11 10 12 5 13
REMARK SMILES IDX 6 14 7 15 8 16 4 17
REMARK H PARENT
REMARK Flexibility Score: 60.00
ROOT
ATOM      1  C   UNL     1      -0.297  45.679  13.778  1.00  0.00    -0.070 C 
ATOM      2  C   UNL     1       0.506  46.669  14.225  1.00  0.00    -0.027 C 
ATOM      3  C   UNL     1      -0.098  44.297  14.349  1.00  0.00     0.039 C 
ENDROOT
BRANCH   2   4
ATOM      4  C   UNL     1       0.398  48.131  13.849  1.00  0.00     0.032 C 
BRANCH   4   5
ATOM      5  C   UNL     1       0.022  49.073  15.012  1.00  0.00     0.034 C 
BRANCH   5   6
ATOM      6  C   UNL     1      -1.170  48.584  15.815  1.00  0.00    -0.077 C 
ATOM      7  C   UNL     1      -0.924  48.143  17.236  1.00  0.00     0.039 C 
ATOM      8  C   UNL     1      -2.448  48.583  15.362  1.00  0.00    -0.023 CG0
ATOM      9  G   UNL     1      -2.928  48.962  13.975  1.00  0.00     0.000 G0
ENDBRANCH   5   6
ENDBRANCH   4   5
ENDBRANCH   2   4
BRANCH   1  10
ATOM     10  C   UNL     1      -1.438  45.908  12.808  1.00  0.00     0.111 C 
BRANCH  10  11
ATOM     11  C   UNL     1      -2.662  46.439  13.506  1.00  0.00     0.163 C 
ATOM     12  O   UNL     1      -3.128  45.778  14.473  1.00  0.00    -0.294 OA
BRANCH  11  13
ATOM     13  C   UNL     1      -3.297  47.738  13.134  1.00  0.00    -0.002 C 
ATOM     14  C   UNL     1      -4.224  47.803  12.130  1.00  0.00    -0.069 C 
ATOM     15  C   UNL     1      -4.998  49.068  11.836  1.00  0.00     0.039 C 
ATOM     16  C   UNL     1      -4.523  46.601  11.262  1.00  0.00     0.039 C 
BRANCH  13  17
ATOM     17  C   UNL     1      -2.940  48.953  13.975  1.00  0.00     0.066 CG0
ATOM     18  G   UNL     1      -2.447  48.572  15.357  1.00  0.00     0.000 G0
ENDBRANCH  13  17
ENDBRANCH  11  13
ENDBRANCH  10  11
ENDBRANCH   1  10
TORSDOF 0
ENDMDL
MODEL 9
REMARK VINA RESULT:    -3.467     18.577     20.241
REMARK INTER + INTRA:          -4.421
REMARK INTER:                  -4.978
REMARK INTRA:                   0.557
REMARK UNBOUND:                 0.465
REMARK SMILES CC1=CCC(=C(C)C)C(=O)CC(C)=CCC1
REMARK SMILES IDX 12 1 14 2 13 3 15 4 16 5 2 6 1 7 3 8 11 10 9 11 10 12 5 13
REMARK SMILES IDX 6 14 7 15 8 16 4 17
REMARK H PARENT
REMARK Flexibility Score: 60.00
ROOT
ATOM      1  C   UNL     1      -2.483  46.827  15.549  1.00  0.00    -0.070 C 
ATOM      2  C   UNL     1      -2.069  47.655  16.533  1.00  0.00    -0.027 C 
ATOM      3  C   UNL     1      -3.840  47.079  14.939  1.00  0.00     0.039 C 
ENDROOT
BRANCH   2   4
ATOM      4  C   UNL     1      -0.710  47.627  17.198  1.00  0.00     0.032 C 
BRANCH   4   5
ATOM      5  C   UNL     1       0.153  48.884  16.961  1.00  0.00     0.034 C 
BRANCH   5   6
ATOM      6  C   UNL     1       1.275  48.659  15.964  1.00  0.00    -0.077 C 
ATOM      7  C   UNL     1       2.660  48.417  16.510  1.00  0.00     0.039 C 
ATOM      8  C   UNL     1       1.103  48.593  14.621  1.00  0.00    -0.023 CG0
ATOM      9  G   UNL     1      -0.183  48.820  13.851  1.00  0.00     0.000 G0
ENDBRANCH   5   6
ENDBRANCH   4   5
ENDBRANCH   2   4
BRANCH   1  10
ATOM     10  C   UNL     1      -1.618  45.726  14.969  1.00  0.00     0.111 C 
BRANCH  10  11
ATOM     11  C   UNL     1      -0.550  46.278  14.062  1.00  0.00     0.163 C 
ATOM     12  O   UNL     1       0.524  45.629  13.944  1.00  0.00    -0.294 OA
BRANCH  11  13
ATOM     13  C   UNL     1      -0.746  47.522  13.260  1.00  0.00    -0.002 C 
ATOM     14  C   UNL     1      -1.477  47.503  12.105  1.00  0.00    -0.069 C 
ATOM     15  C   UNL     1      -1.826  48.770  11.356  1.00  0.00     0.039 C 
ATOM     16  C   UNL     1      -1.979  46.202  11.517  1.00  0.00     0.039 C 
BRANCH  13  17
ATOM     17  C   UNL     1      -0.182  48.814  13.830  1.00  0.00     0.066 CG0
ATOM     18  G   UNL     1       1.088  48.587  14.626  1.00  0.00     0.000 G0
ENDBRANCH  13  17
ENDBRANCH  11  13
ENDBRANCH  10  11
ENDBRANCH   1  10
TORSDOF 0
ENDMDL
