MODEL 1
REMARK VINA RESULT:    -3.300      0.000      0.000
REMARK INTER + INTRA:         -11.833
REMARK INTER:                  -8.703
REMARK INTRA:                  -3.131
REMARK UNBOUND:                -3.131
REMARK SMILES CCCCCCCCCCCCCCCCCCCCCCCCCCCCCC(=O)[O-]
REMARK SMILES IDX 16 1 17 2 18 3 19 4 20 5 21 6 22 7 23 8 24 9 25 10 26 11
REMARK SMILES IDX 27 12 28 13 29 14 30 15 31 16 32 17 15 18 14 19 13 20 12 21
REMARK SMILES IDX 11 22 10 23 9 24 8 25 7 26 6 27 5 28 4 29 3 30 2 31 1 32
REMARK H PARENT
REMARK Flexibility Score: inf
ROOT
ATOM      1  C   UNL     1      10.204   6.130   2.343  1.00  0.00     0.000 C 
ENDROOT
BRANCH   1   2
ATOM      2  C   UNL     1      10.353   6.703   0.925  1.00  0.00     0.000 C 
BRANCH   2   3
ATOM      3  C   UNL     1       9.548   8.002   0.775  1.00  0.00     0.000 C 
BRANCH   3   4
ATOM      4  C   UNL     1      10.014   8.869  -0.410  1.00  0.00     0.000 C 
BRANCH   4   5
ATOM      5  C   UNL     1       9.590   8.359  -1.802  1.00  0.00     0.000 C 
BRANCH   5   6
ATOM      6  C   UNL     1       8.115   8.615  -2.173  1.00  0.00     0.000 C 
BRANCH   6   7
ATOM      7  C   UNL     1       7.361   7.390  -2.717  1.00  0.00     0.000 C 
BRANCH   7   8
ATOM      8  C   UNL     1       7.351   7.329  -4.253  1.00  0.00     0.000 C 
BRANCH   8   9
ATOM      9  C   UNL     1       8.722   7.722  -4.822  1.00  0.00     0.000 C 
BRANCH   9  10
ATOM     10  C   UNL     1       9.535   6.508  -5.297  1.00  0.00     0.000 C 
BRANCH  10  11
ATOM     11  C   UNL     1       8.824   5.173  -5.017  1.00  0.00     0.000 C 
BRANCH  11  12
ATOM     12  C   UNL     1       9.347   4.495  -3.731  1.00  0.00     0.000 C 
BRANCH  12  13
ATOM     13  C   UNL     1      10.874   4.600  -3.551  1.00  0.00     0.006 C 
BRANCH  13  14
ATOM     14  C   UNL     1      11.560   3.274  -3.190  1.00  0.00     0.053 C 
BRANCH  14  15
ATOM     15  C   UNL     1      11.373   2.233  -4.254  1.00  0.00     0.041 C 
ATOM     16  O   UNL     1      11.029   1.061  -3.940  1.00  0.00    -0.550 OA
ATOM     17  O   UNL     1      11.583   2.550  -5.588  1.00  0.00    -0.550 OA
ENDBRANCH  14  15
ENDBRANCH  13  14
ENDBRANCH  12  13
ENDBRANCH  11  12
ENDBRANCH  10  11
ENDBRANCH   9  10
ENDBRANCH   8   9
ENDBRANCH   7   8
ENDBRANCH   6   7
ENDBRANCH   5   6
ENDBRANCH   4   5
ENDBRANCH   3   4
ENDBRANCH   2   3
ENDBRANCH   1   2
BRANCH   1  18
ATOM     18  C   UNL     1       9.796   7.192   3.377  1.00  0.00     0.000 C 
BRANCH  18  19
ATOM     19  C   UNL     1       8.386   7.752   3.128  1.00  0.00     0.000 C 
BRANCH  19  20
ATOM     20  C   UNL     1       7.284   6.919   3.811  1.00  0.00     0.000 C 
BRANCH  20  21
ATOM     21  C   UNL     1       6.223   6.341   2.855  1.00  0.00     0.000 C 
BRANCH  21  22
ATOM     22  C   UNL     1       6.779   5.226   1.950  1.00  0.00     0.000 C 
BRANCH  22  23
ATOM     23  C   UNL     1       6.585   5.522   0.454  1.00  0.00     0.000 C 
BRANCH  23  24
ATOM     24  C   UNL     1       7.549   4.722  -0.439  1.00  0.00    -0.000 C 
BRANCH  24  25
ATOM     25  C   UNL     1       8.382   3.699   0.364  1.00  0.00    -0.000 C 
BRANCH  25  26
ATOM     26  C   UNL     1       9.782   3.426  -0.222  1.00  0.00    -0.000 C 
BRANCH  26  27
ATOM     27  C   UNL     1      10.658   2.463   0.597  1.00  0.00    -0.000 C 
BRANCH  27  28
ATOM     28  C   UNL     1      10.987   1.164  -0.158  1.00  0.00    -0.000 C 
BRANCH  28  29
ATOM     29  C   UNL     1      12.428   1.163  -0.696  1.00  0.00    -0.000 C 
BRANCH  29  30
ATOM     30  C   UNL     1      13.284   0.060  -0.050  1.00  0.00    -0.000 C 
BRANCH  30  31
ATOM     31  C   UNL     1      12.597  -0.569   1.173  1.00  0.00    -0.003 C 
ATOM     32  C   UNL     1      13.342  -0.270   2.475  1.00  0.00     0.004 C 
ENDBRANCH  30  31
ENDBRANCH  29  30
ENDBRANCH  28  29
ENDBRANCH  27  28
ENDBRANCH  26  27
ENDBRANCH  25  26
ENDBRANCH  24  25
ENDBRANCH  23  24
ENDBRANCH  22  23
ENDBRANCH  21  22
ENDBRANCH  20  21
ENDBRANCH  19  20
ENDBRANCH  18  19
ENDBRANCH   1  18
TORSDOF 28
ENDMDL
MODEL 2
REMARK VINA RESULT:    -2.907      2.161      5.487
REMARK INTER + INTRA:         -10.796
REMARK INTER:                  -7.363
REMARK INTRA:                  -3.433
REMARK UNBOUND:                -3.131
REMARK SMILES CCCCCCCCCCCCCCCCCCCCCCCCCCCCCC(=O)[O-]
REMARK SMILES IDX 16 1 17 2 18 3 19 4 20 5 21 6 22 7 23 8 24 9 25 10 26 11
REMARK SMILES IDX 27 12 28 13 29 14 30 15 31 16 32 17 15 18 14 19 13 20 12 21
REMARK SMILES IDX 11 22 10 23 9 24 8 25 7 26 6 27 5 28 4 29 3 30 2 31 1 32
REMARK H PARENT
REMARK Flexibility Score: inf
ROOT
ATOM      1  C   UNL     1       9.184   8.230   0.874  1.00  0.00     0.000 C 
ENDROOT
BRANCH   1   2
ATOM      2  C   UNL     1       9.978   9.124  -0.091  1.00  0.00     0.000 C 
BRANCH   2   3
ATOM      3  C   UNL     1       9.777   8.669  -1.545  1.00  0.00     0.000 C 
BRANCH   3   4
ATOM      4  C   UNL     1      10.774   7.577  -1.979  1.00  0.00     0.000 C 
BRANCH   4   5
ATOM      5  C   UNL     1      10.153   6.188  -2.235  1.00  0.00     0.000 C 
BRANCH   5   6
ATOM      6  C   UNL     1      10.452   5.127  -1.157  1.00  0.00     0.000 C 
BRANCH   6   7
ATOM      7  C   UNL     1       9.304   4.140  -0.883  1.00  0.00     0.000 C 
BRANCH   7   8
ATOM      8  C   UNL     1       9.766   2.675  -0.872  1.00  0.00     0.000 C 
BRANCH   8   9
ATOM      9  C   UNL     1       9.434   1.990  -2.206  1.00  0.00     0.000 C 
BRANCH   9  10
ATOM     10  C   UNL     1      10.577   2.098  -3.227  1.00  0.00     0.000 C 
BRANCH  10  11
ATOM     11  C   UNL     1      11.924   2.450  -2.572  1.00  0.00     0.000 C 
BRANCH  11  12
ATOM     12  C   UNL     1      12.645   1.202  -2.016  1.00  0.00     0.000 C 
BRANCH  12  13
ATOM     13  C   UNL     1      12.576   1.078  -0.481  1.00  0.00     0.006 C 
BRANCH  13  14
ATOM     14  C   UNL     1      13.540   0.040   0.112  1.00  0.00     0.053 C 
BRANCH  14  15
ATOM     15  C   UNL     1      12.979  -0.617   1.339  1.00  0.00     0.041 C 
ATOM     16  O   UNL     1      13.449  -0.343   2.476  1.00  0.00    -0.550 OA
ATOM     17  O   UNL     1      11.943  -1.533   1.230  1.00  0.00    -0.550 OA
ENDBRANCH  14  15
ENDBRANCH  13  14
ENDBRANCH  12  13
ENDBRANCH  11  12
ENDBRANCH  10  11
ENDBRANCH   9  10
ENDBRANCH   8   9
ENDBRANCH   7   8
ENDBRANCH   6   7
ENDBRANCH   5   6
ENDBRANCH   4   5
ENDBRANCH   3   4
ENDBRANCH   2   3
ENDBRANCH   1   2
BRANCH   1  18
ATOM     18  C   UNL     1      10.038   7.699   2.036  1.00  0.00     0.000 C 
BRANCH  18  19
ATOM     19  C   UNL     1       9.357   6.548   2.794  1.00  0.00     0.000 C 
BRANCH  19  20
ATOM     20  C   UNL     1       8.900   5.408   1.864  1.00  0.00     0.000 C 
BRANCH  20  21
ATOM     21  C   UNL     1       7.438   4.961   2.058  1.00  0.00     0.000 C 
BRANCH  21  22
ATOM     22  C   UNL     1       6.514   6.113   2.494  1.00  0.00     0.000 C 
BRANCH  22  23
ATOM     23  C   UNL     1       5.881   6.851   1.304  1.00  0.00     0.000 C 
BRANCH  23  24
ATOM     24  C   UNL     1       5.972   6.050  -0.007  1.00  0.00    -0.000 C 
BRANCH  24  25
ATOM     25  C   UNL     1       5.996   6.964  -1.252  1.00  0.00    -0.000 C 
BRANCH  25  26
ATOM     26  C   UNL     1       6.171   6.208  -2.585  1.00  0.00    -0.000 C 
BRANCH  26  27
ATOM     27  C   UNL     1       5.915   7.044  -3.850  1.00  0.00    -0.000 C 
BRANCH  27  28
ATOM     28  C   UNL     1       7.165   7.193  -4.734  1.00  0.00    -0.000 C 
BRANCH  28  29
ATOM     29  C   UNL     1       8.058   5.942  -4.680  1.00  0.00    -0.000 C 
BRANCH  29  30
ATOM     30  C   UNL     1       8.576   5.542  -6.072  1.00  0.00    -0.000 C 
BRANCH  30  31
ATOM     31  C   UNL     1       9.565   4.367  -6.009  1.00  0.00    -0.003 C 
ATOM     32  C   UNL     1      11.021   4.836  -5.976  1.00  0.00     0.004 C 
ENDBRANCH  30  31
ENDBRANCH  29  30
ENDBRANCH  28  29
ENDBRANCH  27  28
ENDBRANCH  26  27
ENDBRANCH  25  26
ENDBRANCH  24  25
ENDBRANCH  23  24
ENDBRANCH  22  23
ENDBRANCH  21  22
ENDBRANCH  20  21
ENDBRANCH  19  20
ENDBRANCH  18  19
ENDBRANCH   1  18
TORSDOF 28
ENDMDL
MODEL 3
REMARK VINA RESULT:    -2.815      1.376      2.021
REMARK INTER + INTRA:         -10.554
REMARK INTER:                  -6.978
REMARK INTRA:                  -3.576
REMARK UNBOUND:                -3.131
REMARK SMILES CCCCCCCCCCCCCCCCCCCCCCCCCCCCCC(=O)[O-]
REMARK SMILES IDX 16 1 17 2 18 3 19 4 20 5 21 6 22 7 23 8 24 9 25 10 26 11
REMARK SMILES IDX 27 12 28 13 29 14 30 15 31 16 32 17 15 18 14 19 13 20 12 21
REMARK SMILES IDX 11 22 10 23 9 24 8 25 7 26 6 27 5 28 4 29 3 30 2 31 1 32
REMARK H PARENT
REMARK Flexibility Score: inf
ROOT
ATOM      1  C   UNL     1       9.932   5.673   1.996  1.00  0.00     0.000 C 
ENDROOT
BRANCH   1   2
ATOM      2  C   UNL     1      10.445   6.487   0.797  1.00  0.00     0.000 C 
BRANCH   2   3
ATOM      3  C   UNL     1       9.341   7.407   0.253  1.00  0.00     0.000 C 
BRANCH   3   4
ATOM      4  C   UNL     1       9.817   8.299  -0.910  1.00  0.00     0.000 C 
BRANCH   4   5
ATOM      5  C   UNL     1       9.727   7.654  -2.309  1.00  0.00     0.000 C 
BRANCH   5   6
ATOM      6  C   UNL     1       8.343   7.742  -2.984  1.00  0.00     0.000 C 
BRANCH   6   7
ATOM      7  C   UNL     1       7.835   6.426  -3.596  1.00  0.00     0.000 C 
BRANCH   7   8
ATOM      8  C   UNL     1       7.499   6.553  -5.090  1.00  0.00     0.000 C 
BRANCH   8   9
ATOM      9  C   UNL     1       8.490   7.494  -5.793  1.00  0.00     0.000 C 
BRANCH   9  10
ATOM     10  C   UNL     1       9.830   6.812  -6.107  1.00  0.00     0.000 C 
BRANCH  10  11
ATOM     11  C   UNL     1       9.775   5.285  -5.926  1.00  0.00     0.000 C 
BRANCH  11  12
ATOM     12  C   UNL     1      11.172   4.635  -6.032  1.00  0.00     0.000 C 
BRANCH  12  13
ATOM     13  C   UNL     1      11.136   3.097  -6.125  1.00  0.00     0.006 C 
BRANCH  13  14
ATOM     14  C   UNL     1      11.395   2.378  -4.793  1.00  0.00     0.053 C 
BRANCH  14  15
ATOM     15  C   UNL     1      11.510   0.892  -4.964  1.00  0.00     0.041 C 
ATOM     16  O   UNL     1      10.899   0.114  -4.183  1.00  0.00    -0.550 OA
ATOM     17  O   UNL     1      12.294   0.364  -5.980  1.00  0.00    -0.550 OA
ENDBRANCH  14  15
ENDBRANCH  13  14
ENDBRANCH  12  13
ENDBRANCH  11  12
ENDBRANCH  10  11
ENDBRANCH   9  10
ENDBRANCH   8   9
ENDBRANCH   7   8
ENDBRANCH   6   7
ENDBRANCH   5   6
ENDBRANCH   4   5
ENDBRANCH   3   4
ENDBRANCH   2   3
ENDBRANCH   1   2
BRANCH   1  18
ATOM     18  C   UNL     1       9.720   6.529   3.254  1.00  0.00     0.000 C 
BRANCH  18  19
ATOM     19  C   UNL     1       8.442   7.381   3.183  1.00  0.00     0.000 C 
BRANCH  19  20
ATOM     20  C   UNL     1       7.383   6.956   4.219  1.00  0.00     0.000 C 
BRANCH  20  21
ATOM     21  C   UNL     1       5.968   6.745   3.647  1.00  0.00     0.000 C 
BRANCH  21  22
ATOM     22  C   UNL     1       5.976   6.063   2.266  1.00  0.00     0.000 C 
BRANCH  22  23
ATOM     23  C   UNL     1       5.884   7.068   1.107  1.00  0.00     0.000 C 
BRANCH  23  24
ATOM     24  C   UNL     1       6.153   6.420  -0.263  1.00  0.00    -0.000 C 
BRANCH  24  25
ATOM     25  C   UNL     1       6.528   4.926  -0.143  1.00  0.00    -0.000 C 
BRANCH  25  26
ATOM     26  C   UNL     1       7.843   4.547  -0.853  1.00  0.00    -0.000 C 
BRANCH  26  27
ATOM     27  C   UNL     1       7.799   3.236  -1.655  1.00  0.00    -0.000 C 
BRANCH  27  28
ATOM     28  C   UNL     1       9.189   2.607  -1.853  1.00  0.00    -0.000 C 
BRANCH  28  29
ATOM     29  C   UNL     1      10.302   3.668  -1.866  1.00  0.00    -0.000 C 
BRANCH  29  30
ATOM     30  C   UNL     1      11.616   3.133  -1.273  1.00  0.00    -0.000 C 
BRANCH  30  31
ATOM     31  C   UNL     1      11.624   1.599  -1.164  1.00  0.00    -0.003 C 
ATOM     32  C   UNL     1      11.782   1.121   0.280  1.00  0.00     0.004 C 
ENDBRANCH  30  31
ENDBRANCH  29  30
ENDBRANCH  28  29
ENDBRANCH  27  28
ENDBRANCH  26  27
ENDBRANCH  25  26
ENDBRANCH  24  25
ENDBRANCH  23  24
ENDBRANCH  22  23
ENDBRANCH  21  22
ENDBRANCH  20  21
ENDBRANCH  19  20
ENDBRANCH  18  19
ENDBRANCH   1  18
TORSDOF 28
ENDMDL
MODEL 4
REMARK VINA RESULT:    -2.454      2.282      3.814
REMARK INTER + INTRA:          -9.601
REMARK INTER:                  -7.861
REMARK INTRA:                  -1.740
REMARK UNBOUND:                -3.131
REMARK SMILES CCCCCCCCCCCCCCCCCCCCCCCCCCCCCC(=O)[O-]
REMARK SMILES IDX 16 1 17 2 18 3 19 4 20 5 21 6 22 7 23 8 24 9 25 10 26 11
REMARK SMILES IDX 27 12 28 13 29 14 30 15 31 16 32 17 15 18 14 19 13 20 12 21
REMARK SMILES IDX 11 22 10 23 9 24 8 25 7 26 6 27 5 28 4 29 3 30 2 31 1 32
REMARK H PARENT
REMARK Flexibility Score: inf
ROOT
ATOM      1  C   UNL     1      10.265   6.942   1.566  1.00  0.00     0.000 C 
ENDROOT
BRANCH   1   2
ATOM      2  C   UNL     1       9.548   8.282   1.337  1.00  0.00     0.000 C 
BRANCH   2   3
ATOM      3  C   UNL     1       8.238   8.073   0.563  1.00  0.00     0.000 C 
BRANCH   3   4
ATOM      4  C   UNL     1       8.014   9.124  -0.541  1.00  0.00     0.000 C 
BRANCH   4   5
ATOM      5  C   UNL     1       8.063   8.581  -1.983  1.00  0.00     0.000 C 
BRANCH   5   6
ATOM      6  C   UNL     1       6.732   8.660  -2.759  1.00  0.00     0.000 C 
BRANCH   6   7
ATOM      7  C   UNL     1       6.333   7.370  -3.495  1.00  0.00     0.000 C 
BRANCH   7   8
ATOM      8  C   UNL     1       6.938   6.109  -2.857  1.00  0.00     0.000 C 
BRANCH   8   9
ATOM      9  C   UNL     1       7.002   4.961  -3.876  1.00  0.00     0.000 C 
BRANCH   9  10
ATOM     10  C   UNL     1       8.108   5.162  -4.924  1.00  0.00     0.000 C 
BRANCH  10  11
ATOM     11  C   UNL     1       9.435   5.628  -4.302  1.00  0.00     0.000 C 
BRANCH  11  12
ATOM     12  C   UNL     1      10.445   6.100  -5.371  1.00  0.00     0.000 C 
BRANCH  12  13
ATOM     13  C   UNL     1      10.003   7.371  -6.123  1.00  0.00     0.006 C 
BRANCH  13  14
ATOM     14  C   UNL     1      10.967   8.558  -5.978  1.00  0.00     0.053 C 
BRANCH  14  15
ATOM     15  C   UNL     1      11.446   8.728  -4.566  1.00  0.00     0.041 C 
ATOM     16  O   UNL     1      12.665   8.568  -4.287  1.00  0.00    -0.550 OA
ATOM     17  O   UNL     1      10.551   9.059  -3.559  1.00  0.00    -0.550 OA
ENDBRANCH  14  15
ENDBRANCH  13  14
ENDBRANCH  12  13
ENDBRANCH  11  12
ENDBRANCH  10  11
ENDBRANCH   9  10
ENDBRANCH   8   9
ENDBRANCH   7   8
ENDBRANCH   6   7
ENDBRANCH   5   6
ENDBRANCH   4   5
ENDBRANCH   3   4
ENDBRANCH   2   3
ENDBRANCH   1   2
BRANCH   1  18
ATOM     18  C   UNL     1       9.759   6.198   2.813  1.00  0.00     0.000 C 
BRANCH  18  19
ATOM     19  C   UNL     1       8.294   6.526   3.144  1.00  0.00     0.000 C 
BRANCH  19  20
ATOM     20  C   UNL     1       7.326   5.392   2.758  1.00  0.00     0.000 C 
BRANCH  20  21
ATOM     21  C   UNL     1       7.168   5.163   1.243  1.00  0.00     0.000 C 
BRANCH  21  22
ATOM     22  C   UNL     1       8.298   4.302   0.648  1.00  0.00     0.000 C 
BRANCH  22  23
ATOM     23  C   UNL     1       8.966   4.958  -0.571  1.00  0.00     0.000 C 
BRANCH  23  24
ATOM     24  C   UNL     1       9.894   3.993  -1.330  1.00  0.00    -0.000 C 
BRANCH  24  25
ATOM     25  C   UNL     1       9.783   2.542  -0.813  1.00  0.00    -0.000 C 
BRANCH  25  26
ATOM     26  C   UNL     1      11.074   2.002  -0.166  1.00  0.00    -0.000 C 
BRANCH  26  27
ATOM     27  C   UNL     1      12.076   1.363  -1.141  1.00  0.00    -0.000 C 
BRANCH  27  28
ATOM     28  C   UNL     1      12.184   2.122  -2.474  1.00  0.00    -0.000 C 
BRANCH  28  29
ATOM     29  C   UNL     1      11.285   1.506  -3.559  1.00  0.00    -0.000 C 
BRANCH  29  30
ATOM     30  C   UNL     1      11.410   2.248  -4.901  1.00  0.00    -0.000 C 
BRANCH  30  31
ATOM     31  C   UNL     1      11.485   1.282  -6.095  1.00  0.00    -0.003 C 
ATOM     32  C   UNL     1      11.268  -0.174  -5.678  1.00  0.00     0.004 C 
ENDBRANCH  30  31
ENDBRANCH  29  30
ENDBRANCH  28  29
ENDBRANCH  27  28
ENDBRANCH  26  27
ENDBRANCH  25  26
ENDBRANCH  24  25
ENDBRANCH  23  24
ENDBRANCH  22  23
ENDBRANCH  21  22
ENDBRANCH  20  21
ENDBRANCH  19  20
ENDBRANCH  18  19
ENDBRANCH   1  18
TORSDOF 28
ENDMDL
MODEL 5
REMARK VINA RESULT:    -2.449      4.148      8.926
REMARK INTER + INTRA:          -9.589
REMARK INTER:                  -6.219
REMARK INTRA:                  -3.370
REMARK UNBOUND:                -3.131
REMARK SMILES CCCCCCCCCCCCCCCCCCCCCCCCCCCCCC(=O)[O-]
REMARK SMILES IDX 16 1 17 2 18 3 19 4 20 5 21 6 22 7 23 8 24 9 25 10 26 11
REMARK SMILES IDX 27 12 28 13 29 14 30 15 31 16 32 17 15 18 14 19 13 20 12 21
REMARK SMILES IDX 11 22 10 23 9 24 8 25 7 26 6 27 5 28 4 29 3 30 2 31 1 32
REMARK H PARENT
REMARK Flexibility Score: inf
ROOT
ATOM      1  C   UNL     1       9.753   4.345  -0.810  1.00  0.00     0.000 C 
ENDROOT
BRANCH   1   2
ATOM      2  C   UNL     1       8.859   3.544  -1.770  1.00  0.00     0.000 C 
BRANCH   2   3
ATOM      3  C   UNL     1       9.498   2.187  -2.103  1.00  0.00     0.000 C 
BRANCH   3   4
ATOM      4  C   UNL     1      10.883   2.317  -2.765  1.00  0.00     0.000 C 
BRANCH   4   5
ATOM      5  C   UNL     1      11.923   1.270  -2.317  1.00  0.00     0.000 C 
BRANCH   5   6
ATOM      6  C   UNL     1      12.574   1.538  -0.944  1.00  0.00     0.000 C 
BRANCH   6   7
ATOM      7  C   UNL     1      12.078   0.631   0.196  1.00  0.00     0.000 C 
BRANCH   7   8
ATOM      8  C   UNL     1      13.206  -0.192   0.836  1.00  0.00     0.000 C 
BRANCH   8   9
ATOM      9  C   UNL     1      12.910  -0.461   2.319  1.00  0.00     0.000 C 
BRANCH   9  10
ATOM     10  C   UNL     1      14.137  -0.240   3.217  1.00  0.00     0.000 C 
BRANCH  10  11
ATOM     11  C   UNL     1      14.575  -1.522   3.947  1.00  0.00     0.000 C 
BRANCH  11  12
ATOM     12  C   UNL     1      15.691  -1.251   4.980  1.00  0.00     0.000 C 
BRANCH  12  13
ATOM     13  C   UNL     1      16.304  -2.531   5.581  1.00  0.00     0.006 C 
BRANCH  13  14
ATOM     14  C   UNL     1      16.874  -2.353   6.996  1.00  0.00     0.053 C 
BRANCH  14  15
ATOM     15  C   UNL     1      18.320  -1.950   6.977  1.00  0.00     0.041 C 
ATOM     16  O   UNL     1      18.879  -1.546   8.032  1.00  0.00    -0.550 OA
ATOM     17  O   UNL     1      19.049  -2.015   5.799  1.00  0.00    -0.550 OA
ENDBRANCH  14  15
ENDBRANCH  13  14
ENDBRANCH  12  13
ENDBRANCH  11  12
ENDBRANCH  10  11
ENDBRANCH   9  10
ENDBRANCH   8   9
ENDBRANCH   7   8
ENDBRANCH   6   7
ENDBRANCH   5   6
ENDBRANCH   4   5
ENDBRANCH   3   4
ENDBRANCH   2   3
ENDBRANCH   1   2
BRANCH   1  18
ATOM     18  C   UNL     1       9.770   3.767   0.614  1.00  0.00     0.000 C 
BRANCH  18  19
ATOM     19  C   UNL     1       8.418   3.917   1.331  1.00  0.00     0.000 C 
BRANCH  19  20
ATOM     20  C   UNL     1       7.817   5.328   1.183  1.00  0.00     0.000 C 
BRANCH  20  21
ATOM     21  C   UNL     1       7.722   6.131   2.495  1.00  0.00     0.000 C 
BRANCH  21  22
ATOM     22  C   UNL     1       9.101   6.497   3.073  1.00  0.00     0.000 C 
BRANCH  22  23
ATOM     23  C   UNL     1      10.029   7.143   2.033  1.00  0.00     0.000 C 
BRANCH  23  24
ATOM     24  C   UNL     1       9.747   8.643   1.836  1.00  0.00    -0.000 C 
BRANCH  24  25
ATOM     25  C   UNL     1       8.996   8.931   0.517  1.00  0.00    -0.000 C 
BRANCH  25  26
ATOM     26  C   UNL     1       9.442   8.052  -0.668  1.00  0.00    -0.000 C 
BRANCH  26  27
ATOM     27  C   UNL     1       8.349   7.749  -1.706  1.00  0.00    -0.000 C 
BRANCH  27  28
ATOM     28  C   UNL     1       8.746   8.164  -3.133  1.00  0.00    -0.000 C 
BRANCH  28  29
ATOM     29  C   UNL     1      10.196   8.671  -3.201  1.00  0.00    -0.000 C 
BRANCH  29  30
ATOM     30  C   UNL     1      11.141   7.635  -3.831  1.00  0.00    -0.000 C 
BRANCH  30  31
ATOM     31  C   UNL     1      10.483   6.880  -4.998  1.00  0.00    -0.003 C 
ATOM     32  C   UNL     1      10.363   5.380  -4.725  1.00  0.00     0.004 C 
ENDBRANCH  30  31
ENDBRANCH  29  30
ENDBRANCH  28  29
ENDBRANCH  27  28
ENDBRANCH  26  27
ENDBRANCH  25  26
ENDBRANCH  24  25
ENDBRANCH  23  24
ENDBRANCH  22  23
ENDBRANCH  21  22
ENDBRANCH  20  21
ENDBRANCH  19  20
ENDBRANCH  18  19
ENDBRANCH   1  18
TORSDOF 28
ENDMDL
MODEL 6
REMARK VINA RESULT:    -2.392      2.186      7.303
REMARK INTER + INTRA:          -9.437
REMARK INTER:                  -5.733
REMARK INTRA:                  -3.705
REMARK UNBOUND:                -3.131
REMARK SMILES CCCCCCCCCCCCCCCCCCCCCCCCCCCCCC(=O)[O-]
REMARK SMILES IDX 16 1 17 2 18 3 19 4 20 5 21 6 22 7 23 8 24 9 25 10 26 11
REMARK SMILES IDX 27 12 28 13 29 14 30 15 31 16 32 17 15 18 14 19 13 20 12 21
REMARK SMILES IDX 11 22 10 23 9 24 8 25 7 26 6 27 5 28 4 29 3 30 2 31 1 32
REMARK H PARENT
REMARK Flexibility Score: inf
ROOT
ATOM      1  C   UNL     1       9.399   4.062   0.646  1.00  0.00     0.000 C 
ENDROOT
BRANCH   1   2
ATOM      2  C   UNL     1       8.037   3.556   0.146  1.00  0.00     0.000 C 
BRANCH   2   3
ATOM      3  C   UNL     1       7.379   4.590  -0.781  1.00  0.00     0.000 C 
BRANCH   3   4
ATOM      4  C   UNL     1       6.330   5.463  -0.065  1.00  0.00     0.000 C 
BRANCH   4   5
ATOM      5  C   UNL     1       6.715   6.947   0.098  1.00  0.00     0.000 C 
BRANCH   5   6
ATOM      6  C   UNL     1       5.877   7.733   1.127  1.00  0.00     0.000 C 
BRANCH   6   7
ATOM      7  C   UNL     1       5.902   7.162   2.555  1.00  0.00     0.000 C 
BRANCH   7   8
ATOM      8  C   UNL     1       7.228   7.436   3.283  1.00  0.00     0.000 C 
BRANCH   8   9
ATOM      9  C   UNL     1       8.204   6.265   3.096  1.00  0.00     0.000 C 
BRANCH   9  10
ATOM     10  C   UNL     1       9.661   6.659   3.381  1.00  0.00     0.000 C 
BRANCH  10  11
ATOM     11  C   UNL     1      10.362   7.265   2.152  1.00  0.00     0.000 C 
BRANCH  11  12
ATOM     12  C   UNL     1       9.884   8.705   1.862  1.00  0.00     0.000 C 
BRANCH  12  13
ATOM     13  C   UNL     1      10.020   9.118   0.383  1.00  0.00     0.006 C 
BRANCH  13  14
ATOM     14  C   UNL     1       9.526   8.061  -0.615  1.00  0.00     0.053 C 
BRANCH  14  15
ATOM     15  C   UNL     1      10.550   7.755  -1.669  1.00  0.00     0.041 C 
ATOM     16  O   UNL     1      11.077   6.612  -1.728  1.00  0.00    -0.550 OA
ATOM     17  O   UNL     1      10.926   8.729  -2.582  1.00  0.00    -0.550 OA
ENDBRANCH  14  15
ENDBRANCH  13  14
ENDBRANCH  12  13
ENDBRANCH  11  12
ENDBRANCH  10  11
ENDBRANCH   9  10
ENDBRANCH   8   9
ENDBRANCH   7   8
ENDBRANCH   6   7
ENDBRANCH   5   6
ENDBRANCH   4   5
ENDBRANCH   3   4
ENDBRANCH   2   3
ENDBRANCH   1   2
BRANCH   1  18
ATOM     18  C   UNL     1      10.582   3.279   0.055  1.00  0.00     0.000 C 
BRANCH  18  19
ATOM     19  C   UNL     1      10.154   2.311  -1.060  1.00  0.00     0.000 C 
BRANCH  19  20
ATOM     20  C   UNL     1      11.342   1.553  -1.683  1.00  0.00     0.000 C 
BRANCH  20  21
ATOM     21  C   UNL     1      11.814   2.098  -3.045  1.00  0.00     0.000 C 
BRANCH  21  22
ATOM     22  C   UNL     1      11.406   3.565  -3.276  1.00  0.00     0.000 C 
BRANCH  22  23
ATOM     23  C   UNL     1      10.659   3.772  -4.603  1.00  0.00     0.000 C 
BRANCH  23  24
ATOM     24  C   UNL     1       9.916   5.118  -4.662  1.00  0.00    -0.000 C 
BRANCH  24  25
ATOM     25  C   UNL     1       8.650   5.129  -3.776  1.00  0.00    -0.000 C 
BRANCH  25  26
ATOM     26  C   UNL     1       7.377   4.632  -4.490  1.00  0.00    -0.000 C 
BRANCH  26  27
ATOM     27  C   UNL     1       6.247   5.668  -4.609  1.00  0.00    -0.000 C 
BRANCH  27  28
ATOM     28  C   UNL     1       6.370   6.809  -3.585  1.00  0.00    -0.000 C 
BRANCH  28  29
ATOM     29  C   UNL     1       7.485   7.800  -3.959  1.00  0.00    -0.000 C 
BRANCH  29  30
ATOM     30  C   UNL     1       6.967   8.942  -4.849  1.00  0.00    -0.000 C 
BRANCH  30  31
ATOM     31  C   UNL     1       7.807   9.113  -6.125  1.00  0.00    -0.003 C 
ATOM     32  C   UNL     1       9.267   8.709  -5.917  1.00  0.00     0.004 C 
ENDBRANCH  30  31
ENDBRANCH  29  30
ENDBRANCH  28  29
ENDBRANCH  27  28
ENDBRANCH  26  27
ENDBRANCH  25  26
ENDBRANCH  24  25
ENDBRANCH  23  24
ENDBRANCH  22  23
ENDBRANCH  21  22
ENDBRANCH  20  21
ENDBRANCH  19  20
ENDBRANCH  18  19
ENDBRANCH   1  18
TORSDOF 28
ENDMDL
MODEL 7
REMARK VINA RESULT:    -2.285      3.803      7.333
REMARK INTER + INTRA:          -9.156
REMARK INTER:                  -7.500
REMARK INTRA:                  -1.656
REMARK UNBOUND:                -3.131
REMARK SMILES CCCCCCCCCCCCCCCCCCCCCCCCCCCCCC(=O)[O-]
REMARK SMILES IDX 16 1 17 2 18 3 19 4 20 5 21 6 22 7 23 8 24 9 25 10 26 11
REMARK SMILES IDX 27 12 28 13 29 14 30 15 31 16 32 17 15 18 14 19 13 20 12 21
REMARK SMILES IDX 11 22 10 23 9 24 8 25 7 26 6 27 5 28 4 29 3 30 2 31 1 32
REMARK H PARENT
REMARK Flexibility Score: inf
ROOT
ATOM      1  C   UNL     1      11.509   1.098  -4.814  1.00  0.00     0.000 C 
ENDROOT
BRANCH   1   2
ATOM      2  C   UNL     1      11.520   2.185  -5.901  1.00  0.00     0.000 C 
BRANCH   2   3
ATOM      3  C   UNL     1      10.436   3.239  -5.629  1.00  0.00     0.000 C 
BRANCH   3   4
ATOM      4  C   UNL     1      10.822   4.645  -6.125  1.00  0.00     0.000 C 
BRANCH   4   5
ATOM      5  C   UNL     1      10.496   5.795  -5.151  1.00  0.00     0.000 C 
BRANCH   5   6
ATOM      6  C   UNL     1       9.366   5.502  -4.143  1.00  0.00     0.000 C 
BRANCH   6   7
ATOM      7  C   UNL     1       7.965   5.362  -4.764  1.00  0.00     0.000 C 
BRANCH   7   8
ATOM      8  C   UNL     1       6.881   6.096  -3.961  1.00  0.00     0.000 C 
BRANCH   8   9
ATOM      9  C   UNL     1       6.638   5.402  -2.612  1.00  0.00     0.000 C 
BRANCH   9  10
ATOM     10  C   UNL     1       7.317   4.027  -2.525  1.00  0.00     0.000 C 
BRANCH  10  11
ATOM     11  C   UNL     1       8.394   3.968  -1.426  1.00  0.00     0.000 C 
BRANCH  11  12
ATOM     12  C   UNL     1       7.875   4.504  -0.074  1.00  0.00     0.000 C 
BRANCH  12  13
ATOM     13  C   UNL     1       8.809   4.201   1.114  1.00  0.00     0.006 C 
BRANCH  13  14
ATOM     14  C   UNL     1       9.951   5.212   1.293  1.00  0.00     0.053 C 
BRANCH  14  15
ATOM     15  C   UNL     1       9.525   6.412   2.087  1.00  0.00     0.041 C 
ATOM     16  O   UNL     1       8.648   6.299   2.985  1.00  0.00    -0.550 OA
ATOM     17  O   UNL     1      10.091   7.653   1.835  1.00  0.00    -0.550 OA
ENDBRANCH  14  15
ENDBRANCH  13  14
ENDBRANCH  12  13
ENDBRANCH  11  12
ENDBRANCH  10  11
ENDBRANCH   9  10
ENDBRANCH   8   9
ENDBRANCH   7   8
ENDBRANCH   6   7
ENDBRANCH   5   6
ENDBRANCH   4   5
ENDBRANCH   3   4
ENDBRANCH   2   3
ENDBRANCH   1   2
BRANCH   1  18
ATOM     18  C   UNL     1      11.019   1.619  -3.453  1.00  0.00     0.000 C 
BRANCH  18  19
ATOM     19  C   UNL     1      12.175   1.952  -2.495  1.00  0.00     0.000 C 
BRANCH  19  20
ATOM     20  C   UNL     1      11.688   2.421  -1.111  1.00  0.00     0.000 C 
BRANCH  20  21
ATOM     21  C   UNL     1      11.813   1.369   0.009  1.00  0.00     0.000 C 
BRANCH  21  22
ATOM     22  C   UNL     1      12.668   0.157  -0.402  1.00  0.00     0.000 C 
BRANCH  22  23
ATOM     23  C   UNL     1      13.729  -0.206   0.649  1.00  0.00     0.000 C 
BRANCH  23  24
ATOM     24  C   UNL     1      13.117  -0.532   2.023  1.00  0.00    -0.000 C 
BRANCH  24  25
ATOM     25  C   UNL     1      14.075  -0.197   3.187  1.00  0.00    -0.000 C 
BRANCH  25  26
ATOM     26  C   UNL     1      14.610  -1.432   3.939  1.00  0.00    -0.000 C 
BRANCH  26  27
ATOM     27  C   UNL     1      15.657  -1.135   5.025  1.00  0.00    -0.000 C 
BRANCH  27  28
ATOM     28  C   UNL     1      16.093  -2.392   5.798  1.00  0.00    -0.000 C 
BRANCH  28  29
ATOM     29  C   UNL     1      17.248  -2.096   6.768  1.00  0.00    -0.000 C 
BRANCH  29  30
ATOM     30  C   UNL     1      18.551  -1.755   6.026  1.00  0.00    -0.000 C 
BRANCH  30  31
ATOM     31  C   UNL     1      19.800  -2.121   6.845  1.00  0.00    -0.003 C 
ATOM     32  C   UNL     1      19.462  -2.471   8.295  1.00  0.00     0.004 C 
ENDBRANCH  30  31
ENDBRANCH  29  30
ENDBRANCH  28  29
ENDBRANCH  27  28
ENDBRANCH  26  27
ENDBRANCH  25  26
ENDBRANCH  24  25
ENDBRANCH  23  24
ENDBRANCH  22  23
ENDBRANCH  21  22
ENDBRANCH  20  21
ENDBRANCH  19  20
ENDBRANCH  18  19
ENDBRANCH   1  18
TORSDOF 28
ENDMDL
MODEL 8
REMARK VINA RESULT:    -2.225      4.252      9.114
REMARK INTER + INTRA:          -8.997
REMARK INTER:                  -5.793
REMARK INTRA:                  -3.204
REMARK UNBOUND:                -3.131
REMARK SMILES CCCCCCCCCCCCCCCCCCCCCCCCCCCCCC(=O)[O-]
REMARK SMILES IDX 16 1 17 2 18 3 19 4 20 5 21 6 22 7 23 8 24 9 25 10 26 11
REMARK SMILES IDX 27 12 28 13 29 14 30 15 31 16 32 17 15 18 14 19 13 20 12 21
REMARK SMILES IDX 11 22 10 23 9 24 8 25 7 26 6 27 5 28 4 29 3 30 2 31 1 32
REMARK H PARENT
REMARK Flexibility Score: inf
ROOT
ATOM      1  C   UNL     1       8.230   4.304  -2.700  1.00  0.00     0.000 C 
ENDROOT
BRANCH   1   2
ATOM      2  C   UNL     1       7.950   3.931  -1.236  1.00  0.00     0.000 C 
BRANCH   2   3
ATOM      3  C   UNL     1       9.245   3.963  -0.409  1.00  0.00     0.000 C 
BRANCH   3   4
ATOM      4  C   UNL     1       9.950   2.595  -0.339  1.00  0.00     0.000 C 
BRANCH   4   5
ATOM      5  C   UNL     1      11.057   2.375  -1.391  1.00  0.00     0.000 C 
BRANCH   5   6
ATOM      6  C   UNL     1      12.201   1.438  -0.952  1.00  0.00     0.000 C 
BRANCH   6   7
ATOM      7  C   UNL     1      12.005   0.774   0.421  1.00  0.00     0.000 C 
BRANCH   7   8
ATOM      8  C   UNL     1      13.252   0.015   0.900  1.00  0.00     0.000 C 
BRANCH   8   9
ATOM      9  C   UNL     1      13.007  -0.621   2.276  1.00  0.00     0.000 C 
BRANCH   9  10
ATOM     10  C   UNL     1      14.091  -0.251   3.301  1.00  0.00     0.000 C 
BRANCH  10  11
ATOM     11  C   UNL     1      14.811  -1.484   3.873  1.00  0.00     0.000 C 
BRANCH  11  12
ATOM     12  C   UNL     1      15.587  -1.156   5.168  1.00  0.00     0.000 C 
BRANCH  12  13
ATOM     13  C   UNL     1      16.568  -2.262   5.601  1.00  0.00     0.006 C 
BRANCH  13  14
ATOM     14  C   UNL     1      17.164  -2.065   7.002  1.00  0.00     0.053 C 
BRANCH  14  15
ATOM     15  C   UNL     1      18.664  -2.050   6.983  1.00  0.00     0.041 C 
ATOM     16  O   UNL     1      19.281  -1.728   5.932  1.00  0.00    -0.550 OA
ATOM     17  O   UNL     1      19.382  -2.395   8.119  1.00  0.00    -0.550 OA
ENDBRANCH  14  15
ENDBRANCH  13  14
ENDBRANCH  12  13
ENDBRANCH  11  12
ENDBRANCH  10  11
ENDBRANCH   9  10
ENDBRANCH   8   9
ENDBRANCH   7   8
ENDBRANCH   6   7
ENDBRANCH   5   6
ENDBRANCH   4   5
ENDBRANCH   3   4
ENDBRANCH   2   3
ENDBRANCH   1   2
BRANCH   1  18
ATOM     18  C   UNL     1       6.984   4.828  -3.432  1.00  0.00     0.000 C 
BRANCH  18  19
ATOM     19  C   UNL     1       6.539   6.212  -2.931  1.00  0.00     0.000 C 
BRANCH  19  20
ATOM     20  C   UNL     1       7.137   7.367  -3.757  1.00  0.00     0.000 C 
BRANCH  20  21
ATOM     21  C   UNL     1       8.362   6.986  -4.610  1.00  0.00     0.000 C 
BRANCH  21  22
ATOM     22  C   UNL     1       9.660   7.661  -4.129  1.00  0.00     0.000 C 
BRANCH  22  23
ATOM     23  C   UNL     1      10.615   6.681  -3.429  1.00  0.00     0.000 C 
BRANCH  23  24
ATOM     24  C   UNL     1      10.723   6.935  -1.915  1.00  0.00    -0.000 C 
BRANCH  24  25
ATOM     25  C   UNL     1      10.381   8.393  -1.539  1.00  0.00    -0.000 C 
BRANCH  25  26
ATOM     26  C   UNL     1       9.480   8.529  -0.295  1.00  0.00    -0.000 C 
BRANCH  26  27
ATOM     27  C   UNL     1       8.248   7.609  -0.277  1.00  0.00    -0.000 C 
BRANCH  27  28
ATOM     28  C   UNL     1       7.503   7.630   1.069  1.00  0.00    -0.000 C 
BRANCH  28  29
ATOM     29  C   UNL     1       7.757   6.353   1.886  1.00  0.00    -0.000 C 
BRANCH  29  30
ATOM     30  C   UNL     1       8.822   6.566   2.974  1.00  0.00    -0.000 C 
BRANCH  30  31
ATOM     31  C   UNL     1      10.237   6.226   2.479  1.00  0.00    -0.003 C 
ATOM     32  C   UNL     1      11.246   6.128   3.624  1.00  0.00     0.004 C 
ENDBRANCH  30  31
ENDBRANCH  29  30
ENDBRANCH  28  29
ENDBRANCH  27  28
ENDBRANCH  26  27
ENDBRANCH  25  26
ENDBRANCH  24  25
ENDBRANCH  23  24
ENDBRANCH  22  23
ENDBRANCH  21  22
ENDBRANCH  20  21
ENDBRANCH  19  20
ENDBRANCH  18  19
ENDBRANCH   1  18
TORSDOF 28
ENDMDL
