MODEL 1
REMARK VINA RESULT:    -7.209      0.000      0.000
REMARK INTER + INTRA:         -11.002
REMARK INTER:                  -9.526
REMARK INTRA:                  -1.476
REMARK UNBOUND:                -1.476
REMARK SMILES CC(C)=CCC[C@H](C(=O)[O-])[C@@H]1CC[C@]2(C)C3=C(CC[C@@]12C)[C@]1(C)CC[C@@H](O)C(C)(C)[C@@H]1CC3
REMARK SMILES IDX 6 1 7 2 8 3 9 4 10 5 11 6 12 7 20 8 13 9 14 10 19 11 21 12
REMARK SMILES IDX 15 13 16 14 18 15 17 16 33 17 22 18 32 19 31 20 24 21 23 22
REMARK SMILES IDX 28 23 25 24 26 25 29 26 30 27 27 28 5 30 4 31 2 32 1 33 3 34
REMARK H PARENT 27 29
REMARK Flexibility Score: inf
ROOT
ATOM      1  C   UNL     1      50.103   1.002  22.461  1.00  0.00     0.014 C 
ENDROOT
BRANCH   1   2
ATOM      2  C   UNL     1      50.117   2.444  21.870  1.00  0.00     0.039 C 
BRANCH   2   3
ATOM      3  C   UNL     1      51.324   2.661  20.986  1.00  0.00     0.045 C 
ATOM      4  O   UNL     1      51.184   3.149  19.833  1.00  0.00    -0.550 OA
ATOM      5  O   UNL     1      52.593   2.286  21.417  1.00  0.00    -0.550 OA
ENDBRANCH   2   3
BRANCH   2   6
ATOM      6  C   UNL     1      49.928   3.637  22.882  1.00  0.00     0.004 C 
ATOM      7  C   UNL     1      49.505   3.295  24.335  1.00  0.00     0.006 C 
ATOM      8  C   UNL     1      48.946   4.768  22.472  1.00  0.00    -0.020 C 
ATOM      9  C   UNL     1      48.644   4.476  24.838  1.00  0.00     0.012 C 
ATOM     10  C   UNL     1      48.822   5.590  23.786  1.00  0.00    -0.006 C 
ATOM     11  C   UNL     1      49.444   5.709  21.363  1.00  0.00     0.012 C 
ATOM     12  C   UNL     1      47.574   4.154  22.019  1.00  0.00     0.012 C 
ATOM     13  C   UNL     1      50.094   6.404  24.199  1.00  0.00     0.017 C 
ATOM     14  C   UNL     1      47.723   6.631  23.618  1.00  0.00    -0.064 C 
ATOM     15  C   UNL     1      48.521   6.951  21.224  1.00  0.00     0.032 C 
ATOM     16  C   UNL     1      47.686   7.376  22.465  1.00  0.00    -0.064 C 
ATOM     17  C   UNL     1      46.807   6.959  24.770  1.00  0.00     0.032 C 
ATOM     18  C   UNL     1      46.847   8.691  22.379  1.00  0.00    -0.008 C 
ATOM     19  C   UNL     1      45.482   7.434  24.216  1.00  0.00     0.009 C 
ATOM     20  C   UNL     1      45.639   8.762  23.433  1.00  0.00     0.007 C 
ATOM     21  C   UNL     1      47.844   9.874  22.554  1.00  0.00     0.014 C 
ATOM     22  C   UNL     1      46.235   8.813  20.958  1.00  0.00     0.016 C 
ATOM     23  C   UNL     1      45.576  10.096  24.308  1.00  0.00    -0.006 C 
ATOM     24  C   UNL     1      48.197  10.127  24.011  1.00  0.00     0.033 C 
ATOM     25  C   UNL     1      46.984  10.515  24.880  1.00  0.00     0.120 C 
ATOM     26  C   UNL     1      44.954  11.235  23.440  1.00  0.00     0.014 C 
ATOM     27  C   UNL     1      44.604   9.947  25.512  1.00  0.00     0.014 C 
BRANCH  25  28
ATOM     28  O   UNL     1      47.036  11.899  25.131  1.00  0.00    -0.393 OA
ATOM     29  H   UNL     1      47.148  12.354  24.256  1.00  0.00     0.210 HD
ENDBRANCH  25  28
ENDBRANCH   2   6
ENDBRANCH   1   2
BRANCH   1  30
ATOM     30  C   UNL     1      49.092   0.023  21.819  1.00  0.00     0.028 C 
BRANCH  30  31
ATOM     31  C   UNL     1      47.661   0.341  22.191  1.00  0.00    -0.028 C 
ATOM     32  C   UNL     1      46.765   0.842  21.313  1.00  0.00    -0.080 C 
ATOM     33  C   UNL     1      47.139   1.124  19.878  1.00  0.00     0.039 C 
ATOM     34  C   UNL     1      45.364   1.122  21.790  1.00  0.00     0.039 C 
ENDBRANCH  30  31
ENDBRANCH   1  30
TORSDOF 6
ENDMDL
MODEL 2
REMARK VINA RESULT:    -7.047      3.281      8.061
REMARK INTER + INTRA:         -10.789
REMARK INTER:                  -9.636
REMARK INTRA:                  -1.154
REMARK UNBOUND:                -1.476
REMARK SMILES CC(C)=CCC[C@H](C(=O)[O-])[C@@H]1CC[C@]2(C)C3=C(CC[C@@]12C)[C@]1(C)CC[C@@H](O)C(C)(C)[C@@H]1CC3
REMARK SMILES IDX 6 1 7 2 8 3 9 4 10 5 11 6 12 7 20 8 13 9 14 10 19 11 21 12
REMARK SMILES IDX 15 13 16 14 18 15 17 16 33 17 22 18 32 19 31 20 24 21 23 22
REMARK SMILES IDX 28 23 25 24 26 25 29 26 30 27 27 28 5 30 4 31 2 32 1 33 3 34
REMARK H PARENT 27 29
REMARK Flexibility Score: inf
ROOT
ATOM      1  C   UNL     1      49.974   8.248  21.120  1.00  0.00     0.014 C 
ENDROOT
BRANCH   1   2
ATOM      2  C   UNL     1      48.876   7.146  21.026  1.00  0.00     0.039 C 
BRANCH   2   3
ATOM      3  C   UNL     1      47.541   7.735  20.631  1.00  0.00     0.045 C 
ATOM      4  O   UNL     1      47.377   8.206  19.474  1.00  0.00    -0.550 OA
ATOM      5  O   UNL     1      46.498   7.804  21.549  1.00  0.00    -0.550 OA
ENDBRANCH   2   3
BRANCH   2   6
ATOM      6  C   UNL     1      48.729   6.172  22.257  1.00  0.00     0.004 C 
ATOM      7  C   UNL     1      49.745   6.316  23.421  1.00  0.00     0.006 C 
ATOM      8  C   UNL     1      48.726   4.648  21.960  1.00  0.00    -0.020 C 
ATOM      9  C   UNL     1      49.941   4.905  24.019  1.00  0.00     0.012 C 
ATOM     10  C   UNL     1      48.835   4.036  23.386  1.00  0.00    -0.006 C 
ATOM     11  C   UNL     1      47.448   4.103  21.301  1.00  0.00     0.012 C 
ATOM     12  C   UNL     1      49.950   4.272  21.053  1.00  0.00     0.012 C 
ATOM     13  C   UNL     1      47.566   4.189  24.288  1.00  0.00     0.017 C 
ATOM     14  C   UNL     1      49.055   2.533  23.264  1.00  0.00    -0.064 C 
ATOM     15  C   UNL     1      47.435   2.550  21.302  1.00  0.00     0.032 C 
ATOM     16  C   UNL     1      48.277   1.818  22.385  1.00  0.00    -0.064 C 
ATOM     17  C   UNL     1      49.980   1.822  24.218  1.00  0.00     0.032 C 
ATOM     18  C   UNL     1      48.179   0.262  22.476  1.00  0.00    -0.008 C 
ATOM     19  C   UNL     1      50.544   0.599  23.528  1.00  0.00     0.009 C 
ATOM     20  C   UNL     1      49.432  -0.429  23.201  1.00  0.00     0.007 C 
ATOM     21  C   UNL     1      46.837  -0.063  23.195  1.00  0.00     0.014 C 
ATOM     22  C   UNL     1      48.084  -0.327  21.042  1.00  0.00     0.016 C 
ATOM     23  C   UNL     1      49.065  -1.450  24.371  1.00  0.00    -0.006 C 
ATOM     24  C   UNL     1      46.938   0.075  24.706  1.00  0.00     0.033 C 
ATOM     25  C   UNL     1      47.960  -0.887  25.345  1.00  0.00     0.120 C 
ATOM     26  C   UNL     1      48.622  -2.804  23.733  1.00  0.00     0.014 C 
ATOM     27  C   UNL     1      50.309  -1.811  25.229  1.00  0.00     0.014 C 
BRANCH  25  28
ATOM     28  O   UNL     1      47.260  -1.933  25.973  1.00  0.00    -0.393 OA
ATOM     29  H   UNL     1      47.800  -2.224  26.754  1.00  0.00     0.210 HD
ENDBRANCH  25  28
ENDBRANCH   2   6
ENDBRANCH   1   2
BRANCH   1  30
ATOM     30  C   UNL     1      50.618   8.671  19.778  1.00  0.00     0.028 C 
BRANCH  30  31
ATOM     31  C   UNL     1      51.279   7.515  19.063  1.00  0.00    -0.028 C 
ATOM     32  C   UNL     1      51.027   7.204  17.773  1.00  0.00    -0.080 C 
ATOM     33  C   UNL     1      50.051   8.004  16.944  1.00  0.00     0.039 C 
ATOM     34  C   UNL     1      51.744   6.031  17.158  1.00  0.00     0.039 C 
ENDBRANCH  30  31
ENDBRANCH   1  30
TORSDOF 6
ENDMDL
MODEL 3
REMARK VINA RESULT:    -6.968      2.122      7.952
REMARK INTER + INTRA:         -10.685
REMARK INTER:                  -9.278
REMARK INTRA:                  -1.407
REMARK UNBOUND:                -1.476
REMARK SMILES CC(C)=CCC[C@H](C(=O)[O-])[C@@H]1CC[C@]2(C)C3=C(CC[C@@]12C)[C@]1(C)CC[C@@H](O)C(C)(C)[C@@H]1CC3
REMARK SMILES IDX 6 1 7 2 8 3 9 4 10 5 11 6 12 7 20 8 13 9 14 10 19 11 21 12
REMARK SMILES IDX 15 13 16 14 18 15 17 16 33 17 22 18 32 19 31 20 24 21 23 22
REMARK SMILES IDX 28 23 25 24 26 25 29 26 30 27 27 28 5 30 4 31 2 32 1 33 3 34
REMARK H PARENT 27 29
REMARK Flexibility Score: inf
ROOT
ATOM      1  C   UNL     1      47.151  10.173  23.326  1.00  0.00     0.014 C 
ENDROOT
BRANCH   1   2
ATOM      2  C   UNL     1      47.732   9.267  22.199  1.00  0.00     0.039 C 
BRANCH   2   3
ATOM      3  C   UNL     1      47.710   9.973  20.863  1.00  0.00     0.045 C 
ATOM      4  O   UNL     1      48.523   9.642  19.960  1.00  0.00    -0.550 OA
ATOM      5  O   UNL     1      46.823  11.020  20.630  1.00  0.00    -0.550 OA
ENDBRANCH   2   3
BRANCH   2   6
ATOM      6  C   UNL     1      47.155   7.805  22.084  1.00  0.00     0.004 C 
ATOM      7  C   UNL     1      46.006   7.401  23.046  1.00  0.00     0.006 C 
ATOM      8  C   UNL     1      48.164   6.631  22.206  1.00  0.00    -0.020 C 
ATOM      9  C   UNL     1      46.171   5.890  23.327  1.00  0.00     0.012 C 
ATOM     10  C   UNL     1      47.223   5.398  22.312  1.00  0.00    -0.006 C 
ATOM     11  C   UNL     1      49.090   6.425  20.996  1.00  0.00     0.012 C 
ATOM     12  C   UNL     1      49.055   6.815  23.485  1.00  0.00     0.012 C 
ATOM     13  C   UNL     1      46.449   5.021  21.004  1.00  0.00     0.017 C 
ATOM     14  C   UNL     1      48.055   4.167  22.648  1.00  0.00    -0.064 C 
ATOM     15  C   UNL     1      49.856   5.078  21.100  1.00  0.00     0.032 C 
ATOM     16  C   UNL     1      49.221   3.946  21.957  1.00  0.00    -0.064 C 
ATOM     17  C   UNL     1      47.516   3.122  23.591  1.00  0.00     0.032 C 
ATOM     18  C   UNL     1      49.918   2.548  21.973  1.00  0.00    -0.008 C 
ATOM     19  C   UNL     1      48.680   2.432  24.269  1.00  0.00     0.009 C 
ATOM     20  C   UNL     1      49.546   1.650  23.249  1.00  0.00     0.007 C 
ATOM     21  C   UNL     1      49.543   1.843  20.636  1.00  0.00     0.014 C 
ATOM     22  C   UNL     1      51.457   2.745  21.972  1.00  0.00     0.016 C 
ATOM     23  C   UNL     1      49.059   0.166  22.920  1.00  0.00    -0.006 C 
ATOM     24  C   UNL     1      48.158   1.218  20.675  1.00  0.00     0.033 C 
ATOM     25  C   UNL     1      48.010   0.117  21.743  1.00  0.00     0.120 C 
ATOM     26  C   UNL     1      50.310  -0.712  22.602  1.00  0.00     0.014 C 
ATOM     27  C   UNL     1      48.409  -0.513  24.158  1.00  0.00     0.014 C 
BRANCH  25  28
ATOM     28  O   UNL     1      48.028  -1.136  21.103  1.00  0.00    -0.393 OA
ATOM     29  H   UNL     1      48.717  -1.690  21.556  1.00  0.00     0.210 HD
ENDBRANCH  25  28
ENDBRANCH   2   6
ENDBRANCH   1   2
BRANCH   1  30
ATOM     30  C   UNL     1      47.738   9.950  24.739  1.00  0.00     0.028 C 
BRANCH  30  31
ATOM     31  C   UNL     1      46.688   9.527  25.742  1.00  0.00    -0.028 C 
ATOM     32  C   UNL     1      46.863   8.503  26.605  1.00  0.00    -0.080 C 
ATOM     33  C   UNL     1      48.140   7.697  26.627  1.00  0.00     0.039 C 
ATOM     34  C   UNL     1      45.751   8.166  27.564  1.00  0.00     0.039 C 
ENDBRANCH  30  31
ENDBRANCH   1  30
TORSDOF 6
ENDMDL
MODEL 4
REMARK VINA RESULT:    -6.950      2.525      8.098
REMARK INTER + INTRA:         -10.661
REMARK INTER:                  -9.193
REMARK INTRA:                  -1.468
REMARK UNBOUND:                -1.476
REMARK SMILES CC(C)=CCC[C@H](C(=O)[O-])[C@@H]1CC[C@]2(C)C3=C(CC[C@@]12C)[C@]1(C)CC[C@@H](O)C(C)(C)[C@@H]1CC3
REMARK SMILES IDX 6 1 7 2 8 3 9 4 10 5 11 6 12 7 20 8 13 9 14 10 19 11 21 12
REMARK SMILES IDX 15 13 16 14 18 15 17 16 33 17 22 18 32 19 31 20 24 21 23 22
REMARK SMILES IDX 28 23 25 24 26 25 29 26 30 27 27 28 5 30 4 31 2 32 1 33 3 34
REMARK H PARENT 27 29
REMARK Flexibility Score: inf
ROOT
ATOM      1  C   UNL     1      47.645   8.900  21.886  1.00  0.00     0.014 C 
ENDROOT
BRANCH   1   2
ATOM      2  C   UNL     1      48.490   7.648  21.504  1.00  0.00     0.039 C 
BRANCH   2   3
ATOM      3  C   UNL     1      49.201   7.849  20.185  1.00  0.00     0.045 C 
ATOM      4  O   UNL     1      50.448   7.689  20.109  1.00  0.00    -0.550 OA
ATOM      5  O   UNL     1      48.496   8.253  19.055  1.00  0.00    -0.550 OA
ENDBRANCH   2   3
BRANCH   2   6
ATOM      6  C   UNL     1      47.764   6.249  21.555  1.00  0.00     0.004 C 
ATOM      7  C   UNL     1      46.424   6.156  22.332  1.00  0.00     0.006 C 
ATOM      8  C   UNL     1      48.583   5.044  22.091  1.00  0.00    -0.020 C 
ATOM      9  C   UNL     1      46.349   4.728  22.919  1.00  0.00     0.012 C 
ATOM     10  C   UNL     1      47.492   3.946  22.241  1.00  0.00    -0.006 C 
ATOM     11  C   UNL     1      49.674   4.511  21.147  1.00  0.00     0.012 C 
ATOM     12  C   UNL     1      49.253   5.413  23.462  1.00  0.00     0.012 C 
ATOM     13  C   UNL     1      46.918   3.373  20.903  1.00  0.00     0.017 C 
ATOM     14  C   UNL     1      48.094   2.745  22.960  1.00  0.00    -0.064 C 
ATOM     15  C   UNL     1      50.237   3.154  21.651  1.00  0.00     0.032 C 
ATOM     16  C   UNL     1      49.326   2.285  22.565  1.00  0.00    -0.064 C 
ATOM     17  C   UNL     1      47.273   1.970  23.959  1.00  0.00     0.032 C 
ATOM     18  C   UNL     1      49.830   0.865  22.980  1.00  0.00    -0.008 C 
ATOM     19  C   UNL     1      48.206   1.339  24.969  1.00  0.00     0.009 C 
ATOM     20  C   UNL     1      49.132   0.289  24.305  1.00  0.00     0.007 C 
ATOM     21  C   UNL     1      49.611  -0.067  21.753  1.00  0.00     0.014 C 
ATOM     22  C   UNL     1      51.359   0.925  23.244  1.00  0.00     0.016 C 
ATOM     23  C   UNL     1      48.530  -1.183  24.172  1.00  0.00    -0.006 C 
ATOM     24  C   UNL     1      48.173  -0.548  21.637  1.00  0.00     0.033 C 
ATOM     25  C   UNL     1      47.706  -1.386  22.843  1.00  0.00     0.120 C 
ATOM     26  C   UNL     1      49.699  -2.213  24.277  1.00  0.00     0.014 C 
ATOM     27  C   UNL     1      47.595  -1.530  25.364  1.00  0.00     0.014 C 
BRANCH  25  28
ATOM     28  O   UNL     1      47.679  -2.741  22.467  1.00  0.00    -0.393 OA
ATOM     29  H   UNL     1      48.614  -3.075  22.497  1.00  0.00     0.210 HD
ENDBRANCH  25  28
ENDBRANCH   2   6
ENDBRANCH   1   2
BRANCH   1  30
ATOM     30  C   UNL     1      48.102   9.659  23.154  1.00  0.00     0.028 C 
BRANCH  30  31
ATOM     31  C   UNL     1      47.906   8.848  24.416  1.00  0.00    -0.028 C 
ATOM     32  C   UNL     1      48.932   8.364  25.149  1.00  0.00    -0.080 C 
ATOM     33  C   UNL     1      50.369   8.603  24.751  1.00  0.00     0.039 C 
ATOM     34  C   UNL     1      48.622   7.569  26.390  1.00  0.00     0.039 C 
ENDBRANCH  30  31
ENDBRANCH   1  30
TORSDOF 6
ENDMDL
MODEL 5
REMARK VINA RESULT:    -6.845      2.089      3.744
REMARK INTER + INTRA:         -10.521
REMARK INTER:                  -9.246
REMARK INTRA:                  -1.275
REMARK UNBOUND:                -1.476
REMARK SMILES CC(C)=CCC[C@H](C(=O)[O-])[C@@H]1CC[C@]2(C)C3=C(CC[C@@]12C)[C@]1(C)CC[C@@H](O)C(C)(C)[C@@H]1CC3
REMARK SMILES IDX 6 1 7 2 8 3 9 4 10 5 11 6 12 7 20 8 13 9 14 10 19 11 21 12
REMARK SMILES IDX 15 13 16 14 18 15 17 16 33 17 22 18 32 19 31 20 24 21 23 22
REMARK SMILES IDX 28 23 25 24 26 25 29 26 30 27 27 28 5 30 4 31 2 32 1 33 3 34
REMARK H PARENT 27 29
REMARK Flexibility Score: inf
ROOT
ATOM      1  C   UNL     1      50.399   0.658  22.192  1.00  0.00     0.014 C 
ENDROOT
BRANCH   1   2
ATOM      2  C   UNL     1      50.078   1.550  23.428  1.00  0.00     0.039 C 
BRANCH   2   3
ATOM      3  C   UNL     1      50.006   0.726  24.694  1.00  0.00     0.045 C 
ATOM      4  O   UNL     1      50.000   1.295  25.818  1.00  0.00    -0.550 OA
ATOM      5  O   UNL     1      49.990  -0.663  24.633  1.00  0.00    -0.550 OA
ENDBRANCH   2   3
BRANCH   2   6
ATOM      6  C   UNL     1      48.845   2.525  23.310  1.00  0.00     0.004 C 
ATOM      7  C   UNL     1      47.947   2.410  22.050  1.00  0.00     0.006 C 
ATOM      8  C   UNL     1      49.131   4.048  23.418  1.00  0.00    -0.020 C 
ATOM      9  C   UNL     1      47.409   3.828  21.755  1.00  0.00     0.012 C 
ATOM     10  C   UNL     1      47.768   4.668  22.997  1.00  0.00    -0.006 C 
ATOM     11  C   UNL     1      49.477   4.560  24.826  1.00  0.00     0.012 C 
ATOM     12  C   UNL     1      50.296   4.449  22.446  1.00  0.00     0.012 C 
ATOM     13  C   UNL     1      46.597   4.489  24.020  1.00  0.00     0.017 C 
ATOM     14  C   UNL     1      47.935   6.175  22.847  1.00  0.00    -0.064 C 
ATOM     15  C   UNL     1      49.470   6.112  24.875  1.00  0.00     0.032 C 
ATOM     16  C   UNL     1      48.609   6.868  23.823  1.00  0.00    -0.064 C 
ATOM     17  C   UNL     1      47.219   6.911  21.744  1.00  0.00     0.032 C 
ATOM     18  C   UNL     1      48.497   8.422  23.935  1.00  0.00    -0.008 C 
ATOM     19  C   UNL     1      48.020   8.144  21.383  1.00  0.00     0.009 C 
ATOM     20  C   UNL     1      48.080   9.145  22.565  1.00  0.00     0.007 C 
ATOM     21  C   UNL     1      47.486   8.719  25.082  1.00  0.00     0.014 C 
ATOM     22  C   UNL     1      49.869   9.002  24.372  1.00  0.00     0.016 C 
ATOM     23  C   UNL     1      46.855  10.162  22.676  1.00  0.00    -0.006 C 
ATOM     24  C   UNL     1      46.040   8.589  24.631  1.00  0.00     0.033 C 
ATOM     25  C   UNL     1      45.653   9.577  23.513  1.00  0.00     0.120 C 
ATOM     26  C   UNL     1      47.372  11.503  23.287  1.00  0.00     0.014 C 
ATOM     27  C   UNL     1      46.306  10.555  21.276  1.00  0.00     0.014 C 
BRANCH  25  28
ATOM     28  O   UNL     1      44.878  10.609  24.074  1.00  0.00    -0.393 OA
ATOM     29  H   UNL     1      44.495  10.264  24.922  1.00  0.00     0.210 HD
ENDBRANCH  25  28
ENDBRANCH   2   6
ENDBRANCH   1   2
BRANCH   1  30
ATOM     30  C   UNL     1      51.651   1.061  21.379  1.00  0.00     0.028 C 
BRANCH  30  31
ATOM     31  C   UNL     1      51.347   2.101  20.323  1.00  0.00    -0.028 C 
ATOM     32  C   UNL     1      52.300   2.861  19.740  1.00  0.00    -0.080 C 
ATOM     33  C   UNL     1      53.757   2.721  20.110  1.00  0.00     0.039 C 
ATOM     34  C   UNL     1      51.886   3.867  18.699  1.00  0.00     0.039 C 
ENDBRANCH  30  31
ENDBRANCH   1  30
TORSDOF 6
ENDMDL
MODEL 6
REMARK VINA RESULT:    -6.836      2.540      8.299
REMARK INTER + INTRA:         -10.511
REMARK INTER:                  -9.434
REMARK INTRA:                  -1.077
REMARK UNBOUND:                -1.476
REMARK SMILES CC(C)=CCC[C@H](C(=O)[O-])[C@@H]1CC[C@]2(C)C3=C(CC[C@@]12C)[C@]1(C)CC[C@@H](O)C(C)(C)[C@@H]1CC3
REMARK SMILES IDX 6 1 7 2 8 3 9 4 10 5 11 6 12 7 20 8 13 9 14 10 19 11 21 12
REMARK SMILES IDX 15 13 16 14 18 15 17 16 33 17 22 18 32 19 31 20 24 21 23 22
REMARK SMILES IDX 28 23 25 24 26 25 29 26 30 27 27 28 5 30 4 31 2 32 1 33 3 34
REMARK H PARENT 27 29
REMARK Flexibility Score: inf
ROOT
ATOM      1  C   UNL     1      49.019   8.568  22.183  1.00  0.00     0.014 C 
ENDROOT
BRANCH   1   2
ATOM      2  C   UNL     1      47.889   7.543  22.500  1.00  0.00     0.039 C 
BRANCH   2   3
ATOM      3  C   UNL     1      46.665   8.234  23.056  1.00  0.00     0.045 C 
ATOM      4  O   UNL     1      45.560   8.141  22.457  1.00  0.00    -0.550 OA
ATOM      5  O   UNL     1      46.752   9.011  24.207  1.00  0.00    -0.550 OA
ENDBRANCH   2   3
BRANCH   2   6
ATOM      6  C   UNL     1      48.282   6.287  23.368  1.00  0.00     0.004 C 
ATOM      7  C   UNL     1      49.633   6.326  24.130  1.00  0.00     0.006 C 
ATOM      8  C   UNL     1      48.304   4.909  22.653  1.00  0.00    -0.020 C 
ATOM      9  C   UNL     1      50.152   4.872  24.189  1.00  0.00     0.012 C 
ATOM     10  C   UNL     1      48.973   3.996  23.720  1.00  0.00    -0.006 C 
ATOM     11  C   UNL     1      46.926   4.317  22.311  1.00  0.00     0.012 C 
ATOM     12  C   UNL     1      49.145   5.000  21.332  1.00  0.00     0.012 C 
ATOM     13  C   UNL     1      48.106   3.687  24.986  1.00  0.00     0.017 C 
ATOM     14  C   UNL     1      49.263   2.637  23.097  1.00  0.00    -0.064 C 
ATOM     15  C   UNL     1      47.049   2.836  21.859  1.00  0.00     0.032 C 
ATOM     16  C   UNL     1      48.286   2.029  22.347  1.00  0.00    -0.064 C 
ATOM     17  C   UNL     1      50.528   1.897  23.448  1.00  0.00     0.032 C 
ATOM     18  C   UNL     1      48.362   0.507  22.001  1.00  0.00    -0.008 C 
ATOM     19  C   UNL     1      50.909   1.006  22.285  1.00  0.00     0.009 C 
ATOM     20  C   UNL     1      49.847  -0.097  22.046  1.00  0.00     0.007 C 
ATOM     21  C   UNL     1      47.404  -0.226  22.986  1.00  0.00     0.014 C 
ATOM     22  C   UNL     1      47.808   0.282  20.569  1.00  0.00     0.016 C 
ATOM     23  C   UNL     1      50.017  -1.424  22.917  1.00  0.00    -0.006 C 
ATOM     24  C   UNL     1      48.032  -0.447  24.353  1.00  0.00     0.033 C 
ATOM     25  C   UNL     1      49.294  -1.331  24.315  1.00  0.00     0.120 C 
ATOM     26  C   UNL     1      49.493  -2.638  22.086  1.00  0.00     0.014 C 
ATOM     27  C   UNL     1      51.514  -1.749  23.182  1.00  0.00     0.014 C 
BRANCH  25  28
ATOM     28  O   UNL     1      48.962  -2.610  24.798  1.00  0.00    -0.393 OA
ATOM     29  H   UNL     1      49.570  -3.260  24.357  1.00  0.00     0.210 HD
ENDBRANCH  25  28
ENDBRANCH   2   6
ENDBRANCH   1   2
BRANCH   1  30
ATOM     30  C   UNL     1      49.394   8.715  20.689  1.00  0.00     0.028 C 
BRANCH  30  31
ATOM     31  C   UNL     1      50.565   7.843  20.297  1.00  0.00    -0.028 C 
ATOM     32  C   UNL     1      50.943   7.648  19.015  1.00  0.00    -0.080 C 
ATOM     33  C   UNL     1      50.209   8.300  17.867  1.00  0.00     0.039 C 
ATOM     34  C   UNL     1      52.126   6.759  18.736  1.00  0.00     0.039 C 
ENDBRANCH  30  31
ENDBRANCH   1  30
TORSDOF 6
ENDMDL
MODEL 7
REMARK VINA RESULT:    -6.813      1.530      2.180
REMARK INTER + INTRA:         -10.480
REMARK INTER:                  -9.030
REMARK INTRA:                  -1.450
REMARK UNBOUND:                -1.476
REMARK SMILES CC(C)=CCC[C@H](C(=O)[O-])[C@@H]1CC[C@]2(C)C3=C(CC[C@@]12C)[C@]1(C)CC[C@@H](O)C(C)(C)[C@@H]1CC3
REMARK SMILES IDX 6 1 7 2 8 3 9 4 10 5 11 6 12 7 20 8 13 9 14 10 19 11 21 12
REMARK SMILES IDX 15 13 16 14 18 15 17 16 33 17 22 18 32 19 31 20 24 21 23 22
REMARK SMILES IDX 28 23 25 24 26 25 29 26 30 27 27 28 5 30 4 31 2 32 1 33 3 34
REMARK H PARENT 27 29
REMARK Flexibility Score: inf
ROOT
ATOM      1  C   UNL     1      48.777  -0.682  22.807  1.00  0.00     0.014 C 
ENDROOT
BRANCH   1   2
ATOM      2  C   UNL     1      49.619   0.565  22.403  1.00  0.00     0.039 C 
BRANCH   2   3
ATOM      3  C   UNL     1      51.077   0.208  22.228  1.00  0.00     0.045 C 
ATOM      4  O   UNL     1      51.574  -0.753  22.874  1.00  0.00    -0.550 OA
ATOM      5  O   UNL     1      51.893   0.959  21.387  1.00  0.00    -0.550 OA
ENDBRANCH   2   3
BRANCH   2   6
ATOM      6  C   UNL     1      49.449   1.862  23.284  1.00  0.00     0.004 C 
ATOM      7  C   UNL     1      48.502   1.786  24.511  1.00  0.00     0.006 C 
ATOM      8  C   UNL     1      49.006   3.160  22.558  1.00  0.00    -0.020 C 
ATOM      9  C   UNL     1      47.887   3.193  24.685  1.00  0.00     0.012 C 
ATOM     10  C   UNL     1      48.696   4.113  23.748  1.00  0.00    -0.006 C 
ATOM     11  C   UNL     1      50.075   3.826  21.676  1.00  0.00     0.012 C 
ATOM     12  C   UNL     1      47.741   2.879  21.672  1.00  0.00     0.012 C 
ATOM     13  C   UNL     1      49.938   4.609  24.560  1.00  0.00     0.017 C 
ATOM     14  C   UNL     1      48.043   5.380  23.211  1.00  0.00    -0.064 C 
ATOM     15  C   UNL     1      49.628   5.243  21.225  1.00  0.00     0.032 C 
ATOM     16  C   UNL     1      48.588   5.991  22.108  1.00  0.00    -0.064 C 
ATOM     17  C   UNL     1      46.932   6.046  23.983  1.00  0.00     0.032 C 
ATOM     18  C   UNL     1      48.219   7.463  21.734  1.00  0.00    -0.008 C 
ATOM     19  C   UNL     1      46.043   6.790  23.010  1.00  0.00     0.009 C 
ATOM     20  C   UNL     1      46.806   7.947  22.317  1.00  0.00     0.007 C 
ATOM     21  C   UNL     1      49.392   8.360  22.228  1.00  0.00     0.014 C 
ATOM     22  C   UNL     1      48.159   7.596  20.189  1.00  0.00     0.016 C 
ATOM     23  C   UNL     1      46.834   9.332  23.110  1.00  0.00    -0.006 C 
ATOM     24  C   UNL     1      49.311   8.657  23.717  1.00  0.00     0.033 C 
ATOM     25  C   UNL     1      48.039   9.429  24.122  1.00  0.00     0.120 C 
ATOM     26  C   UNL     1      46.866  10.501  22.075  1.00  0.00     0.014 C 
ATOM     27  C   UNL     1      45.523   9.559  23.915  1.00  0.00     0.014 C 
BRANCH  25  28
ATOM     28  O   UNL     1      48.387  10.771  24.366  1.00  0.00    -0.393 OA
ATOM     29  H   UNL     1      49.221  10.957  23.860  1.00  0.00     0.210 HD
ENDBRANCH  25  28
ENDBRANCH   2   6
ENDBRANCH   1   2
BRANCH   1  30
ATOM     30  C   UNL     1      47.351  -0.753  22.211  1.00  0.00     0.028 C 
BRANCH  30  31
ATOM     31  C   UNL     1      46.285  -0.897  23.275  1.00  0.00    -0.028 C 
ATOM     32  C   UNL     1      45.150  -0.165  23.286  1.00  0.00    -0.080 C 
ATOM     33  C   UNL     1      44.865   0.866  22.219  1.00  0.00     0.039 C 
ATOM     34  C   UNL     1      44.155  -0.390  24.393  1.00  0.00     0.039 C 
ENDBRANCH  30  31
ENDBRANCH   1  30
TORSDOF 6
ENDMDL
MODEL 8
REMARK VINA RESULT:    -6.705      2.627      8.392
REMARK INTER + INTRA:         -10.337
REMARK INTER:                  -9.345
REMARK INTRA:                  -0.993
REMARK UNBOUND:                -1.476
REMARK SMILES CC(C)=CCC[C@H](C(=O)[O-])[C@@H]1CC[C@]2(C)C3=C(CC[C@@]12C)[C@]1(C)CC[C@@H](O)C(C)(C)[C@@H]1CC3
REMARK SMILES IDX 6 1 7 2 8 3 9 4 10 5 11 6 12 7 20 8 13 9 14 10 19 11 21 12
REMARK SMILES IDX 15 13 16 14 18 15 17 16 33 17 22 18 32 19 31 20 24 21 23 22
REMARK SMILES IDX 28 23 25 24 26 25 29 26 30 27 27 28 5 30 4 31 2 32 1 33 3 34
REMARK H PARENT 27 29
REMARK Flexibility Score: inf
ROOT
ATOM      1  C   UNL     1      47.391   7.706  20.770  1.00  0.00     0.014 C 
ENDROOT
BRANCH   1   2
ATOM      2  C   UNL     1      47.686   7.198  22.214  1.00  0.00     0.039 C 
BRANCH   2   3
ATOM      3  C   UNL     1      48.076   8.338  23.126  1.00  0.00     0.045 C 
ATOM      4  O   UNL     1      47.203   9.152  23.529  1.00  0.00    -0.550 OA
ATOM      5  O   UNL     1      49.404   8.526  23.495  1.00  0.00    -0.550 OA
ENDBRANCH   2   3
BRANCH   2   6
ATOM      6  C   UNL     1      48.680   5.983  22.359  1.00  0.00     0.004 C 
ATOM      7  C   UNL     1      49.626   5.675  21.169  1.00  0.00     0.006 C 
ATOM      8  C   UNL     1      48.065   4.600  22.706  1.00  0.00    -0.020 C 
ATOM      9  C   UNL     1      49.853   4.146  21.165  1.00  0.00     0.012 C 
ATOM     10  C   UNL     1      49.274   3.643  22.503  1.00  0.00    -0.006 C 
ATOM     11  C   UNL     1      47.565   4.441  24.151  1.00  0.00     0.012 C 
ATOM     12  C   UNL     1      46.877   4.278  21.733  1.00  0.00     0.012 C 
ATOM     13  C   UNL     1      50.418   3.761  23.565  1.00  0.00     0.017 C 
ATOM     14  C   UNL     1      48.788   2.203  22.603  1.00  0.00    -0.064 C 
ATOM     15  C   UNL     1      47.231   2.957  24.468  1.00  0.00     0.032 C 
ATOM     16  C   UNL     1      47.944   1.858  23.631  1.00  0.00    -0.064 C 
ATOM     17  C   UNL     1      49.366   1.143  21.701  1.00  0.00     0.032 C 
ATOM     18  C   UNL     1      47.710   0.362  24.017  1.00  0.00    -0.008 C 
ATOM     19  C   UNL     1      48.330   0.058  21.499  1.00  0.00     0.009 C 
ATOM     20  C   UNL     1      48.009  -0.672  22.828  1.00  0.00     0.007 C 
ATOM     21  C   UNL     1      48.589   0.079  25.271  1.00  0.00     0.014 C 
ATOM     22  C   UNL     1      46.230   0.171  24.443  1.00  0.00     0.016 C 
ATOM     23  C   UNL     1      48.978  -1.883  23.205  1.00  0.00    -0.006 C 
ATOM     24  C   UNL     1      50.045  -0.180  24.915  1.00  0.00     0.033 C 
ATOM     25  C   UNL     1      50.247  -1.416  24.017  1.00  0.00     0.120 C 
ATOM     26  C   UNL     1      48.159  -2.951  23.997  1.00  0.00     0.014 C 
ATOM     27  C   UNL     1      49.478  -2.634  21.939  1.00  0.00     0.014 C 
BRANCH  25  28
ATOM     28  O   UNL     1      50.757  -2.465  24.804  1.00  0.00    -0.393 OA
ATOM     29  H   UNL     1      49.982  -2.991  25.134  1.00  0.00     0.210 HD
ENDBRANCH  25  28
ENDBRANCH   2   6
ENDBRANCH   1   2
BRANCH   1  30
ATOM     30  C   UNL     1      48.384   8.751  20.209  1.00  0.00     0.028 C 
BRANCH  30  31
ATOM     31  C   UNL     1      48.612   8.594  18.723  1.00  0.00    -0.028 C 
ATOM     32  C   UNL     1      49.829   8.372  18.182  1.00  0.00    -0.080 C 
ATOM     33  C   UNL     1      51.067   8.264  19.041  1.00  0.00     0.039 C 
ATOM     34  C   UNL     1      49.942   8.231  16.687  1.00  0.00     0.039 C 
ENDBRANCH  30  31
ENDBRANCH   1  30
TORSDOF 6
ENDMDL
MODEL 9
REMARK VINA RESULT:    -6.627      2.351      8.127
REMARK INTER + INTRA:         -10.234
REMARK INTER:                  -9.173
REMARK INTRA:                  -1.061
REMARK UNBOUND:                -1.476
REMARK SMILES CC(C)=CCC[C@H](C(=O)[O-])[C@@H]1CC[C@]2(C)C3=C(CC[C@@]12C)[C@]1(C)CC[C@@H](O)C(C)(C)[C@@H]1CC3
REMARK SMILES IDX 6 1 7 2 8 3 9 4 10 5 11 6 12 7 20 8 13 9 14 10 19 11 21 12
REMARK SMILES IDX 15 13 16 14 18 15 17 16 33 17 22 18 32 19 31 20 24 21 23 22
REMARK SMILES IDX 28 23 25 24 26 25 29 26 30 27 27 28 5 30 4 31 2 32 1 33 3 34
REMARK H PARENT 27 29
REMARK Flexibility Score: inf
ROOT
ATOM      1  C   UNL     1      47.202  11.047  21.688  1.00  0.00     0.014 C 
ENDROOT
BRANCH   1   2
ATOM      2  C   UNL     1      46.373   9.752  21.945  1.00  0.00     0.039 C 
BRANCH   2   3
ATOM      3  C   UNL     1      45.051  10.071  22.606  1.00  0.00     0.045 C 
ATOM      4  O   UNL     1      44.373  11.059  22.217  1.00  0.00    -0.550 OA
ATOM      5  O   UNL     1      44.591   9.306  23.673  1.00  0.00    -0.550 OA
ENDBRANCH   2   3
BRANCH   2   6
ATOM      6  C   UNL     1      47.106   8.564  22.677  1.00  0.00     0.004 C 
ATOM      7  C   UNL     1      48.624   8.714  22.962  1.00  0.00     0.006 C 
ATOM      8  C   UNL     1      46.992   7.156  22.034  1.00  0.00    -0.020 C 
ATOM      9  C   UNL     1      49.233   7.296  22.894  1.00  0.00     0.012 C 
ATOM     10  C   UNL     1      48.027   6.334  22.855  1.00  0.00    -0.006 C 
ATOM     11  C   UNL     1      45.621   6.473  22.171  1.00  0.00     0.012 C 
ATOM     12  C   UNL     1      47.360   7.227  20.510  1.00  0.00     0.012 C 
ATOM     13  C   UNL     1      47.634   6.041  24.341  1.00  0.00     0.017 C 
ATOM     14  C   UNL     1      48.195   4.964  22.212  1.00  0.00    -0.064 C 
ATOM     15  C   UNL     1      45.693   4.980  21.746  1.00  0.00     0.032 C 
ATOM     16  C   UNL     1      47.073   4.267  21.834  1.00  0.00    -0.064 C 
ATOM     17  C   UNL     1      49.553   4.312  22.158  1.00  0.00     0.032 C 
ATOM     18  C   UNL     1      47.137   2.737  21.526  1.00  0.00    -0.008 C 
ATOM     19  C   UNL     1      49.602   3.388  20.961  1.00  0.00     0.009 C 
ATOM     20  C   UNL     1      48.596   2.218  21.109  1.00  0.00     0.007 C 
ATOM     21  C   UNL     1      46.596   2.001  22.788  1.00  0.00     0.014 C 
ATOM     22  C   UNL     1      46.171   2.411  20.356  1.00  0.00     0.016 C 
ATOM     23  C   UNL     1      49.125   0.947  21.916  1.00  0.00    -0.006 C 
ATOM     24  C   UNL     1      47.640   1.883  23.886  1.00  0.00     0.033 C 
ATOM     25  C   UNL     1      48.881   1.069  23.470  1.00  0.00     0.120 C 
ATOM     26  C   UNL     1      48.446  -0.334  21.335  1.00  0.00     0.014 C 
ATOM     27  C   UNL     1      50.647   0.718  21.695  1.00  0.00     0.014 C 
BRANCH  25  28
ATOM     28  O   UNL     1      48.808  -0.201  24.071  1.00  0.00    -0.393 OA
ATOM     29  H   UNL     1      47.849  -0.457  24.108  1.00  0.00     0.210 HD
ENDBRANCH  25  28
ENDBRANCH   2   6
ENDBRANCH   1   2
BRANCH   1  30
ATOM     30  C   UNL     1      47.673  11.264  20.231  1.00  0.00     0.028 C 
BRANCH  30  31
ATOM     31  C   UNL     1      48.520  10.121  19.719  1.00  0.00    -0.028 C 
ATOM     32  C   UNL     1      49.548  10.291  18.859  1.00  0.00    -0.080 C 
ATOM     33  C   UNL     1      49.927  11.658  18.343  1.00  0.00     0.039 C 
ATOM     34  C   UNL     1      50.327   9.081  18.414  1.00  0.00     0.039 C 
ENDBRANCH  30  31
ENDBRANCH   1  30
TORSDOF 6
ENDMDL
