MODEL 1
REMARK VINA RESULT:    -3.452      0.000      0.000
REMARK INTER + INTRA:          -3.671
REMARK INTER:                  -3.654
REMARK INTRA:                  -0.017
REMARK UNBOUND:                -0.017
REMARK SMILES O=C([O-])c1cccnc1
REMARK SMILES IDX 4 1 5 2 9 3 6 4 8 5 7 6 2 7 1 8 3 9
REMARK H PARENT
REMARK Flexibility Score: inf
ROOT
ATOM      1  C   UNL     1      27.927 -21.874 -33.113  1.00  0.00     0.016 A 
ATOM      2  C   UNL     1      27.559 -21.194 -31.941  1.00  0.00     0.013 A 
ATOM      3  C   UNL     1      29.292 -21.959 -33.436  1.00  0.00     0.120 A 
ATOM      4  C   UNL     1      28.538 -20.621 -31.126  1.00  0.00     0.021 A 
ATOM      5  N   UNL     1      30.226 -21.393 -32.626  1.00  0.00    -0.264 NA
ATOM      6  C   UNL     1      29.880 -20.732 -31.490  1.00  0.00     0.111 A 
ENDROOT
BRANCH   1   7
ATOM      7  C   UNL     1      26.906 -22.487 -33.990  1.00  0.00     0.073 C 
ATOM      8  O   UNL     1      26.670 -22.009 -35.131  1.00  0.00    -0.545 OA
ATOM      9  O   UNL     1      26.189 -23.601 -33.565  1.00  0.00    -0.545 OA
ENDBRANCH   1   7
TORSDOF 1
ENDMDL
MODEL 2
REMARK VINA RESULT:    -3.423      3.962      4.799
REMARK INTER + INTRA:          -3.640
REMARK INTER:                  -3.624
REMARK INTRA:                  -0.016
REMARK UNBOUND:                -0.017
REMARK SMILES O=C([O-])c1cccnc1
REMARK SMILES IDX 4 1 5 2 9 3 6 4 8 5 7 6 2 7 1 8 3 9
REMARK H PARENT
REMARK Flexibility Score: inf
ROOT
ATOM      1  C   UNL     1      28.785 -21.636 -29.745  1.00  0.00     0.016 A 
ATOM      2  C   UNL     1      28.695 -20.675 -30.766  1.00  0.00     0.013 A 
ATOM      3  C   UNL     1      28.118 -22.861 -29.919  1.00  0.00     0.120 A 
ATOM      4  C   UNL     1      27.958 -20.946 -31.920  1.00  0.00     0.021 A 
ATOM      5  N   UNL     1      27.407 -23.099 -31.053  1.00  0.00    -0.264 NA
ATOM      6  C   UNL     1      27.313 -22.176 -32.046  1.00  0.00     0.111 A 
ENDROOT
BRANCH   1   7
ATOM      7  C   UNL     1      29.560 -21.368 -28.514  1.00  0.00     0.073 C 
ATOM      8  O   UNL     1      29.086 -20.639 -27.603  1.00  0.00    -0.545 OA
ATOM      9  O   UNL     1      30.827 -21.918 -28.346  1.00  0.00    -0.545 OA
ENDBRANCH   1   7
TORSDOF 1
ENDMDL
MODEL 3
REMARK VINA RESULT:    -3.419      1.784      2.265
REMARK INTER + INTRA:          -3.635
REMARK INTER:                  -3.619
REMARK INTRA:                  -0.016
REMARK UNBOUND:                -0.017
REMARK SMILES O=C([O-])c1cccnc1
REMARK SMILES IDX 4 1 5 2 9 3 6 4 8 5 7 6 2 7 1 8 3 9
REMARK H PARENT
REMARK Flexibility Score: inf
ROOT
ATOM      1  C   UNL     1      29.358 -21.589 -33.380  1.00  0.00     0.016 A 
ATOM      2  C   UNL     1      28.166 -21.277 -32.706  1.00  0.00     0.013 A 
ATOM      3  C   UNL     1      30.562 -21.563 -32.656  1.00  0.00     0.120 A 
ATOM      4  C   UNL     1      28.193 -20.950 -31.348  1.00  0.00     0.021 A 
ATOM      5  N   UNL     1      30.561 -21.241 -31.334  1.00  0.00    -0.264 NA
ATOM      6  C   UNL     1      29.414 -20.936 -30.673  1.00  0.00     0.111 A 
ENDROOT
BRANCH   1   7
ATOM      7  C   UNL     1      29.351 -21.938 -34.817  1.00  0.00     0.073 C 
ATOM      8  O   UNL     1      29.185 -23.131 -35.186  1.00  0.00    -0.545 OA
ATOM      9  O   UNL     1      29.528 -20.953 -35.782  1.00  0.00    -0.545 OA
ENDBRANCH   1   7
TORSDOF 1
ENDMDL
MODEL 4
REMARK VINA RESULT:    -3.376      2.488      3.512
REMARK INTER + INTRA:          -3.590
REMARK INTER:                  -3.569
REMARK INTRA:                  -0.021
REMARK UNBOUND:                -0.017
REMARK SMILES O=C([O-])c1cccnc1
REMARK SMILES IDX 4 1 5 2 9 3 6 4 8 5 7 6 2 7 1 8 3 9
REMARK H PARENT
REMARK Flexibility Score: inf
ROOT
ATOM      1  C   UNL     1      27.652 -22.078 -34.175  1.00  0.00     0.016 A 
ATOM      2  C   UNL     1      28.956 -21.577 -34.323  1.00  0.00     0.013 A 
ATOM      3  C   UNL     1      26.867 -22.252 -35.329  1.00  0.00     0.120 A 
ATOM      4  C   UNL     1      29.447 -21.265 -35.593  1.00  0.00     0.021 A 
ATOM      5  N   UNL     1      27.369 -21.939 -36.553  1.00  0.00    -0.264 NA
ATOM      6  C   UNL     1      28.629 -21.453 -36.707  1.00  0.00     0.111 A 
ENDROOT
BRANCH   1   7
ATOM      7  C   UNL     1      27.113 -22.416 -32.840  1.00  0.00     0.073 C 
ATOM      8  O   UNL     1      26.292 -23.361 -32.701  1.00  0.00    -0.545 OA
ATOM      9  O   UNL     1      27.505 -21.693 -31.719  1.00  0.00    -0.545 OA
ENDBRANCH   1   7
TORSDOF 1
ENDMDL
MODEL 5
REMARK VINA RESULT:    -3.370      3.202      3.714
REMARK INTER + INTRA:          -3.584
REMARK INTER:                  -3.560
REMARK INTRA:                  -0.024
REMARK UNBOUND:                -0.017
REMARK SMILES O=C([O-])c1cccnc1
REMARK SMILES IDX 4 1 5 2 9 3 6 4 8 5 7 6 2 7 1 8 3 9
REMARK H PARENT
REMARK Flexibility Score: inf
ROOT
ATOM      1  C   UNL     1      28.315 -21.724 -30.243  1.00  0.00     0.016 A 
ATOM      2  C   UNL     1      29.113 -21.155 -29.237  1.00  0.00     0.013 A 
ATOM      3  C   UNL     1      27.815 -23.024 -30.045  1.00  0.00     0.120 A 
ATOM      4  C   UNL     1      29.394 -21.875 -28.074  1.00  0.00     0.021 A 
ATOM      5  N   UNL     1      28.105 -23.704 -28.904  1.00  0.00    -0.264 NA
ATOM      6  C   UNL     1      28.876 -23.162 -27.924  1.00  0.00     0.111 A 
ENDROOT
BRANCH   1   7
ATOM      7  C   UNL     1      28.005 -20.979 -31.482  1.00  0.00     0.073 C 
ATOM      8  O   UNL     1      28.503 -19.839 -31.685  1.00  0.00    -0.545 OA
ATOM      9  O   UNL     1      27.159 -21.525 -32.440  1.00  0.00    -0.545 OA
ENDBRANCH   1   7
TORSDOF 1
ENDMDL
MODEL 6
REMARK VINA RESULT:    -3.356      2.303      3.202
REMARK INTER + INTRA:          -3.570
REMARK INTER:                  -3.549
REMARK INTRA:                  -0.021
REMARK UNBOUND:                -0.017
REMARK SMILES O=C([O-])c1cccnc1
REMARK SMILES IDX 4 1 5 2 9 3 6 4 8 5 7 6 2 7 1 8 3 9
REMARK H PARENT
REMARK Flexibility Score: inf
ROOT
ATOM      1  C   UNL     1      28.327 -21.795 -35.377  1.00  0.00     0.016 A 
ATOM      2  C   UNL     1      27.091 -22.305 -34.945  1.00  0.00     0.013 A 
ATOM      3  C   UNL     1      29.245 -21.356 -34.407  1.00  0.00     0.120 A 
ATOM      4  C   UNL     1      26.797 -22.368 -33.582  1.00  0.00     0.021 A 
ATOM      5  N   UNL     1      28.933 -21.428 -33.086  1.00  0.00    -0.264 NA
ATOM      6  C   UNL     1      27.740 -21.919 -32.657  1.00  0.00     0.111 A 
ENDROOT
BRANCH   1   7
ATOM      7  C   UNL     1      28.658 -21.720 -36.816  1.00  0.00     0.073 C 
ATOM      8  O   UNL     1      28.331 -22.652 -37.599  1.00  0.00    -0.545 OA
ATOM      9  O   UNL     1      29.337 -20.619 -37.327  1.00  0.00    -0.545 OA
ENDBRANCH   1   7
TORSDOF 1
ENDMDL
MODEL 7
REMARK VINA RESULT:    -3.329      3.036      4.172
REMARK INTER + INTRA:          -3.540
REMARK INTER:                  -3.521
REMARK INTRA:                  -0.019
REMARK UNBOUND:                -0.017
REMARK SMILES O=C([O-])c1cccnc1
REMARK SMILES IDX 4 1 5 2 9 3 6 4 8 5 7 6 2 7 1 8 3 9
REMARK H PARENT
REMARK Flexibility Score: inf
ROOT
ATOM      1  C   UNL     1      28.730 -21.674 -34.248  1.00  0.00     0.016 A 
ATOM      2  C   UNL     1      29.294 -21.383 -35.501  1.00  0.00     0.013 A 
ATOM      3  C   UNL     1      27.398 -22.121 -34.201  1.00  0.00     0.120 A 
ATOM      4  C   UNL     1      28.536 -21.539 -36.664  1.00  0.00     0.021 A 
ATOM      5  N   UNL     1      26.682 -22.264 -35.348  1.00  0.00    -0.264 NA
ATOM      6  C   UNL     1      27.218 -21.985 -36.566  1.00  0.00     0.111 A 
ENDROOT
BRANCH   1   7
ATOM      7  C   UNL     1      29.516 -21.516 -33.005  1.00  0.00     0.073 C 
ATOM      8  O   UNL     1      30.660 -22.033 -32.900  1.00  0.00    -0.545 OA
ATOM      9  O   UNL     1      29.002 -20.793 -31.934  1.00  0.00    -0.545 OA
ENDBRANCH   1   7
TORSDOF 1
ENDMDL
MODEL 8
REMARK VINA RESULT:    -3.279      2.562      3.158
REMARK INTER + INTRA:          -3.487
REMARK INTER:                  -3.463
REMARK INTRA:                  -0.024
REMARK UNBOUND:                -0.017
REMARK SMILES O=C([O-])c1cccnc1
REMARK SMILES IDX 4 1 5 2 9 3 6 4 8 5 7 6 2 7 1 8 3 9
REMARK H PARENT
REMARK Flexibility Score: inf
ROOT
ATOM      1  C   UNL     1      27.486 -22.492 -35.174  1.00  0.00     0.016 A 
ATOM      2  C   UNL     1      28.501 -22.239 -34.236  1.00  0.00     0.013 A 
ATOM      3  C   UNL     1      27.623 -21.960 -36.468  1.00  0.00     0.120 A 
ATOM      4  C   UNL     1      29.614 -21.476 -34.597  1.00  0.00     0.021 A 
ATOM      5  N   UNL     1      28.717 -21.220 -36.793  1.00  0.00    -0.264 NA
ATOM      6  C   UNL     1      29.704 -20.970 -35.893  1.00  0.00     0.111 A 
ENDROOT
BRANCH   1   7
ATOM      7  C   UNL     1      26.300 -23.297 -34.812  1.00  0.00     0.073 C 
ATOM      8  O   UNL     1      26.123 -23.681 -33.626  1.00  0.00    -0.545 OA
ATOM      9  O   UNL     1      25.362 -23.643 -35.779  1.00  0.00    -0.545 OA
ENDBRANCH   1   7
TORSDOF 1
ENDMDL
MODEL 9
REMARK VINA RESULT:    -3.271      1.925      2.439
REMARK INTER + INTRA:          -3.479
REMARK INTER:                  -3.463
REMARK INTRA:                  -0.017
REMARK UNBOUND:                -0.017
REMARK SMILES O=C([O-])c1cccnc1
REMARK SMILES IDX 4 1 5 2 9 3 6 4 8 5 7 6 2 7 1 8 3 9
REMARK H PARENT
REMARK Flexibility Score: inf
ROOT
ATOM      1  C   UNL     1      29.183 -21.654 -33.307  1.00  0.00     0.016 A 
ATOM      2  C   UNL     1      30.263 -21.351 -32.461  1.00  0.00     0.013 A 
ATOM      3  C   UNL     1      27.884 -21.623 -32.771  1.00  0.00     0.120 A 
ATOM      4  C   UNL     1      30.034 -21.029 -31.122  1.00  0.00     0.021 A 
ATOM      5  N   UNL     1      27.689 -21.306 -31.463  1.00  0.00    -0.264 NA
ATOM      6  C   UNL     1      28.727 -21.012 -30.636  1.00  0.00     0.111 A 
ENDROOT
BRANCH   1   7
ATOM      7  C   UNL     1      29.403 -21.999 -34.729  1.00  0.00     0.073 C 
ATOM      8  O   UNL     1      29.728 -21.110 -35.560  1.00  0.00    -0.545 OA
ATOM      9  O   UNL     1      29.252 -23.310 -35.168  1.00  0.00    -0.545 OA
ENDBRANCH   1   7
TORSDOF 1
ENDMDL
