MODEL 1
REMARK VINA RESULT:    -4.557      0.000      0.000
REMARK INTER + INTRA:          -6.276
REMARK INTER:                  -6.155
REMARK INTRA:                  -0.120
REMARK UNBOUND:                -0.120
REMARK SMILES [NH3+]CCCC[C@@H]([NH3+])C(=O)[O-]
REMARK SMILES IDX 4 1 3 2 2 3 1 4 5 8 6 9 7 10 8 14 9 15 10 16
REMARK H PARENT 1 5 1 6 1 7 7 11 7 12 7 13
REMARK Flexibility Score: inf
ROOT
ATOM      1  C   UNL     1      20.658   4.689   6.875  1.00  0.00     0.012 C 
ENDROOT
BRANCH   1   2
ATOM      2  C   UNL     1      19.590   5.673   6.382  1.00  0.00     0.061 C 
BRANCH   2   3
ATOM      3  C   UNL     1      19.976   7.120   6.714  1.00  0.00     0.258 C 
BRANCH   3   4
ATOM      4  N   UNL     1      20.892   7.660   5.709  1.00  0.00    -0.358 N 
ATOM      5  H   UNL     1      20.481   7.514   4.758  1.00  0.00     0.344 HD
ATOM      6  H   UNL     1      21.813   7.165   5.758  1.00  0.00     0.344 HD
ATOM      7  H   UNL     1      21.032   8.685   5.864  1.00  0.00     0.344 HD
ENDBRANCH   3   4
ENDBRANCH   2   3
ENDBRANCH   1   2
BRANCH   1   8
ATOM      8  C   UNL     1      20.610   3.378   6.075  1.00  0.00     0.072 C 
BRANCH   8   9
ATOM      9  C   UNL     1      22.013   2.775   5.838  1.00  0.00     0.227 C 
BRANCH   9  10
ATOM     10  N   UNL     1      23.079   3.668   6.313  1.00  0.00    -0.350 N 
ATOM     11  H   UNL     1      23.165   4.494   5.680  1.00  0.00     0.345 HD
ATOM     12  H   UNL     1      22.883   3.995   7.287  1.00  0.00     0.345 HD
ATOM     13  H   UNL     1      23.996   3.165   6.300  1.00  0.00     0.345 HD
ENDBRANCH   9  10
BRANCH   9  14
ATOM     14  C   UNL     1      22.111   1.438   6.523  1.00  0.00     0.099 C 
ATOM     15  O   UNL     1      21.399   1.184   7.532  1.00  0.00    -0.544 OA
ATOM     16  O   UNL     1      22.975   0.467   6.033  1.00  0.00    -0.544 OA
ENDBRANCH   9  14
ENDBRANCH   8   9
ENDBRANCH   1   8
TORSDOF 7
ENDMDL
MODEL 2
REMARK VINA RESULT:    -4.231      1.593      1.844
REMARK INTER + INTRA:          -5.835
REMARK INTER:                  -5.751
REMARK INTRA:                  -0.084
REMARK UNBOUND:                -0.120
REMARK SMILES [NH3+]CCCC[C@@H]([NH3+])C(=O)[O-]
REMARK SMILES IDX 4 1 3 2 2 3 1 4 5 8 6 9 7 10 8 14 9 15 10 16
REMARK H PARENT 1 5 1 6 1 7 7 11 7 12 7 13
REMARK Flexibility Score: inf
ROOT
ATOM      1  C   UNL     1      20.306   4.553   7.047  1.00  0.00     0.012 C 
ENDROOT
BRANCH   1   2
ATOM      2  C   UNL     1      19.547   5.701   6.369  1.00  0.00     0.061 C 
BRANCH   2   3
ATOM      3  C   UNL     1      20.072   7.064   6.838  1.00  0.00     0.258 C 
BRANCH   3   4
ATOM      4  N   UNL     1      20.752   7.764   5.749  1.00  0.00    -0.358 N 
ATOM      5  H   UNL     1      21.746   7.442   5.704  1.00  0.00     0.344 HD
ATOM      6  H   UNL     1      20.740   8.796   5.921  1.00  0.00     0.344 HD
ATOM      7  H   UNL     1      20.286   7.551   4.837  1.00  0.00     0.344 HD
ENDBRANCH   3   4
ENDBRANCH   2   3
ENDBRANCH   1   2
BRANCH   1   8
ATOM      8  C   UNL     1      20.947   3.625   6.004  1.00  0.00     0.072 C 
BRANCH   8   9
ATOM      9  C   UNL     1      22.203   2.904   6.541  1.00  0.00     0.227 C 
BRANCH   9  10
ATOM     10  N   UNL     1      21.891   1.552   7.028  1.00  0.00    -0.350 N 
ATOM     11  H   UNL     1      22.256   1.427   7.999  1.00  0.00     0.345 HD
ATOM     12  H   UNL     1      20.859   1.382   7.019  1.00  0.00     0.345 HD
ATOM     13  H   UNL     1      22.360   0.840   6.423  1.00  0.00     0.345 HD
ENDBRANCH   9  10
BRANCH   9  14
ATOM     14  C   UNL     1      23.249   2.838   5.460  1.00  0.00     0.099 C 
ATOM     15  O   UNL     1      23.848   3.882   5.086  1.00  0.00    -0.544 OA
ATOM     16  O   UNL     1      23.575   1.618   4.881  1.00  0.00    -0.544 OA
ENDBRANCH   9  14
ENDBRANCH   8   9
ENDBRANCH   1   8
TORSDOF 7
ENDMDL
MODEL 3
REMARK VINA RESULT:    -4.217      3.182      5.266
REMARK INTER + INTRA:          -5.817
REMARK INTER:                  -5.768
REMARK INTRA:                  -0.049
REMARK UNBOUND:                -0.120
REMARK SMILES [NH3+]CCCC[C@@H]([NH3+])C(=O)[O-]
REMARK SMILES IDX 4 1 3 2 2 3 1 4 5 8 6 9 7 10 8 14 9 15 10 16
REMARK H PARENT 1 5 1 6 1 7 7 11 7 12 7 13
REMARK Flexibility Score: inf
ROOT
ATOM      1  C   UNL     1      21.875   2.721   6.062  1.00  0.00     0.012 C 
ENDROOT
BRANCH   1   2
ATOM      2  C   UNL     1      21.608   1.372   6.741  1.00  0.00     0.061 C 
BRANCH   2   3
ATOM      3  C   UNL     1      22.753   0.385   6.477  1.00  0.00     0.258 C 
BRANCH   3   4
ATOM      4  N   UNL     1      22.318  -0.993   6.706  1.00  0.00    -0.358 N 
ATOM      5  H   UNL     1      22.236  -1.483   5.785  1.00  0.00     0.344 HD
ATOM      6  H   UNL     1      21.384  -1.002   7.177  1.00  0.00     0.344 HD
ATOM      7  H   UNL     1      23.018  -1.497   7.297  1.00  0.00     0.344 HD
ENDBRANCH   3   4
ENDBRANCH   2   3
ENDBRANCH   1   2
BRANCH   1   8
ATOM      8  C   UNL     1      20.586   3.552   5.963  1.00  0.00     0.072 C 
BRANCH   8   9
ATOM      9  C   UNL     1      20.392   4.492   7.174  1.00  0.00     0.227 C 
BRANCH   9  10
ATOM     10  N   UNL     1      21.628   4.642   7.954  1.00  0.00    -0.350 N 
ATOM     11  H   UNL     1      22.031   3.703   8.174  1.00  0.00     0.345 HD
ATOM     12  H   UNL     1      22.334   5.208   7.429  1.00  0.00     0.345 HD
ATOM     13  H   UNL     1      21.420   5.115   8.864  1.00  0.00     0.345 HD
ENDBRANCH   9  10
BRANCH   9  14
ATOM     14  C   UNL     1      19.913   5.838   6.697  1.00  0.00     0.099 C 
ATOM     15  O   UNL     1      18.847   5.938   6.033  1.00  0.00    -0.544 OA
ATOM     16  O   UNL     1      20.636   6.983   7.006  1.00  0.00    -0.544 OA
ENDBRANCH   9  14
ENDBRANCH   8   9
ENDBRANCH   1   8
TORSDOF 7
ENDMDL
MODEL 4
REMARK VINA RESULT:    -4.155      3.772      5.600
REMARK INTER + INTRA:          -5.733
REMARK INTER:                  -5.646
REMARK INTRA:                  -0.087
REMARK UNBOUND:                -0.120
REMARK SMILES [NH3+]CCCC[C@@H]([NH3+])C(=O)[O-]
REMARK SMILES IDX 4 1 3 2 2 3 1 4 5 8 6 9 7 10 8 14 9 15 10 16
REMARK H PARENT 1 5 1 6 1 7 7 11 7 12 7 13
REMARK Flexibility Score: inf
ROOT
ATOM      1  C   UNL     1      20.700   4.924   6.966  1.00  0.00     0.012 C 
ENDROOT
BRANCH   1   2
ATOM      2  C   UNL     1      20.636   3.484   6.441  1.00  0.00     0.061 C 
BRANCH   2   3
ATOM      3  C   UNL     1      21.926   3.109   5.699  1.00  0.00     0.258 C 
BRANCH   3   4
ATOM      4  N   UNL     1      23.101   3.632   6.396  1.00  0.00    -0.358 N 
ATOM      5  H   UNL     1      23.592   2.843   6.877  1.00  0.00     0.344 HD
ATOM      6  H   UNL     1      22.811   4.336   7.113  1.00  0.00     0.344 HD
ATOM      7  H   UNL     1      23.758   4.072   5.712  1.00  0.00     0.344 HD
ENDBRANCH   3   4
ENDBRANCH   2   3
ENDBRANCH   1   2
BRANCH   1   8
ATOM      8  C   UNL     1      19.582   5.783   6.354  1.00  0.00     0.072 C 
BRANCH   8   9
ATOM      9  C   UNL     1      19.833   7.297   6.528  1.00  0.00     0.227 C 
BRANCH   9  10
ATOM     10  N   UNL     1      21.002   7.749   5.761  1.00  0.00    -0.350 N 
ATOM     11  H   UNL     1      21.310   8.690   6.095  1.00  0.00     0.345 HD
ATOM     12  H   UNL     1      21.793   7.071   5.854  1.00  0.00     0.345 HD
ATOM     13  H   UNL     1      20.750   7.842   4.750  1.00  0.00     0.345 HD
ENDBRANCH   9  10
BRANCH   9  14
ATOM     14  C   UNL     1      18.607   8.065   6.106  1.00  0.00     0.099 C 
ATOM     15  O   UNL     1      17.463   7.549   6.217  1.00  0.00    -0.544 OA
ATOM     16  O   UNL     1      18.732   9.356   5.611  1.00  0.00    -0.544 OA
ENDBRANCH   9  14
ENDBRANCH   8   9
ENDBRANCH   1   8
TORSDOF 7
ENDMDL
MODEL 5
REMARK VINA RESULT:    -3.971      5.339      7.268
REMARK INTER + INTRA:          -5.484
REMARK INTER:                  -5.416
REMARK INTRA:                  -0.068
REMARK UNBOUND:                -0.120
REMARK SMILES [NH3+]CCCC[C@@H]([NH3+])C(=O)[O-]
REMARK SMILES IDX 4 1 3 2 2 3 1 4 5 8 6 9 7 10 8 14 9 15 10 16
REMARK H PARENT 1 5 1 6 1 7 7 11 7 12 7 13
REMARK Flexibility Score: inf
ROOT
ATOM      1  C   UNL     1      19.867   7.404   6.503  1.00  0.00     0.012 C 
ENDROOT
BRANCH   1   2
ATOM      2  C   UNL     1      19.291   5.992   6.336  1.00  0.00     0.061 C 
BRANCH   2   3
ATOM      3  C   UNL     1      20.302   4.928   6.782  1.00  0.00     0.258 C 
BRANCH   3   4
ATOM      4  N   UNL     1      20.257   3.762   5.900  1.00  0.00    -0.358 N 
ATOM      5  H   UNL     1      20.190   2.895   6.482  1.00  0.00     0.344 HD
ATOM      6  H   UNL     1      21.127   3.715   5.321  1.00  0.00     0.344 HD
ATOM      7  H   UNL     1      19.419   3.816   5.276  1.00  0.00     0.344 HD
ENDBRANCH   3   4
ENDBRANCH   2   3
ENDBRANCH   1   2
BRANCH   1   8
ATOM      8  C   UNL     1      19.028   8.435   5.732  1.00  0.00     0.072 C 
BRANCH   8   9
ATOM      9  C   UNL     1      18.999   9.815   6.425  1.00  0.00     0.227 C 
BRANCH   9  10
ATOM     10  N   UNL     1      19.851  10.793   5.733  1.00  0.00    -0.350 N 
ATOM     11  H   UNL     1      19.730  10.707   4.699  1.00  0.00     0.345 HD
ATOM     12  H   UNL     1      19.617  11.767   6.031  1.00  0.00     0.345 HD
ATOM     13  H   UNL     1      20.857  10.603   5.949  1.00  0.00     0.345 HD
ENDBRANCH   9  10
BRANCH   9  14
ATOM     14  C   UNL     1      17.581  10.318   6.491  1.00  0.00     0.099 C 
ATOM     15  O   UNL     1      17.019  10.781   5.462  1.00  0.00    -0.544 OA
ATOM     16  O   UNL     1      16.876  10.256   7.686  1.00  0.00    -0.544 OA
ENDBRANCH   9  14
ENDBRANCH   8   9
ENDBRANCH   1   8
TORSDOF 7
ENDMDL
MODEL 6
REMARK VINA RESULT:    -3.910      1.985      2.272
REMARK INTER + INTRA:          -5.402
REMARK INTER:                  -5.334
REMARK INTRA:                  -0.068
REMARK UNBOUND:                -0.120
REMARK SMILES [NH3+]CCCC[C@@H]([NH3+])C(=O)[O-]
REMARK SMILES IDX 4 1 3 2 2 3 1 4 5 8 6 9 7 10 8 14 9 15 10 16
REMARK H PARENT 1 5 1 6 1 7 7 11 7 12 7 13
REMARK Flexibility Score: inf
ROOT
ATOM      1  C   UNL     1      19.933   6.358   6.714  1.00  0.00     0.012 C 
ENDROOT
BRANCH   1   2
ATOM      2  C   UNL     1      18.729   7.060   6.075  1.00  0.00     0.061 C 
BRANCH   2   3
ATOM      3  C   UNL     1      19.005   8.556   5.872  1.00  0.00     0.258 C 
BRANCH   3   4
ATOM      4  N   UNL     1      18.880   9.286   7.133  1.00  0.00    -0.358 N 
ATOM      5  H   UNL     1      19.465   8.814   7.860  1.00  0.00     0.344 HD
ATOM      6  H   UNL     1      17.883   9.290   7.450  1.00  0.00     0.344 HD
ATOM      7  H   UNL     1      19.218  10.269   7.014  1.00  0.00     0.344 HD
ENDBRANCH   3   4
ENDBRANCH   2   3
ENDBRANCH   1   2
BRANCH   1   8
ATOM      8  C   UNL     1      19.875   4.841   6.478  1.00  0.00     0.072 C 
BRANCH   8   9
ATOM      9  C   UNL     1      21.086   4.098   7.085  1.00  0.00     0.227 C 
BRANCH   9  10
ATOM     10  N   UNL     1      20.727   3.381   8.316  1.00  0.00    -0.350 N 
ATOM     11  H   UNL     1      21.149   3.856   9.145  1.00  0.00     0.345 HD
ATOM     12  H   UNL     1      19.688   3.337   8.431  1.00  0.00     0.345 HD
ATOM     13  H   UNL     1      21.107   2.407   8.284  1.00  0.00     0.345 HD
ENDBRANCH   9  10
BRANCH   9  14
ATOM     14  C   UNL     1      21.651   3.139   6.070  1.00  0.00     0.099 C 
ATOM     15  O   UNL     1      21.019   2.093   5.760  1.00  0.00    -0.544 OA
ATOM     16  O   UNL     1      22.866   3.412   5.456  1.00  0.00    -0.544 OA
ENDBRANCH   9  14
ENDBRANCH   8   9
ENDBRANCH   1   8
TORSDOF 7
ENDMDL
MODEL 7
REMARK VINA RESULT:    -3.839      2.270      4.448
REMARK INTER + INTRA:          -5.306
REMARK INTER:                  -5.067
REMARK INTRA:                  -0.239
REMARK UNBOUND:                -0.120
REMARK SMILES [NH3+]CCCC[C@@H]([NH3+])C(=O)[O-]
REMARK SMILES IDX 4 1 3 2 2 3 1 4 5 8 6 9 7 10 8 14 9 15 10 16
REMARK H PARENT 1 5 1 6 1 7 7 11 7 12 7 13
REMARK Flexibility Score: inf
ROOT
ATOM      1  C   UNL     1      23.208   3.247   5.244  1.00  0.00     0.012 C 
ENDROOT
BRANCH   1   2
ATOM      2  C   UNL     1      23.896   1.894   5.021  1.00  0.00     0.061 C 
BRANCH   2   3
ATOM      3  C   UNL     1      22.961   0.733   5.382  1.00  0.00     0.258 C 
BRANCH   3   4
ATOM      4  N   UNL     1      23.225   0.252   6.738  1.00  0.00    -0.358 N 
ATOM      5  H   UNL     1      23.346   1.074   7.375  1.00  0.00     0.344 HD
ATOM      6  H   UNL     1      24.102  -0.319   6.754  1.00  0.00     0.344 HD
ATOM      7  H   UNL     1      22.421  -0.324   7.079  1.00  0.00     0.344 HD
ENDBRANCH   3   4
ENDBRANCH   2   3
ENDBRANCH   1   2
BRANCH   1   8
ATOM      8  C   UNL     1      21.682   3.082   5.319  1.00  0.00     0.072 C 
BRANCH   8   9
ATOM      9  C   UNL     1      21.041   3.971   6.408  1.00  0.00     0.227 C 
BRANCH   9  10
ATOM     10  N   UNL     1      19.805   4.610   5.935  1.00  0.00    -0.350 N 
ATOM     11  H   UNL     1      19.391   4.056   5.152  1.00  0.00     0.345 HD
ATOM     12  H   UNL     1      19.108   4.692   6.711  1.00  0.00     0.345 HD
ATOM     13  H   UNL     1      20.018   5.565   5.566  1.00  0.00     0.345 HD
ENDBRANCH   9  10
BRANCH   9  14
ATOM     14  C   UNL     1      20.761   3.143   7.635  1.00  0.00     0.099 C 
ATOM     15  O   UNL     1      20.261   3.674   8.663  1.00  0.00    -0.544 OA
ATOM     16  O   UNL     1      21.034   1.782   7.633  1.00  0.00    -0.544 OA
ENDBRANCH   9  14
ENDBRANCH   8   9
ENDBRANCH   1   8
TORSDOF 7
ENDMDL
MODEL 8
REMARK VINA RESULT:    -3.341     22.923     23.530
REMARK INTER + INTRA:          -4.634
REMARK INTER:                  -4.521
REMARK INTRA:                  -0.112
REMARK UNBOUND:                -0.120
REMARK SMILES [NH3+]CCCC[C@@H]([NH3+])C(=O)[O-]
REMARK SMILES IDX 4 1 3 2 2 3 1 4 5 8 6 9 7 10 8 14 9 15 10 16
REMARK H PARENT 1 5 1 6 1 7 7 11 7 12 7 13
REMARK Flexibility Score: inf
ROOT
ATOM      1  C   UNL     1      34.616  -5.181  25.022  1.00  0.00     0.012 C 
ENDROOT
BRANCH   1   2
ATOM      2  C   UNL     1      33.549  -6.282  25.063  1.00  0.00     0.061 C 
BRANCH   2   3
ATOM      3  C   UNL     1      32.138  -5.682  25.125  1.00  0.00     0.258 C 
BRANCH   3   4
ATOM      4  N   UNL     1      31.582  -5.514  23.783  1.00  0.00    -0.358 N 
ATOM      5  H   UNL     1      31.081  -6.390  23.509  1.00  0.00     0.344 HD
ATOM      6  H   UNL     1      32.349  -5.334  23.095  1.00  0.00     0.344 HD
ATOM      7  H   UNL     1      30.903  -4.718  23.772  1.00  0.00     0.344 HD
ENDBRANCH   3   4
ENDBRANCH   2   3
ENDBRANCH   1   2
BRANCH   1   8
ATOM      8  C   UNL     1      35.654  -5.461  23.925  1.00  0.00     0.072 C 
BRANCH   8   9
ATOM      9  C   UNL     1      35.031  -5.488  22.511  1.00  0.00     0.227 C 
BRANCH   9  10
ATOM     10  N   UNL     1      34.220  -4.292  22.248  1.00  0.00    -0.350 N 
ATOM     11  H   UNL     1      34.660  -3.717  21.494  1.00  0.00     0.345 HD
ATOM     12  H   UNL     1      33.249  -4.556  21.962  1.00  0.00     0.345 HD
ATOM     13  H   UNL     1      34.173  -3.698  23.108  1.00  0.00     0.345 HD
ENDBRANCH   9  10
BRANCH   9  14
ATOM     14  C   UNL     1      36.122  -5.613  21.480  1.00  0.00     0.099 C 
ATOM     15  O   UNL     1      36.498  -4.605  20.823  1.00  0.00    -0.544 OA
ATOM     16  O   UNL     1      36.736  -6.839  21.262  1.00  0.00    -0.544 OA
ENDBRANCH   9  14
ENDBRANCH   8   9
ENDBRANCH   1   8
TORSDOF 7
ENDMDL
