MODEL 1
REMARK VINA RESULT:    11.298      0.000      0.000
REMARK INTER + INTRA:          32.561
REMARK INTER:                  29.791
REMARK INTRA:                   2.770
REMARK UNBOUND:                 2.770
REMARK SMILES CCCCCCCCCCCCCCCCCCCCCCCCCCCCCC(=O)[O-]
REMARK SMILES IDX 16 1 17 2 18 3 19 4 20 5 21 6 22 7 23 8 24 9 25 10 26 11
REMARK SMILES IDX 27 12 28 13 29 14 30 15 31 16 32 17 15 18 14 19 13 20 12 21
REMARK SMILES IDX 11 22 10 23 9 24 8 25 7 26 6 27 5 28 4 29 3 30 2 31 1 32
REMARK H PARENT
REMARK Flexibility Score: inf
ROOT
ATOM      1  C   UNL     1      -8.406  13.947 -14.750  1.00  0.00     0.000 C 
ENDROOT
BRANCH   1   2
ATOM      2  C   UNL     1      -8.274  12.416 -14.598  1.00  0.00     0.000 C 
BRANCH   2   3
ATOM      3  C   UNL     1      -6.872  11.874 -14.936  1.00  0.00     0.000 C 
BRANCH   3   4
ATOM      4  C   UNL     1      -5.770  12.956 -14.974  1.00  0.00     0.000 C 
BRANCH   4   5
ATOM      5  C   UNL     1      -4.971  13.096 -13.664  1.00  0.00     0.000 C 
BRANCH   5   6
ATOM      6  C   UNL     1      -5.219  11.929 -12.693  1.00  0.00     0.000 C 
BRANCH   6   7
ATOM      7  C   UNL     1      -5.430  12.442 -11.260  1.00  0.00     0.000 C 
BRANCH   7   8
ATOM      8  C   UNL     1      -6.743  13.230 -11.105  1.00  0.00     0.000 C 
BRANCH   8   9
ATOM      9  C   UNL     1      -6.795  14.033  -9.795  1.00  0.00     0.000 C 
BRANCH   9  10
ATOM     10  C   UNL     1      -7.086  13.119  -8.598  1.00  0.00     0.000 C 
BRANCH  10  11
ATOM     11  C   UNL     1      -5.784  12.544  -8.020  1.00  0.00     0.000 C 
BRANCH  11  12
ATOM     12  C   UNL     1      -5.697  12.683  -6.492  1.00  0.00     0.000 C 
BRANCH  12  13
ATOM     13  C   UNL     1      -7.073  12.822  -5.805  1.00  0.00     0.006 C 
BRANCH  13  14
ATOM     14  C   UNL     1      -8.181  12.101  -6.584  1.00  0.00     0.053 C 
BRANCH  14  15
ATOM     15  C   UNL     1      -9.432  12.015  -5.766  1.00  0.00     0.041 C 
ATOM     16  O   UNL     1     -10.426  12.736  -6.048  1.00  0.00    -0.550 OA
ATOM     17  O   UNL     1      -9.491  11.160  -4.673  1.00  0.00    -0.550 OA
ENDBRANCH  14  15
ENDBRANCH  13  14
ENDBRANCH  12  13
ENDBRANCH  11  12
ENDBRANCH  10  11
ENDBRANCH   9  10
ENDBRANCH   8   9
ENDBRANCH   7   8
ENDBRANCH   6   7
ENDBRANCH   5   6
ENDBRANCH   4   5
ENDBRANCH   3   4
ENDBRANCH   2   3
ENDBRANCH   1   2
BRANCH   1  18
ATOM     18  C   UNL     1      -7.183  14.721 -14.226  1.00  0.00     0.000 C 
BRANCH  18  19
ATOM     19  C   UNL     1      -6.910  15.994 -15.042  1.00  0.00     0.000 C 
BRANCH  19  20
ATOM     20  C   UNL     1      -5.498  16.531 -14.774  1.00  0.00     0.000 C 
BRANCH  20  21
ATOM     21  C   UNL     1      -5.401  18.024 -15.125  1.00  0.00     0.000 C 
BRANCH  21  22
ATOM     22  C   UNL     1      -4.911  18.888 -13.947  1.00  0.00     0.000 C 
BRANCH  22  23
ATOM     23  C   UNL     1      -4.875  20.404 -14.219  1.00  0.00     0.000 C 
BRANCH  23  24
ATOM     24  C   UNL     1      -6.048  20.883 -15.093  1.00  0.00    -0.000 C 
BRANCH  24  25
ATOM     25  C   UNL     1      -7.405  20.771 -14.381  1.00  0.00    -0.000 C 
BRANCH  25  26
ATOM     26  C   UNL     1      -7.275  20.759 -12.848  1.00  0.00    -0.000 C 
BRANCH  26  27
ATOM     27  C   UNL     1      -8.377  19.931 -12.165  1.00  0.00    -0.000 C 
BRANCH  27  28
ATOM     28  C   UNL     1      -8.202  18.408 -12.342  1.00  0.00    -0.000 C 
BRANCH  28  29
ATOM     29  C   UNL     1      -9.196  17.826 -13.362  1.00  0.00    -0.000 C 
BRANCH  29  30
ATOM     30  C   UNL     1      -9.483  16.335 -13.125  1.00  0.00    -0.000 C 
BRANCH  30  31
ATOM     31  C   UNL     1      -8.805  15.796 -11.858  1.00  0.00    -0.003 C 
ATOM     32  C   UNL     1      -9.623  16.130 -10.613  1.00  0.00     0.004 C 
ENDBRANCH  30  31
ENDBRANCH  29  30
ENDBRANCH  28  29
ENDBRANCH  27  28
ENDBRANCH  26  27
ENDBRANCH  25  26
ENDBRANCH  24  25
ENDBRANCH  23  24
ENDBRANCH  22  23
ENDBRANCH  21  22
ENDBRANCH  20  21
ENDBRANCH  19  20
ENDBRANCH  18  19
ENDBRANCH   1  18
TORSDOF 28
ENDMDL
MODEL 2
REMARK VINA RESULT:    11.715      3.293      8.906
REMARK INTER + INTRA:          33.660
REMARK INTER:                  34.432
REMARK INTRA:                  -0.772
REMARK UNBOUND:                 2.770
REMARK SMILES CCCCCCCCCCCCCCCCCCCCCCCCCCCCCC(=O)[O-]
REMARK SMILES IDX 16 1 17 2 18 3 19 4 20 5 21 6 22 7 23 8 24 9 25 10 26 11
REMARK SMILES IDX 27 12 28 13 29 14 30 15 31 16 32 17 15 18 14 19 13 20 12 21
REMARK SMILES IDX 11 22 10 23 9 24 8 25 7 26 6 27 5 28 4 29 3 30 2 31 1 32
REMARK H PARENT
REMARK Flexibility Score: inf
ROOT
ATOM      1  C   UNL     1      -6.482  14.257  -7.600  1.00  0.00     0.000 C 
ENDROOT
BRANCH   1   2
ATOM      2  C   UNL     1      -6.092  14.078  -9.083  1.00  0.00     0.000 C 
BRANCH   2   3
ATOM      3  C   UNL     1      -6.710  15.131 -10.023  1.00  0.00     0.000 C 
BRANCH   3   4
ATOM      4  C   UNL     1      -7.494  14.533 -11.212  1.00  0.00     0.000 C 
BRANCH   4   5
ATOM      5  C   UNL     1      -8.205  15.577 -12.093  1.00  0.00     0.000 C 
BRANCH   5   6
ATOM      6  C   UNL     1      -8.566  16.856 -11.321  1.00  0.00     0.000 C 
BRANCH   6   7
ATOM      7  C   UNL     1      -8.869  18.014 -12.285  1.00  0.00     0.000 C 
BRANCH   7   8
ATOM      8  C   UNL     1      -8.720  17.605 -13.760  1.00  0.00     0.000 C 
BRANCH   8   9
ATOM      9  C   UNL     1      -7.355  18.001 -14.346  1.00  0.00     0.000 C 
BRANCH   9  10
ATOM     10  C   UNL     1      -6.219  17.670 -13.372  1.00  0.00     0.000 C 
BRANCH  10  11
ATOM     11  C   UNL     1      -4.896  17.463 -14.125  1.00  0.00     0.000 C 
BRANCH  11  12
ATOM     12  C   UNL     1      -4.947  16.282 -15.108  1.00  0.00     0.000 C 
BRANCH  12  13
ATOM     13  C   UNL     1      -5.288  14.934 -14.435  1.00  0.00     0.006 C 
BRANCH  13  14
ATOM     14  C   UNL     1      -6.467  14.229 -15.117  1.00  0.00     0.053 C 
BRANCH  14  15
ATOM     15  C   UNL     1      -6.568  12.806 -14.663  1.00  0.00     0.041 C 
ATOM     16  O   UNL     1      -5.545  12.198 -14.248  1.00  0.00    -0.550 OA
ATOM     17  O   UNL     1      -7.785  12.141 -14.726  1.00  0.00    -0.550 OA
ENDBRANCH  14  15
ENDBRANCH  13  14
ENDBRANCH  12  13
ENDBRANCH  11  12
ENDBRANCH  10  11
ENDBRANCH   9  10
ENDBRANCH   8   9
ENDBRANCH   7   8
ENDBRANCH   6   7
ENDBRANCH   5   6
ENDBRANCH   4   5
ENDBRANCH   3   4
ENDBRANCH   2   3
ENDBRANCH   1   2
BRANCH   1  18
ATOM     18  C   UNL     1      -6.776  12.928  -6.880  1.00  0.00     0.000 C 
BRANCH  18  19
ATOM     19  C   UNL     1      -6.048  12.826  -5.531  1.00  0.00     0.000 C 
BRANCH  19  20
ATOM     20  C   UNL     1      -7.044  12.697  -4.372  1.00  0.00     0.000 C 
BRANCH  20  21
ATOM     21  C   UNL     1      -7.467  11.234  -4.170  1.00  0.00     0.000 C 
BRANCH  21  22
ATOM     22  C   UNL     1      -7.540  10.442  -5.489  1.00  0.00     0.000 C 
BRANCH  22  23
ATOM     23  C   UNL     1      -8.956  10.004  -5.912  1.00  0.00     0.000 C 
BRANCH  23  24
ATOM     24  C   UNL     1     -10.055  10.943  -5.385  1.00  0.00    -0.000 C 
BRANCH  24  25
ATOM     25  C   UNL     1      -9.876  12.393  -5.861  1.00  0.00    -0.000 C 
BRANCH  25  26
ATOM     26  C   UNL     1      -9.584  12.496  -7.367  1.00  0.00    -0.000 C 
BRANCH  26  27
ATOM     27  C   UNL     1     -10.715  13.187  -8.146  1.00  0.00    -0.000 C 
BRANCH  27  28
ATOM     28  C   UNL     1     -11.808  13.791  -7.239  1.00  0.00    -0.000 C 
BRANCH  28  29
ATOM     29  C   UNL     1     -12.441  15.051  -7.855  1.00  0.00    -0.000 C 
BRANCH  29  30
ATOM     30  C   UNL     1     -12.262  16.296  -6.973  1.00  0.00    -0.000 C 
BRANCH  30  31
ATOM     31  C   UNL     1     -12.650  16.045  -5.509  1.00  0.00    -0.003 C 
ATOM     32  C   UNL     1     -12.868  17.360  -4.766  1.00  0.00     0.004 C 
ENDBRANCH  30  31
ENDBRANCH  29  30
ENDBRANCH  28  29
ENDBRANCH  27  28
ENDBRANCH  26  27
ENDBRANCH  25  26
ENDBRANCH  24  25
ENDBRANCH  23  24
ENDBRANCH  22  23
ENDBRANCH  21  22
ENDBRANCH  20  21
ENDBRANCH  19  20
ENDBRANCH  18  19
ENDBRANCH   1  18
TORSDOF 28
ENDMDL
MODEL 3
REMARK VINA RESULT:    12.274      3.088      8.833
REMARK INTER + INTRA:          35.136
REMARK INTER:                  34.808
REMARK INTRA:                   0.328
REMARK UNBOUND:                 2.770
REMARK SMILES CCCCCCCCCCCCCCCCCCCCCCCCCCCCCC(=O)[O-]
REMARK SMILES IDX 16 1 17 2 18 3 19 4 20 5 21 6 22 7 23 8 24 9 25 10 26 11
REMARK SMILES IDX 27 12 28 13 29 14 30 15 31 16 32 17 15 18 14 19 13 20 12 21
REMARK SMILES IDX 11 22 10 23 9 24 8 25 7 26 6 27 5 28 4 29 3 30 2 31 1 32
REMARK H PARENT
REMARK Flexibility Score: inf
ROOT
ATOM      1  C   UNL     1      -5.920  14.166  -8.082  1.00  0.00     0.000 C 
ENDROOT
BRANCH   1   2
ATOM      2  C   UNL     1      -6.991  13.718  -9.100  1.00  0.00     0.000 C 
BRANCH   2   3
ATOM      3  C   UNL     1      -6.921  14.462 -10.448  1.00  0.00     0.000 C 
BRANCH   3   4
ATOM      4  C   UNL     1      -7.463  13.650 -11.645  1.00  0.00     0.000 C 
BRANCH   4   5
ATOM      5  C   UNL     1      -6.436  13.409 -12.767  1.00  0.00     0.000 C 
BRANCH   5   6
ATOM      6  C   UNL     1      -7.074  12.824 -14.037  1.00  0.00     0.000 C 
BRANCH   6   7
ATOM      7  C   UNL     1      -8.070  13.815 -14.660  1.00  0.00     0.000 C 
BRANCH   7   8
ATOM      8  C   UNL     1      -7.927  15.234 -14.083  1.00  0.00     0.000 C 
BRANCH   8   9
ATOM      9  C   UNL     1      -7.088  16.153 -14.985  1.00  0.00     0.000 C 
BRANCH   9  10
ATOM     10  C   UNL     1      -5.592  16.011 -14.682  1.00  0.00     0.000 C 
BRANCH  10  11
ATOM     11  C   UNL     1      -4.876  17.363 -14.818  1.00  0.00     0.000 C 
BRANCH  11  12
ATOM     12  C   UNL     1      -5.841  18.524 -15.105  1.00  0.00     0.000 C 
BRANCH  12  13
ATOM     13  C   UNL     1      -6.076  19.445 -13.887  1.00  0.00     0.006 C 
BRANCH  13  14
ATOM     14  C   UNL     1      -7.558  19.800 -13.710  1.00  0.00     0.053 C 
BRANCH  14  15
ATOM     15  C   UNL     1      -8.308  18.655 -13.104  1.00  0.00     0.041 C 
ATOM     16  O   UNL     1      -8.164  18.376 -11.884  1.00  0.00    -0.550 OA
ATOM     17  O   UNL     1      -9.144  17.876 -13.894  1.00  0.00    -0.550 OA
ENDBRANCH  14  15
ENDBRANCH  13  14
ENDBRANCH  12  13
ENDBRANCH  11  12
ENDBRANCH  10  11
ENDBRANCH   9  10
ENDBRANCH   8   9
ENDBRANCH   7   8
ENDBRANCH   6   7
ENDBRANCH   5   6
ENDBRANCH   4   5
ENDBRANCH   3   4
ENDBRANCH   2   3
ENDBRANCH   1   2
BRANCH   1  18
ATOM     18  C   UNL     1      -6.378  14.040  -6.617  1.00  0.00     0.000 C 
BRANCH  18  19
ATOM     19  C   UNL     1      -6.000  12.681  -6.007  1.00  0.00     0.000 C 
BRANCH  19  20
ATOM     20  C   UNL     1      -6.618  12.509  -4.614  1.00  0.00     0.000 C 
BRANCH  20  21
ATOM     21  C   UNL     1      -7.352  11.164  -4.500  1.00  0.00     0.000 C 
BRANCH  21  22
ATOM     22  C   UNL     1      -7.608  10.501  -5.866  1.00  0.00     0.000 C 
BRANCH  22  23
ATOM     23  C   UNL     1      -9.043   9.980  -6.082  1.00  0.00     0.000 C 
BRANCH  23  24
ATOM     24  C   UNL     1     -10.114  10.922  -5.505  1.00  0.00    -0.000 C 
BRANCH  24  25
ATOM     25  C   UNL     1      -9.664  12.391  -5.482  1.00  0.00    -0.000 C 
BRANCH  25  26
ATOM     26  C   UNL     1      -9.430  12.966  -6.890  1.00  0.00    -0.000 C 
BRANCH  26  27
ATOM     27  C   UNL     1     -10.699  12.942  -7.760  1.00  0.00    -0.000 C 
BRANCH  27  28
ATOM     28  C   UNL     1     -11.922  13.594  -7.083  1.00  0.00    -0.000 C 
BRANCH  28  29
ATOM     29  C   UNL     1     -12.586  14.652  -7.981  1.00  0.00    -0.000 C 
BRANCH  29  30
ATOM     30  C   UNL     1     -12.295  16.088  -7.521  1.00  0.00    -0.000 C 
BRANCH  30  31
ATOM     31  C   UNL     1     -11.894  16.166  -6.042  1.00  0.00    -0.003 C 
ATOM     32  C   UNL     1     -13.114  16.395  -5.154  1.00  0.00     0.004 C 
ENDBRANCH  30  31
ENDBRANCH  29  30
ENDBRANCH  28  29
ENDBRANCH  27  28
ENDBRANCH  26  27
ENDBRANCH  25  26
ENDBRANCH  24  25
ENDBRANCH  23  24
ENDBRANCH  22  23
ENDBRANCH  21  22
ENDBRANCH  20  21
ENDBRANCH  19  20
ENDBRANCH  18  19
ENDBRANCH   1  18
TORSDOF 28
ENDMDL
MODEL 4
REMARK VINA RESULT:    12.824      1.254      2.017
REMARK INTER + INTRA:          36.585
REMARK INTER:                  37.351
REMARK INTRA:                  -0.766
REMARK UNBOUND:                 2.770
REMARK SMILES CCCCCCCCCCCCCCCCCCCCCCCCCCCCCC(=O)[O-]
REMARK SMILES IDX 16 1 17 2 18 3 19 4 20 5 21 6 22 7 23 8 24 9 25 10 26 11
REMARK SMILES IDX 27 12 28 13 29 14 30 15 31 16 32 17 15 18 14 19 13 20 12 21
REMARK SMILES IDX 11 22 10 23 9 24 8 25 7 26 6 27 5 28 4 29 3 30 2 31 1 32
REMARK H PARENT
REMARK Flexibility Score: inf
ROOT
ATOM      1  C   UNL     1      -8.484  14.978 -14.473  1.00  0.00     0.000 C 
ENDROOT
BRANCH   1   2
ATOM      2  C   UNL     1      -8.780  13.525 -14.905  1.00  0.00     0.000 C 
BRANCH   2   3
ATOM      3  C   UNL     1      -7.698  12.515 -14.480  1.00  0.00     0.000 C 
BRANCH   3   4
ATOM      4  C   UNL     1      -6.444  13.160 -13.849  1.00  0.00     0.000 C 
BRANCH   4   5
ATOM      5  C   UNL     1      -6.106  12.646 -12.438  1.00  0.00     0.000 C 
BRANCH   5   6
ATOM      6  C   UNL     1      -7.000  13.268 -11.352  1.00  0.00     0.000 C 
BRANCH   6   7
ATOM      7  C   UNL     1      -6.545  12.833  -9.950  1.00  0.00     0.000 C 
BRANCH   7   8
ATOM      8  C   UNL     1      -6.949  13.842  -8.861  1.00  0.00     0.000 C 
BRANCH   8   9
ATOM      9  C   UNL     1      -5.929  13.909  -7.713  1.00  0.00     0.000 C 
BRANCH   9  10
ATOM     10  C   UNL     1      -5.982  12.642  -6.852  1.00  0.00     0.000 C 
BRANCH  10  11
ATOM     11  C   UNL     1      -5.845  12.989  -5.361  1.00  0.00     0.000 C 
BRANCH  11  12
ATOM     12  C   UNL     1      -6.150  11.797  -4.440  1.00  0.00     0.000 C 
BRANCH  12  13
ATOM     13  C   UNL     1      -7.497  11.108  -4.750  1.00  0.00     0.006 C 
BRANCH  13  14
ATOM     14  C   UNL     1      -8.451  12.027  -5.523  1.00  0.00     0.053 C 
BRANCH  14  15
ATOM     15  C   UNL     1      -9.843  11.477  -5.509  1.00  0.00     0.041 C 
ATOM     16  O   UNL     1     -10.834  12.255  -5.458  1.00  0.00    -0.550 OA
ATOM     17  O   UNL     1     -10.048  10.103  -5.521  1.00  0.00    -0.550 OA
ENDBRANCH  14  15
ENDBRANCH  13  14
ENDBRANCH  12  13
ENDBRANCH  11  12
ENDBRANCH  10  11
ENDBRANCH   9  10
ENDBRANCH   8   9
ENDBRANCH   7   8
ENDBRANCH   6   7
ENDBRANCH   5   6
ENDBRANCH   4   5
ENDBRANCH   3   4
ENDBRANCH   2   3
ENDBRANCH   1   2
BRANCH   1  18
ATOM     18  C   UNL     1      -7.218  15.563 -15.125  1.00  0.00     0.000 C 
BRANCH  18  19
ATOM     19  C   UNL     1      -6.404  16.421 -14.143  1.00  0.00     0.000 C 
BRANCH  19  20
ATOM     20  C   UNL     1      -5.101  16.913 -14.786  1.00  0.00     0.000 C 
BRANCH  20  21
ATOM     21  C   UNL     1      -5.170  18.419 -15.086  1.00  0.00     0.000 C 
BRANCH  21  22
ATOM     22  C   UNL     1      -5.169  19.285 -13.812  1.00  0.00     0.000 C 
BRANCH  22  23
ATOM     23  C   UNL     1      -5.703  20.719 -13.997  1.00  0.00     0.000 C 
BRANCH  23  24
ATOM     24  C   UNL     1      -7.238  20.798 -13.935  1.00  0.00    -0.000 C 
BRANCH  24  25
ATOM     25  C   UNL     1      -7.822  20.075 -12.712  1.00  0.00    -0.000 C 
BRANCH  25  26
ATOM     26  C   UNL     1      -8.590  18.795 -13.086  1.00  0.00    -0.000 C 
BRANCH  26  27
ATOM     27  C   UNL     1      -8.309  17.631 -12.120  1.00  0.00    -0.000 C 
BRANCH  27  28
ATOM     28  C   UNL     1      -9.442  16.586 -12.068  1.00  0.00    -0.000 C 
BRANCH  28  29
ATOM     29  C   UNL     1      -9.272  15.604 -10.896  1.00  0.00    -0.000 C 
BRANCH  29  30
ATOM     30  C   UNL     1     -10.279  15.854  -9.763  1.00  0.00    -0.000 C 
BRANCH  30  31
ATOM     31  C   UNL     1     -11.223  14.665  -9.538  1.00  0.00    -0.003 C 
ATOM     32  C   UNL     1     -11.641  14.566  -8.073  1.00  0.00     0.004 C 
ENDBRANCH  30  31
ENDBRANCH  29  30
ENDBRANCH  28  29
ENDBRANCH  27  28
ENDBRANCH  26  27
ENDBRANCH  25  26
ENDBRANCH  24  25
ENDBRANCH  23  24
ENDBRANCH  22  23
ENDBRANCH  21  22
ENDBRANCH  20  21
ENDBRANCH  19  20
ENDBRANCH  18  19
ENDBRANCH   1  18
TORSDOF 28
ENDMDL
MODEL 5
REMARK VINA RESULT:    12.849      1.882      7.397
REMARK INTER + INTRA:          36.652
REMARK INTER:                  36.531
REMARK INTRA:                   0.120
REMARK UNBOUND:                 2.770
REMARK SMILES CCCCCCCCCCCCCCCCCCCCCCCCCCCCCC(=O)[O-]
REMARK SMILES IDX 16 1 17 2 18 3 19 4 20 5 21 6 22 7 23 8 24 9 25 10 26 11
REMARK SMILES IDX 27 12 28 13 29 14 30 15 31 16 32 17 15 18 14 19 13 20 12 21
REMARK SMILES IDX 11 22 10 23 9 24 8 25 7 26 6 27 5 28 4 29 3 30 2 31 1 32
REMARK H PARENT
REMARK Flexibility Score: inf
ROOT
ATOM      1  C   UNL     1      -6.997  16.034 -14.317  1.00  0.00     0.000 C 
ENDROOT
BRANCH   1   2
ATOM      2  C   UNL     1      -5.548  16.411 -13.941  1.00  0.00     0.000 C 
BRANCH   2   3
ATOM      3  C   UNL     1      -4.926  17.486 -14.854  1.00  0.00     0.000 C 
BRANCH   3   4
ATOM      4  C   UNL     1      -5.740  18.796 -14.932  1.00  0.00     0.000 C 
BRANCH   4   5
ATOM      5  C   UNL     1      -5.317  19.869 -13.913  1.00  0.00     0.000 C 
BRANCH   5   6
ATOM      6  C   UNL     1      -6.228  19.901 -12.674  1.00  0.00     0.000 C 
BRANCH   6   7
ATOM      7  C   UNL     1      -7.594  20.520 -13.012  1.00  0.00     0.000 C 
BRANCH   7   8
ATOM      8  C   UNL     1      -8.365  19.704 -14.064  1.00  0.00     0.000 C 
BRANCH   8   9
ATOM      9  C   UNL     1      -8.922  18.389 -13.496  1.00  0.00     0.000 C 
BRANCH   9  10
ATOM     10  C   UNL     1      -8.520  18.208 -12.028  1.00  0.00     0.000 C 
BRANCH  10  11
ATOM     11  C   UNL     1      -8.658  16.738 -11.601  1.00  0.00     0.000 C 
BRANCH  11  12
ATOM     12  C   UNL     1     -10.024  16.426 -10.967  1.00  0.00     0.000 C 
BRANCH  12  13
ATOM     13  C   UNL     1      -9.947  15.409  -9.807  1.00  0.00     0.006 C 
BRANCH  13  14
ATOM     14  C   UNL     1     -11.254  14.623  -9.641  1.00  0.00     0.053 C 
BRANCH  14  15
ATOM     15  C   UNL     1     -11.747  14.711  -8.230  1.00  0.00     0.041 C 
ATOM     16  O   UNL     1     -11.822  13.674  -7.518  1.00  0.00    -0.550 OA
ATOM     17  O   UNL     1     -12.153  15.933  -7.710  1.00  0.00    -0.550 OA
ENDBRANCH  14  15
ENDBRANCH  13  14
ENDBRANCH  12  13
ENDBRANCH  11  12
ENDBRANCH  10  11
ENDBRANCH   9  10
ENDBRANCH   8   9
ENDBRANCH   7   8
ENDBRANCH   6   7
ENDBRANCH   5   6
ENDBRANCH   4   5
ENDBRANCH   3   4
ENDBRANCH   2   3
ENDBRANCH   1   2
BRANCH   1  18
ATOM     18  C   UNL     1      -7.102  14.702 -15.083  1.00  0.00     0.000 C 
BRANCH  18  19
ATOM     19  C   UNL     1      -8.079  13.724 -14.412  1.00  0.00     0.000 C 
BRANCH  19  20
ATOM     20  C   UNL     1      -7.333  12.547 -13.771  1.00  0.00     0.000 C 
BRANCH  20  21
ATOM     21  C   UNL     1      -6.642  12.978 -12.468  1.00  0.00     0.000 C 
BRANCH  21  22
ATOM     22  C   UNL     1      -7.308  14.201 -11.811  1.00  0.00     0.000 C 
BRANCH  22  23
ATOM     23  C   UNL     1      -7.039  14.361 -10.302  1.00  0.00     0.000 C 
BRANCH  23  24
ATOM     24  C   UNL     1      -6.571  13.055  -9.636  1.00  0.00    -0.000 C 
BRANCH  24  25
ATOM     25  C   UNL     1      -7.534  12.566  -8.544  1.00  0.00    -0.000 C 
BRANCH  25  26
ATOM     26  C   UNL     1      -6.840  12.355  -7.187  1.00  0.00    -0.000 C 
BRANCH  26  27
ATOM     27  C   UNL     1      -7.751  12.694  -5.995  1.00  0.00    -0.000 C 
BRANCH  27  28
ATOM     28  C   UNL     1      -8.508  11.474  -5.431  1.00  0.00    -0.000 C 
BRANCH  28  29
ATOM     29  C   UNL     1      -8.098  11.156  -3.982  1.00  0.00    -0.000 C 
BRANCH  29  30
ATOM     30  C   UNL     1      -6.617  10.766  -3.858  1.00  0.00    -0.000 C 
BRANCH  30  31
ATOM     31  C   UNL     1      -6.056  11.015  -2.451  1.00  0.00    -0.003 C 
ATOM     32  C   UNL     1      -7.177  11.078  -1.417  1.00  0.00     0.004 C 
ENDBRANCH  30  31
ENDBRANCH  29  30
ENDBRANCH  28  29
ENDBRANCH  27  28
ENDBRANCH  26  27
ENDBRANCH  25  26
ENDBRANCH  24  25
ENDBRANCH  23  24
ENDBRANCH  22  23
ENDBRANCH  21  22
ENDBRANCH  20  21
ENDBRANCH  19  20
ENDBRANCH  18  19
ENDBRANCH   1  18
TORSDOF 28
ENDMDL
MODEL 6
REMARK VINA RESULT:    13.060      1.987      3.415
REMARK INTER + INTRA:          37.207
REMARK INTER:                  37.877
REMARK INTRA:                  -0.670
REMARK UNBOUND:                 2.770
REMARK SMILES CCCCCCCCCCCCCCCCCCCCCCCCCCCCCC(=O)[O-]
REMARK SMILES IDX 16 1 17 2 18 3 19 4 20 5 21 6 22 7 23 8 24 9 25 10 26 11
REMARK SMILES IDX 27 12 28 13 29 14 30 15 31 16 32 17 15 18 14 19 13 20 12 21
REMARK SMILES IDX 11 22 10 23 9 24 8 25 7 26 6 27 5 28 4 29 3 30 2 31 1 32
REMARK H PARENT
REMARK Flexibility Score: inf
ROOT
ATOM      1  C   UNL     1      -6.694  15.181 -14.120  1.00  0.00     0.000 C 
ENDROOT
BRANCH   1   2
ATOM      2  C   UNL     1      -6.456  13.778 -14.718  1.00  0.00     0.000 C 
BRANCH   2   3
ATOM      3  C   UNL     1      -5.541  12.882 -13.862  1.00  0.00     0.000 C 
BRANCH   3   4
ATOM      4  C   UNL     1      -6.139  12.495 -12.492  1.00  0.00     0.000 C 
BRANCH   4   5
ATOM      5  C   UNL     1      -7.086  13.550 -11.891  1.00  0.00     0.000 C 
BRANCH   5   6
ATOM      6  C   UNL     1      -7.354  13.320 -10.394  1.00  0.00     0.000 C 
BRANCH   6   7
ATOM      7  C   UNL     1      -6.037  13.156  -9.619  1.00  0.00     0.000 C 
BRANCH   7   8
ATOM      8  C   UNL     1      -6.219  13.344  -8.103  1.00  0.00     0.000 C 
BRANCH   8   9
ATOM      9  C   UNL     1      -6.884  12.129  -7.436  1.00  0.00     0.000 C 
BRANCH   9  10
ATOM     10  C   UNL     1      -7.678  12.547  -6.193  1.00  0.00     0.000 C 
BRANCH  10  11
ATOM     11  C   UNL     1      -8.985  11.746  -6.084  1.00  0.00     0.000 C 
BRANCH  11  12
ATOM     12  C   UNL     1      -9.004  10.797  -4.874  1.00  0.00     0.000 C 
BRANCH  12  13
ATOM     13  C   UNL     1      -8.346  11.395  -3.611  1.00  0.00     0.006 C 
BRANCH  13  14
ATOM     14  C   UNL     1      -6.820  11.236  -3.625  1.00  0.00     0.053 C 
BRANCH  14  15
ATOM     15  C   UNL     1      -6.314  10.872  -2.265  1.00  0.00     0.041 C 
ATOM     16  O   UNL     1      -7.098  10.858  -1.278  1.00  0.00    -0.550 OA
ATOM     17  O   UNL     1      -4.970  10.576  -2.079  1.00  0.00    -0.550 OA
ENDBRANCH  14  15
ENDBRANCH  13  14
ENDBRANCH  12  13
ENDBRANCH  11  12
ENDBRANCH  10  11
ENDBRANCH   9  10
ENDBRANCH   8   9
ENDBRANCH   7   8
ENDBRANCH   6   7
ENDBRANCH   5   6
ENDBRANCH   4   5
ENDBRANCH   3   4
ENDBRANCH   2   3
ENDBRANCH   1   2
BRANCH   1  18
ATOM     18  C   UNL     1      -6.436  16.323 -15.120  1.00  0.00     0.000 C 
BRANCH  18  19
ATOM     19  C   UNL     1      -5.076  17.000 -14.889  1.00  0.00     0.000 C 
BRANCH  19  20
ATOM     20  C   UNL     1      -5.125  17.942 -13.680  1.00  0.00     0.000 C 
BRANCH  20  21
ATOM     21  C   UNL     1      -5.160  19.411 -14.128  1.00  0.00     0.000 C 
BRANCH  21  22
ATOM     22  C   UNL     1      -6.573  20.023 -14.072  1.00  0.00     0.000 C 
BRANCH  22  23
ATOM     23  C   UNL     1      -7.172  20.158 -12.659  1.00  0.00     0.000 C 
BRANCH  23  24
ATOM     24  C   UNL     1      -7.987  18.923 -12.234  1.00  0.00    -0.000 C 
BRANCH  24  25
ATOM     25  C   UNL     1      -8.485  18.099 -13.431  1.00  0.00    -0.000 C 
BRANCH  25  26
ATOM     26  C   UNL     1      -9.750  17.284 -13.111  1.00  0.00    -0.000 C 
BRANCH  26  27
ATOM     27  C   UNL     1      -9.434  15.936 -12.441  1.00  0.00    -0.000 C 
BRANCH  27  28
ATOM     28  C   UNL     1      -9.158  16.050 -10.927  1.00  0.00    -0.000 C 
BRANCH  28  29
ATOM     29  C   UNL     1     -10.425  15.812 -10.088  1.00  0.00    -0.000 C 
BRANCH  29  30
ATOM     30  C   UNL     1     -10.548  14.362  -9.597  1.00  0.00    -0.000 C 
BRANCH  30  31
ATOM     31  C   UNL     1     -11.211  14.258  -8.217  1.00  0.00    -0.003 C 
ATOM     32  C   UNL     1     -12.300  15.313  -8.050  1.00  0.00     0.004 C 
ENDBRANCH  30  31
ENDBRANCH  29  30
ENDBRANCH  28  29
ENDBRANCH  27  28
ENDBRANCH  26  27
ENDBRANCH  25  26
ENDBRANCH  24  25
ENDBRANCH  23  24
ENDBRANCH  22  23
ENDBRANCH  21  22
ENDBRANCH  20  21
ENDBRANCH  19  20
ENDBRANCH  18  19
ENDBRANCH   1  18
TORSDOF 28
ENDMDL
MODEL 7
REMARK VINA RESULT:    13.235      1.698      6.186
REMARK INTER + INTRA:          37.670
REMARK INTER:                  36.845
REMARK INTRA:                   0.825
REMARK UNBOUND:                 2.770
REMARK SMILES CCCCCCCCCCCCCCCCCCCCCCCCCCCCCC(=O)[O-]
REMARK SMILES IDX 16 1 17 2 18 3 19 4 20 5 21 6 22 7 23 8 24 9 25 10 26 11
REMARK SMILES IDX 27 12 28 13 29 14 30 15 31 16 32 17 15 18 14 19 13 20 12 21
REMARK SMILES IDX 11 22 10 23 9 24 8 25 7 26 6 27 5 28 4 29 3 30 2 31 1 32
REMARK H PARENT
REMARK Flexibility Score: inf
ROOT
ATOM      1  C   UNL     1      -6.791  15.724 -13.428  1.00  0.00     0.000 C 
ENDROOT
BRANCH   1   2
ATOM      2  C   UNL     1      -5.402  16.370 -13.237  1.00  0.00     0.000 C 
BRANCH   2   3
ATOM      3  C   UNL     1      -5.072  17.460 -14.275  1.00  0.00     0.000 C 
BRANCH   3   4
ATOM      4  C   UNL     1      -6.293  17.953 -15.082  1.00  0.00     0.000 C 
BRANCH   4   5
ATOM      5  C   UNL     1      -6.613  19.449 -14.903  1.00  0.00     0.000 C 
BRANCH   5   6
ATOM      6  C   UNL     1      -6.236  19.970 -13.506  1.00  0.00     0.000 C 
BRANCH   6   7
ATOM      7  C   UNL     1      -7.358  19.692 -12.493  1.00  0.00     0.000 C 
BRANCH   7   8
ATOM      8  C   UNL     1      -8.698  19.366 -13.175  1.00  0.00     0.000 C 
BRANCH   8   9
ATOM      9  C   UNL     1      -9.117  17.900 -12.976  1.00  0.00     0.000 C 
BRANCH   9  10
ATOM     10  C   UNL     1      -9.073  17.509 -11.495  1.00  0.00     0.000 C 
BRANCH  10  11
ATOM     11  C   UNL     1      -9.560  16.066 -11.296  1.00  0.00     0.000 C 
BRANCH  11  12
ATOM     12  C   UNL     1     -10.025  15.785  -9.858  1.00  0.00     0.000 C 
BRANCH  12  13
ATOM     13  C   UNL     1     -10.294  14.290  -9.578  1.00  0.00     0.006 C 
BRANCH  13  14
ATOM     14  C   UNL     1     -10.999  14.073  -8.232  1.00  0.00     0.053 C 
BRANCH  14  15
ATOM     15  C   UNL     1     -12.120  15.049  -8.059  1.00  0.00     0.041 C 
ATOM     16  O   UNL     1     -12.029  15.978  -7.213  1.00  0.00    -0.550 OA
ATOM     17  O   UNL     1     -13.281  14.915  -8.811  1.00  0.00    -0.550 OA
ENDBRANCH  14  15
ENDBRANCH  13  14
ENDBRANCH  12  13
ENDBRANCH  11  12
ENDBRANCH  10  11
ENDBRANCH   9  10
ENDBRANCH   8   9
ENDBRANCH   7   8
ENDBRANCH   6   7
ENDBRANCH   5   6
ENDBRANCH   4   5
ENDBRANCH   3   4
ENDBRANCH   2   3
ENDBRANCH   1   2
BRANCH   1  18
ATOM     18  C   UNL     1      -7.119  15.406 -14.899  1.00  0.00     0.000 C 
BRANCH  18  19
ATOM     19  C   UNL     1      -8.522  14.799 -15.061  1.00  0.00     0.000 C 
BRANCH  19  20
ATOM     20  C   UNL     1      -8.592  13.395 -14.448  1.00  0.00     0.000 C 
BRANCH  20  21
ATOM     21  C   UNL     1      -7.589  12.448 -15.125  1.00  0.00     0.000 C 
BRANCH  21  22
ATOM     22  C   UNL     1      -6.123  12.806 -14.816  1.00  0.00     0.000 C 
BRANCH  22  23
ATOM     23  C   UNL     1      -5.442  11.919 -13.756  1.00  0.00     0.000 C 
BRANCH  23  24
ATOM     24  C   UNL     1      -5.463  12.545 -12.350  1.00  0.00    -0.000 C 
BRANCH  24  25
ATOM     25  C   UNL     1      -6.884  12.871 -11.865  1.00  0.00    -0.000 C 
BRANCH  25  26
ATOM     26  C   UNL     1      -7.058  14.351 -11.483  1.00  0.00    -0.000 C 
BRANCH  26  27
ATOM     27  C   UNL     1      -6.808  14.612  -9.988  1.00  0.00    -0.000 C 
BRANCH  27  28
ATOM     28  C   UNL     1      -6.945  13.350  -9.111  1.00  0.00    -0.000 C 
BRANCH  28  29
ATOM     29  C   UNL     1      -5.923  13.329  -7.961  1.00  0.00    -0.000 C 
BRANCH  29  30
ATOM     30  C   UNL     1      -6.187  12.200  -6.954  1.00  0.00    -0.000 C 
BRANCH  30  31
ATOM     31  C   UNL     1      -7.160  12.615  -5.842  1.00  0.00    -0.003 C 
ATOM     32  C   UNL     1      -8.356  11.668  -5.778  1.00  0.00     0.004 C 
ENDBRANCH  30  31
ENDBRANCH  29  30
ENDBRANCH  28  29
ENDBRANCH  27  28
ENDBRANCH  26  27
ENDBRANCH  25  26
ENDBRANCH  24  25
ENDBRANCH  23  24
ENDBRANCH  22  23
ENDBRANCH  21  22
ENDBRANCH  20  21
ENDBRANCH  19  20
ENDBRANCH  18  19
ENDBRANCH   1  18
TORSDOF 28
ENDMDL
MODEL 8
REMARK VINA RESULT:    13.370      3.821      9.167
REMARK INTER + INTRA:          38.025
REMARK INTER:                  37.684
REMARK INTRA:                   0.341
REMARK UNBOUND:                 2.770
REMARK SMILES CCCCCCCCCCCCCCCCCCCCCCCCCCCCCC(=O)[O-]
REMARK SMILES IDX 16 1 17 2 18 3 19 4 20 5 21 6 22 7 23 8 24 9 25 10 26 11
REMARK SMILES IDX 27 12 28 13 29 14 30 15 31 16 32 17 15 18 14 19 13 20 12 21
REMARK SMILES IDX 11 22 10 23 9 24 8 25 7 26 6 27 5 28 4 29 3 30 2 31 1 32
REMARK H PARENT
REMARK Flexibility Score: inf
ROOT
ATOM      1  C   UNL     1      -6.700  13.380  -7.547  1.00  0.00     0.000 C 
ENDROOT
BRANCH   1   2
ATOM      2  C   UNL     1      -5.862  13.027  -8.795  1.00  0.00     0.000 C 
BRANCH   2   3
ATOM      3  C   UNL     1      -6.438  13.582 -10.112  1.00  0.00     0.000 C 
BRANCH   3   4
ATOM      4  C   UNL     1      -6.116  12.721 -11.353  1.00  0.00     0.000 C 
BRANCH   4   5
ATOM      5  C   UNL     1      -6.331  13.440 -12.698  1.00  0.00     0.000 C 
BRANCH   5   6
ATOM      6  C   UNL     1      -7.053  12.559 -13.731  1.00  0.00     0.000 C 
BRANCH   6   7
ATOM      7  C   UNL     1      -8.006  13.396 -14.598  1.00  0.00     0.000 C 
BRANCH   7   8
ATOM      8  C   UNL     1      -7.506  14.837 -14.799  1.00  0.00     0.000 C 
BRANCH   8   9
ATOM      9  C   UNL     1      -8.440  15.878 -14.161  1.00  0.00     0.000 C 
BRANCH   9  10
ATOM     10  C   UNL     1      -8.244  15.939 -12.642  1.00  0.00     0.000 C 
BRANCH  10  11
ATOM     11  C   UNL     1      -9.041  17.103 -12.035  1.00  0.00     0.000 C 
BRANCH  11  12
ATOM     12  C   UNL     1      -8.929  18.397 -12.857  1.00  0.00     0.000 C 
BRANCH  12  13
ATOM     13  C   UNL     1      -7.553  19.088 -12.733  1.00  0.00     0.006 C 
BRANCH  13  14
ATOM     14  C   UNL     1      -6.827  19.173 -14.082  1.00  0.00     0.053 C 
BRANCH  14  15
ATOM     15  C   UNL     1      -5.658  20.105 -13.996  1.00  0.00     0.041 C 
ATOM     16  O   UNL     1      -5.240  20.696 -15.027  1.00  0.00    -0.550 OA
ATOM     17  O   UNL     1      -5.011  20.298 -12.782  1.00  0.00    -0.550 OA
ENDBRANCH  14  15
ENDBRANCH  13  14
ENDBRANCH  12  13
ENDBRANCH  11  12
ENDBRANCH  10  11
ENDBRANCH   9  10
ENDBRANCH   8   9
ENDBRANCH   7   8
ENDBRANCH   6   7
ENDBRANCH   5   6
ENDBRANCH   4   5
ENDBRANCH   3   4
ENDBRANCH   2   3
ENDBRANCH   1   2
BRANCH   1  18
ATOM     18  C   UNL     1      -6.812  12.223  -6.538  1.00  0.00     0.000 C 
BRANCH  18  19
ATOM     19  C   UNL     1      -5.969  12.470  -5.277  1.00  0.00     0.000 C 
BRANCH  19  20
ATOM     20  C   UNL     1      -6.732  12.060  -4.011  1.00  0.00     0.000 C 
BRANCH  20  21
ATOM     21  C   UNL     1      -7.181  10.593  -4.090  1.00  0.00     0.000 C 
BRANCH  21  22
ATOM     22  C   UNL     1      -7.742  10.209  -5.473  1.00  0.00     0.000 C 
BRANCH  22  23
ATOM     23  C   UNL     1      -9.232   9.817  -5.488  1.00  0.00     0.000 C 
BRANCH  23  24
ATOM     24  C   UNL     1     -10.163  10.991  -5.140  1.00  0.00    -0.000 C 
BRANCH  24  25
ATOM     25  C   UNL     1      -9.767  12.295  -5.849  1.00  0.00    -0.000 C 
BRANCH  25  26
ATOM     26  C   UNL     1      -9.678  12.141  -7.377  1.00  0.00    -0.000 C 
BRANCH  26  27
ATOM     27  C   UNL     1     -10.524  13.182  -8.130  1.00  0.00    -0.000 C 
BRANCH  27  28
ATOM     28  C   UNL     1     -11.756  13.665  -7.337  1.00  0.00    -0.000 C 
BRANCH  28  29
ATOM     29  C   UNL     1     -12.380  14.930  -7.950  1.00  0.00    -0.000 C 
BRANCH  29  30
ATOM     30  C   UNL     1     -12.211  16.167  -7.055  1.00  0.00    -0.000 C 
BRANCH  30  31
ATOM     31  C   UNL     1     -13.064  16.097  -5.780  1.00  0.00    -0.003 C 
ATOM     32  C   UNL     1     -12.326  16.707  -4.592  1.00  0.00     0.004 C 
ENDBRANCH  30  31
ENDBRANCH  29  30
ENDBRANCH  28  29
ENDBRANCH  27  28
ENDBRANCH  26  27
ENDBRANCH  25  26
ENDBRANCH  24  25
ENDBRANCH  23  24
ENDBRANCH  22  23
ENDBRANCH  21  22
ENDBRANCH  20  21
ENDBRANCH  19  20
ENDBRANCH  18  19
ENDBRANCH   1  18
TORSDOF 28
ENDMDL
