MODEL 1
REMARK VINA RESULT:    -3.659      0.000      0.000
REMARK INTER + INTRA:          -8.611
REMARK INTER:                  -6.440
REMARK INTRA:                  -2.171
REMARK UNBOUND:                -2.171
REMARK SMILES CCCCCCCCCCCCCCC(=O)[O-]
REMARK SMILES IDX 9 1 10 2 11 3 12 4 13 5 14 6 15 7 16 8 17 9 8 10 7 11 6 12
REMARK SMILES IDX 5 13 4 14 3 15 2 16 1 17
REMARK H PARENT
REMARK Flexibility Score: inf
ROOT
ATOM      1  C   UNL     1      28.581  33.882   4.224  1.00  0.00     0.000 C 
ENDROOT
BRANCH   1   2
ATOM      2  C   UNL     1      29.557  32.799   3.740  1.00  0.00     0.000 C 
BRANCH   2   3
ATOM      3  C   UNL     1      31.012  33.296   3.690  1.00  0.00     0.000 C 
BRANCH   3   4
ATOM      4  C   UNL     1      31.659  33.095   2.309  1.00  0.00     0.000 C 
BRANCH   4   5
ATOM      5  C   UNL     1      30.619  32.937   1.187  1.00  0.00     0.006 C 
BRANCH   5   6
ATOM      6  C   UNL     1      31.050  33.642  -0.105  1.00  0.00     0.053 C 
BRANCH   6   7
ATOM      7  C   UNL     1      31.975  32.792  -0.920  1.00  0.00     0.041 C 
ATOM      8  O   UNL     1      31.514  32.001  -1.784  1.00  0.00    -0.550 OA
ATOM      9  O   UNL     1      33.350  32.895  -0.746  1.00  0.00    -0.550 OA
ENDBRANCH   6   7
ENDBRANCH   5   6
ENDBRANCH   4   5
ENDBRANCH   3   4
ENDBRANCH   2   3
ENDBRANCH   1   2
BRANCH   1  10
ATOM     10  C   UNL     1      27.140  33.637   3.737  1.00  0.00     0.000 C 
BRANCH  10  11
ATOM     11  C   UNL     1      27.090  32.915   2.377  1.00  0.00    -0.000 C 
BRANCH  11  12
ATOM     12  C   UNL     1      26.051  33.502   1.401  1.00  0.00    -0.000 C 
BRANCH  12  13
ATOM     13  C   UNL     1      26.647  34.533   0.419  1.00  0.00    -0.000 C 
BRANCH  13  14
ATOM     14  C   UNL     1      26.352  35.999   0.791  1.00  0.00    -0.000 C 
BRANCH  14  15
ATOM     15  C   UNL     1      27.397  36.632   1.731  1.00  0.00    -0.000 C 
BRANCH  15  16
ATOM     16  C   UNL     1      28.838  36.268   1.341  1.00  0.00    -0.003 C 
ATOM     17  C   UNL     1      29.824  36.680   2.431  1.00  0.00     0.004 C 
ENDBRANCH  15  16
ENDBRANCH  14  15
ENDBRANCH  13  14
ENDBRANCH  12  13
ENDBRANCH  11  12
ENDBRANCH  10  11
ENDBRANCH   1  10
TORSDOF 13
ENDMDL
MODEL 2
REMARK VINA RESULT:    -3.641      3.324      5.868
REMARK INTER + INTRA:          -8.580
REMARK INTER:                  -7.068
REMARK INTRA:                  -1.512
REMARK UNBOUND:                -2.171
REMARK SMILES CCCCCCCCCCCCCCC(=O)[O-]
REMARK SMILES IDX 9 1 10 2 11 3 12 4 13 5 14 6 15 7 16 8 17 9 8 10 7 11 6 12
REMARK SMILES IDX 5 13 4 14 3 15 2 16 1 17
REMARK H PARENT
REMARK Flexibility Score: inf
ROOT
ATOM      1  C   UNL     1      28.510  34.212   3.955  1.00  0.00     0.000 C 
ENDROOT
BRANCH   1   2
ATOM      2  C   UNL     1      27.127  33.663   3.571  1.00  0.00     0.000 C 
BRANCH   2   3
ATOM      3  C   UNL     1      27.150  32.877   2.249  1.00  0.00     0.000 C 
BRANCH   3   4
ATOM      4  C   UNL     1      26.515  33.657   1.085  1.00  0.00     0.000 C 
BRANCH   4   5
ATOM      5  C   UNL     1      25.022  33.948   1.314  1.00  0.00     0.006 C 
BRANCH   5   6
ATOM      6  C   UNL     1      24.121  32.877   0.686  1.00  0.00     0.053 C 
BRANCH   6   7
ATOM      7  C   UNL     1      23.447  33.376  -0.554  1.00  0.00     0.041 C 
ATOM      8  O   UNL     1      22.193  33.337  -0.655  1.00  0.00    -0.550 OA
ATOM      9  O   UNL     1      24.203  33.912  -1.590  1.00  0.00    -0.550 OA
ENDBRANCH   6   7
ENDBRANCH   5   6
ENDBRANCH   4   5
ENDBRANCH   3   4
ENDBRANCH   2   3
ENDBRANCH   1   2
BRANCH   1  10
ATOM     10  C   UNL     1      28.895  35.461   3.140  1.00  0.00     0.000 C 
BRANCH  10  11
ATOM     11  C   UNL     1      30.259  35.315   2.442  1.00  0.00    -0.000 C 
BRANCH  11  12
ATOM     12  C   UNL     1      30.174  34.673   1.042  1.00  0.00    -0.000 C 
BRANCH  12  13
ATOM     13  C   UNL     1      30.654  33.206   1.011  1.00  0.00    -0.000 C 
BRANCH  13  14
ATOM     14  C   UNL     1      31.495  32.794   2.235  1.00  0.00    -0.000 C 
BRANCH  14  15
ATOM     15  C   UNL     1      32.994  32.600   1.933  1.00  0.00    -0.000 C 
BRANCH  15  16
ATOM     16  C   UNL     1      33.838  33.819   2.334  1.00  0.00    -0.003 C 
ATOM     17  C   UNL     1      33.839  34.015   3.848  1.00  0.00     0.004 C 
ENDBRANCH  15  16
ENDBRANCH  14  15
ENDBRANCH  13  14
ENDBRANCH  12  13
ENDBRANCH  11  12
ENDBRANCH  10  11
ENDBRANCH   1  10
TORSDOF 13
ENDMDL
MODEL 3
REMARK VINA RESULT:    -3.629      3.259      4.973
REMARK INTER + INTRA:          -8.559
REMARK INTER:                  -6.083
REMARK INTRA:                  -2.476
REMARK UNBOUND:                -2.171
REMARK SMILES CCCCCCCCCCCCCCC(=O)[O-]
REMARK SMILES IDX 9 1 10 2 11 3 12 4 13 5 14 6 15 7 16 8 17 9 8 10 7 11 6 12
REMARK SMILES IDX 5 13 4 14 3 15 2 16 1 17
REMARK H PARENT
REMARK Flexibility Score: inf
ROOT
ATOM      1  C   UNL     1      29.564  32.885   3.846  1.00  0.00     0.000 C 
ENDROOT
BRANCH   1   2
ATOM      2  C   UNL     1      28.631  34.048   4.214  1.00  0.00     0.000 C 
BRANCH   2   3
ATOM      3  C   UNL     1      27.250  33.931   3.546  1.00  0.00     0.000 C 
BRANCH   3   4
ATOM      4  C   UNL     1      27.222  32.881   2.423  1.00  0.00     0.000 C 
BRANCH   4   5
ATOM      5  C   UNL     1      26.253  33.255   1.289  1.00  0.00     0.006 C 
BRANCH   5   6
ATOM      6  C   UNL     1      25.363  34.449   1.658  1.00  0.00     0.053 C 
BRANCH   6   7
ATOM      7  C   UNL     1      24.132  34.509   0.808  1.00  0.00     0.041 C 
ATOM      8  O   UNL     1      23.689  33.467   0.258  1.00  0.00    -0.550 OA
ATOM      9  O   UNL     1      23.457  35.712   0.646  1.00  0.00    -0.550 OA
ENDBRANCH   6   7
ENDBRANCH   5   6
ENDBRANCH   4   5
ENDBRANCH   3   4
ENDBRANCH   2   3
ENDBRANCH   1   2
BRANCH   1  10
ATOM     10  C   UNL     1      30.855  33.361   3.154  1.00  0.00     0.000 C 
BRANCH  10  11
ATOM     11  C   UNL     1      30.866  33.051   1.645  1.00  0.00    -0.000 C 
BRANCH  11  12
ATOM     12  C   UNL     1      30.883  34.308   0.753  1.00  0.00    -0.000 C 
BRANCH  12  13
ATOM     13  C   UNL     1      29.520  34.610   0.094  1.00  0.00    -0.000 C 
BRANCH  13  14
ATOM     14  C   UNL     1      28.852  35.905   0.596  1.00  0.00    -0.000 C 
BRANCH  14  15
ATOM     15  C   UNL     1      29.617  36.608   1.734  1.00  0.00    -0.000 C 
BRANCH  15  16
ATOM     16  C   UNL     1      28.683  37.340   2.709  1.00  0.00    -0.003 C 
ATOM     17  C   UNL     1      27.302  37.549   2.095  1.00  0.00     0.004 C 
ENDBRANCH  15  16
ENDBRANCH  14  15
ENDBRANCH  13  14
ENDBRANCH  12  13
ENDBRANCH  11  12
ENDBRANCH  10  11
ENDBRANCH   1  10
TORSDOF 13
ENDMDL
MODEL 4
REMARK VINA RESULT:    -3.604      3.286      5.667
REMARK INTER + INTRA:          -8.514
REMARK INTER:                  -6.566
REMARK INTRA:                  -1.948
REMARK UNBOUND:                -2.171
REMARK SMILES CCCCCCCCCCCCCCC(=O)[O-]
REMARK SMILES IDX 9 1 10 2 11 3 12 4 13 5 14 6 15 7 16 8 17 9 8 10 7 11 6 12
REMARK SMILES IDX 5 13 4 14 3 15 2 16 1 17
REMARK H PARENT
REMARK Flexibility Score: inf
ROOT
ATOM      1  C   UNL     1      29.692  33.851   3.157  1.00  0.00     0.000 C 
ENDROOT
BRANCH   1   2
ATOM      2  C   UNL     1      28.630  34.000   4.257  1.00  0.00     0.000 C 
BRANCH   2   3
ATOM      3  C   UNL     1      27.218  33.629   3.769  1.00  0.00     0.000 C 
BRANCH   3   4
ATOM      4  C   UNL     1      27.234  32.871   2.432  1.00  0.00     0.000 C 
BRANCH   4   5
ATOM      5  C   UNL     1      26.264  33.473   1.401  1.00  0.00     0.006 C 
BRANCH   5   6
ATOM      6  C   UNL     1      26.259  35.006   1.437  1.00  0.00     0.053 C 
BRANCH   6   7
ATOM      7  C   UNL     1      24.916  35.566   1.079  1.00  0.00     0.041 C 
ATOM      8  O   UNL     1      24.012  34.812   0.633  1.00  0.00    -0.550 OA
ATOM      9  O   UNL     1      24.655  36.918   1.265  1.00  0.00    -0.550 OA
ENDBRANCH   6   7
ENDBRANCH   5   6
ENDBRANCH   4   5
ENDBRANCH   3   4
ENDBRANCH   2   3
ENDBRANCH   1   2
BRANCH   1  10
ATOM     10  C   UNL     1      29.913  35.157   2.372  1.00  0.00     0.000 C 
BRANCH  10  11
ATOM     11  C   UNL     1      30.414  34.907   0.937  1.00  0.00    -0.000 C 
BRANCH  11  12
ATOM     12  C   UNL     1      30.558  33.414   0.582  1.00  0.00    -0.000 C 
BRANCH  12  13
ATOM     13  C   UNL     1      31.865  33.086  -0.170  1.00  0.00    -0.000 C 
BRANCH  13  14
ATOM     14  C   UNL     1      33.135  33.208   0.695  1.00  0.00    -0.000 C 
BRANCH  14  15
ATOM     15  C   UNL     1      33.027  32.525   2.072  1.00  0.00    -0.000 C 
BRANCH  15  16
ATOM     16  C   UNL     1      33.493  33.433   3.219  1.00  0.00    -0.003 C 
ATOM     17  C   UNL     1      33.618  34.883   2.758  1.00  0.00     0.004 C 
ENDBRANCH  15  16
ENDBRANCH  14  15
ENDBRANCH  13  14
ENDBRANCH  12  13
ENDBRANCH  11  12
ENDBRANCH  10  11
ENDBRANCH   1  10
TORSDOF 13
ENDMDL
MODEL 5
REMARK VINA RESULT:    -3.597      1.363      2.544
REMARK INTER + INTRA:          -8.501
REMARK INTER:                  -6.292
REMARK INTRA:                  -2.210
REMARK UNBOUND:                -2.171
REMARK SMILES CCCCCCCCCCCCCCC(=O)[O-]
REMARK SMILES IDX 9 1 10 2 11 3 12 4 13 5 14 6 15 7 16 8 17 9 8 10 7 11 6 12
REMARK SMILES IDX 5 13 4 14 3 15 2 16 1 17
REMARK H PARENT
REMARK Flexibility Score: inf
ROOT
ATOM      1  C   UNL     1      27.006  33.036   2.063  1.00  0.00     0.000 C 
ENDROOT
BRANCH   1   2
ATOM      2  C   UNL     1      27.025  33.700   3.448  1.00  0.00     0.000 C 
BRANCH   2   3
ATOM      3  C   UNL     1      28.431  33.725   4.072  1.00  0.00     0.000 C 
BRANCH   3   4
ATOM      4  C   UNL     1      29.466  32.961   3.230  1.00  0.00     0.000 C 
BRANCH   4   5
ATOM      5  C   UNL     1      30.906  33.180   3.723  1.00  0.00     0.006 C 
BRANCH   5   6
ATOM      6  C   UNL     1      31.772  33.901   2.681  1.00  0.00     0.053 C 
BRANCH   6   7
ATOM      7  C   UNL     1      32.432  32.937   1.745  1.00  0.00     0.041 C 
ATOM      8  O   UNL     1      33.110  31.976   2.196  1.00  0.00    -0.550 OA
ATOM      9  O   UNL     1      32.276  33.083   0.372  1.00  0.00    -0.550 OA
ENDBRANCH   6   7
ENDBRANCH   5   6
ENDBRANCH   4   5
ENDBRANCH   3   4
ENDBRANCH   2   3
ENDBRANCH   1   2
BRANCH   1  10
ATOM     10  C   UNL     1      25.684  33.279   1.311  1.00  0.00     0.000 C 
BRANCH  10  11
ATOM     11  C   UNL     1      25.685  34.605   0.527  1.00  0.00    -0.000 C 
BRANCH  11  12
ATOM     12  C   UNL     1      24.749  35.677   1.120  1.00  0.00    -0.000 C 
BRANCH  12  13
ATOM     13  C   UNL     1      25.484  36.971   1.531  1.00  0.00    -0.000 C 
BRANCH  13  14
ATOM     14  C   UNL     1      26.956  37.028   1.079  1.00  0.00    -0.000 C 
BRANCH  14  15
ATOM     15  C   UNL     1      27.968  37.101   2.240  1.00  0.00    -0.000 C 
BRANCH  15  16
ATOM     16  C   UNL     1      29.322  36.472   1.882  1.00  0.00    -0.003 C 
ATOM     17  C   UNL     1      29.236  35.684   0.577  1.00  0.00     0.004 C 
ENDBRANCH  15  16
ENDBRANCH  14  15
ENDBRANCH  13  14
ENDBRANCH  12  13
ENDBRANCH  11  12
ENDBRANCH  10  11
ENDBRANCH   1  10
TORSDOF 13
ENDMDL
MODEL 6
REMARK VINA RESULT:    -3.592      3.507      5.717
REMARK INTER + INTRA:          -8.493
REMARK INTER:                  -6.495
REMARK INTRA:                  -1.998
REMARK UNBOUND:                -2.171
REMARK SMILES CCCCCCCCCCCCCCC(=O)[O-]
REMARK SMILES IDX 9 1 10 2 11 3 12 4 13 5 14 6 15 7 16 8 17 9 8 10 7 11 6 12
REMARK SMILES IDX 5 13 4 14 3 15 2 16 1 17
REMARK H PARENT
REMARK Flexibility Score: inf
ROOT
ATOM      1  C   UNL     1      27.235  33.825   3.652  1.00  0.00     0.000 C 
ENDROOT
BRANCH   1   2
ATOM      2  C   UNL     1      27.250  32.806   2.503  1.00  0.00     0.000 C 
BRANCH   2   3
ATOM      3  C   UNL     1      26.232  33.146   1.399  1.00  0.00     0.000 C 
BRANCH   3   4
ATOM      4  C   UNL     1      25.530  34.493   1.636  1.00  0.00     0.000 C 
BRANCH   4   5
ATOM      5  C   UNL     1      24.286  34.675   0.750  1.00  0.00     0.006 C 
BRANCH   5   6
ATOM      6  C   UNL     1      24.255  33.676  -0.414  1.00  0.00     0.053 C 
BRANCH   6   7
ATOM      7  C   UNL     1      22.954  32.935  -0.476  1.00  0.00     0.041 C 
ATOM      8  O   UNL     1      22.877  31.753  -0.051  1.00  0.00    -0.550 OA
ATOM      9  O   UNL     1      21.820  33.562  -0.977  1.00  0.00    -0.550 OA
ENDBRANCH   6   7
ENDBRANCH   5   6
ENDBRANCH   4   5
ENDBRANCH   3   4
ENDBRANCH   2   3
ENDBRANCH   1   2
BRANCH   1  10
ATOM     10  C   UNL     1      28.642  34.098   4.215  1.00  0.00     0.000 C 
BRANCH  10  11
ATOM     11  C   UNL     1      29.627  32.950   3.930  1.00  0.00    -0.000 C 
BRANCH  11  12
ATOM     12  C   UNL     1      30.882  33.389   3.149  1.00  0.00    -0.000 C 
BRANCH  12  13
ATOM     13  C   UNL     1      30.852  32.978   1.661  1.00  0.00    -0.000 C 
BRANCH  13  14
ATOM     14  C   UNL     1      30.906  34.166   0.680  1.00  0.00    -0.000 C 
BRANCH  14  15
ATOM     15  C   UNL     1      29.530  34.595   0.134  1.00  0.00    -0.000 C 
BRANCH  15  16
ATOM     16  C   UNL     1      28.934  35.782   0.904  1.00  0.00    -0.003 C 
ATOM     17  C   UNL     1      30.031  36.635   1.536  1.00  0.00     0.004 C 
ENDBRANCH  15  16
ENDBRANCH  14  15
ENDBRANCH  13  14
ENDBRANCH  12  13
ENDBRANCH  11  12
ENDBRANCH  10  11
ENDBRANCH   1  10
TORSDOF 13
ENDMDL
MODEL 7
REMARK VINA RESULT:    -3.552      3.096      5.510
REMARK INTER + INTRA:          -8.423
REMARK INTER:                  -6.596
REMARK INTRA:                  -1.827
REMARK UNBOUND:                -2.171
REMARK SMILES CCCCCCCCCCCCCCC(=O)[O-]
REMARK SMILES IDX 9 1 10 2 11 3 12 4 13 5 14 6 15 7 16 8 17 9 8 10 7 11 6 12
REMARK SMILES IDX 5 13 4 14 3 15 2 16 1 17
REMARK H PARENT
REMARK Flexibility Score: inf
ROOT
ATOM      1  C   UNL     1      29.512  32.829   3.619  1.00  0.00     0.000 C 
ENDROOT
BRANCH   1   2
ATOM      2  C   UNL     1      28.624  33.968   4.143  1.00  0.00     0.000 C 
BRANCH   2   3
ATOM      3  C   UNL     1      27.211  33.943   3.533  1.00  0.00     0.000 C 
BRANCH   3   4
ATOM      4  C   UNL     1      27.084  32.942   2.373  1.00  0.00     0.000 C 
BRANCH   4   5
ATOM      5  C   UNL     1      25.949  33.306   1.401  1.00  0.00     0.006 C 
BRANCH   5   6
ATOM      6  C   UNL     1      25.731  34.821   1.307  1.00  0.00     0.053 C 
BRANCH   6   7
ATOM      7  C   UNL     1      24.490  35.157   0.539  1.00  0.00     0.041 C 
ATOM      8  O   UNL     1      23.524  35.726   1.113  1.00  0.00    -0.550 OA
ATOM      9  O   UNL     1      24.411  34.868  -0.817  1.00  0.00    -0.550 OA
ENDBRANCH   6   7
ENDBRANCH   5   6
ENDBRANCH   4   5
ENDBRANCH   3   4
ENDBRANCH   2   3
ENDBRANCH   1   2
BRANCH   1  10
ATOM     10  C   UNL     1      30.969  32.949   4.103  1.00  0.00     0.000 C 
BRANCH  10  11
ATOM     11  C   UNL     1      31.894  33.582   3.046  1.00  0.00    -0.000 C 
BRANCH  11  12
ATOM     12  C   UNL     1      32.555  32.556   2.105  1.00  0.00    -0.000 C 
BRANCH  12  13
ATOM     13  C   UNL     1      32.716  33.066   0.657  1.00  0.00    -0.000 C 
BRANCH  13  14
ATOM     14  C   UNL     1      31.452  32.905  -0.209  1.00  0.00    -0.000 C 
BRANCH  14  15
ATOM     15  C   UNL     1      30.773  34.236  -0.587  1.00  0.00    -0.000 C 
BRANCH  15  16
ATOM     16  C   UNL     1      29.546  34.540   0.284  1.00  0.00    -0.003 C 
ATOM     17  C   UNL     1      29.719  35.855   1.040  1.00  0.00     0.004 C 
ENDBRANCH  15  16
ENDBRANCH  14  15
ENDBRANCH  13  14
ENDBRANCH  12  13
ENDBRANCH  11  12
ENDBRANCH  10  11
ENDBRANCH   1  10
TORSDOF 13
ENDMDL
MODEL 8
REMARK VINA RESULT:    -3.540      2.272      3.876
REMARK INTER + INTRA:          -8.402
REMARK INTER:                  -6.331
REMARK INTRA:                  -2.070
REMARK UNBOUND:                -2.171
REMARK SMILES CCCCCCCCCCCCCCC(=O)[O-]
REMARK SMILES IDX 9 1 10 2 11 3 12 4 13 5 14 6 15 7 16 8 17 9 8 10 7 11 6 12
REMARK SMILES IDX 5 13 4 14 3 15 2 16 1 17
REMARK H PARENT
REMARK Flexibility Score: inf
ROOT
ATOM      1  C   UNL     1      30.466  35.335   1.719  1.00  0.00     0.000 C 
ENDROOT
BRANCH   1   2
ATOM      2  C   UNL     1      30.377  34.236   0.649  1.00  0.00     0.000 C 
BRANCH   2   3
ATOM      3  C   UNL     1      30.691  32.838   1.211  1.00  0.00     0.000 C 
BRANCH   3   4
ATOM      4  C   UNL     1      31.618  32.887   2.437  1.00  0.00     0.000 C 
BRANCH   4   5
ATOM      5  C   UNL     1      33.072  32.521   2.092  1.00  0.00     0.006 C 
BRANCH   5   6
ATOM      6  C   UNL     1      33.953  33.763   1.908  1.00  0.00     0.053 C 
BRANCH   6   7
ATOM      7  C   UNL     1      33.972  34.619   3.136  1.00  0.00     0.041 C 
ATOM      8  O   UNL     1      33.735  35.852   3.054  1.00  0.00    -0.550 OA
ATOM      9  O   UNL     1      34.224  34.048   4.378  1.00  0.00    -0.550 OA
ENDBRANCH   6   7
ENDBRANCH   5   6
ENDBRANCH   4   5
ENDBRANCH   3   4
ENDBRANCH   2   3
ENDBRANCH   1   2
BRANCH   1  10
ATOM     10  C   UNL     1      29.100  35.983   2.013  1.00  0.00     0.000 C 
BRANCH  10  11
ATOM     11  C   UNL     1      28.653  35.786   3.473  1.00  0.00    -0.000 C 
BRANCH  11  12
ATOM     12  C   UNL     1      28.583  34.308   3.906  1.00  0.00    -0.000 C 
BRANCH  12  13
ATOM     13  C   UNL     1      27.207  33.657   3.643  1.00  0.00    -0.000 C 
BRANCH  13  14
ATOM     14  C   UNL     1      27.135  32.850   2.332  1.00  0.00    -0.000 C 
BRANCH  14  15
ATOM     15  C   UNL     1      26.423  33.584   1.179  1.00  0.00    -0.000 C 
BRANCH  15  16
ATOM     16  C   UNL     1      25.264  34.465   1.668  1.00  0.00    -0.003 C 
ATOM     17  C   UNL     1      25.443  35.912   1.215  1.00  0.00     0.004 C 
ENDBRANCH  15  16
ENDBRANCH  14  15
ENDBRANCH  13  14
ENDBRANCH  12  13
ENDBRANCH  11  12
ENDBRANCH  10  11
ENDBRANCH   1  10
TORSDOF 13
ENDMDL
MODEL 9
REMARK VINA RESULT:    -3.464      2.290      2.805
REMARK INTER + INTRA:          -8.267
REMARK INTER:                  -6.358
REMARK INTRA:                  -1.909
REMARK UNBOUND:                -2.171
REMARK SMILES CCCCCCCCCCCCCCC(=O)[O-]
REMARK SMILES IDX 9 1 10 2 11 3 12 4 13 5 14 6 15 7 16 8 17 9 8 10 7 11 6 12
REMARK SMILES IDX 5 13 4 14 3 15 2 16 1 17
REMARK H PARENT
REMARK Flexibility Score: inf
ROOT
ATOM      1  C   UNL     1      28.631  33.949   4.196  1.00  0.00     0.000 C 
ENDROOT
BRANCH   1   2
ATOM      2  C   UNL     1      29.622  32.870   3.735  1.00  0.00     0.000 C 
BRANCH   2   3
ATOM      3  C   UNL     1      31.013  33.444   3.414  1.00  0.00     0.000 C 
BRANCH   3   4
ATOM      4  C   UNL     1      31.682  32.742   2.221  1.00  0.00     0.000 C 
BRANCH   4   5
ATOM      5  C   UNL     1      33.212  32.904   2.223  1.00  0.00     0.006 C 
BRANCH   5   6
ATOM      6  C   UNL     1      33.711  33.668   3.456  1.00  0.00     0.053 C 
BRANCH   6   7
ATOM      7  C   UNL     1      34.462  34.907   3.076  1.00  0.00     0.041 C 
ATOM      8  O   UNL     1      33.851  35.997   2.920  1.00  0.00    -0.550 OA
ATOM      9  O   UNL     1      35.842  34.864   2.921  1.00  0.00    -0.550 OA
ENDBRANCH   6   7
ENDBRANCH   5   6
ENDBRANCH   4   5
ENDBRANCH   3   4
ENDBRANCH   2   3
ENDBRANCH   1   2
BRANCH   1  10
ATOM     10  C   UNL     1      27.185  33.645   3.762  1.00  0.00     0.000 C 
BRANCH  10  11
ATOM     11  C   UNL     1      27.115  32.918   2.406  1.00  0.00    -0.000 C 
BRANCH  11  12
ATOM     12  C   UNL     1      26.280  33.663   1.345  1.00  0.00    -0.000 C 
BRANCH  12  13
ATOM     13  C   UNL     1      26.117  35.169   1.640  1.00  0.00    -0.000 C 
BRANCH  13  14
ATOM     14  C   UNL     1      27.125  36.068   0.897  1.00  0.00    -0.000 C 
BRANCH  14  15
ATOM     15  C   UNL     1      28.297  36.555   1.770  1.00  0.00    -0.000 C 
BRANCH  15  16
ATOM     16  C   UNL     1      29.666  36.172   1.187  1.00  0.00    -0.003 C 
ATOM     17  C   UNL     1      29.544  34.995   0.223  1.00  0.00     0.004 C 
ENDBRANCH  15  16
ENDBRANCH  14  15
ENDBRANCH  13  14
ENDBRANCH  12  13
ENDBRANCH  11  12
ENDBRANCH  10  11
ENDBRANCH   1  10
TORSDOF 13
ENDMDL
