MODEL 1
REMARK VINA RESULT:    -4.581      0.000      0.000
REMARK INTER + INTRA:         -11.288
REMARK INTER:                  -8.865
REMARK INTRA:                  -2.423
REMARK UNBOUND:                -2.423
REMARK SMILES CCCCCCCCCCCCCCCCCC(=O)[O-]
REMARK SMILES IDX 10 1 11 2 12 3 13 4 14 5 15 6 16 7 17 8 18 9 19 10 20 11
REMARK SMILES IDX 9 12 8 13 7 14 6 15 5 16 4 17 3 18 2 19 1 20
REMARK H PARENT
REMARK Flexibility Score: inf
ROOT
ATOM      1  C   UNL     1     -19.160 -33.627  17.337  1.00  0.00     0.000 C 
ENDROOT
BRANCH   1   2
ATOM      2  C   UNL     1     -17.736 -33.658  17.913  1.00  0.00     0.000 C 
BRANCH   2   3
ATOM      3  C   UNL     1     -17.765 -33.730  19.445  1.00  0.00     0.000 C 
BRANCH   3   4
ATOM      4  C   UNL     1     -19.134 -33.294  19.990  1.00  0.00     0.000 C 
BRANCH   4   5
ATOM      5  C   UNL     1     -19.136 -31.840  20.488  1.00  0.00     0.000 C 
BRANCH   5   6
ATOM      6  C   UNL     1     -20.370 -31.053  20.012  1.00  0.00     0.000 C 
BRANCH   6   7
ATOM      7  C   UNL     1     -20.050 -30.055  18.885  1.00  0.00     0.006 C 
BRANCH   7   8
ATOM      8  C   UNL     1     -18.548 -29.920  18.578  1.00  0.00     0.053 C 
BRANCH   8   9
ATOM      9  C   UNL     1     -17.929 -28.721  19.230  1.00  0.00     0.041 C 
ATOM     10  O   UNL     1     -16.974 -28.859  20.039  1.00  0.00    -0.550 OA
ATOM     11  O   UNL     1     -18.428 -27.451  18.968  1.00  0.00    -0.550 OA
ENDBRANCH   8   9
ENDBRANCH   7   8
ENDBRANCH   6   7
ENDBRANCH   5   6
ENDBRANCH   4   5
ENDBRANCH   3   4
ENDBRANCH   2   3
ENDBRANCH   1   2
BRANCH   1  12
ATOM     12  C   UNL     1     -19.248 -32.842  16.018  1.00  0.00     0.000 C 
BRANCH  12  13
ATOM     13  C   UNL     1     -19.524 -33.747  14.808  1.00  0.00    -0.000 C 
BRANCH  13  14
ATOM     14  C   UNL     1     -18.564 -33.427  13.653  1.00  0.00    -0.000 C 
BRANCH  14  15
ATOM     15  C   UNL     1     -17.117 -33.189  14.124  1.00  0.00    -0.000 C 
BRANCH  15  16
ATOM     16  C   UNL     1     -16.410 -31.986  13.472  1.00  0.00    -0.000 C 
BRANCH  16  17
ATOM     17  C   UNL     1     -15.932 -30.898  14.453  1.00  0.00    -0.000 C 
BRANCH  17  18
ATOM     18  C   UNL     1     -15.614 -31.430  15.866  1.00  0.00    -0.000 C 
BRANCH  18  19
ATOM     19  C   UNL     1     -15.404 -30.303  16.887  1.00  0.00    -0.003 C 
ATOM     20  C   UNL     1     -14.478 -30.747  18.016  1.00  0.00     0.004 C 
ENDBRANCH  18  19
ENDBRANCH  17  18
ENDBRANCH  16  17
ENDBRANCH  15  16
ENDBRANCH  14  15
ENDBRANCH  13  14
ENDBRANCH  12  13
ENDBRANCH   1  12
TORSDOF 16
ENDMDL
MODEL 2
REMARK VINA RESULT:    -4.477      1.736      3.991
REMARK INTER + INTRA:         -11.088
REMARK INTER:                  -8.165
REMARK INTRA:                  -2.923
REMARK UNBOUND:                -2.423
REMARK SMILES CCCCCCCCCCCCCCCCCC(=O)[O-]
REMARK SMILES IDX 10 1 11 2 12 3 13 4 14 5 15 6 16 7 17 8 18 9 19 10 20 11
REMARK SMILES IDX 9 12 8 13 7 14 6 15 5 16 4 17 3 18 2 19 1 20
REMARK H PARENT
REMARK Flexibility Score: inf
ROOT
ATOM      1  C   UNL     1     -16.337 -32.266  21.741  1.00  0.00     0.000 C 
ENDROOT
BRANCH   1   2
ATOM      2  C   UNL     1     -17.820 -32.669  21.731  1.00  0.00     0.000 C 
BRANCH   2   3
ATOM      3  C   UNL     1     -18.065 -33.829  20.758  1.00  0.00     0.000 C 
BRANCH   3   4
ATOM      4  C   UNL     1     -19.178 -33.481  19.757  1.00  0.00     0.000 C 
BRANCH   4   5
ATOM      5  C   UNL     1     -19.587 -32.001  19.820  1.00  0.00     0.000 C 
BRANCH   5   6
ATOM      6  C   UNL     1     -19.139 -31.210  18.577  1.00  0.00     0.000 C 
BRANCH   6   7
ATOM      7  C   UNL     1     -18.986 -29.703  18.846  1.00  0.00     0.006 C 
BRANCH   7   8
ATOM      8  C   UNL     1     -17.643 -29.316  19.490  1.00  0.00     0.053 C 
BRANCH   8   9
ATOM      9  C   UNL     1     -17.365 -27.845  19.410  1.00  0.00     0.041 C 
ATOM     10  O   UNL     1     -16.189 -27.413  19.544  1.00  0.00    -0.550 OA
ATOM     11  O   UNL     1     -18.408 -26.949  19.219  1.00  0.00    -0.550 OA
ENDBRANCH   8   9
ENDBRANCH   7   8
ENDBRANCH   6   7
ENDBRANCH   5   6
ENDBRANCH   4   5
ENDBRANCH   3   4
ENDBRANCH   2   3
ENDBRANCH   1   2
BRANCH   1  12
ATOM     12  C   UNL     1     -15.412 -33.401  21.273  1.00  0.00     0.000 C 
BRANCH  12  13
ATOM     13  C   UNL     1     -14.615 -33.032  20.013  1.00  0.00    -0.000 C 
BRANCH  13  14
ATOM     14  C   UNL     1     -15.257 -31.842  19.286  1.00  0.00    -0.000 C 
BRANCH  14  15
ATOM     15  C   UNL     1     -15.819 -32.216  17.902  1.00  0.00    -0.000 C 
BRANCH  15  16
ATOM     16  C   UNL     1     -16.005 -33.726  17.661  1.00  0.00    -0.000 C 
BRANCH  16  17
ATOM     17  C   UNL     1     -16.744 -34.095  16.361  1.00  0.00    -0.000 C 
BRANCH  17  18
ATOM     18  C   UNL     1     -17.431 -32.896  15.674  1.00  0.00    -0.000 C 
BRANCH  18  19
ATOM     19  C   UNL     1     -18.883 -33.198  15.275  1.00  0.00    -0.003 C 
ATOM     20  C   UNL     1     -19.579 -34.049  16.333  1.00  0.00     0.004 C 
ENDBRANCH  18  19
ENDBRANCH  17  18
ENDBRANCH  16  17
ENDBRANCH  15  16
ENDBRANCH  14  15
ENDBRANCH  13  14
ENDBRANCH  12  13
ENDBRANCH   1  12
TORSDOF 16
ENDMDL
MODEL 3
REMARK VINA RESULT:    -4.377      1.641      5.142
REMARK INTER + INTRA:         -10.893
REMARK INTER:                  -8.425
REMARK INTRA:                  -2.468
REMARK UNBOUND:                -2.423
REMARK SMILES CCCCCCCCCCCCCCCCCC(=O)[O-]
REMARK SMILES IDX 10 1 11 2 12 3 13 4 14 5 15 6 16 7 17 8 18 9 19 10 20 11
REMARK SMILES IDX 9 12 8 13 7 14 6 15 5 16 4 17 3 18 2 19 1 20
REMARK H PARENT
REMARK Flexibility Score: inf
ROOT
ATOM      1  C   UNL     1     -19.529 -32.918  15.975  1.00  0.00     0.000 C 
ENDROOT
BRANCH   1   2
ATOM      2  C   UNL     1     -19.415 -33.707  14.661  1.00  0.00     0.000 C 
BRANCH   2   3
ATOM      3  C   UNL     1     -17.950 -33.841  14.228  1.00  0.00     0.000 C 
BRANCH   3   4
ATOM      4  C   UNL     1     -17.654 -32.956  13.008  1.00  0.00     0.000 C 
BRANCH   4   5
ATOM      5  C   UNL     1     -16.711 -31.789  13.340  1.00  0.00     0.000 C 
BRANCH   5   6
ATOM      6  C   UNL     1     -16.012 -31.962  14.700  1.00  0.00     0.000 C 
BRANCH   6   7
ATOM      7  C   UNL     1     -16.077 -30.698  15.575  1.00  0.00     0.006 C 
BRANCH   7   8
ATOM      8  C   UNL     1     -15.590 -30.912  17.019  1.00  0.00     0.053 C 
BRANCH   8   9
ATOM      9  C   UNL     1     -14.356 -30.122  17.337  1.00  0.00     0.041 C 
ATOM     10  O   UNL     1     -13.290 -30.324  16.698  1.00  0.00    -0.550 OA
ATOM     11  O   UNL     1     -14.376 -29.184  18.361  1.00  0.00    -0.550 OA
ENDBRANCH   8   9
ENDBRANCH   7   8
ENDBRANCH   6   7
ENDBRANCH   5   6
ENDBRANCH   4   5
ENDBRANCH   3   4
ENDBRANCH   2   3
ENDBRANCH   1   2
BRANCH   1  12
ATOM     12  C   UNL     1     -18.580 -33.442  17.065  1.00  0.00     0.000 C 
BRANCH  12  13
ATOM     13  C   UNL     1     -19.257 -33.549  18.438  1.00  0.00    -0.000 C 
BRANCH  13  14
ATOM     14  C   UNL     1     -18.723 -32.476  19.398  1.00  0.00    -0.000 C 
BRANCH  14  15
ATOM     15  C   UNL     1     -19.832 -31.566  19.959  1.00  0.00    -0.000 C 
BRANCH  15  16
ATOM     16  C   UNL     1     -20.030 -30.239  19.201  1.00  0.00    -0.000 C 
BRANCH  16  17
ATOM     17  C   UNL     1     -18.796 -29.737  18.429  1.00  0.00    -0.000 C 
BRANCH  17  18
ATOM     18  C   UNL     1     -17.816 -28.912  19.289  1.00  0.00    -0.000 C 
BRANCH  18  19
ATOM     19  C   UNL     1     -17.539 -27.521  18.699  1.00  0.00    -0.003 C 
ATOM     20  C   UNL     1     -17.414 -27.584  17.179  1.00  0.00     0.004 C 
ENDBRANCH  18  19
ENDBRANCH  17  18
ENDBRANCH  16  17
ENDBRANCH  15  16
ENDBRANCH  14  15
ENDBRANCH  13  14
ENDBRANCH  12  13
ENDBRANCH   1  12
TORSDOF 16
ENDMDL
MODEL 4
REMARK VINA RESULT:    -4.155      2.489      3.613
REMARK INTER + INTRA:         -10.464
REMARK INTER:                  -7.942
REMARK INTRA:                  -2.522
REMARK UNBOUND:                -2.423
REMARK SMILES CCCCCCCCCCCCCCCCCC(=O)[O-]
REMARK SMILES IDX 10 1 11 2 12 3 13 4 14 5 15 6 16 7 17 8 18 9 19 10 20 11
REMARK SMILES IDX 9 12 8 13 7 14 6 15 5 16 4 17 3 18 2 19 1 20
REMARK H PARENT
REMARK Flexibility Score: inf
ROOT
ATOM      1  C   UNL     1     -17.209 -33.980  20.452  1.00  0.00     0.000 C 
ENDROOT
BRANCH   1   2
ATOM      2  C   UNL     1     -18.462 -33.297  21.024  1.00  0.00     0.000 C 
BRANCH   2   3
ATOM      3  C   UNL     1     -19.448 -32.938  19.906  1.00  0.00     0.000 C 
BRANCH   3   4
ATOM      4  C   UNL     1     -19.948 -31.493  20.057  1.00  0.00     0.000 C 
BRANCH   4   5
ATOM      5  C   UNL     1     -19.606 -30.619  18.840  1.00  0.00     0.000 C 
BRANCH   5   6
ATOM      6  C   UNL     1     -18.092 -30.388  18.684  1.00  0.00     0.000 C 
BRANCH   6   7
ATOM      7  C   UNL     1     -17.436 -29.820  19.954  1.00  0.00     0.006 C 
BRANCH   7   8
ATOM      8  C   UNL     1     -16.571 -28.571  19.706  1.00  0.00     0.053 C 
BRANCH   8   9
ATOM      9  C   UNL     1     -17.255 -27.556  18.840  1.00  0.00     0.041 C 
ATOM     10  O   UNL     1     -18.259 -26.929  19.268  1.00  0.00    -0.550 OA
ATOM     11  O   UNL     1     -16.801 -27.325  17.548  1.00  0.00    -0.550 OA
ENDBRANCH   8   9
ENDBRANCH   7   8
ENDBRANCH   6   7
ENDBRANCH   5   6
ENDBRANCH   4   5
ENDBRANCH   3   4
ENDBRANCH   2   3
ENDBRANCH   1   2
BRANCH   1  12
ATOM     12  C   UNL     1     -15.912 -33.240  20.819  1.00  0.00     0.000 C 
BRANCH  12  13
ATOM     13  C   UNL     1     -15.105 -32.813  19.585  1.00  0.00    -0.000 C 
BRANCH  13  14
ATOM     14  C   UNL     1     -15.797 -33.271  18.292  1.00  0.00    -0.000 C 
BRANCH  14  15
ATOM     15  C   UNL     1     -15.316 -32.500  17.048  1.00  0.00    -0.000 C 
BRANCH  15  16
ATOM     16  C   UNL     1     -14.892 -31.042  17.310  1.00  0.00    -0.000 C 
BRANCH  16  17
ATOM     17  C   UNL     1     -13.441 -30.703  16.919  1.00  0.00    -0.000 C 
BRANCH  17  18
ATOM     18  C   UNL     1     -12.577 -30.207  18.098  1.00  0.00    -0.000 C 
BRANCH  18  19
ATOM     19  C   UNL     1     -12.094 -28.762  17.908  1.00  0.00    -0.003 C 
ATOM     20  C   UNL     1     -13.167 -27.762  18.329  1.00  0.00     0.004 C 
ENDBRANCH  18  19
ENDBRANCH  17  18
ENDBRANCH  16  17
ENDBRANCH  15  16
ENDBRANCH  14  15
ENDBRANCH  13  14
ENDBRANCH  12  13
ENDBRANCH   1  12
TORSDOF 16
ENDMDL
MODEL 5
REMARK VINA RESULT:    -4.150      1.602      3.413
REMARK INTER + INTRA:         -10.454
REMARK INTER:                  -7.860
REMARK INTRA:                  -2.594
REMARK UNBOUND:                -2.423
REMARK SMILES CCCCCCCCCCCCCCCCCC(=O)[O-]
REMARK SMILES IDX 10 1 11 2 12 3 13 4 14 5 15 6 16 7 17 8 18 9 19 10 20 11
REMARK SMILES IDX 9 12 8 13 7 14 6 15 5 16 4 17 3 18 2 19 1 20
REMARK H PARENT
REMARK Flexibility Score: inf
ROOT
ATOM      1  C   UNL     1     -16.166 -33.745  21.024  1.00  0.00     0.000 C 
ENDROOT
BRANCH   1   2
ATOM      2  C   UNL     1     -16.582 -32.366  21.562  1.00  0.00     0.000 C 
BRANCH   2   3
ATOM      3  C   UNL     1     -18.106 -32.267  21.695  1.00  0.00     0.000 C 
BRANCH   3   4
ATOM      4  C   UNL     1     -18.805 -33.309  20.808  1.00  0.00     0.000 C 
BRANCH   4   5
ATOM      5  C   UNL     1     -19.552 -32.672  19.626  1.00  0.00     0.000 C 
BRANCH   5   6
ATOM      6  C   UNL     1     -19.863 -31.182  19.856  1.00  0.00     0.000 C 
BRANCH   6   7
ATOM      7  C   UNL     1     -19.244 -30.266  18.784  1.00  0.00     0.006 C 
BRANCH   7   8
ATOM      8  C   UNL     1     -18.039 -29.448  19.281  1.00  0.00     0.053 C 
BRANCH   8   9
ATOM      9  C   UNL     1     -17.947 -28.100  18.632  1.00  0.00     0.041 C 
ATOM     10  O   UNL     1     -17.694 -28.003  17.403  1.00  0.00    -0.550 OA
ATOM     11  O   UNL     1     -18.111 -26.950  19.393  1.00  0.00    -0.550 OA
ENDBRANCH   8   9
ENDBRANCH   7   8
ENDBRANCH   6   7
ENDBRANCH   5   6
ENDBRANCH   4   5
ENDBRANCH   3   4
ENDBRANCH   2   3
ENDBRANCH   1   2
BRANCH   1  12
ATOM     12  C   UNL     1     -15.207 -33.648  19.826  1.00  0.00     0.000 C 
BRANCH  12  13
ATOM     13  C   UNL     1     -15.909 -33.906  18.485  1.00  0.00    -0.000 C 
BRANCH  13  14
ATOM     14  C   UNL     1     -16.342 -32.585  17.830  1.00  0.00    -0.000 C 
BRANCH  14  15
ATOM     15  C   UNL     1     -15.304 -31.461  18.003  1.00  0.00    -0.000 C 
BRANCH  15  16
ATOM     16  C   UNL     1     -15.191 -30.490  16.812  1.00  0.00    -0.000 C 
BRANCH  16  17
ATOM     17  C   UNL     1     -16.252 -30.681  15.711  1.00  0.00    -0.000 C 
BRANCH  17  18
ATOM     18  C   UNL     1     -15.696 -31.302  14.412  1.00  0.00    -0.000 C 
BRANCH  18  19
ATOM     19  C   UNL     1     -16.387 -32.624  14.048  1.00  0.00    -0.003 C 
ATOM     20  C   UNL     1     -17.390 -32.427  12.915  1.00  0.00     0.004 C 
ENDBRANCH  18  19
ENDBRANCH  17  18
ENDBRANCH  16  17
ENDBRANCH  15  16
ENDBRANCH  14  15
ENDBRANCH  13  14
ENDBRANCH  12  13
ENDBRANCH   1  12
TORSDOF 16
ENDMDL
MODEL 6
REMARK VINA RESULT:    -4.140      2.116      5.062
REMARK INTER + INTRA:         -10.436
REMARK INTER:                  -7.866
REMARK INTRA:                  -2.570
REMARK UNBOUND:                -2.423
REMARK SMILES CCCCCCCCCCCCCCCCCC(=O)[O-]
REMARK SMILES IDX 10 1 11 2 12 3 13 4 14 5 15 6 16 7 17 8 18 9 19 10 20 11
REMARK SMILES IDX 9 12 8 13 7 14 6 15 5 16 4 17 3 18 2 19 1 20
REMARK H PARENT
REMARK Flexibility Score: inf
ROOT
ATOM      1  C   UNL     1     -18.844 -33.726  17.585  1.00  0.00     0.000 C 
ENDROOT
BRANCH   1   2
ATOM      2  C   UNL     1     -19.382 -32.880  16.421  1.00  0.00     0.000 C 
BRANCH   2   3
ATOM      3  C   UNL     1     -18.481 -33.011  15.186  1.00  0.00     0.000 C 
BRANCH   3   4
ATOM      4  C   UNL     1     -16.998 -32.901  15.574  1.00  0.00     0.000 C 
BRANCH   4   5
ATOM      5  C   UNL     1     -16.365 -31.577  15.118  1.00  0.00     0.000 C 
BRANCH   5   6
ATOM      6  C   UNL     1     -15.939 -30.686  16.299  1.00  0.00     0.000 C 
BRANCH   6   7
ATOM      7  C   UNL     1     -16.192 -31.342  17.668  1.00  0.00     0.006 C 
BRANCH   7   8
ATOM      8  C   UNL     1     -15.168 -30.949  18.748  1.00  0.00     0.053 C 
BRANCH   8   9
ATOM      9  C   UNL     1     -14.122 -32.001  18.964  1.00  0.00     0.041 C 
ATOM     10  O   UNL     1     -14.316 -32.927  19.795  1.00  0.00    -0.550 OA
ATOM     11  O   UNL     1     -12.920 -31.940  18.271  1.00  0.00    -0.550 OA
ENDBRANCH   8   9
ENDBRANCH   7   8
ENDBRANCH   6   7
ENDBRANCH   5   6
ENDBRANCH   4   5
ENDBRANCH   3   4
ENDBRANCH   2   3
ENDBRANCH   1   2
BRANCH   1  12
ATOM     12  C   UNL     1     -19.595 -33.466  18.901  1.00  0.00     0.000 C 
BRANCH  12  13
ATOM     13  C   UNL     1     -18.652 -33.113  20.061  1.00  0.00    -0.000 C 
BRANCH  13  14
ATOM     14  C   UNL     1     -18.899 -31.678  20.551  1.00  0.00    -0.000 C 
BRANCH  14  15
ATOM     15  C   UNL     1     -20.108 -31.011  19.869  1.00  0.00    -0.000 C 
BRANCH  15  16
ATOM     16  C   UNL     1     -19.755 -29.925  18.835  1.00  0.00    -0.000 C 
BRANCH  16  17
ATOM     17  C   UNL     1     -18.447 -29.159  19.112  1.00  0.00    -0.000 C 
BRANCH  17  18
ATOM     18  C   UNL     1     -18.125 -28.076  18.061  1.00  0.00    -0.000 C 
BRANCH  18  19
ATOM     19  C   UNL     1     -16.748 -27.433  18.279  1.00  0.00    -0.003 C 
ATOM     20  C   UNL     1     -16.397 -27.373  19.763  1.00  0.00     0.004 C 
ENDBRANCH  18  19
ENDBRANCH  17  18
ENDBRANCH  16  17
ENDBRANCH  15  16
ENDBRANCH  14  15
ENDBRANCH  13  14
ENDBRANCH  12  13
ENDBRANCH   1  12
TORSDOF 16
ENDMDL
MODEL 7
REMARK VINA RESULT:    -4.129      1.568      3.268
REMARK INTER + INTRA:         -10.414
REMARK INTER:                  -7.653
REMARK INTRA:                  -2.762
REMARK UNBOUND:                -2.423
REMARK SMILES CCCCCCCCCCCCCCCCCC(=O)[O-]
REMARK SMILES IDX 10 1 11 2 12 3 13 4 14 5 15 6 16 7 17 8 18 9 19 10 20 11
REMARK SMILES IDX 9 12 8 13 7 14 6 15 5 16 4 17 3 18 2 19 1 20
REMARK H PARENT
REMARK Flexibility Score: inf
ROOT
ATOM      1  C   UNL     1     -15.353 -32.389  19.535  1.00  0.00     0.000 C 
ENDROOT
BRANCH   1   2
ATOM      2  C   UNL     1     -15.872 -33.168  20.753  1.00  0.00     0.000 C 
BRANCH   2   3
ATOM      3  C   UNL     1     -16.620 -32.241  21.719  1.00  0.00     0.000 C 
BRANCH   3   4
ATOM      4  C   UNL     1     -18.084 -32.678  21.877  1.00  0.00     0.000 C 
BRANCH   4   5
ATOM      5  C   UNL     1     -18.881 -32.561  20.568  1.00  0.00     0.000 C 
BRANCH   5   6
ATOM      6  C   UNL     1     -19.476 -31.157  20.361  1.00  0.00     0.000 C 
BRANCH   6   7
ATOM      7  C   UNL     1     -18.900 -30.433  19.131  1.00  0.00     0.006 C 
BRANCH   7   8
ATOM      8  C   UNL     1     -17.703 -29.519  19.448  1.00  0.00     0.053 C 
BRANCH   8   9
ATOM      9  C   UNL     1     -17.055 -28.967  18.214  1.00  0.00     0.041 C 
ATOM     10  O   UNL     1     -15.868 -29.277  17.927  1.00  0.00    -0.550 OA
ATOM     11  O   UNL     1     -17.750 -28.084  17.399  1.00  0.00    -0.550 OA
ENDBRANCH   8   9
ENDBRANCH   7   8
ENDBRANCH   6   7
ENDBRANCH   5   6
ENDBRANCH   4   5
ENDBRANCH   3   4
ENDBRANCH   2   3
ENDBRANCH   1   2
BRANCH   1  12
ATOM     12  C   UNL     1     -15.532 -33.162  18.218  1.00  0.00     0.000 C 
BRANCH  12  13
ATOM     13  C   UNL     1     -16.778 -32.719  17.437  1.00  0.00    -0.000 C 
BRANCH  13  14
ATOM     14  C   UNL     1     -17.767 -33.883  17.277  1.00  0.00    -0.000 C 
BRANCH  14  15
ATOM     15  C   UNL     1     -19.199 -33.415  16.955  1.00  0.00    -0.000 C 
BRANCH  15  16
ATOM     16  C   UNL     1     -19.638 -33.622  15.493  1.00  0.00    -0.000 C 
BRANCH  16  17
ATOM     17  C   UNL     1     -18.522 -34.077  14.534  1.00  0.00    -0.000 C 
BRANCH  17  18
ATOM     18  C   UNL     1     -18.141 -33.020  13.475  1.00  0.00    -0.000 C 
BRANCH  18  19
ATOM     19  C   UNL     1     -16.732 -32.450  13.692  1.00  0.00    -0.003 C 
ATOM     20  C   UNL     1     -15.730 -33.559  13.999  1.00  0.00     0.004 C 
ENDBRANCH  18  19
ENDBRANCH  17  18
ENDBRANCH  16  17
ENDBRANCH  15  16
ENDBRANCH  14  15
ENDBRANCH  13  14
ENDBRANCH  12  13
ENDBRANCH   1  12
TORSDOF 16
ENDMDL
MODEL 8
REMARK VINA RESULT:    -4.108      1.229      4.427
REMARK INTER + INTRA:         -10.373
REMARK INTER:                  -7.899
REMARK INTRA:                  -2.475
REMARK UNBOUND:                -2.423
REMARK SMILES CCCCCCCCCCCCCCCCCC(=O)[O-]
REMARK SMILES IDX 10 1 11 2 12 3 13 4 14 5 15 6 16 7 17 8 18 9 19 10 20 11
REMARK SMILES IDX 9 12 8 13 7 14 6 15 5 16 4 17 3 18 2 19 1 20
REMARK H PARENT
REMARK Flexibility Score: inf
ROOT
ATOM      1  C   UNL     1     -16.315 -32.719  14.867  1.00  0.00     0.000 C 
ENDROOT
BRANCH   1   2
ATOM      2  C   UNL     1     -15.578 -31.426  14.486  1.00  0.00     0.000 C 
BRANCH   2   3
ATOM      3  C   UNL     1     -15.856 -30.315  15.506  1.00  0.00     0.000 C 
BRANCH   3   4
ATOM      4  C   UNL     1     -16.590 -30.870  16.736  1.00  0.00     0.000 C 
BRANCH   4   5
ATOM      5  C   UNL     1     -15.761 -30.748  18.024  1.00  0.00     0.000 C 
BRANCH   5   6
ATOM      6  C   UNL     1     -14.627 -29.714  17.902  1.00  0.00     0.000 C 
BRANCH   6   7
ATOM      7  C   UNL     1     -15.012 -28.330  18.453  1.00  0.00     0.006 C 
BRANCH   7   8
ATOM      8  C   UNL     1     -16.325 -28.320  19.256  1.00  0.00     0.053 C 
BRANCH   8   9
ATOM      9  C   UNL     1     -17.406 -27.525  18.589  1.00  0.00     0.041 C 
ATOM     10  O   UNL     1     -18.304 -26.972  19.277  1.00  0.00    -0.550 OA
ATOM     11  O   UNL     1     -17.439 -27.420  17.205  1.00  0.00    -0.550 OA
ENDBRANCH   8   9
ENDBRANCH   7   8
ENDBRANCH   6   7
ENDBRANCH   5   6
ENDBRANCH   4   5
ENDBRANCH   3   4
ENDBRANCH   2   3
ENDBRANCH   1   2
BRANCH   1  12
ATOM     12  C   UNL     1     -17.578 -32.951  14.021  1.00  0.00     0.000 C 
BRANCH  12  13
ATOM     13  C   UNL     1     -18.812 -33.272  14.876  1.00  0.00    -0.000 C 
BRANCH  13  14
ATOM     14  C   UNL     1     -18.425 -34.104  16.108  1.00  0.00    -0.000 C 
BRANCH  14  15
ATOM     15  C   UNL     1     -19.177 -33.676  17.382  1.00  0.00    -0.000 C 
BRANCH  15  16
ATOM     16  C   UNL     1     -18.289 -33.478  18.626  1.00  0.00    -0.000 C 
BRANCH  16  17
ATOM     17  C   UNL     1     -19.051 -33.355  19.959  1.00  0.00    -0.000 C 
BRANCH  17  18
ATOM     18  C   UNL     1     -19.899 -32.072  20.076  1.00  0.00    -0.000 C 
BRANCH  18  19
ATOM     19  C   UNL     1     -19.133 -30.816  19.634  1.00  0.00    -0.003 C 
ATOM     20  C   UNL     1     -19.848 -30.111  18.485  1.00  0.00     0.004 C 
ENDBRANCH  18  19
ENDBRANCH  17  18
ENDBRANCH  16  17
ENDBRANCH  15  16
ENDBRANCH  14  15
ENDBRANCH  13  14
ENDBRANCH  12  13
ENDBRANCH   1  12
TORSDOF 16
ENDMDL
MODEL 9
REMARK VINA RESULT:    -4.064      3.744      6.332
REMARK INTER + INTRA:         -10.288
REMARK INTER:                  -7.341
REMARK INTRA:                  -2.946
REMARK UNBOUND:                -2.423
REMARK SMILES CCCCCCCCCCCCCCCCCC(=O)[O-]
REMARK SMILES IDX 10 1 11 2 12 3 13 4 14 5 15 6 16 7 17 8 18 9 19 10 20 11
REMARK SMILES IDX 9 12 8 13 7 14 6 15 5 16 4 17 3 18 2 19 1 20
REMARK H PARENT
REMARK Flexibility Score: inf
ROOT
ATOM      1  C   UNL     1     -16.285 -32.647  21.900  1.00  0.00     0.000 C 
ENDROOT
BRANCH   1   2
ATOM      2  C   UNL     1     -15.576 -33.615  20.940  1.00  0.00     0.000 C 
BRANCH   2   3
ATOM      3  C   UNL     1     -14.323 -32.968  20.338  1.00  0.00     0.000 C 
BRANCH   3   4
ATOM      4  C   UNL     1     -14.018 -33.548  18.948  1.00  0.00     0.000 C 
BRANCH   4   5
ATOM      5  C   UNL     1     -13.471 -32.493  17.974  1.00  0.00     0.000 C 
BRANCH   5   6
ATOM      6  C   UNL     1     -13.097 -31.176  18.678  1.00  0.00     0.000 C 
BRANCH   6   7
ATOM      7  C   UNL     1     -11.596 -31.072  19.003  1.00  0.00     0.006 C 
BRANCH   7   8
ATOM      8  C   UNL     1     -10.709 -32.013  18.168  1.00  0.00     0.053 C 
BRANCH   8   9
ATOM      9  C   UNL     1      -9.946 -32.989  19.011  1.00  0.00     0.041 C 
ATOM     10  O   UNL     1      -8.708 -33.144  18.841  1.00  0.00    -0.550 OA
ATOM     11  O   UNL     1     -10.609 -33.751  19.965  1.00  0.00    -0.550 OA
ENDBRANCH   8   9
ENDBRANCH   7   8
ENDBRANCH   6   7
ENDBRANCH   5   6
ENDBRANCH   4   5
ENDBRANCH   3   4
ENDBRANCH   2   3
ENDBRANCH   1   2
BRANCH   1  12
ATOM     12  C   UNL     1     -17.817 -32.723  21.792  1.00  0.00     0.000 C 
BRANCH  12  13
ATOM     13  C   UNL     1     -18.287 -33.766  20.766  1.00  0.00    -0.000 C 
BRANCH  13  14
ATOM     14  C   UNL     1     -19.357 -33.176  19.835  1.00  0.00    -0.000 C 
BRANCH  14  15
ATOM     15  C   UNL     1     -19.015 -33.348  18.343  1.00  0.00    -0.000 C 
BRANCH  15  16
ATOM     16  C   UNL     1     -17.596 -32.898  17.945  1.00  0.00    -0.000 C 
BRANCH  16  17
ATOM     17  C   UNL     1     -17.448 -31.395  17.639  1.00  0.00    -0.000 C 
BRANCH  17  18
ATOM     18  C   UNL     1     -16.713 -30.605  18.742  1.00  0.00    -0.000 C 
BRANCH  18  19
ATOM     19  C   UNL     1     -17.677 -29.843  19.664  1.00  0.00    -0.003 C 
ATOM     20  C   UNL     1     -18.976 -29.500  18.940  1.00  0.00     0.004 C 
ENDBRANCH  18  19
ENDBRANCH  17  18
ENDBRANCH  16  17
ENDBRANCH  15  16
ENDBRANCH  14  15
ENDBRANCH  13  14
ENDBRANCH  12  13
ENDBRANCH   1  12
TORSDOF 16
ENDMDL
