MODEL 1
REMARK VINA RESULT:    -2.171      0.000      0.000
REMARK INTER + INTRA:          -2.171
REMARK INTER:                  -2.171
REMARK INTRA:                   0.000
REMARK UNBOUND:                 0.000
REMARK SMILES CC(=O)[O-]
REMARK SMILES IDX 1 1 2 2 3 3 4 4
REMARK H PARENT
REMARK Flexibility Score: inf
ROOT
ATOM      1  C   UNL     1       5.225  28.950  12.859  1.00  0.00     0.063 C 
ATOM      2  C   UNL     1       4.781  27.535  12.708  1.00  0.00     0.038 C 
ATOM      3  O   UNL     1       3.814  27.255  11.953  1.00  0.00    -0.550 OA
ATOM      4  O   UNL     1       5.467  26.517  13.356  1.00  0.00    -0.550 OA
ENDROOT
TORSDOF 0
ENDMDL
MODEL 2
REMARK VINA RESULT:    -2.171      2.159      2.579
REMARK INTER + INTRA:          -2.171
REMARK INTER:                  -2.171
REMARK INTRA:                   0.000
REMARK UNBOUND:                 0.000
REMARK SMILES CC(=O)[O-]
REMARK SMILES IDX 1 1 2 2 3 3 4 4
REMARK H PARENT
REMARK Flexibility Score: inf
ROOT
ATOM      1  C   UNL     1       6.563  26.039  15.111  1.00  0.00     0.063 C 
ATOM      2  C   UNL     1       5.668  26.230  13.935  1.00  0.00     0.038 C 
ATOM      3  O   UNL     1       5.573  27.361  13.390  1.00  0.00    -0.550 OA
ATOM      4  O   UNL     1       4.978  25.149  13.402  1.00  0.00    -0.550 OA
ENDROOT
TORSDOF 0
ENDMDL
MODEL 3
REMARK VINA RESULT:    -2.150      2.187      2.685
REMARK INTER + INTRA:          -2.150
REMARK INTER:                  -2.150
REMARK INTRA:                   0.000
REMARK UNBOUND:                 0.000
REMARK SMILES CC(=O)[O-]
REMARK SMILES IDX 1 1 2 2 3 3 4 4
REMARK H PARENT
REMARK Flexibility Score: inf
ROOT
ATOM      1  C   UNL     1       6.469  25.914  15.129  1.00  0.00     0.063 C 
ATOM      2  C   UNL     1       5.635  26.113  13.910  1.00  0.00     0.038 C 
ATOM      3  O   UNL     1       4.988  25.149  13.423  1.00  0.00    -0.550 OA
ATOM      4  O   UNL     1       5.525  27.374  13.339  1.00  0.00    -0.550 OA
ENDROOT
TORSDOF 0
ENDMDL
MODEL 4
REMARK VINA RESULT:    -2.140      0.141      1.622
REMARK INTER + INTRA:          -2.140
REMARK INTER:                  -2.140
REMARK INTRA:                   0.000
REMARK UNBOUND:                 0.000
REMARK SMILES CC(=O)[O-]
REMARK SMILES IDX 1 1 2 2 3 3 4 4
REMARK H PARENT
REMARK Flexibility Score: inf
ROOT
ATOM      1  C   UNL     1       5.244  28.866  12.949  1.00  0.00     0.063 C 
ATOM      2  C   UNL     1       4.862  27.433  12.795  1.00  0.00     0.038 C 
ATOM      3  O   UNL     1       5.470  26.544  13.445  1.00  0.00    -0.550 OA
ATOM      4  O   UNL     1       3.797  27.081  11.976  1.00  0.00    -0.550 OA
ENDROOT
TORSDOF 0
ENDMDL
MODEL 5
REMARK VINA RESULT:    -2.134      2.195      2.672
REMARK INTER + INTRA:          -2.134
REMARK INTER:                  -2.134
REMARK INTRA:                   0.000
REMARK UNBOUND:                 0.000
REMARK SMILES CC(=O)[O-]
REMARK SMILES IDX 1 1 2 2 3 3 4 4
REMARK H PARENT
REMARK Flexibility Score: inf
ROOT
ATOM      1  C   UNL     1       4.708  25.186  13.529  1.00  0.00     0.063 C 
ATOM      2  C   UNL     1       5.723  26.212  13.901  1.00  0.00     0.038 C 
ATOM      3  O   UNL     1       5.610  27.393  13.479  1.00  0.00    -0.550 OA
ATOM      4  O   UNL     1       6.765  25.883  14.757  1.00  0.00    -0.550 OA
ENDROOT
TORSDOF 0
ENDMDL
MODEL 6
REMARK VINA RESULT:    -2.124      2.948      3.481
REMARK INTER + INTRA:          -2.124
REMARK INTER:                  -2.124
REMARK INTRA:                   0.000
REMARK UNBOUND:                 0.000
REMARK SMILES CC(=O)[O-]
REMARK SMILES IDX 1 1 2 2 3 3 4 4
REMARK H PARENT
REMARK Flexibility Score: inf
ROOT
ATOM      1  C   UNL     1       7.357  26.233  15.704  1.00  0.00     0.063 C 
ATOM      2  C   UNL     1       6.046  25.936  15.059  1.00  0.00     0.038 C 
ATOM      3  O   UNL     1       5.005  25.838  15.760  1.00  0.00    -0.550 OA
ATOM      4  O   UNL     1       5.960  25.820  13.678  1.00  0.00    -0.550 OA
ENDROOT
TORSDOF 0
ENDMDL
MODEL 7
REMARK VINA RESULT:    -2.090      1.442      2.238
REMARK INTER + INTRA:          -2.090
REMARK INTER:                  -2.090
REMARK INTRA:                   0.000
REMARK UNBOUND:                 0.000
REMARK SMILES CC(=O)[O-]
REMARK SMILES IDX 1 1 2 2 3 3 4 4
REMARK H PARENT
REMARK Flexibility Score: inf
ROOT
ATOM      1  C   UNL     1       5.669  25.987  13.829  1.00  0.00     0.063 C 
ATOM      2  C   UNL     1       5.095  27.177  13.140  1.00  0.00     0.038 C 
ATOM      3  O   UNL     1       5.587  28.319  13.335  1.00  0.00    -0.550 OA
ATOM      4  O   UNL     1       4.049  27.023  12.238  1.00  0.00    -0.550 OA
ENDROOT
TORSDOF 0
ENDMDL
MODEL 8
REMARK VINA RESULT:    -2.085      1.499      2.134
REMARK INTER + INTRA:          -2.085
REMARK INTER:                  -2.085
REMARK INTRA:                   0.000
REMARK UNBOUND:                 0.000
REMARK SMILES CC(=O)[O-]
REMARK SMILES IDX 1 1 2 2 3 3 4 4
REMARK H PARENT
REMARK Flexibility Score: inf
ROOT
ATOM      1  C   UNL     1       3.936  27.491  12.052  1.00  0.00     0.063 C 
ATOM      2  C   UNL     1       5.118  27.863  12.880  1.00  0.00     0.038 C 
ATOM      3  O   UNL     1       5.669  27.004  13.617  1.00  0.00    -0.550 OA
ATOM      4  O   UNL     1       5.649  29.144  12.800  1.00  0.00    -0.550 OA
ENDROOT
TORSDOF 0
ENDMDL
MODEL 9
REMARK VINA RESULT:    -1.974      4.039      4.349
REMARK INTER + INTRA:          -1.974
REMARK INTER:                  -1.974
REMARK INTRA:                   0.000
REMARK UNBOUND:                 0.000
REMARK SMILES CC(=O)[O-]
REMARK SMILES IDX 1 1 2 2 3 3 4 4
REMARK H PARENT
REMARK Flexibility Score: inf
ROOT
ATOM      1  C   UNL     1       5.590  25.620  14.963  1.00  0.00     0.063 C 
ATOM      2  C   UNL     1       6.625  26.174  15.882  1.00  0.00     0.038 C 
ATOM      3  O   UNL     1       7.828  26.229  15.517  1.00  0.00    -0.550 OA
ATOM      4  O   UNL     1       6.257  26.681  17.121  1.00  0.00    -0.550 OA
ENDROOT
TORSDOF 0
ENDMDL
