MODEL 1
REMARK VINA RESULT:    -5.176      0.000      0.000
REMARK INTER + INTRA:         -10.987
REMARK INTER:                  -9.412
REMARK INTRA:                  -1.574
REMARK UNBOUND:                -1.574
REMARK SMILES CCCCCCCCCCCCCC[C@H](C)C(=O)[O-]
REMARK SMILES IDX 9 1 10 2 11 3 12 4 13 5 14 6 15 7 16 8 17 9 18 10 19 11 8 12
REMARK SMILES IDX 7 13 6 14 5 15 4 16 3 17 2 18 1 19
REMARK H PARENT
REMARK Flexibility Score: inf
ROOT
ATOM      1  C   UNL     1      30.504 -10.460  12.885  1.00  0.00     0.000 C 
ENDROOT
BRANCH   1   2
ATOM      2  C   UNL     1      31.283  -9.572  11.903  1.00  0.00     0.000 C 
BRANCH   2   3
ATOM      3  C   UNL     1      31.624  -8.188  12.484  1.00  0.00     0.000 C 
BRANCH   3   4
ATOM      4  C   UNL     1      30.564  -7.101  12.228  1.00  0.00     0.000 C 
BRANCH   4   5
ATOM      5  C   UNL     1      31.076  -5.969  11.324  1.00  0.00     0.001 C 
BRANCH   5   6
ATOM      6  C   UNL     1      32.512  -5.516  11.660  1.00  0.00     0.009 C 
BRANCH   6   7
ATOM      7  C   UNL     1      33.562  -5.647  10.526  1.00  0.00     0.032 C 
ATOM      8  C   UNL     1      32.959  -6.175   9.215  1.00  0.00     0.014 C 
BRANCH   7   9
ATOM      9  C   UNL     1      34.777  -6.431  10.954  1.00  0.00     0.044 C 
ATOM     10  O   UNL     1      35.724  -6.612  10.143  1.00  0.00    -0.550 OA
ATOM     11  O   UNL     1      34.863  -6.982  12.229  1.00  0.00    -0.550 OA
ENDBRANCH   7   9
ENDBRANCH   6   7
ENDBRANCH   5   6
ENDBRANCH   4   5
ENDBRANCH   3   4
ENDBRANCH   2   3
ENDBRANCH   1   2
BRANCH   1  12
ATOM     12  C   UNL     1      31.048 -10.310  14.312  1.00  0.00     0.000 C 
BRANCH  12  13
ATOM     13  C   UNL     1      29.934 -10.211  15.368  1.00  0.00    -0.000 C 
BRANCH  13  14
ATOM     14  C   UNL     1      28.621  -9.571  14.873  1.00  0.00    -0.000 C 
BRANCH  14  15
ATOM     15  C   UNL     1      27.355 -10.439  15.036  1.00  0.00    -0.000 C 
BRANCH  15  16
ATOM     16  C   UNL     1      27.030 -11.341  13.828  1.00  0.00    -0.000 C 
BRANCH  16  17
ATOM     17  C   UNL     1      26.877 -12.835  14.192  1.00  0.00    -0.000 C 
BRANCH  17  18
ATOM     18  C   UNL     1      27.773 -13.274  15.362  1.00  0.00    -0.003 C 
ATOM     19  C   UNL     1      28.380 -14.660  15.157  1.00  0.00     0.004 C 
ENDBRANCH  17  18
ENDBRANCH  16  17
ENDBRANCH  15  16
ENDBRANCH  14  15
ENDBRANCH  13  14
ENDBRANCH  12  13
ENDBRANCH   1  12
TORSDOF 14
ENDMDL
MODEL 2
REMARK VINA RESULT:    -5.139      3.705      8.255
REMARK INTER + INTRA:         -10.919
REMARK INTER:                  -9.489
REMARK INTRA:                  -1.430
REMARK UNBOUND:                -1.574
REMARK SMILES CCCCCCCCCCCCCC[C@H](C)C(=O)[O-]
REMARK SMILES IDX 9 1 10 2 11 3 12 4 13 5 14 6 15 7 16 8 17 9 18 10 19 11 8 12
REMARK SMILES IDX 7 13 6 14 5 15 4 16 3 17 2 18 1 19
REMARK H PARENT
REMARK Flexibility Score: inf
ROOT
ATOM      1  C   UNL     1      31.622  -8.957  13.013  1.00  0.00     0.000 C 
ENDROOT
BRANCH   1   2
ATOM      2  C   UNL     1      30.672  -8.777  14.207  1.00  0.00     0.000 C 
BRANCH   2   3
ATOM      3  C   UNL     1      29.550  -9.830  14.246  1.00  0.00     0.000 C 
BRANCH   3   4
ATOM      4  C   UNL     1      28.253  -9.365  14.936  1.00  0.00     0.000 C 
BRANCH   4   5
ATOM      5  C   UNL     1      27.628 -10.451  15.825  1.00  0.00     0.001 C 
BRANCH   5   6
ATOM      6  C   UNL     1      27.504 -11.821  15.128  1.00  0.00     0.009 C 
BRANCH   6   7
ATOM      7  C   UNL     1      28.092 -13.040  15.886  1.00  0.00     0.032 C 
ATOM      8  C   UNL     1      29.386 -12.701  16.643  1.00  0.00     0.014 C 
BRANCH   7   9
ATOM      9  C   UNL     1      28.248 -14.249  14.998  1.00  0.00     0.044 C 
ATOM     10  O   UNL     1      27.773 -14.234  13.831  1.00  0.00    -0.550 OA
ATOM     11  O   UNL     1      28.892 -15.396  15.452  1.00  0.00    -0.550 OA
ENDBRANCH   7   9
ENDBRANCH   6   7
ENDBRANCH   5   6
ENDBRANCH   4   5
ENDBRANCH   3   4
ENDBRANCH   2   3
ENDBRANCH   1   2
BRANCH   1  12
ATOM     12  C   UNL     1      31.058  -8.281  11.755  1.00  0.00     0.000 C 
BRANCH  12  13
ATOM     13  C   UNL     1      30.639  -6.822  12.000  1.00  0.00    -0.000 C 
BRANCH  13  14
ATOM     14  C   UNL     1      31.375  -5.778  11.136  1.00  0.00    -0.000 C 
BRANCH  14  15
ATOM     15  C   UNL     1      32.723  -5.279  11.699  1.00  0.00    -0.000 C 
BRANCH  15  16
ATOM     16  C   UNL     1      33.878  -5.246  10.678  1.00  0.00    -0.000 C 
BRANCH  16  17
ATOM     17  C   UNL     1      34.679  -6.566  10.603  1.00  0.00    -0.000 C 
BRANCH  17  18
ATOM     18  C   UNL     1      34.794  -7.289  11.955  1.00  0.00    -0.003 C 
ATOM     19  C   UNL     1      35.162  -8.764  11.811  1.00  0.00     0.004 C 
ENDBRANCH  17  18
ENDBRANCH  16  17
ENDBRANCH  15  16
ENDBRANCH  14  15
ENDBRANCH  13  14
ENDBRANCH  12  13
ENDBRANCH   1  12
TORSDOF 14
ENDMDL
MODEL 3
REMARK VINA RESULT:    -5.090      3.716      8.410
REMARK INTER + INTRA:         -10.831
REMARK INTER:                  -9.261
REMARK INTRA:                  -1.570
REMARK UNBOUND:                -1.574
REMARK SMILES CCCCCCCCCCCCCC[C@H](C)C(=O)[O-]
REMARK SMILES IDX 9 1 10 2 11 3 12 4 13 5 14 6 15 7 16 8 17 9 18 10 19 11 8 12
REMARK SMILES IDX 7 13 6 14 5 15 4 16 3 17 2 18 1 19
REMARK H PARENT
REMARK Flexibility Score: inf
ROOT
ATOM      1  C   UNL     1      31.549  -7.966  12.478  1.00  0.00     0.000 C 
ENDROOT
BRANCH   1   2
ATOM      2  C   UNL     1      31.235  -9.401  12.026  1.00  0.00     0.000 C 
BRANCH   2   3
ATOM      3  C   UNL     1      30.900 -10.341  13.198  1.00  0.00     0.000 C 
BRANCH   3   4
ATOM      4  C   UNL     1      29.457 -10.878  13.201  1.00  0.00     0.000 C 
BRANCH   4   5
ATOM      5  C   UNL     1      28.782 -10.769  14.577  1.00  0.00     0.001 C 
BRANCH   5   6
ATOM      6  C   UNL     1      27.642 -11.788  14.786  1.00  0.00     0.009 C 
BRANCH   6   7
ATOM      7  C   UNL     1      27.969 -13.022  15.667  1.00  0.00     0.032 C 
ATOM      8  C   UNL     1      29.132 -12.768  16.638  1.00  0.00     0.014 C 
BRANCH   7   9
ATOM      9  C   UNL     1      28.168 -14.275  14.850  1.00  0.00     0.044 C 
ATOM     10  O   UNL     1      28.860 -15.220  15.313  1.00  0.00    -0.550 OA
ATOM     11  O   UNL     1      27.617 -14.398  13.578  1.00  0.00    -0.550 OA
ENDBRANCH   7   9
ENDBRANCH   6   7
ENDBRANCH   5   6
ENDBRANCH   4   5
ENDBRANCH   3   4
ENDBRANCH   2   3
ENDBRANCH   1   2
BRANCH   1  12
ATOM     12  C   UNL     1      30.622  -6.957  11.785  1.00  0.00     0.000 C 
BRANCH  12  13
ATOM     13  C   UNL     1      31.346  -5.658  11.388  1.00  0.00    -0.000 C 
BRANCH  13  14
ATOM     14  C   UNL     1      32.840  -5.602  11.766  1.00  0.00    -0.000 C 
BRANCH  14  15
ATOM     15  C   UNL     1      33.806  -5.264  10.611  1.00  0.00    -0.000 C 
BRANCH  15  16
ATOM     16  C   UNL     1      34.464  -6.486   9.939  1.00  0.00    -0.000 C 
BRANCH  16  17
ATOM     17  C   UNL     1      33.803  -6.890   8.602  1.00  0.00    -0.000 C 
BRANCH  17  18
ATOM     18  C   UNL     1      32.747  -7.998   8.752  1.00  0.00    -0.003 C 
ATOM     19  C   UNL     1      31.379  -7.593   8.206  1.00  0.00     0.004 C 
ENDBRANCH  17  18
ENDBRANCH  16  17
ENDBRANCH  15  16
ENDBRANCH  14  15
ENDBRANCH  13  14
ENDBRANCH  12  13
ENDBRANCH   1  12
TORSDOF 14
ENDMDL
MODEL 4
REMARK VINA RESULT:    -5.090      1.509      2.069
REMARK INTER + INTRA:         -10.830
REMARK INTER:                  -9.258
REMARK INTRA:                  -1.572
REMARK UNBOUND:                -1.574
REMARK SMILES CCCCCCCCCCCCCC[C@H](C)C(=O)[O-]
REMARK SMILES IDX 9 1 10 2 11 3 12 4 13 5 14 6 15 7 16 8 17 9 18 10 19 11 8 12
REMARK SMILES IDX 7 13 6 14 5 15 4 16 3 17 2 18 1 19
REMARK H PARENT
REMARK Flexibility Score: inf
ROOT
ATOM      1  C   UNL     1      31.586 -10.417  14.461  1.00  0.00     0.000 C 
ENDROOT
BRANCH   1   2
ATOM      2  C   UNL     1      30.546 -10.409  13.330  1.00  0.00     0.000 C 
BRANCH   2   3
ATOM      3  C   UNL     1      31.049  -9.708  12.055  1.00  0.00     0.000 C 
BRANCH   3   4
ATOM      4  C   UNL     1      31.673  -8.319  12.286  1.00  0.00     0.000 C 
BRANCH   4   5
ATOM      5  C   UNL     1      30.669  -7.173  12.090  1.00  0.00     0.001 C 
BRANCH   5   6
ATOM      6  C   UNL     1      31.250  -5.973  11.314  1.00  0.00     0.009 C 
BRANCH   6   7
ATOM      7  C   UNL     1      32.627  -6.189  10.634  1.00  0.00     0.032 C 
ATOM      8  C   UNL     1      33.636  -5.079  10.969  1.00  0.00     0.014 C 
BRANCH   7   9
ATOM      9  C   UNL     1      32.505  -6.422   9.149  1.00  0.00     0.044 C 
ATOM     10  O   UNL     1      33.542  -6.468   8.435  1.00  0.00    -0.550 OA
ATOM     11  O   UNL     1      31.260  -6.567   8.544  1.00  0.00    -0.550 OA
ENDBRANCH   7   9
ENDBRANCH   6   7
ENDBRANCH   5   6
ENDBRANCH   4   5
ENDBRANCH   3   4
ENDBRANCH   2   3
ENDBRANCH   1   2
BRANCH   1  12
ATOM     12  C   UNL     1      31.106  -9.581  15.656  1.00  0.00     0.000 C 
BRANCH  12  13
ATOM     13  C   UNL     1      29.705  -8.983  15.440  1.00  0.00    -0.000 C 
BRANCH  13  14
ATOM     14  C   UNL     1      28.574  -9.666  16.236  1.00  0.00    -0.000 C 
BRANCH  14  15
ATOM     15  C   UNL     1      27.419 -10.243  15.390  1.00  0.00    -0.000 C 
BRANCH  15  16
ATOM     16  C   UNL     1      27.537 -11.747  15.073  1.00  0.00    -0.000 C 
BRANCH  16  17
ATOM     17  C   UNL     1      28.581 -12.484  15.942  1.00  0.00    -0.000 C 
BRANCH  17  18
ATOM     18  C   UNL     1      28.511 -14.016  15.815  1.00  0.00    -0.003 C 
ATOM     19  C   UNL     1      27.963 -14.475  14.466  1.00  0.00     0.004 C 
ENDBRANCH  17  18
ENDBRANCH  16  17
ENDBRANCH  15  16
ENDBRANCH  14  15
ENDBRANCH  13  14
ENDBRANCH  12  13
ENDBRANCH   1  12
TORSDOF 14
ENDMDL
MODEL 5
REMARK VINA RESULT:    -4.966      2.828      7.395
REMARK INTER + INTRA:         -10.605
REMARK INTER:                  -8.417
REMARK INTRA:                  -2.189
REMARK UNBOUND:                -1.574
REMARK SMILES CCCCCCCCCCCCCC[C@H](C)C(=O)[O-]
REMARK SMILES IDX 9 1 10 2 11 3 12 4 13 5 14 6 15 7 16 8 17 9 18 10 19 11 8 12
REMARK SMILES IDX 7 13 6 14 5 15 4 16 3 17 2 18 1 19
REMARK H PARENT
REMARK Flexibility Score: inf
ROOT
ATOM      1  C   UNL     1      30.538  -7.680  12.827  1.00  0.00     0.000 C 
ENDROOT
BRANCH   1   2
ATOM      2  C   UNL     1      31.808  -8.542  12.900  1.00  0.00     0.000 C 
BRANCH   2   3
ATOM      3  C   UNL     1      31.509 -10.036  13.122  1.00  0.00     0.000 C 
BRANCH   3   4
ATOM      4  C   UNL     1      30.120 -10.495  12.640  1.00  0.00     0.000 C 
BRANCH   4   5
ATOM      5  C   UNL     1      29.374 -11.336  13.687  1.00  0.00     0.001 C 
BRANCH   5   6
ATOM      6  C   UNL     1      29.860 -11.094  15.131  1.00  0.00     0.009 C 
BRANCH   6   7
ATOM      7  C   UNL     1      28.903 -10.303  16.060  1.00  0.00     0.032 C 
ATOM      8  C   UNL     1      27.618  -9.853  15.347  1.00  0.00     0.014 C 
BRANCH   7   9
ATOM      9  C   UNL     1      29.596  -9.163  16.763  1.00  0.00     0.044 C 
ATOM     10  O   UNL     1      30.637  -8.659  16.263  1.00  0.00    -0.550 OA
ATOM     11  O   UNL     1      29.118  -8.667  17.972  1.00  0.00    -0.550 OA
ENDBRANCH   7   9
ENDBRANCH   6   7
ENDBRANCH   5   6
ENDBRANCH   4   5
ENDBRANCH   3   4
ENDBRANCH   2   3
ENDBRANCH   1   2
BRANCH   1  12
ATOM     12  C   UNL     1      30.708  -6.533  11.821  1.00  0.00     0.000 C 
BRANCH  12  13
ATOM     13  C   UNL     1      31.359  -6.988  10.503  1.00  0.00    -0.000 C 
BRANCH  13  14
ATOM     14  C   UNL     1      32.387  -6.004   9.909  1.00  0.00    -0.000 C 
BRANCH  14  15
ATOM     15  C   UNL     1      33.296  -5.292  10.934  1.00  0.00    -0.000 C 
BRANCH  15  16
ATOM     16  C   UNL     1      34.567  -6.073  11.323  1.00  0.00    -0.000 C 
BRANCH  16  17
ATOM     17  C   UNL     1      34.958  -7.169  10.307  1.00  0.00    -0.000 C 
BRANCH  17  18
ATOM     18  C   UNL     1      34.931  -8.589  10.897  1.00  0.00    -0.003 C 
ATOM     19  C   UNL     1      34.088  -9.559  10.074  1.00  0.00     0.004 C 
ENDBRANCH  17  18
ENDBRANCH  16  17
ENDBRANCH  15  16
ENDBRANCH  14  15
ENDBRANCH  13  14
ENDBRANCH  12  13
ENDBRANCH   1  12
TORSDOF 14
ENDMDL
MODEL 6
REMARK VINA RESULT:    -4.944      3.418      8.151
REMARK INTER + INTRA:         -10.564
REMARK INTER:                  -8.929
REMARK INTRA:                  -1.635
REMARK UNBOUND:                -1.574
REMARK SMILES CCCCCCCCCCCCCC[C@H](C)C(=O)[O-]
REMARK SMILES IDX 9 1 10 2 11 3 12 4 13 5 14 6 15 7 16 8 17 9 18 10 19 11 8 12
REMARK SMILES IDX 7 13 6 14 5 15 4 16 3 17 2 18 1 19
REMARK H PARENT
REMARK Flexibility Score: inf
ROOT
ATOM      1  C   UNL     1      30.742  -6.906  11.346  1.00  0.00     0.000 C 
ENDROOT
BRANCH   1   2
ATOM      2  C   UNL     1      30.599  -7.498  12.757  1.00  0.00     0.000 C 
BRANCH   2   3
ATOM      3  C   UNL     1      31.005  -8.982  12.830  1.00  0.00     0.000 C 
BRANCH   3   4
ATOM      4  C   UNL     1      30.926  -9.603  14.237  1.00  0.00     0.000 C 
BRANCH   4   5
ATOM      5  C   UNL     1      30.002  -8.822  15.184  1.00  0.00     0.001 C 
BRANCH   5   6
ATOM      6  C   UNL     1      28.925  -9.700  15.854  1.00  0.00     0.009 C 
BRANCH   6   7
ATOM      7  C   UNL     1      28.556 -11.019  15.127  1.00  0.00     0.032 C 
ATOM      8  C   UNL     1      27.270 -10.901  14.295  1.00  0.00     0.014 C 
BRANCH   7   9
ATOM      9  C   UNL     1      28.526 -12.202  16.063  1.00  0.00     0.044 C 
ATOM     10  O   UNL     1      29.576 -12.550  16.667  1.00  0.00    -0.550 OA
ATOM     11  O   UNL     1      27.359 -12.934  16.258  1.00  0.00    -0.550 OA
ENDBRANCH   7   9
ENDBRANCH   6   7
ENDBRANCH   5   6
ENDBRANCH   4   5
ENDBRANCH   3   4
ENDBRANCH   2   3
ENDBRANCH   1   2
BRANCH   1  12
ATOM     12  C   UNL     1      31.515  -5.580  11.383  1.00  0.00     0.000 C 
BRANCH  12  13
ATOM     13  C   UNL     1      33.001  -5.765  11.736  1.00  0.00    -0.000 C 
BRANCH  13  14
ATOM     14  C   UNL     1      33.993  -5.194  10.702  1.00  0.00    -0.000 C 
BRANCH  14  15
ATOM     15  C   UNL     1      34.754  -6.242   9.862  1.00  0.00    -0.000 C 
BRANCH  15  16
ATOM     16  C   UNL     1      34.154  -7.662   9.899  1.00  0.00    -0.000 C 
BRANCH  16  17
ATOM     17  C   UNL     1      33.203  -7.965   8.719  1.00  0.00    -0.000 C 
BRANCH  17  18
ATOM     18  C   UNL     1      33.119  -6.822   7.692  1.00  0.00    -0.003 C 
ATOM     19  C   UNL     1      31.739  -6.173   7.639  1.00  0.00     0.004 C 
ENDBRANCH  17  18
ENDBRANCH  16  17
ENDBRANCH  15  16
ENDBRANCH  14  15
ENDBRANCH  13  14
ENDBRANCH  12  13
ENDBRANCH   1  12
TORSDOF 14
ENDMDL
MODEL 7
REMARK VINA RESULT:    -4.921      1.203      2.019
REMARK INTER + INTRA:         -10.523
REMARK INTER:                  -9.128
REMARK INTRA:                  -1.395
REMARK UNBOUND:                -1.574
REMARK SMILES CCCCCCCCCCCCCC[C@H](C)C(=O)[O-]
REMARK SMILES IDX 9 1 10 2 11 3 12 4 13 5 14 6 15 7 16 8 17 9 18 10 19 11 8 12
REMARK SMILES IDX 7 13 6 14 5 15 4 16 3 17 2 18 1 19
REMARK H PARENT
REMARK Flexibility Score: inf
ROOT
ATOM      1  C   UNL     1      31.365  -8.571  12.294  1.00  0.00     0.000 C 
ENDROOT
BRANCH   1   2
ATOM      2  C   UNL     1      30.675  -7.203  12.188  1.00  0.00     0.000 C 
BRANCH   2   3
ATOM      3  C   UNL     1      31.270  -6.313  11.081  1.00  0.00     0.000 C 
BRANCH   3   4
ATOM      4  C   UNL     1      32.183  -5.181  11.585  1.00  0.00     0.000 C 
BRANCH   4   5
ATOM      5  C   UNL     1      33.535  -5.135  10.855  1.00  0.00     0.001 C 
BRANCH   5   6
ATOM      6  C   UNL     1      33.679  -6.213   9.761  1.00  0.00     0.009 C 
BRANCH   6   7
ATOM      7  C   UNL     1      34.739  -7.318  10.012  1.00  0.00     0.032 C 
ATOM      8  C   UNL     1      34.193  -8.733   9.763  1.00  0.00     0.014 C 
BRANCH   7   9
ATOM      9  C   UNL     1      35.396  -7.188  11.364  1.00  0.00     0.044 C 
ATOM     10  O   UNL     1      34.847  -7.696  12.378  1.00  0.00    -0.550 OA
ATOM     11  O   UNL     1      36.592  -6.494  11.517  1.00  0.00    -0.550 OA
ENDBRANCH   7   9
ENDBRANCH   6   7
ENDBRANCH   5   6
ENDBRANCH   4   5
ENDBRANCH   3   4
ENDBRANCH   2   3
ENDBRANCH   1   2
BRANCH   1  12
ATOM     12  C   UNL     1      30.951  -9.297  13.582  1.00  0.00     0.000 C 
BRANCH  12  13
ATOM     13  C   UNL     1      29.832  -8.567  14.344  1.00  0.00    -0.000 C 
BRANCH  13  14
ATOM     14  C   UNL     1      29.439  -9.204  15.693  1.00  0.00    -0.000 C 
BRANCH  14  15
ATOM     15  C   UNL     1      27.970  -9.664  15.808  1.00  0.00    -0.000 C 
BRANCH  15  16
ATOM     16  C   UNL     1      27.434 -10.430  14.581  1.00  0.00    -0.000 C 
BRANCH  16  17
ATOM     17  C   UNL     1      27.778 -11.937  14.592  1.00  0.00    -0.000 C 
BRANCH  17  18
ATOM     18  C   UNL     1      27.696 -12.573  15.990  1.00  0.00    -0.003 C 
ATOM     19  C   UNL     1      29.049 -13.067  16.497  1.00  0.00     0.004 C 
ENDBRANCH  17  18
ENDBRANCH  16  17
ENDBRANCH  15  16
ENDBRANCH  14  15
ENDBRANCH  13  14
ENDBRANCH  12  13
ENDBRANCH   1  12
TORSDOF 14
ENDMDL
MODEL 8
REMARK VINA RESULT:    -4.907      3.629      7.958
REMARK INTER + INTRA:         -10.497
REMARK INTER:                  -8.607
REMARK INTRA:                  -1.890
REMARK UNBOUND:                -1.574
REMARK SMILES CCCCCCCCCCCCCC[C@H](C)C(=O)[O-]
REMARK SMILES IDX 9 1 10 2 11 3 12 4 13 5 14 6 15 7 16 8 17 9 18 10 19 11 8 12
REMARK SMILES IDX 7 13 6 14 5 15 4 16 3 17 2 18 1 19
REMARK H PARENT
REMARK Flexibility Score: inf
ROOT
ATOM      1  C   UNL     1      31.001  -7.416  11.004  1.00  0.00     0.000 C 
ENDROOT
BRANCH   1   2
ATOM      2  C   UNL     1      30.641  -7.123  12.469  1.00  0.00     0.000 C 
BRANCH   2   3
ATOM      3  C   UNL     1      30.651  -8.382  13.354  1.00  0.00     0.000 C 
BRANCH   3   4
ATOM      4  C   UNL     1      30.968  -9.692  12.609  1.00  0.00     0.000 C 
BRANCH   4   5
ATOM      5  C   UNL     1      29.972 -10.817  12.929  1.00  0.00     0.001 C 
BRANCH   5   6
ATOM      6  C   UNL     1      29.536 -10.850  14.409  1.00  0.00     0.009 C 
BRANCH   6   7
ATOM      7  C   UNL     1      28.025 -11.070  14.681  1.00  0.00     0.032 C 
ATOM      8  C   UNL     1      27.449 -10.060  15.687  1.00  0.00     0.014 C 
BRANCH   7   9
ATOM      9  C   UNL     1      27.710 -12.496  15.058  1.00  0.00     0.044 C 
ATOM     10  O   UNL     1      27.609 -13.374  14.160  1.00  0.00    -0.550 OA
ATOM     11  O   UNL     1      27.507 -12.860  16.386  1.00  0.00    -0.550 OA
ENDBRANCH   7   9
ENDBRANCH   6   7
ENDBRANCH   5   6
ENDBRANCH   4   5
ENDBRANCH   3   4
ENDBRANCH   2   3
ENDBRANCH   1   2
BRANCH   1  12
ATOM     12  C   UNL     1      31.668  -6.199  10.348  1.00  0.00     0.000 C 
BRANCH  12  13
ATOM     13  C   UNL     1      32.460  -5.341  11.350  1.00  0.00    -0.000 C 
BRANCH  13  14
ATOM     14  C   UNL     1      33.955  -5.163  11.018  1.00  0.00    -0.000 C 
BRANCH  14  15
ATOM     15  C   UNL     1      34.486  -6.028   9.855  1.00  0.00    -0.000 C 
BRANCH  15  16
ATOM     16  C   UNL     1      35.365  -7.220  10.285  1.00  0.00    -0.000 C 
BRANCH  16  17
ATOM     17  C   UNL     1      34.563  -8.507  10.583  1.00  0.00    -0.000 C 
BRANCH  17  18
ATOM     18  C   UNL     1      34.341  -8.755  12.085  1.00  0.00    -0.003 C 
ATOM     19  C   UNL     1      35.339  -8.006  12.964  1.00  0.00     0.004 C 
ENDBRANCH  17  18
ENDBRANCH  16  17
ENDBRANCH  15  16
ENDBRANCH  14  15
ENDBRANCH  13  14
ENDBRANCH  12  13
ENDBRANCH   1  12
TORSDOF 14
ENDMDL
MODEL 9
REMARK VINA RESULT:    -4.891      3.784      7.840
REMARK INTER + INTRA:         -10.468
REMARK INTER:                  -8.723
REMARK INTRA:                  -1.745
REMARK UNBOUND:                -1.574
REMARK SMILES CCCCCCCCCCCCCC[C@H](C)C(=O)[O-]
REMARK SMILES IDX 9 1 10 2 11 3 12 4 13 5 14 6 15 7 16 8 17 9 18 10 19 11 8 12
REMARK SMILES IDX 7 13 6 14 5 15 4 16 3 17 2 18 1 19
REMARK H PARENT
REMARK Flexibility Score: inf
ROOT
ATOM      1  C   UNL     1      32.442  -6.956  11.980  1.00  0.00     0.000 C 
ENDROOT
BRANCH   1   2
ATOM      2  C   UNL     1      30.930  -7.205  12.095  1.00  0.00     0.000 C 
BRANCH   2   3
ATOM      3  C   UNL     1      30.560  -8.129  13.269  1.00  0.00     0.000 C 
BRANCH   3   4
ATOM      4  C   UNL     1      30.785  -9.629  13.004  1.00  0.00     0.000 C 
BRANCH   4   5
ATOM      5  C   UNL     1      30.078 -10.529  14.030  1.00  0.00     0.001 C 
BRANCH   5   6
ATOM      6  C   UNL     1      28.777 -11.164  13.497  1.00  0.00     0.009 C 
BRANCH   6   7
ATOM      7  C   UNL     1      27.555 -11.143  14.452  1.00  0.00     0.032 C 
ATOM      8  C   UNL     1      27.687 -10.090  15.564  1.00  0.00     0.014 C 
BRANCH   7   9
ATOM      9  C   UNL     1      27.227 -12.512  14.996  1.00  0.00     0.044 C 
ATOM     10  O   UNL     1      27.187 -12.697  16.241  1.00  0.00    -0.550 OA
ATOM     11  O   UNL     1      26.987 -13.585  14.143  1.00  0.00    -0.550 OA
ENDBRANCH   7   9
ENDBRANCH   6   7
ENDBRANCH   5   6
ENDBRANCH   4   5
ENDBRANCH   3   4
ENDBRANCH   2   3
ENDBRANCH   1   2
BRANCH   1  12
ATOM     12  C   UNL     1      32.734  -5.481  11.672  1.00  0.00     0.000 C 
BRANCH  12  13
ATOM     13  C   UNL     1      33.656  -5.298  10.454  1.00  0.00    -0.000 C 
BRANCH  13  14
ATOM     14  C   UNL     1      33.675  -6.482   9.466  1.00  0.00    -0.000 C 
BRANCH  14  15
ATOM     15  C   UNL     1      32.720  -6.358   8.260  1.00  0.00    -0.000 C 
BRANCH  15  16
ATOM     16  C   UNL     1      31.382  -7.109   8.414  1.00  0.00    -0.000 C 
BRANCH  16  17
ATOM     17  C   UNL     1      31.458  -8.601   8.020  1.00  0.00    -0.000 C 
BRANCH  17  18
ATOM     18  C   UNL     1      31.283  -9.558   9.211  1.00  0.00    -0.003 C 
ATOM     19  C   UNL     1      32.613 -10.022   9.800  1.00  0.00     0.004 C 
ENDBRANCH  17  18
ENDBRANCH  16  17
ENDBRANCH  15  16
ENDBRANCH  14  15
ENDBRANCH  13  14
ENDBRANCH  12  13
ENDBRANCH   1  12
TORSDOF 14
ENDMDL
