MODEL 1
REMARK VINA RESULT:     7.170      0.000      0.000
REMARK INTER + INTRA:          15.091
REMARK INTER:                  16.392
REMARK INTRA:                  -1.301
REMARK UNBOUND:                -1.301
REMARK SMILES CCCCCCCCCCCCCCCCCCCCCCCC(=O)[O-]
REMARK SMILES IDX 13 1 14 2 15 3 16 4 17 5 18 6 19 7 20 8 21 9 22 10 23 11
REMARK SMILES IDX 24 12 25 13 26 14 12 15 11 16 10 17 9 18 8 19 7 20 6 21 5 22
REMARK SMILES IDX 4 23 3 24 2 25 1 26
REMARK H PARENT
REMARK Flexibility Score: inf
ROOT
ATOM      1  C   UNL     1      13.530  16.550  -7.580  1.00  0.00     0.000 C 
ENDROOT
BRANCH   1   2
ATOM      2  C   UNL     1      13.597  17.438  -6.326  1.00  0.00     0.000 C 
BRANCH   2   3
ATOM      3  C   UNL     1      12.368  17.273  -5.418  1.00  0.00     0.000 C 
BRANCH   3   4
ATOM      4  C   UNL     1      11.626  15.945  -5.659  1.00  0.00     0.000 C 
BRANCH   4   5
ATOM      5  C   UNL     1      10.667  15.600  -4.500  1.00  0.00     0.000 C 
BRANCH   5   6
ATOM      6  C   UNL     1      10.995  14.269  -3.799  1.00  0.00     0.000 C 
BRANCH   6   7
ATOM      7  C   UNL     1      11.457  14.454  -2.345  1.00  0.00     0.000 C 
BRANCH   7   8
ATOM      8  C   UNL     1      10.413  13.967  -1.327  1.00  0.00     0.000 C 
BRANCH   8   9
ATOM      9  C   UNL     1      11.056  13.301  -0.096  1.00  0.00     0.000 C 
BRANCH   9  10
ATOM     10  C   UNL     1      11.068  14.220   1.138  1.00  0.00     0.006 C 
BRANCH  10  11
ATOM     11  C   UNL     1       9.795  15.063   1.309  1.00  0.00     0.053 C 
BRANCH  11  12
ATOM     12  C   UNL     1      10.107  16.503   1.574  1.00  0.00     0.041 C 
ATOM     13  O   UNL     1       9.279  17.400   1.261  1.00  0.00    -0.550 OA
ATOM     14  O   UNL     1      11.332  16.860   2.125  1.00  0.00    -0.550 OA
ENDBRANCH  11  12
ENDBRANCH  10  11
ENDBRANCH   9  10
ENDBRANCH   8   9
ENDBRANCH   7   8
ENDBRANCH   6   7
ENDBRANCH   5   6
ENDBRANCH   4   5
ENDBRANCH   3   4
ENDBRANCH   2   3
ENDBRANCH   1   2
BRANCH   1  15
ATOM     15  C   UNL     1      14.842  15.794  -7.838  1.00  0.00     0.000 C 
BRANCH  15  16
ATOM     16  C   UNL     1      15.390  16.023  -9.258  1.00  0.00     0.000 C 
BRANCH  16  17
ATOM     17  C   UNL     1      14.438  15.516 -10.356  1.00  0.00     0.000 C 
BRANCH  17  18
ATOM     18  C   UNL     1      15.116  14.710 -11.476  1.00  0.00    -0.000 C 
BRANCH  18  19
ATOM     19  C   UNL     1      15.540  15.581 -12.671  1.00  0.00    -0.000 C 
BRANCH  19  20
ATOM     20  C   UNL     1      16.732  14.988 -13.439  1.00  0.00    -0.000 C 
BRANCH  20  21
ATOM     21  C   UNL     1      18.056  15.700 -13.112  1.00  0.00    -0.000 C 
BRANCH  21  22
ATOM     22  C   UNL     1      17.897  17.225 -13.007  1.00  0.00    -0.000 C 
BRANCH  22  23
ATOM     23  C   UNL     1      18.464  17.789 -11.695  1.00  0.00    -0.000 C 
BRANCH  23  24
ATOM     24  C   UNL     1      18.006  19.239 -11.478  1.00  0.00    -0.000 C 
BRANCH  24  25
ATOM     25  C   UNL     1      18.341  20.150 -12.670  1.00  0.00    -0.003 C 
ATOM     26  C   UNL     1      19.357  21.237 -12.319  1.00  0.00     0.004 C 
ENDBRANCH  24  25
ENDBRANCH  23  24
ENDBRANCH  22  23
ENDBRANCH  21  22
ENDBRANCH  20  21
ENDBRANCH  19  20
ENDBRANCH  18  19
ENDBRANCH  17  18
ENDBRANCH  16  17
ENDBRANCH  15  16
ENDBRANCH   1  15
TORSDOF 22
ENDMDL
MODEL 2
REMARK VINA RESULT:     7.499      4.777     12.625
REMARK INTER + INTRA:          15.842
REMARK INTER:                  17.163
REMARK INTRA:                  -1.321
REMARK UNBOUND:                -1.301
REMARK SMILES CCCCCCCCCCCCCCCCCCCCCCCC(=O)[O-]
REMARK SMILES IDX 13 1 14 2 15 3 16 4 17 5 18 6 19 7 20 8 21 9 22 10 23 11
REMARK SMILES IDX 24 12 25 13 26 14 12 15 11 16 10 17 9 18 8 19 7 20 6 21 5 22
REMARK SMILES IDX 4 23 3 24 2 25 1 26
REMARK H PARENT
REMARK Flexibility Score: inf
ROOT
ATOM      1  C   UNL     1      13.710  17.119  -6.310  1.00  0.00     0.000 C 
ENDROOT
BRANCH   1   2
ATOM      2  C   UNL     1      13.655  16.654  -7.776  1.00  0.00     0.000 C 
BRANCH   2   3
ATOM      3  C   UNL     1      14.812  15.710  -8.140  1.00  0.00     0.000 C 
BRANCH   3   4
ATOM      4  C   UNL     1      15.408  16.007  -9.528  1.00  0.00     0.000 C 
BRANCH   4   5
ATOM      5  C   UNL     1      14.505  15.493 -10.669  1.00  0.00     0.000 C 
BRANCH   5   6
ATOM      6  C   UNL     1      15.272  14.767 -11.788  1.00  0.00     0.000 C 
BRANCH   6   7
ATOM      7  C   UNL     1      15.887  15.730 -12.816  1.00  0.00     0.000 C 
BRANCH   7   8
ATOM      8  C   UNL     1      17.318  15.334 -13.215  1.00  0.00     0.000 C 
BRANCH   8   9
ATOM      9  C   UNL     1      18.367  16.356 -12.743  1.00  0.00     0.000 C 
BRANCH   9  10
ATOM     10  C   UNL     1      17.783  17.770 -12.568  1.00  0.00     0.006 C 
BRANCH  10  11
ATOM     11  C   UNL     1      18.798  18.816 -12.082  1.00  0.00     0.053 C 
BRANCH  11  12
ATOM     12  C   UNL     1      18.504  20.178 -12.629  1.00  0.00     0.041 C 
ATOM     13  O   UNL     1      19.296  21.133 -12.411  1.00  0.00    -0.550 OA
ATOM     14  O   UNL     1      17.333  20.405 -13.342  1.00  0.00    -0.550 OA
ENDBRANCH  11  12
ENDBRANCH  10  11
ENDBRANCH   9  10
ENDBRANCH   8   9
ENDBRANCH   7   8
ENDBRANCH   6   7
ENDBRANCH   5   6
ENDBRANCH   4   5
ENDBRANCH   3   4
ENDBRANCH   2   3
ENDBRANCH   1   2
BRANCH   1  15
ATOM     15  C   UNL     1      12.318  17.188  -5.662  1.00  0.00     0.000 C 
BRANCH  15  16
ATOM     16  C   UNL     1      11.623  15.816  -5.604  1.00  0.00     0.000 C 
BRANCH  16  17
ATOM     17  C   UNL     1      10.851  15.591  -4.292  1.00  0.00     0.000 C 
BRANCH  17  18
ATOM     18  C   UNL     1      11.052  14.206  -3.655  1.00  0.00    -0.000 C 
BRANCH  18  19
ATOM     19  C   UNL     1      10.342  14.059  -2.298  1.00  0.00    -0.000 C 
BRANCH  19  20
ATOM     20  C   UNL     1      11.301  14.230  -1.109  1.00  0.00    -0.000 C 
BRANCH  20  21
ATOM     21  C   UNL     1      11.218  13.059  -0.114  1.00  0.00    -0.000 C 
BRANCH  21  22
ATOM     22  C   UNL     1      11.695  13.445   1.295  1.00  0.00    -0.000 C 
BRANCH  22  23
ATOM     23  C   UNL     1      10.892  14.612   1.891  1.00  0.00    -0.000 C 
BRANCH  23  24
ATOM     24  C   UNL     1      11.793  15.834   2.125  1.00  0.00    -0.000 C 
BRANCH  24  25
ATOM     25  C   UNL     1      11.195  17.129   1.554  1.00  0.00    -0.003 C 
ATOM     26  C   UNL     1       9.666  17.126   1.555  1.00  0.00     0.004 C 
ENDBRANCH  24  25
ENDBRANCH  23  24
ENDBRANCH  22  23
ENDBRANCH  21  22
ENDBRANCH  20  21
ENDBRANCH  19  20
ENDBRANCH  18  19
ENDBRANCH  17  18
ENDBRANCH  16  17
ENDBRANCH  15  16
ENDBRANCH   1  15
TORSDOF 22
ENDMDL
MODEL 3
REMARK VINA RESULT:     9.107      1.048      2.112
REMARK INTER + INTRA:          19.518
REMARK INTER:                  20.412
REMARK INTRA:                  -0.894
REMARK UNBOUND:                -1.301
REMARK SMILES CCCCCCCCCCCCCCCCCCCCCCCC(=O)[O-]
REMARK SMILES IDX 13 1 14 2 15 3 16 4 17 5 18 6 19 7 20 8 21 9 22 10 23 11
REMARK SMILES IDX 24 12 25 13 26 14 12 15 11 16 10 17 9 18 8 19 7 20 6 21 5 22
REMARK SMILES IDX 4 23 3 24 2 25 1 26
REMARK H PARENT
REMARK Flexibility Score: inf
ROOT
ATOM      1  C   UNL     1      12.609  17.321  -5.370  1.00  0.00     0.000 C 
ENDROOT
BRANCH   1   2
ATOM      2  C   UNL     1      11.395  16.544  -5.908  1.00  0.00     0.000 C 
BRANCH   2   3
ATOM      3  C   UNL     1      11.144  15.236  -5.142  1.00  0.00     0.000 C 
BRANCH   3   4
ATOM      4  C   UNL     1      11.092  15.441  -3.617  1.00  0.00     0.000 C 
BRANCH   4   5
ATOM      5  C   UNL     1      10.769  14.131  -2.867  1.00  0.00     0.000 C 
BRANCH   5   6
ATOM      6  C   UNL     1      10.368  14.341  -1.396  1.00  0.00     0.000 C 
BRANCH   6   7
ATOM      7  C   UNL     1      10.762  13.161  -0.493  1.00  0.00     0.000 C 
BRANCH   7   8
ATOM      8  C   UNL     1      12.246  13.195  -0.090  1.00  0.00     0.000 C 
BRANCH   8   9
ATOM      9  C   UNL     1      12.442  13.403   1.422  1.00  0.00     0.000 C 
BRANCH   9  10
ATOM     10  C   UNL     1      11.211  14.033   2.100  1.00  0.00     0.006 C 
BRANCH  10  11
ATOM     11  C   UNL     1      11.166  15.567   2.024  1.00  0.00     0.053 C 
BRANCH  11  12
ATOM     12  C   UNL     1       9.766  16.082   1.901  1.00  0.00     0.041 C 
ATOM     13  O   UNL     1       8.788  15.320   2.125  1.00  0.00    -0.550 OA
ATOM     14  O   UNL     1       9.539  17.391   1.494  1.00  0.00    -0.550 OA
ENDBRANCH  11  12
ENDBRANCH  10  11
ENDBRANCH   9  10
ENDBRANCH   8   9
ENDBRANCH   7   8
ENDBRANCH   6   7
ENDBRANCH   5   6
ENDBRANCH   4   5
ENDBRANCH   3   4
ENDBRANCH   2   3
ENDBRANCH   1   2
BRANCH   1  15
ATOM     15  C   UNL     1      13.760  17.394  -6.386  1.00  0.00     0.000 C 
BRANCH  15  16
ATOM     16  C   UNL     1      13.568  16.428  -7.568  1.00  0.00     0.000 C 
BRANCH  16  17
ATOM     17  C   UNL     1      14.740  15.444  -7.733  1.00  0.00     0.000 C 
BRANCH  17  18
ATOM     18  C   UNL     1      15.946  16.002  -8.509  1.00  0.00    -0.000 C 
BRANCH  18  19
ATOM     19  C   UNL     1      15.617  16.328  -9.976  1.00  0.00    -0.000 C 
BRANCH  19  20
ATOM     20  C   UNL     1      16.822  16.905 -10.735  1.00  0.00    -0.000 C 
BRANCH  20  21
ATOM     21  C   UNL     1      16.806  16.540 -12.231  1.00  0.00    -0.000 C 
BRANCH  21  22
ATOM     22  C   UNL     1      18.047  17.052 -12.979  1.00  0.00    -0.000 C 
BRANCH  22  23
ATOM     23  C   UNL     1      18.919  17.975 -12.114  1.00  0.00    -0.000 C 
BRANCH  23  24
ATOM     24  C   UNL     1      18.303  19.380 -12.020  1.00  0.00    -0.000 C 
BRANCH  24  25
ATOM     25  C   UNL     1      18.949  20.376 -12.995  1.00  0.00    -0.003 C 
ATOM     26  C   UNL     1      19.215  21.740 -12.359  1.00  0.00     0.004 C 
ENDBRANCH  24  25
ENDBRANCH  23  24
ENDBRANCH  22  23
ENDBRANCH  21  22
ENDBRANCH  20  21
ENDBRANCH  19  20
ENDBRANCH  18  19
ENDBRANCH  17  18
ENDBRANCH  16  17
ENDBRANCH  15  16
ENDBRANCH   1  15
TORSDOF 22
ENDMDL
