MODEL 1
REMARK VINA RESULT:    20.351      0.000      0.000
REMARK INTER + INTRA:          26.105
REMARK INTER:                  24.515
REMARK INTRA:                   1.590
REMARK UNBOUND:                 1.590
REMARK SMILES O=c1ccn([C@@H]2O[C@@H](CO)[C@@H](O)[C@@H]2O)c(=O)[nH]1
REMARK SMILES IDX 6 1 13 2 11 3 8 4 7 5 5 6 3 7 4 8 2 9 17 10 1 11 15 12 16 14
REMARK SMILES IDX 14 15 12 17 9 19 10 20
REMARK H PARENT 17 13 14 16 12 18 10 21
REMARK Flexibility Score: inf
ROOT
ATOM      1  C   UNL     1      97.417  71.824  54.391  1.00  0.00     0.255 C 
ATOM      2  C   UNL     1      96.899  70.439  53.987  1.00  0.00     0.196 C 
ATOM      3  C   UNL     1      96.330  70.673  52.612  1.00  0.00     0.179 C 
ATOM      4  C   UNL     1      97.114  71.891  52.117  1.00  0.00     0.178 C 
ATOM      5  O   UNL     1      97.559  72.631  53.235  1.00  0.00    -0.347 OA
ENDROOT
BRANCH   1   6
ATOM      6  N   UNL     1      96.525  72.487  55.370  1.00  0.00    -0.271 N 
ATOM      7  C   UNL     1      94.505  72.484  56.667  1.00  0.00     0.090 A 
ATOM      8  C   UNL     1      95.344  71.891  55.728  1.00  0.00     0.099 A 
ATOM      9  C   UNL     1      94.895  73.687  57.245  1.00  0.00     0.253 A 
ATOM     10  N   UNL     1      96.078  74.253  56.892  1.00  0.00    -0.274 N 
ATOM     11  O   UNL     1      94.155  74.246  58.097  1.00  0.00    -0.269 OA
ATOM     12  C   UNL     1      96.894  73.666  55.973  1.00  0.00     0.330 A 
ATOM     13  H   UNL     1      96.369  75.154  57.337  1.00  0.00     0.175 HD
ATOM     14  O   UNL     1      97.994  74.216  55.690  1.00  0.00    -0.248 OA
ENDBRANCH   1   6
BRANCH   2  15
ATOM     15  O   UNL     1      95.921  69.957  54.873  1.00  0.00    -0.386 OA
ATOM     16  H   UNL     1      96.161  69.015  55.074  1.00  0.00     0.211 HD
ENDBRANCH   2  15
BRANCH   3  17
ATOM     17  O   UNL     1      96.497  69.551  51.783  1.00  0.00    -0.387 OA
ATOM     18  H   UNL     1      95.625  69.076  51.771  1.00  0.00     0.211 HD
ENDBRANCH   3  17
BRANCH   4  19
ATOM     19  C   UNL     1      98.316  71.559  51.211  1.00  0.00     0.191 C 
BRANCH  19  20
ATOM     20  O   UNL     1      98.640  72.636  50.373  1.00  0.00    -0.394 OA
ATOM     21  H   UNL     1      97.842  73.227  50.346  1.00  0.00     0.210 HD
ENDBRANCH  19  20
ENDBRANCH   4  19
TORSDOF 5
ENDMDL
MODEL 2
REMARK VINA RESULT:    21.206      1.535      5.756
REMARK INTER + INTRA:          27.134
REMARK INTER:                  26.372
REMARK INTRA:                   0.762
REMARK UNBOUND:                 1.590
REMARK SMILES O=c1ccn([C@@H]2O[C@@H](CO)[C@@H](O)[C@@H]2O)c(=O)[nH]1
REMARK SMILES IDX 6 1 13 2 11 3 8 4 7 5 5 6 3 7 4 8 2 9 17 10 1 11 15 12 16 14
REMARK SMILES IDX 14 15 12 17 9 19 10 20
REMARK H PARENT 17 13 14 16 12 18 10 21
REMARK Flexibility Score: inf
ROOT
ATOM      1  C   UNL     1      96.388  72.078  56.153  1.00  0.00     0.255 C 
ATOM      2  C   UNL     1      97.155  73.352  56.525  1.00  0.00     0.196 C 
ATOM      3  C   UNL     1      96.102  74.425  56.435  1.00  0.00     0.179 C 
ATOM      4  C   UNL     1      94.802  73.652  56.673  1.00  0.00     0.178 C 
ATOM      5  O   UNL     1      94.998  72.305  56.295  1.00  0.00    -0.347 OA
ENDROOT
BRANCH   1   6
ATOM      6  N   UNL     1      96.694  71.627  54.776  1.00  0.00    -0.271 N 
ATOM      7  C   UNL     1      97.338  72.141  52.521  1.00  0.00     0.090 A 
ATOM      8  C   UNL     1      97.021  72.546  53.814  1.00  0.00     0.099 A 
ATOM      9  C   UNL     1      97.331  70.782  52.228  1.00  0.00     0.253 A 
ATOM     10  N   UNL     1      97.023  69.883  53.199  1.00  0.00    -0.274 N 
ATOM     11  O   UNL     1      97.613  70.386  51.066  1.00  0.00    -0.269 OA
ATOM     12  C   UNL     1      96.715  70.289  54.462  1.00  0.00     0.330 A 
ATOM     13  H   UNL     1      97.028  68.862  52.973  1.00  0.00     0.175 HD
ATOM     14  O   UNL     1      96.457  69.418  55.339  1.00  0.00    -0.248 OA
ENDBRANCH   1   6
BRANCH   2  15
ATOM     15  O   UNL     1      98.222  73.606  55.646  1.00  0.00    -0.386 OA
ATOM     16  H   UNL     1      97.905  73.360  54.738  1.00  0.00     0.211 HD
ENDBRANCH   2  15
BRANCH   3  17
ATOM     17  O   UNL     1      96.309  75.438  57.387  1.00  0.00    -0.387 OA
ATOM     18  H   UNL     1      95.871  75.132  58.224  1.00  0.00     0.211 HD
ENDBRANCH   3  17
BRANCH   4  19
ATOM     19  C   UNL     1      94.276  73.707  58.121  1.00  0.00     0.191 C 
BRANCH  19  20
ATOM     20  O   UNL     1      93.866  75.003  58.470  1.00  0.00    -0.394 OA
ATOM     21  H   UNL     1      94.464  75.631  57.985  1.00  0.00     0.210 HD
ENDBRANCH  19  20
ENDBRANCH   4  19
TORSDOF 5
ENDMDL
