MODEL 1
REMARK VINA RESULT:    -4.150      0.000      0.000
REMARK INTER + INTRA:         -12.081
REMARK INTER:                  -9.003
REMARK INTRA:                  -3.078
REMARK UNBOUND:                -3.078
REMARK SMILES CCCCCCCCCCCCCCCCCCCCCC(=O)[O-]
REMARK SMILES IDX 12 1 11 2 10 3 9 4 8 5 7 6 6 7 5 8 4 9 3 10 2 11 1 12 13 13
REMARK SMILES IDX 14 14 15 15 16 16 17 17 18 18 19 19 20 20 21 21 22 22 23 23
REMARK SMILES IDX 24 24
REMARK H PARENT
REMARK Flexibility Score: inf
ROOT
ATOM      1  C   UNL     1      -6.660  26.702 -13.539  1.00  0.00     0.000 C 
ENDROOT
BRANCH   1   2
ATOM      2  C   UNL     1      -6.859  25.512 -14.495  1.00  0.00     0.000 C 
BRANCH   2   3
ATOM      3  C   UNL     1      -8.002  24.583 -14.060  1.00  0.00     0.000 C 
BRANCH   3   4
ATOM      4  C   UNL     1      -8.821  25.214 -12.924  1.00  0.00    -0.000 C 
BRANCH   4   5
ATOM      5  C   UNL     1      -8.664  24.459 -11.595  1.00  0.00    -0.000 C 
BRANCH   5   6
ATOM      6  C   UNL     1      -8.436  25.402 -10.401  1.00  0.00    -0.000 C 
BRANCH   6   7
ATOM      7  C   UNL     1      -7.052  25.213  -9.759  1.00  0.00    -0.000 C 
BRANCH   7   8
ATOM      8  C   UNL     1      -6.498  26.517  -9.161  1.00  0.00    -0.000 C 
BRANCH   8   9
ATOM      9  C   UNL     1      -6.961  27.768  -9.928  1.00  0.00    -0.000 C 
BRANCH   9  10
ATOM     10  C   UNL     1      -7.763  28.785  -9.091  1.00  0.00    -0.000 C 
BRANCH  10  11
ATOM     11  C   UNL     1      -7.131  30.185  -8.989  1.00  0.00    -0.003 C 
ATOM     12  C   UNL     1      -5.604  30.151  -9.001  1.00  0.00     0.004 C 
ENDBRANCH  10  11
ENDBRANCH   9  10
ENDBRANCH   8   9
ENDBRANCH   7   8
ENDBRANCH   6   7
ENDBRANCH   5   6
ENDBRANCH   4   5
ENDBRANCH   3   4
ENDBRANCH   2   3
ENDBRANCH   1   2
BRANCH   1  13
ATOM     13  C   UNL     1      -5.308  26.722 -12.798  1.00  0.00     0.000 C 
BRANCH  13  14
ATOM     14  C   UNL     1      -4.398  25.504 -13.061  1.00  0.00     0.000 C 
BRANCH  14  15
ATOM     15  C   UNL     1      -4.151  24.600 -11.840  1.00  0.00     0.000 C 
BRANCH  15  16
ATOM     16  C   UNL     1      -4.235  23.103 -12.183  1.00  0.00     0.000 C 
BRANCH  16  17
ATOM     17  C   UNL     1      -5.672  22.562 -12.114  1.00  0.00     0.000 C 
BRANCH  17  18
ATOM     18  C   UNL     1      -5.779  21.106 -12.600  1.00  0.00     0.000 C 
BRANCH  18  19
ATOM     19  C   UNL     1      -6.001  20.108 -11.450  1.00  0.00     0.000 C 
BRANCH  19  20
ATOM     20  C   UNL     1      -7.041  20.581 -10.412  1.00  0.00     0.006 C 
BRANCH  20  21
ATOM     21  C   UNL     1      -6.525  20.449  -8.972  1.00  0.00     0.053 C 
BRANCH  21  22
ATOM     22  C   UNL     1      -7.247  19.354  -8.254  1.00  0.00     0.041 C 
ATOM     23  O   UNL     1      -7.425  18.238  -8.811  1.00  0.00    -0.550 OA
ATOM     24  O   UNL     1      -7.691  19.552  -6.952  1.00  0.00    -0.550 OA
ENDBRANCH  21  22
ENDBRANCH  20  21
ENDBRANCH  19  20
ENDBRANCH  18  19
ENDBRANCH  17  18
ENDBRANCH  16  17
ENDBRANCH  15  16
ENDBRANCH  14  15
ENDBRANCH  13  14
ENDBRANCH   1  13
TORSDOF 20
ENDMDL
MODEL 2
REMARK VINA RESULT:    -3.986      3.252      7.002
REMARK INTER + INTRA:         -11.724
REMARK INTER:                  -9.063
REMARK INTRA:                  -2.661
REMARK UNBOUND:                -3.078
REMARK SMILES CCCCCCCCCCCCCCCCCCCCCC(=O)[O-]
REMARK SMILES IDX 12 1 11 2 10 3 9 4 8 5 7 6 6 7 5 8 4 9 3 10 2 11 1 12 13 13
REMARK SMILES IDX 14 14 15 15 16 16 17 17 18 18 19 19 20 20 21 21 22 22 23 23
REMARK SMILES IDX 24 24
REMARK H PARENT
REMARK Flexibility Score: inf
ROOT
ATOM      1  C   UNL     1      -5.372  26.606 -12.801  1.00  0.00     0.000 C 
ENDROOT
BRANCH   1   2
ATOM      2  C   UNL     1      -4.237  25.780 -13.432  1.00  0.00     0.000 C 
BRANCH   2   3
ATOM      3  C   UNL     1      -4.749  24.560 -14.211  1.00  0.00     0.000 C 
BRANCH   3   4
ATOM      4  C   UNL     1      -4.650  23.284 -13.360  1.00  0.00    -0.000 C 
BRANCH   4   5
ATOM      5  C   UNL     1      -5.665  22.211 -13.786  1.00  0.00    -0.000 C 
BRANCH   5   6
ATOM      6  C   UNL     1      -6.554  21.742 -12.621  1.00  0.00    -0.000 C 
BRANCH   6   7
ATOM      7  C   UNL     1      -5.876  20.662 -11.764  1.00  0.00    -0.000 C 
BRANCH   7   8
ATOM      8  C   UNL     1      -6.815  20.089 -10.688  1.00  0.00    -0.000 C 
BRANCH   8   9
ATOM      9  C   UNL     1      -6.149  19.996  -9.304  1.00  0.00    -0.000 C 
BRANCH   9  10
ATOM     10  C   UNL     1      -6.042  18.570  -8.727  1.00  0.00    -0.000 C 
BRANCH  10  11
ATOM     11  C   UNL     1      -6.888  18.314  -7.468  1.00  0.00    -0.003 C 
ATOM     12  C   UNL     1      -7.910  19.418  -7.202  1.00  0.00     0.004 C 
ENDBRANCH  10  11
ENDBRANCH   9  10
ENDBRANCH   8   9
ENDBRANCH   7   8
ENDBRANCH   6   7
ENDBRANCH   5   6
ENDBRANCH   4   5
ENDBRANCH   3   4
ENDBRANCH   2   3
ENDBRANCH   1   2
BRANCH   1  13
ATOM     13  C   UNL     1      -6.598  26.826 -13.710  1.00  0.00     0.000 C 
BRANCH  13  14
ATOM     14  C   UNL     1      -7.961  26.504 -13.062  1.00  0.00     0.000 C 
BRANCH  14  15
ATOM     15  C   UNL     1      -8.476  25.074 -13.306  1.00  0.00     0.000 C 
BRANCH  15  16
ATOM     16  C   UNL     1      -8.624  24.266 -12.005  1.00  0.00     0.000 C 
BRANCH  16  17
ATOM     17  C   UNL     1      -8.252  25.084 -10.758  1.00  0.00     0.000 C 
BRANCH  17  18
ATOM     18  C   UNL     1      -6.908  24.652 -10.148  1.00  0.00     0.000 C 
BRANCH  18  19
ATOM     19  C   UNL     1      -6.358  25.672  -9.134  1.00  0.00     0.000 C 
BRANCH  19  20
ATOM     20  C   UNL     1      -7.216  26.949  -9.014  1.00  0.00     0.006 C 
BRANCH  20  21
ATOM     21  C   UNL     1      -6.563  28.153  -9.707  1.00  0.00     0.053 C 
BRANCH  21  22
ATOM     22  C   UNL     1      -7.120  29.433  -9.170  1.00  0.00     0.041 C 
ATOM     23  O   UNL     1      -6.373  30.436  -9.017  1.00  0.00    -0.550 OA
ATOM     24  O   UNL     1      -8.474  29.532  -8.874  1.00  0.00    -0.550 OA
ENDBRANCH  21  22
ENDBRANCH  20  21
ENDBRANCH  19  20
ENDBRANCH  18  19
ENDBRANCH  17  18
ENDBRANCH  16  17
ENDBRANCH  15  16
ENDBRANCH  14  15
ENDBRANCH  13  14
ENDBRANCH   1  13
TORSDOF 20
ENDMDL
MODEL 3
REMARK VINA RESULT:    -3.961      3.992      7.621
REMARK INTER + INTRA:         -11.671
REMARK INTER:                  -9.382
REMARK INTRA:                  -2.289
REMARK UNBOUND:                -3.078
REMARK SMILES CCCCCCCCCCCCCCCCCCCCCC(=O)[O-]
REMARK SMILES IDX 12 1 11 2 10 3 9 4 8 5 7 6 6 7 5 8 4 9 3 10 2 11 1 12 13 13
REMARK SMILES IDX 14 14 15 15 16 16 17 17 18 18 19 19 20 20 21 21 22 22 23 23
REMARK SMILES IDX 24 24
REMARK H PARENT
REMARK Flexibility Score: inf
ROOT
ATOM      1  C   UNL     1      -5.409  26.567 -12.649  1.00  0.00     0.000 C 
ENDROOT
BRANCH   1   2
ATOM      2  C   UNL     1      -4.326  25.473 -12.692  1.00  0.00     0.000 C 
BRANCH   2   3
ATOM      3  C   UNL     1      -4.326  24.585 -11.440  1.00  0.00     0.000 C 
BRANCH   3   4
ATOM      4  C   UNL     1      -5.461  24.983 -10.484  1.00  0.00    -0.000 C 
BRANCH   4   5
ATOM      5  C   UNL     1      -6.341  23.788 -10.083  1.00  0.00    -0.000 C 
BRANCH   5   6
ATOM      6  C   UNL     1      -6.979  23.090 -11.296  1.00  0.00    -0.000 C 
BRANCH   6   7
ATOM      7  C   UNL     1      -7.207  21.589 -11.056  1.00  0.00    -0.000 C 
BRANCH   7   8
ATOM      8  C   UNL     1      -5.937  20.873 -10.562  1.00  0.00    -0.000 C 
BRANCH   8   9
ATOM      9  C   UNL     1      -6.111  20.247  -9.167  1.00  0.00    -0.000 C 
BRANCH   9  10
ATOM     10  C   UNL     1      -6.512  18.757  -9.167  1.00  0.00    -0.000 C 
BRANCH  10  11
ATOM     11  C   UNL     1      -7.198  18.270  -7.878  1.00  0.00    -0.003 C 
ATOM     12  C   UNL     1      -7.793  19.409  -7.052  1.00  0.00     0.004 C 
ENDBRANCH  10  11
ENDBRANCH   9  10
ENDBRANCH   8   9
ENDBRANCH   7   8
ENDBRANCH   6   7
ENDBRANCH   5   6
ENDBRANCH   4   5
ENDBRANCH   3   4
ENDBRANCH   2   3
ENDBRANCH   1   2
BRANCH   1  13
ATOM     13  C   UNL     1      -6.452  26.493 -13.782  1.00  0.00     0.000 C 
BRANCH  13  14
ATOM     14  C   UNL     1      -7.915  26.703 -13.340  1.00  0.00     0.000 C 
BRANCH  14  15
ATOM     15  C   UNL     1      -8.108  26.997 -11.841  1.00  0.00     0.000 C 
BRANCH  15  16
ATOM     16  C   UNL     1      -9.255  26.182 -11.219  1.00  0.00     0.000 C 
BRANCH  16  17
ATOM     17  C   UNL     1      -9.151  26.092  -9.688  1.00  0.00     0.000 C 
BRANCH  17  18
ATOM     18  C   UNL     1     -10.043  27.122  -8.973  1.00  0.00     0.000 C 
BRANCH  18  19
ATOM     19  C   UNL     1     -11.356  27.398  -9.726  1.00  0.00     0.000 C 
BRANCH  19  20
ATOM     20  C   UNL     1     -12.594  27.466  -8.807  1.00  0.00     0.006 C 
BRANCH  20  21
ATOM     21  C   UNL     1     -12.228  27.869  -7.371  1.00  0.00     0.053 C 
BRANCH  21  22
ATOM     22  C   UNL     1     -12.282  29.356  -7.214  1.00  0.00     0.041 C 
ATOM     23  O   UNL     1     -13.391  29.944  -7.112  1.00  0.00    -0.550 OA
ATOM     24  O   UNL     1     -11.104  30.090  -7.140  1.00  0.00    -0.550 OA
ENDBRANCH  21  22
ENDBRANCH  20  21
ENDBRANCH  19  20
ENDBRANCH  18  19
ENDBRANCH  17  18
ENDBRANCH  16  17
ENDBRANCH  15  16
ENDBRANCH  14  15
ENDBRANCH  13  14
ENDBRANCH   1  13
TORSDOF 20
ENDMDL
MODEL 4
REMARK VINA RESULT:    -3.959      1.361      2.984
REMARK INTER + INTRA:         -11.666
REMARK INTER:                  -7.856
REMARK INTRA:                  -3.810
REMARK UNBOUND:                -3.078
REMARK SMILES CCCCCCCCCCCCCCCCCCCCCC(=O)[O-]
REMARK SMILES IDX 12 1 11 2 10 3 9 4 8 5 7 6 6 7 5 8 4 9 3 10 2 11 1 12 13 13
REMARK SMILES IDX 14 14 15 15 16 16 17 17 18 18 19 19 20 20 21 21 22 22 23 23
REMARK SMILES IDX 24 24
REMARK H PARENT
REMARK Flexibility Score: inf
ROOT
ATOM      1  C   UNL     1      -7.305  26.261 -14.266  1.00  0.00     0.000 C 
ENDROOT
BRANCH   1   2
ATOM      2  C   UNL     1      -7.206  25.111 -15.285  1.00  0.00     0.000 C 
BRANCH   2   3
ATOM      3  C   UNL     1      -6.150  24.064 -14.901  1.00  0.00     0.000 C 
BRANCH   3   4
ATOM      4  C   UNL     1      -4.808  24.734 -14.570  1.00  0.00    -0.000 C 
BRANCH   4   5
ATOM      5  C   UNL     1      -4.415  24.572 -13.093  1.00  0.00    -0.000 C 
BRANCH   5   6
ATOM      6  C   UNL     1      -5.228  23.476 -12.382  1.00  0.00    -0.000 C 
BRANCH   6   7
ATOM      7  C   UNL     1      -5.927  23.993 -11.114  1.00  0.00    -0.000 C 
BRANCH   7   8
ATOM      8  C   UNL     1      -5.611  25.471 -10.830  1.00  0.00    -0.000 C 
BRANCH   8   9
ATOM      9  C   UNL     1      -6.697  26.160  -9.985  1.00  0.00    -0.000 C 
BRANCH   9  10
ATOM     10  C   UNL     1      -6.926  27.651 -10.308  1.00  0.00    -0.000 C 
BRANCH  10  11
ATOM     11  C   UNL     1      -8.399  28.058 -10.485  1.00  0.00    -0.003 C 
ATOM     12  C   UNL     1      -8.694  29.466  -9.971  1.00  0.00     0.004 C 
ENDBRANCH  10  11
ENDBRANCH   9  10
ENDBRANCH   8   9
ENDBRANCH   7   8
ENDBRANCH   6   7
ENDBRANCH   5   6
ENDBRANCH   4   5
ENDBRANCH   3   4
ENDBRANCH   2   3
ENDBRANCH   1   2
BRANCH   1  13
ATOM     13  C   UNL     1      -8.647  26.346 -13.510  1.00  0.00     0.000 C 
BRANCH  13  14
ATOM     14  C   UNL     1      -9.391  25.005 -13.342  1.00  0.00     0.000 C 
BRANCH  14  15
ATOM     15  C   UNL     1      -9.538  24.519 -11.889  1.00  0.00     0.000 C 
BRANCH  15  16
ATOM     16  C   UNL     1      -9.492  22.986 -11.768  1.00  0.00     0.000 C 
BRANCH  16  17
ATOM     17  C   UNL     1      -8.856  22.316 -12.996  1.00  0.00     0.000 C 
BRANCH  17  18
ATOM     18  C   UNL     1      -8.073  21.042 -12.636  1.00  0.00     0.000 C 
BRANCH  18  19
ATOM     19  C   UNL     1      -8.009  20.791 -11.118  1.00  0.00     0.000 C 
BRANCH  19  20
ATOM     20  C   UNL     1      -6.613  20.357 -10.621  1.00  0.00     0.006 C 
BRANCH  20  21
ATOM     21  C   UNL     1      -6.481  20.468  -9.096  1.00  0.00     0.053 C 
BRANCH  21  22
ATOM     22  C   UNL     1      -7.220  19.355  -8.423  1.00  0.00     0.041 C 
ATOM     23  O   UNL     1      -7.193  18.192  -8.905  1.00  0.00    -0.550 OA
ATOM     24  O   UNL     1      -7.907  19.594  -7.238  1.00  0.00    -0.550 OA
ENDBRANCH  21  22
ENDBRANCH  20  21
ENDBRANCH  19  20
ENDBRANCH  18  19
ENDBRANCH  17  18
ENDBRANCH  16  17
ENDBRANCH  15  16
ENDBRANCH  14  15
ENDBRANCH  13  14
ENDBRANCH   1  13
TORSDOF 20
ENDMDL
MODEL 5
REMARK VINA RESULT:    -3.901      5.754      7.998
REMARK INTER + INTRA:         -11.540
REMARK INTER:                  -7.737
REMARK INTRA:                  -3.803
REMARK UNBOUND:                -3.078
REMARK SMILES CCCCCCCCCCCCCCCCCCCCCC(=O)[O-]
REMARK SMILES IDX 12 1 11 2 10 3 9 4 8 5 7 6 6 7 5 8 4 9 3 10 2 11 1 12 13 13
REMARK SMILES IDX 14 14 15 15 16 16 17 17 18 18 19 19 20 20 21 21 22 22 23 23
REMARK SMILES IDX 24 24
REMARK H PARENT
REMARK Flexibility Score: inf
ROOT
ATOM      1  C   UNL     1      -7.617  29.304  -9.605  1.00  0.00     0.000 C 
ENDROOT
BRANCH   1   2
ATOM      2  C   UNL     1      -8.950  29.472  -8.853  1.00  0.00     0.000 C 
BRANCH   2   3
ATOM      3  C   UNL     1      -8.823  29.199  -7.347  1.00  0.00     0.000 C 
BRANCH   3   4
ATOM      4  C   UNL     1      -9.508  30.304  -6.529  1.00  0.00    -0.000 C 
BRANCH   4   5
ATOM      5  C   UNL     1      -9.946  31.495  -7.397  1.00  0.00    -0.000 C 
BRANCH   5   6
ATOM      6  C   UNL     1     -11.201  32.196  -6.848  1.00  0.00    -0.000 C 
BRANCH   6   7
ATOM      7  C   UNL     1     -12.500  31.489  -7.267  1.00  0.00    -0.000 C 
BRANCH   7   8
ATOM      8  C   UNL     1     -12.439  30.953  -8.708  1.00  0.00    -0.000 C 
BRANCH   8   9
ATOM      9  C   UNL     1     -12.639  29.429  -8.786  1.00  0.00    -0.000 C 
BRANCH   9  10
ATOM     10  C   UNL     1     -12.674  28.706  -7.425  1.00  0.00    -0.000 C 
BRANCH  10  11
ATOM     11  C   UNL     1     -12.114  27.273  -7.435  1.00  0.00    -0.003 C 
ATOM     12  C   UNL     1     -11.522  26.875  -8.787  1.00  0.00     0.004 C 
ENDBRANCH  10  11
ENDBRANCH   9  10
ENDBRANCH   8   9
ENDBRANCH   7   8
ENDBRANCH   6   7
ENDBRANCH   5   6
ENDBRANCH   4   5
ENDBRANCH   3   4
ENDBRANCH   2   3
ENDBRANCH   1   2
BRANCH   1  13
ATOM     13  C   UNL     1      -6.361  29.317  -8.712  1.00  0.00     0.000 C 
BRANCH  13  14
ATOM     14  C   UNL     1      -5.413  30.515  -8.931  1.00  0.00     0.000 C 
BRANCH  14  15
ATOM     15  C   UNL     1      -4.888  31.174  -7.642  1.00  0.00     0.000 C 
BRANCH  15  16
ATOM     16  C   UNL     1      -6.018  31.578  -6.679  1.00  0.00     0.000 C 
BRANCH  16  17
ATOM     17  C   UNL     1      -5.946  30.829  -5.339  1.00  0.00     0.000 C 
BRANCH  17  18
ATOM     18  C   UNL     1      -4.538  30.284  -5.042  1.00  0.00     0.000 C 
BRANCH  18  19
ATOM     19  C   UNL     1      -4.498  28.747  -4.966  1.00  0.00     0.000 C 
BRANCH  19  20
ATOM     20  C   UNL     1      -5.861  28.078  -5.245  1.00  0.00     0.006 C 
BRANCH  20  21
ATOM     21  C   UNL     1      -5.704  26.649  -5.787  1.00  0.00     0.053 C 
BRANCH  21  22
ATOM     22  C   UNL     1      -6.052  25.647  -4.732  1.00  0.00     0.041 C 
ATOM     23  O   UNL     1      -6.034  25.973  -3.516  1.00  0.00    -0.550 OA
ATOM     24  O   UNL     1      -6.435  24.361  -5.096  1.00  0.00    -0.550 OA
ENDBRANCH  21  22
ENDBRANCH  20  21
ENDBRANCH  19  20
ENDBRANCH  18  19
ENDBRANCH  17  18
ENDBRANCH  16  17
ENDBRANCH  15  16
ENDBRANCH  14  15
ENDBRANCH  13  14
ENDBRANCH   1  13
TORSDOF 20
ENDMDL
MODEL 6
REMARK VINA RESULT:    -3.892      3.447      6.587
REMARK INTER + INTRA:         -11.520
REMARK INTER:                  -7.892
REMARK INTRA:                  -3.628
REMARK UNBOUND:                -3.078
REMARK SMILES CCCCCCCCCCCCCCCCCCCCCC(=O)[O-]
REMARK SMILES IDX 12 1 11 2 10 3 9 4 8 5 7 6 6 7 5 8 4 9 3 10 2 11 1 12 13 13
REMARK SMILES IDX 14 14 15 15 16 16 17 17 18 18 19 19 20 20 21 21 22 22 23 23
REMARK SMILES IDX 24 24
REMARK H PARENT
REMARK Flexibility Score: inf
ROOT
ATOM      1  C   UNL     1      -6.142  26.881 -13.382  1.00  0.00     0.000 C 
ENDROOT
BRANCH   1   2
ATOM      2  C   UNL     1      -7.224  25.983 -14.008  1.00  0.00     0.000 C 
BRANCH   2   3
ATOM      3  C   UNL     1      -8.643  26.361 -13.560  1.00  0.00     0.000 C 
BRANCH   3   4
ATOM      4  C   UNL     1      -9.441  25.113 -13.152  1.00  0.00    -0.000 C 
BRANCH   4   5
ATOM      5  C   UNL     1      -8.586  23.836 -13.165  1.00  0.00    -0.000 C 
BRANCH   5   6
ATOM      6  C   UNL     1      -8.532  23.146 -11.790  1.00  0.00    -0.000 C 
BRANCH   6   7
ATOM      7  C   UNL     1      -9.280  21.804 -11.777  1.00  0.00    -0.000 C 
BRANCH   7   8
ATOM      8  C   UNL     1      -8.331  20.604 -11.609  1.00  0.00    -0.000 C 
BRANCH   8   9
ATOM      9  C   UNL     1      -7.000  20.987 -10.939  1.00  0.00    -0.000 C 
BRANCH   9  10
ATOM     10  C   UNL     1      -6.141  19.795 -10.469  1.00  0.00    -0.000 C 
BRANCH  10  11
ATOM     11  C   UNL     1      -6.132  19.560  -8.948  1.00  0.00    -0.003 C 
ATOM     12  C   UNL     1      -7.147  18.509  -8.502  1.00  0.00     0.004 C 
ENDBRANCH  10  11
ENDBRANCH   9  10
ENDBRANCH   8   9
ENDBRANCH   7   8
ENDBRANCH   6   7
ENDBRANCH   5   6
ENDBRANCH   4   5
ENDBRANCH   3   4
ENDBRANCH   2   3
ENDBRANCH   1   2
BRANCH   1  13
ATOM     13  C   UNL     1      -4.977  26.124 -12.712  1.00  0.00     0.000 C 
BRANCH  13  14
ATOM     14  C   UNL     1      -4.961  24.600 -12.952  1.00  0.00     0.000 C 
BRANCH  14  15
ATOM     15  C   UNL     1      -4.839  23.742 -11.679  1.00  0.00     0.000 C 
BRANCH  15  16
ATOM     16  C   UNL     1      -4.785  24.588 -10.395  1.00  0.00     0.000 C 
BRANCH  16  17
ATOM     17  C   UNL     1      -5.993  24.343  -9.477  1.00  0.00     0.000 C 
BRANCH  17  18
ATOM     18  C   UNL     1      -6.643  25.651  -8.994  1.00  0.00     0.000 C 
BRANCH  18  19
ATOM     19  C   UNL     1      -7.791  26.119  -9.906  1.00  0.00     0.000 C 
BRANCH  19  20
ATOM     20  C   UNL     1      -7.828  27.647 -10.120  1.00  0.00     0.006 C 
BRANCH  20  21
ATOM     21  C   UNL     1      -6.480  28.310  -9.801  1.00  0.00     0.053 C 
BRANCH  21  22
ATOM     22  C   UNL     1      -6.689  29.600  -9.073  1.00  0.00     0.041 C 
ATOM     23  O   UNL     1      -5.714  30.195  -8.543  1.00  0.00    -0.550 OA
ATOM     24  O   UNL     1      -7.956  30.167  -9.015  1.00  0.00    -0.550 OA
ENDBRANCH  21  22
ENDBRANCH  20  21
ENDBRANCH  19  20
ENDBRANCH  18  19
ENDBRANCH  17  18
ENDBRANCH  16  17
ENDBRANCH  15  16
ENDBRANCH  14  15
ENDBRANCH  13  14
ENDBRANCH   1  13
TORSDOF 20
ENDMDL
MODEL 7
REMARK VINA RESULT:    -3.882      3.610      7.716
REMARK INTER + INTRA:         -11.498
REMARK INTER:                  -8.824
REMARK INTRA:                  -2.674
REMARK UNBOUND:                -3.078
REMARK SMILES CCCCCCCCCCCCCCCCCCCCCC(=O)[O-]
REMARK SMILES IDX 12 1 11 2 10 3 9 4 8 5 7 6 6 7 5 8 4 9 3 10 2 11 1 12 13 13
REMARK SMILES IDX 14 14 15 15 16 16 17 17 18 18 19 19 20 20 21 21 22 22 23 23
REMARK SMILES IDX 24 24
REMARK H PARENT
REMARK Flexibility Score: inf
ROOT
ATOM      1  C   UNL     1      -7.224  23.711 -14.348  1.00  0.00     0.000 C 
ENDROOT
BRANCH   1   2
ATOM      2  C   UNL     1      -6.369  24.985 -14.477  1.00  0.00     0.000 C 
BRANCH   2   3
ATOM      3  C   UNL     1      -4.891  24.747 -14.137  1.00  0.00     0.000 C 
BRANCH   3   4
ATOM      4  C   UNL     1      -4.480  25.540 -12.887  1.00  0.00    -0.000 C 
BRANCH   4   5
ATOM      5  C   UNL     1      -4.488  24.679 -11.614  1.00  0.00    -0.000 C 
BRANCH   5   6
ATOM      6  C   UNL     1      -4.277  23.184 -11.909  1.00  0.00    -0.000 C 
BRANCH   6   7
ATOM      7  C   UNL     1      -5.377  22.303 -11.293  1.00  0.00    -0.000 C 
BRANCH   7   8
ATOM      8  C   UNL     1      -5.648  21.036 -12.122  1.00  0.00    -0.000 C 
BRANCH   8   9
ATOM      9  C   UNL     1      -6.186  19.872 -11.271  1.00  0.00    -0.000 C 
BRANCH   9  10
ATOM     10  C   UNL     1      -6.196  20.127  -9.750  1.00  0.00    -0.000 C 
BRANCH  10  11
ATOM     11  C   UNL     1      -6.140  18.860  -8.878  1.00  0.00    -0.003 C 
ATOM     12  C   UNL     1      -7.200  18.848  -7.777  1.00  0.00     0.004 C 
ENDBRANCH  10  11
ENDBRANCH   9  10
ENDBRANCH   8   9
ENDBRANCH   7   8
ENDBRANCH   6   7
ENDBRANCH   5   6
ENDBRANCH   4   5
ENDBRANCH   3   4
ENDBRANCH   2   3
ENDBRANCH   1   2
BRANCH   1  13
ATOM     13  C   UNL     1      -8.177  23.688 -13.137  1.00  0.00     0.000 C 
BRANCH  13  14
ATOM     14  C   UNL     1      -8.456  25.063 -12.495  1.00  0.00     0.000 C 
BRANCH  14  15
ATOM     15  C   UNL     1      -8.649  25.043 -10.968  1.00  0.00     0.000 C 
BRANCH  15  16
ATOM     16  C   UNL     1      -7.516  25.762 -10.217  1.00  0.00     0.000 C 
BRANCH  16  17
ATOM     17  C   UNL     1      -7.259  27.179 -10.754  1.00  0.00     0.000 C 
BRANCH  17  18
ATOM     18  C   UNL     1      -8.350  28.178 -10.331  1.00  0.00     0.000 C 
BRANCH  18  19
ATOM     19  C   UNL     1      -7.780  29.412  -9.607  1.00  0.00     0.000 C 
BRANCH  19  20
ATOM     20  C   UNL     1      -6.347  29.208  -9.071  1.00  0.00     0.006 C 
BRANCH  20  21
ATOM     21  C   UNL     1      -5.585  30.534  -8.936  1.00  0.00     0.053 C 
BRANCH  21  22
ATOM     22  C   UNL     1      -5.514  30.954  -7.502  1.00  0.00     0.041 C 
ATOM     23  O   UNL     1      -6.392  31.717  -7.020  1.00  0.00    -0.550 OA
ATOM     24  O   UNL     1      -4.497  30.472  -6.686  1.00  0.00    -0.550 OA
ENDBRANCH  21  22
ENDBRANCH  20  21
ENDBRANCH  19  20
ENDBRANCH  18  19
ENDBRANCH  17  18
ENDBRANCH  16  17
ENDBRANCH  15  16
ENDBRANCH  14  15
ENDBRANCH  13  14
ENDBRANCH   1  13
TORSDOF 20
ENDMDL
MODEL 8
REMARK VINA RESULT:    -3.866      5.921      8.887
REMARK INTER + INTRA:         -11.463
REMARK INTER:                  -7.453
REMARK INTRA:                  -4.011
REMARK UNBOUND:                -3.078
REMARK SMILES CCCCCCCCCCCCCCCCCCCCCC(=O)[O-]
REMARK SMILES IDX 12 1 11 2 10 3 9 4 8 5 7 6 6 7 5 8 4 9 3 10 2 11 1 12 13 13
REMARK SMILES IDX 14 14 15 15 16 16 17 17 18 18 19 19 20 20 21 21 22 22 23 23
REMARK SMILES IDX 24 24
REMARK H PARENT
REMARK Flexibility Score: inf
ROOT
ATOM      1  C   UNL     1      -4.651  31.072  -7.553  1.00  0.00     0.000 C 
ENDROOT
BRANCH   1   2
ATOM      2  C   UNL     1      -5.118  30.624  -8.950  1.00  0.00     0.000 C 
BRANCH   2   3
ATOM      3  C   UNL     1      -6.555  30.083  -8.953  1.00  0.00     0.000 C 
BRANCH   3   4
ATOM      4  C   UNL     1      -6.590  28.620  -9.420  1.00  0.00    -0.000 C 
BRANCH   4   5
ATOM      5  C   UNL     1      -7.998  28.168  -9.838  1.00  0.00    -0.000 C 
BRANCH   5   6
ATOM      6  C   UNL     1      -8.259  26.683  -9.530  1.00  0.00    -0.000 C 
BRANCH   6   7
ATOM      7  C   UNL     1      -9.686  26.249  -9.900  1.00  0.00    -0.000 C 
BRANCH   7   8
ATOM      8  C   UNL     1     -10.727  27.348  -9.623  1.00  0.00    -0.000 C 
BRANCH   8   9
ATOM      9  C   UNL     1     -11.876  26.866  -8.721  1.00  0.00    -0.000 C 
BRANCH   9  10
ATOM     10  C   UNL     1     -12.499  27.953  -7.822  1.00  0.00    -0.000 C 
BRANCH  10  11
ATOM     11  C   UNL     1     -12.535  27.614  -6.321  1.00  0.00    -0.003 C 
ATOM     12  C   UNL     1     -12.895  28.814  -5.447  1.00  0.00     0.004 C 
ENDBRANCH  10  11
ENDBRANCH   9  10
ENDBRANCH   8   9
ENDBRANCH   7   8
ENDBRANCH   6   7
ENDBRANCH   5   6
ENDBRANCH   4   5
ENDBRANCH   3   4
ENDBRANCH   2   3
ENDBRANCH   1   2
BRANCH   1  13
ATOM     13  C   UNL     1      -5.712  31.821  -6.722  1.00  0.00     0.000 C 
BRANCH  13  14
ATOM     14  C   UNL     1      -5.921  31.286  -5.290  1.00  0.00     0.000 C 
BRANCH  14  15
ATOM     15  C   UNL     1      -5.891  29.752  -5.157  1.00  0.00     0.000 C 
BRANCH  15  16
ATOM     16  C   UNL     1      -7.261  29.162  -4.782  1.00  0.00     0.000 C 
BRANCH  16  17
ATOM     17  C   UNL     1      -7.827  28.243  -5.876  1.00  0.00     0.000 C 
BRANCH  17  18
ATOM     18  C   UNL     1      -9.138  28.779  -6.478  1.00  0.00     0.000 C 
BRANCH  18  19
ATOM     19  C   UNL     1      -9.449  30.222  -6.040  1.00  0.00     0.000 C 
BRANCH  19  20
ATOM     20  C   UNL     1      -9.414  31.242  -7.198  1.00  0.00     0.006 C 
BRANCH  20  21
ATOM     21  C   UNL     1     -10.320  30.824  -8.365  1.00  0.00     0.053 C 
BRANCH  21  22
ATOM     22  C   UNL     1     -11.479  31.762  -8.491  1.00  0.00     0.041 C 
ATOM     23  O   UNL     1     -11.341  32.865  -9.082  1.00  0.00    -0.550 OA
ATOM     24  O   UNL     1     -12.723  31.399  -7.989  1.00  0.00    -0.550 OA
ENDBRANCH  21  22
ENDBRANCH  20  21
ENDBRANCH  19  20
ENDBRANCH  18  19
ENDBRANCH  17  18
ENDBRANCH  16  17
ENDBRANCH  15  16
ENDBRANCH  14  15
ENDBRANCH  13  14
ENDBRANCH   1  13
TORSDOF 20
ENDMDL
MODEL 9
REMARK VINA RESULT:    -3.843      2.843      5.851
REMARK INTER + INTRA:         -11.414
REMARK INTER:                  -7.837
REMARK INTRA:                  -3.577
REMARK UNBOUND:                -3.078
REMARK SMILES CCCCCCCCCCCCCCCCCCCCCC(=O)[O-]
REMARK SMILES IDX 12 1 11 2 10 3 9 4 8 5 7 6 6 7 5 8 4 9 3 10 2 11 1 12 13 13
REMARK SMILES IDX 14 14 15 15 16 16 17 17 18 18 19 19 20 20 21 21 22 22 23 23
REMARK SMILES IDX 24 24
REMARK H PARENT
REMARK Flexibility Score: inf
ROOT
ATOM      1  C   UNL     1      -6.981  26.748  -8.007  1.00  0.00     0.000 C 
ENDROOT
BRANCH   1   2
ATOM      2  C   UNL     1      -6.820  28.225  -7.601  1.00  0.00     0.000 C 
BRANCH   2   3
ATOM      3  C   UNL     1      -6.127  29.067  -8.682  1.00  0.00     0.000 C 
BRANCH   3   4
ATOM      4  C   UNL     1      -6.884  30.382  -8.923  1.00  0.00    -0.000 C 
BRANCH   4   5
ATOM      5  C   UNL     1      -8.397  30.242  -8.695  1.00  0.00    -0.000 C 
BRANCH   5   6
ATOM      6  C   UNL     1      -9.147  29.791  -9.961  1.00  0.00    -0.000 C 
BRANCH   6   7
ATOM      7  C   UNL     1     -10.525  29.190  -9.644  1.00  0.00    -0.000 C 
BRANCH   7   8
ATOM      8  C   UNL     1     -10.452  28.079  -8.581  1.00  0.00    -0.000 C 
BRANCH   8   9
ATOM      9  C   UNL     1     -11.640  27.104  -8.657  1.00  0.00    -0.000 C 
BRANCH   9  10
ATOM     10  C   UNL     1     -11.843  26.429 -10.029  1.00  0.00    -0.000 C 
BRANCH  10  11
ATOM     11  C   UNL     1     -13.060  26.932 -10.826  1.00  0.00    -0.003 C 
ATOM     12  C   UNL     1     -13.923  27.916 -10.038  1.00  0.00     0.004 C 
ENDBRANCH  10  11
ENDBRANCH   9  10
ENDBRANCH   8   9
ENDBRANCH   7   8
ENDBRANCH   6   7
ENDBRANCH   5   6
ENDBRANCH   4   5
ENDBRANCH   3   4
ENDBRANCH   2   3
ENDBRANCH   1   2
BRANCH   1  13
ATOM     13  C   UNL     1      -6.997  26.489  -9.527  1.00  0.00     0.000 C 
BRANCH  13  14
ATOM     14  C   UNL     1      -8.023  25.441 -10.003  1.00  0.00     0.000 C 
BRANCH  14  15
ATOM     15  C   UNL     1      -8.687  25.747 -11.358  1.00  0.00     0.000 C 
BRANCH  15  16
ATOM     16  C   UNL     1      -8.179  27.057 -11.985  1.00  0.00     0.000 C 
BRANCH  16  17
ATOM     17  C   UNL     1      -7.973  26.942 -13.504  1.00  0.00     0.000 C 
BRANCH  17  18
ATOM     18  C   UNL     1      -6.726  26.119 -13.871  1.00  0.00     0.000 C 
BRANCH  18  19
ATOM     19  C   UNL     1      -5.468  26.569 -13.106  1.00  0.00     0.000 C 
BRANCH  19  20
ATOM     20  C   UNL     1      -4.801  25.440 -12.293  1.00  0.00     0.006 C 
BRANCH  20  21
ATOM     21  C   UNL     1      -4.793  24.105 -13.052  1.00  0.00     0.053 C 
BRANCH  21  22
ATOM     22  C   UNL     1      -5.465  23.039 -12.247  1.00  0.00     0.041 C 
ATOM     23  O   UNL     1      -6.722  22.981 -12.192  1.00  0.00    -0.550 OA
ATOM     24  O   UNL     1      -4.702  22.083 -11.587  1.00  0.00    -0.550 OA
ENDBRANCH  21  22
ENDBRANCH  20  21
ENDBRANCH  19  20
ENDBRANCH  18  19
ENDBRANCH  17  18
ENDBRANCH  16  17
ENDBRANCH  15  16
ENDBRANCH  14  15
ENDBRANCH  13  14
ENDBRANCH   1  13
TORSDOF 20
ENDMDL
