MODEL 1
REMARK VINA RESULT:    -5.727      0.000      0.000
REMARK INTER + INTRA:          -6.979
REMARK INTER:                  -6.732
REMARK INTRA:                  -0.247
REMARK UNBOUND:                -0.247
REMARK SMILES CCC=Cc1oc(O)c2c(O)cccc12
REMARK SMILES IDX 7 1 6 2 5 3 15 4 14 5 13 6 12 7 10 8 9 9 8 10 4 12 3 13 2 14
REMARK SMILES IDX 1 15 11 16
REMARK H PARENT 8 11 11 17
REMARK Flexibility Score: inf
ROOT
ATOM      1  C   UNL     1      18.645  13.190  20.150  1.00  0.00     0.294 A 
ATOM      2  O   UNL     1      19.443  12.576  19.301  1.00  0.00    -0.425 OA
ATOM      3  C   UNL     1      20.695  12.852  19.611  1.00  0.00     0.138 A 
ATOM      4  C   UNL     1      20.707  13.671  20.734  1.00  0.00     0.035 A 
ATOM      5  C   UNL     1      21.755  14.174  21.509  1.00  0.00     0.013 A 
ATOM      6  C   UNL     1      21.432  14.961  22.627  1.00  0.00     0.005 A 
ATOM      7  C   UNL     1      20.084  15.216  22.958  1.00  0.00     0.047 A 
ATOM      8  C   UNL     1      19.041  14.676  22.185  1.00  0.00     0.130 A 
ATOM      9  C   UNL     1      19.393  13.895  21.073  1.00  0.00     0.108 A 
ENDROOT
BRANCH   1  10
ATOM     10  O   UNL     1      17.258  13.106  20.102  1.00  0.00    -0.480 OA
ATOM     11  H   UNL     1      16.716  13.833  19.652  1.00  0.00     0.297 HD
ENDBRANCH   1  10
BRANCH   3  12
ATOM     12  C   UNL     1      21.837  12.320  18.850  1.00  0.00     0.043 C 
ATOM     13  C   UNL     1      22.366  12.957  17.800  1.00  0.00    -0.023 C 
BRANCH  13  14
ATOM     14  C   UNL     1      23.504  12.369  17.018  1.00  0.00     0.024 C 
ATOM     15  C   UNL     1      24.679  12.021  17.928  1.00  0.00     0.008 C 
ENDBRANCH  13  14
ENDBRANCH   3  12
BRANCH   8  16
ATOM     16  O   UNL     1      17.718  14.926  22.544  1.00  0.00    -0.507 OA
ATOM     17  H   UNL     1      17.026  14.195  22.632  1.00  0.00     0.293 HD
ENDBRANCH   8  16
TORSDOF 4
ENDMDL
MODEL 2
REMARK VINA RESULT:    -5.646      1.530      1.616
REMARK INTER + INTRA:          -6.884
REMARK INTER:                  -6.709
REMARK INTRA:                  -0.175
REMARK UNBOUND:                -0.247
REMARK SMILES CCC=Cc1oc(O)c2c(O)cccc12
REMARK SMILES IDX 7 1 6 2 5 3 15 4 14 5 13 6 12 7 10 8 9 9 8 10 4 12 3 13 2 14
REMARK SMILES IDX 1 15 11 16
REMARK H PARENT 8 11 11 17
REMARK Flexibility Score: inf
ROOT
ATOM      1  C   UNL     1      19.828  15.118  19.821  1.00  0.00     0.294 A 
ATOM      2  O   UNL     1      20.819  14.582  19.137  1.00  0.00    -0.425 OA
ATOM      3  C   UNL     1      21.687  14.056  19.979  1.00  0.00     0.138 A 
ATOM      4  C   UNL     1      21.223  14.244  21.275  1.00  0.00     0.035 A 
ATOM      5  C   UNL     1      21.711  13.811  22.511  1.00  0.00     0.013 A 
ATOM      6  C   UNL     1      20.978  14.141  23.664  1.00  0.00     0.005 A 
ATOM      7  C   UNL     1      19.777  14.874  23.563  1.00  0.00     0.047 A 
ATOM      8  C   UNL     1      19.283  15.274  22.308  1.00  0.00     0.130 A 
ATOM      9  C   UNL     1      20.037  14.933  21.174  1.00  0.00     0.108 A 
ENDROOT
BRANCH   1  10
ATOM     10  O   UNL     1      18.743  15.757  19.233  1.00  0.00    -0.480 OA
ATOM     11  H   UNL     1      17.845  15.294  19.174  1.00  0.00     0.297 HD
ENDBRANCH   1  10
BRANCH   3  12
ATOM     12  C   UNL     1      22.916  13.379  19.532  1.00  0.00     0.043 C 
ATOM     13  C   UNL     1      23.131  13.038  18.258  1.00  0.00    -0.023 C 
BRANCH  13  14
ATOM     14  C   UNL     1      24.376  12.311  17.841  1.00  0.00     0.024 C 
ATOM     15  C   UNL     1      24.394  12.061  16.336  1.00  0.00     0.008 C 
ENDBRANCH  13  14
ENDBRANCH   3  12
BRANCH   8  16
ATOM     16  O   UNL     1      18.084  15.980  22.234  1.00  0.00    -0.507 OA
ATOM     17  H   UNL     1      17.189  15.527  22.113  1.00  0.00     0.293 HD
ENDBRANCH   8  16
TORSDOF 4
ENDMDL
MODEL 3
REMARK VINA RESULT:    -5.326      1.764      2.712
REMARK INTER + INTRA:          -6.508
REMARK INTER:                  -6.327
REMARK INTRA:                  -0.182
REMARK UNBOUND:                -0.247
REMARK SMILES CCC=Cc1oc(O)c2c(O)cccc12
REMARK SMILES IDX 7 1 6 2 5 3 15 4 14 5 13 6 12 7 10 8 9 9 8 10 4 12 3 13 2 14
REMARK SMILES IDX 1 15 11 16
REMARK H PARENT 8 11 11 17
REMARK Flexibility Score: inf
ROOT
ATOM      1  C   UNL     1      21.510  14.175  21.826  1.00  0.00     0.294 A 
ATOM      2  O   UNL     1      22.111  13.783  20.721  1.00  0.00    -0.425 OA
ATOM      3  C   UNL     1      21.231  13.181  19.944  1.00  0.00     0.138 A 
ATOM      4  C   UNL     1      19.991  13.204  20.572  1.00  0.00     0.035 A 
ATOM      5  C   UNL     1      18.725  12.787  20.151  1.00  0.00     0.013 A 
ATOM      6  C   UNL     1      17.640  12.984  21.022  1.00  0.00     0.005 A 
ATOM      7  C   UNL     1      17.832  13.601  22.276  1.00  0.00     0.047 A 
ATOM      8  C   UNL     1      19.107  14.044  22.671  1.00  0.00     0.130 A 
ATOM      9  C   UNL     1      20.173  13.832  21.782  1.00  0.00     0.108 A 
ENDROOT
BRANCH   1  10
ATOM     10  O   UNL     1      22.157  14.845  22.858  1.00  0.00    -0.480 OA
ATOM     11  H   UNL     1      21.633  15.422  23.504  1.00  0.00     0.297 HD
ENDBRANCH   1  10
BRANCH   3  12
ATOM     12  C   UNL     1      21.584  12.620  18.630  1.00  0.00     0.043 C 
ATOM     13  C   UNL     1      22.487  13.185  17.822  1.00  0.00    -0.023 C 
BRANCH  13  14
ATOM     14  C   UNL     1      22.795  12.612  16.469  1.00  0.00     0.024 C 
ATOM     15  C   UNL     1      24.265  12.221  16.354  1.00  0.00     0.008 C 
ENDBRANCH  13  14
ENDBRANCH   3  12
BRANCH   8  16
ATOM     16  O   UNL     1      19.266  14.669  23.906  1.00  0.00    -0.507 OA
ATOM     17  H   UNL     1      19.433  15.661  24.000  1.00  0.00     0.293 HD
ENDBRANCH   8  16
TORSDOF 4
ENDMDL
MODEL 4
REMARK VINA RESULT:    -5.260      9.578     11.301
REMARK INTER + INTRA:          -6.430
REMARK INTER:                  -6.231
REMARK INTRA:                  -0.198
REMARK UNBOUND:                -0.247
REMARK SMILES CCC=Cc1oc(O)c2c(O)cccc12
REMARK SMILES IDX 7 1 6 2 5 3 15 4 14 5 13 6 12 7 10 8 9 9 8 10 4 12 3 13 2 14
REMARK SMILES IDX 1 15 11 16
REMARK H PARENT 8 11 11 17
REMARK Flexibility Score: inf
ROOT
ATOM      1  C   UNL     1      15.729  21.222  15.216  1.00  0.00     0.294 A 
ATOM      2  O   UNL     1      15.427  22.390  15.746  1.00  0.00    -0.425 OA
ATOM      3  C   UNL     1      14.842  22.194  16.911  1.00  0.00     0.138 A 
ATOM      4  C   UNL     1      14.781  20.828  17.158  1.00  0.00     0.035 A 
ATOM      5  C   UNL     1      14.345  20.099  18.267  1.00  0.00     0.013 A 
ATOM      6  C   UNL     1      14.449  18.698  18.221  1.00  0.00     0.005 A 
ATOM      7  C   UNL     1      14.996  18.058  17.090  1.00  0.00     0.047 A 
ATOM      8  C   UNL     1      15.459  18.808  15.994  1.00  0.00     0.130 A 
ATOM      9  C   UNL     1      15.341  20.205  16.066  1.00  0.00     0.108 A 
ENDROOT
BRANCH   1  10
ATOM     10  O   UNL     1      16.358  21.074  13.985  1.00  0.00    -0.480 OA
ATOM     11  H   UNL     1      17.195  20.512  13.900  1.00  0.00     0.297 HD
ENDBRANCH   1  10
BRANCH   3  12
ATOM     12  C   UNL     1      14.375  23.302  17.762  1.00  0.00     0.043 C 
ATOM     13  C   UNL     1      15.182  24.283  18.179  1.00  0.00    -0.023 C 
BRANCH  13  14
ATOM     14  C   UNL     1      14.685  25.376  19.080  1.00  0.00     0.024 C 
ATOM     15  C   UNL     1      15.840  26.211  19.626  1.00  0.00     0.008 C 
ENDBRANCH  13  14
ENDBRANCH   3  12
BRANCH   8  16
ATOM     16  O   UNL     1      16.014  18.152  14.896  1.00  0.00    -0.507 OA
ATOM     17  H   UNL     1      16.409  17.224  14.956  1.00  0.00     0.293 HD
ENDBRANCH   8  16
TORSDOF 4
ENDMDL
MODEL 5
REMARK VINA RESULT:    -5.189      1.835      4.694
REMARK INTER + INTRA:          -6.346
REMARK INTER:                  -6.167
REMARK INTRA:                  -0.179
REMARK UNBOUND:                -0.247
REMARK SMILES CCC=Cc1oc(O)c2c(O)cccc12
REMARK SMILES IDX 7 1 6 2 5 3 15 4 14 5 13 6 12 7 10 8 9 9 8 10 4 12 3 13 2 14
REMARK SMILES IDX 1 15 11 16
REMARK H PARENT 8 11 11 17
REMARK Flexibility Score: inf
ROOT
ATOM      1  C   UNL     1      18.935  14.827  22.288  1.00  0.00     0.294 A 
ATOM      2  O   UNL     1      19.943  15.305  22.990  1.00  0.00    -0.425 OA
ATOM      3  C   UNL     1      21.053  14.699  22.615  1.00  0.00     0.138 A 
ATOM      4  C   UNL     1      20.750  13.795  21.604  1.00  0.00     0.035 A 
ATOM      5  C   UNL     1      21.559  12.975  20.813  1.00  0.00     0.013 A 
ATOM      6  C   UNL     1      20.940  12.186  19.829  1.00  0.00     0.005 A 
ATOM      7  C   UNL     1      19.543  12.241  19.641  1.00  0.00     0.047 A 
ATOM      8  C   UNL     1      18.747  13.096  20.424  1.00  0.00     0.130 A 
ATOM      9  C   UNL     1      19.391  13.871  21.401  1.00  0.00     0.108 A 
ENDROOT
BRANCH   1  10
ATOM     10  O   UNL     1      17.621  15.254  22.437  1.00  0.00    -0.480 OA
ATOM     11  H   UNL     1      17.311  15.664  23.309  1.00  0.00     0.297 HD
ENDBRANCH   1  10
BRANCH   3  12
ATOM     12  C   UNL     1      22.364  15.003  23.212  1.00  0.00     0.043 C 
ATOM     13  C   UNL     1      22.497  15.660  24.369  1.00  0.00    -0.023 C 
BRANCH  13  14
ATOM     14  C   UNL     1      23.849  15.993  24.930  1.00  0.00     0.024 C 
ATOM     15  C   UNL     1      24.272  17.409  24.551  1.00  0.00     0.008 C 
ENDBRANCH  13  14
ENDBRANCH   3  12
BRANCH   8  16
ATOM     16  O   UNL     1      17.371  13.146  20.205  1.00  0.00    -0.507 OA
ATOM     17  H   UNL     1      16.721  13.508  20.889  1.00  0.00     0.293 HD
ENDBRANCH   8  16
TORSDOF 4
ENDMDL
MODEL 6
REMARK VINA RESULT:    -5.176      3.332      4.816
REMARK INTER + INTRA:          -6.331
REMARK INTER:                  -6.142
REMARK INTRA:                  -0.189
REMARK UNBOUND:                -0.247
REMARK SMILES CCC=Cc1oc(O)c2c(O)cccc12
REMARK SMILES IDX 7 1 6 2 5 3 15 4 14 5 13 6 12 7 10 8 9 9 8 10 4 12 3 13 2 14
REMARK SMILES IDX 1 15 11 16
REMARK H PARENT 8 11 11 17
REMARK Flexibility Score: inf
ROOT
ATOM      1  C   UNL     1      19.473  15.083  21.154  1.00  0.00     0.294 A 
ATOM      2  O   UNL     1      20.400  15.647  21.902  1.00  0.00    -0.425 OA
ATOM      3  C   UNL     1      20.486  14.995  23.045  1.00  0.00     0.138 A 
ATOM      4  C   UNL     1      19.580  13.941  23.028  1.00  0.00     0.035 A 
ATOM      5  C   UNL     1      19.333  12.910  23.938  1.00  0.00     0.013 A 
ATOM      6  C   UNL     1      18.355  11.957  23.607  1.00  0.00     0.005 A 
ATOM      7  C   UNL     1      17.661  12.038  22.382  1.00  0.00     0.047 A 
ATOM      8  C   UNL     1      17.945  13.065  21.463  1.00  0.00     0.130 A 
ATOM      9  C   UNL     1      18.924  14.004  21.820  1.00  0.00     0.108 A 
ENDROOT
BRANCH   1  10
ATOM     10  O   UNL     1      19.132  15.529  19.883  1.00  0.00    -0.480 OA
ATOM     11  H   UNL     1      19.553  15.112  19.062  1.00  0.00     0.297 HD
ENDBRANCH   1  10
BRANCH   3  12
ATOM     12  C   UNL     1      21.430  15.377  24.108  1.00  0.00     0.043 C 
ATOM     13  C   UNL     1      22.725  15.616  23.874  1.00  0.00    -0.023 C 
BRANCH  13  14
ATOM     14  C   UNL     1      23.671  15.962  24.986  1.00  0.00     0.024 C 
ATOM     15  C   UNL     1      24.469  17.222  24.662  1.00  0.00     0.008 C 
ENDBRANCH  13  14
ENDBRANCH   3  12
BRANCH   8  16
ATOM     16  O   UNL     1      17.259  13.111  20.250  1.00  0.00    -0.507 OA
ATOM     17  H   UNL     1      17.081  12.289  19.691  1.00  0.00     0.293 HD
ENDBRANCH   8  16
TORSDOF 4
ENDMDL
MODEL 7
REMARK VINA RESULT:    -5.022      2.479      3.231
REMARK INTER + INTRA:          -6.150
REMARK INTER:                  -5.885
REMARK INTRA:                  -0.265
REMARK UNBOUND:                -0.247
REMARK SMILES CCC=Cc1oc(O)c2c(O)cccc12
REMARK SMILES IDX 7 1 6 2 5 3 15 4 14 5 13 6 12 7 10 8 9 9 8 10 4 12 3 13 2 14
REMARK SMILES IDX 1 15 11 16
REMARK H PARENT 8 11 11 17
REMARK Flexibility Score: inf
ROOT
ATOM      1  C   UNL     1      20.784  12.002  23.436  1.00  0.00     0.294 A 
ATOM      2  O   UNL     1      21.795  11.875  22.601  1.00  0.00    -0.425 OA
ATOM      3  C   UNL     1      21.359  12.049  21.369  1.00  0.00     0.138 A 
ATOM      4  C   UNL     1      19.996  12.321  21.411  1.00  0.00     0.035 A 
ATOM      5  C   UNL     1      19.083  12.661  20.410  1.00  0.00     0.013 A 
ATOM      6  C   UNL     1      17.753  12.917  20.788  1.00  0.00     0.005 A 
ATOM      7  C   UNL     1      17.367  12.847  22.143  1.00  0.00     0.047 A 
ATOM      8  C   UNL     1      18.308  12.534  23.142  1.00  0.00     0.130 A 
ATOM      9  C   UNL     1      19.627  12.281  22.736  1.00  0.00     0.108 A 
ENDROOT
BRANCH   1  10
ATOM     10  O   UNL     1      20.904  11.876  24.816  1.00  0.00    -0.480 OA
ATOM     11  H   UNL     1      21.515  12.494  25.336  1.00  0.00     0.297 HD
ENDBRANCH   1  10
BRANCH   3  12
ATOM     12  C   UNL     1      22.243  11.968  20.194  1.00  0.00     0.043 C 
ATOM     13  C   UNL     1      22.700  13.051  19.558  1.00  0.00    -0.023 C 
BRANCH  13  14
ATOM     14  C   UNL     1      23.566  12.936  18.338  1.00  0.00     0.024 C 
ATOM     15  C   UNL     1      22.730  12.678  17.088  1.00  0.00     0.008 C 
ENDBRANCH  13  14
ENDBRANCH   3  12
BRANCH   8  16
ATOM     16  O   UNL     1      17.905  12.490  24.475  1.00  0.00    -0.507 OA
ATOM     17  H   UNL     1      16.942  12.602  24.760  1.00  0.00     0.293 HD
ENDBRANCH   8  16
TORSDOF 4
ENDMDL
MODEL 8
REMARK VINA RESULT:    -4.993      2.165      5.454
REMARK INTER + INTRA:          -6.116
REMARK INTER:                  -5.914
REMARK INTRA:                  -0.202
REMARK UNBOUND:                -0.247
REMARK SMILES CCC=Cc1oc(O)c2c(O)cccc12
REMARK SMILES IDX 7 1 6 2 5 3 15 4 14 5 13 6 12 7 10 8 9 9 8 10 4 12 3 13 2 14
REMARK SMILES IDX 1 15 11 16
REMARK H PARENT 8 11 11 17
REMARK Flexibility Score: inf
ROOT
ATOM      1  C   UNL     1      20.022  15.080  20.129  1.00  0.00     0.294 A 
ATOM      2  O   UNL     1      19.440  15.198  21.306  1.00  0.00    -0.425 OA
ATOM      3  C   UNL     1      20.091  14.458  22.183  1.00  0.00     0.138 A 
ATOM      4  C   UNL     1      21.162  13.846  21.544  1.00  0.00     0.035 A 
ATOM      5  C   UNL     1      22.198  13.041  22.026  1.00  0.00     0.013 A 
ATOM      6  C   UNL     1      23.171  12.598  21.113  1.00  0.00     0.005 A 
ATOM      7  C   UNL     1      23.103  12.975  19.755  1.00  0.00     0.047 A 
ATOM      8  C   UNL     1      22.070  13.812  19.293  1.00  0.00     0.130 A 
ATOM      9  C   UNL     1      21.112  14.237  20.226  1.00  0.00     0.108 A 
ENDROOT
BRANCH   1  10
ATOM     10  O   UNL     1      19.583  15.734  18.984  1.00  0.00    -0.480 OA
ATOM     11  H   UNL     1      19.201  16.669  19.041  1.00  0.00     0.297 HD
ENDBRANCH   1  10
BRANCH   3  12
ATOM     12  C   UNL     1      19.691  14.367  23.596  1.00  0.00     0.043 C 
ATOM     13  C   UNL     1      19.183  15.402  24.273  1.00  0.00    -0.023 C 
BRANCH  13  14
ATOM     14  C   UNL     1      18.824  15.289  25.725  1.00  0.00     0.024 C 
ATOM     15  C   UNL     1      18.261  13.908  26.051  1.00  0.00     0.008 C 
ENDBRANCH  13  14
ENDBRANCH   3  12
BRANCH   8  16
ATOM     16  O   UNL     1      22.037  14.185  17.951  1.00  0.00    -0.507 OA
ATOM     17  H   UNL     1      21.555  13.647  17.245  1.00  0.00     0.293 HD
ENDBRANCH   8  16
TORSDOF 4
ENDMDL
MODEL 9
REMARK VINA RESULT:    -4.875      9.690     11.684
REMARK INTER + INTRA:          -5.977
REMARK INTER:                  -5.802
REMARK INTRA:                  -0.175
REMARK UNBOUND:                -0.247
REMARK SMILES CCC=Cc1oc(O)c2c(O)cccc12
REMARK SMILES IDX 7 1 6 2 5 3 15 4 14 5 13 6 12 7 10 8 9 9 8 10 4 12 3 13 2 14
REMARK SMILES IDX 1 15 11 16
REMARK H PARENT 8 11 11 17
REMARK Flexibility Score: inf
ROOT
ATOM      1  C   UNL     1      15.229  22.335  16.146  1.00  0.00     0.294 A 
ATOM      2  O   UNL     1      14.939  23.138  17.149  1.00  0.00    -0.425 OA
ATOM      3  C   UNL     1      14.561  22.413  18.184  1.00  0.00     0.138 A 
ATOM      4  C   UNL     1      14.631  21.069  17.838  1.00  0.00     0.035 A 
ATOM      5  C   UNL     1      14.425  19.903  18.581  1.00  0.00     0.013 A 
ATOM      6  C   UNL     1      14.613  18.668  17.938  1.00  0.00     0.005 A 
ATOM      7  C   UNL     1      15.014  18.617  16.587  1.00  0.00     0.047 A 
ATOM      8  C   UNL     1      15.247  19.800  15.862  1.00  0.00     0.130 A 
ATOM      9  C   UNL     1      15.050  21.020  16.528  1.00  0.00     0.108 A 
ENDROOT
BRANCH   1  10
ATOM     10  O   UNL     1      15.662  22.781  14.902  1.00  0.00    -0.480 OA
ATOM     11  H   UNL     1      15.183  22.493  14.058  1.00  0.00     0.297 HD
ENDBRANCH   1  10
BRANCH   3  12
ATOM     12  C   UNL     1      14.164  23.010  19.469  1.00  0.00     0.043 C 
ATOM     13  C   UNL     1      14.419  24.284  19.785  1.00  0.00    -0.023 C 
BRANCH  13  14
ATOM     14  C   UNL     1      14.039  24.853  21.121  1.00  0.00     0.024 C 
ATOM     15  C   UNL     1      15.081  25.852  21.615  1.00  0.00     0.008 C 
ENDBRANCH  13  14
ENDBRANCH   3  12
BRANCH   8  16
ATOM     16  O   UNL     1      15.661  19.723  14.534  1.00  0.00    -0.507 OA
ATOM     17  H   UNL     1      16.599  19.954  14.239  1.00  0.00     0.293 HD
ENDBRANCH   8  16
TORSDOF 4
ENDMDL
