MODEL 1
REMARK VINA RESULT:    -6.405      0.000      0.000
REMARK INTER + INTRA:         -12.321
REMARK INTER:                 -11.273
REMARK INTRA:                  -1.048
REMARK UNBOUND:                -1.048
REMARK SMILES CCCCCCCCCCCCCCC(=O)[O-]
REMARK SMILES IDX 9 1 10 2 11 3 12 4 13 5 14 6 15 7 16 8 17 9 8 10 7 11 6 12
REMARK SMILES IDX 5 13 4 14 3 15 2 16 1 17
REMARK H PARENT
REMARK Flexibility Score: inf
ROOT
ATOM      1  C   UNL     1      93.030 123.374 122.476  1.00  0.00     0.000 C 
ENDROOT
BRANCH   1   2
ATOM      2  C   UNL     1      93.339 123.877 123.898  1.00  0.00     0.000 C 
BRANCH   2   3
ATOM      3  C   UNL     1      93.752 122.745 124.854  1.00  0.00     0.000 C 
BRANCH   3   4
ATOM      4  C   UNL     1      95.121 122.997 125.508  1.00  0.00     0.000 C 
BRANCH   4   5
ATOM      5  C   UNL     1      96.181 123.475 124.500  1.00  0.00     0.006 C 
BRANCH   5   6
ATOM      6  C   UNL     1      96.709 124.876 124.838  1.00  0.00     0.053 C 
BRANCH   6   7
ATOM      7  C   UNL     1      97.506 124.879 126.107  1.00  0.00     0.041 C 
ATOM      8  O   UNL     1      97.313 125.769 126.977  1.00  0.00    -0.550 OA
ATOM      9  O   UNL     1      98.443 123.879 126.341  1.00  0.00    -0.550 OA
ENDBRANCH   6   7
ENDBRANCH   5   6
ENDBRANCH   4   5
ENDBRANCH   3   4
ENDBRANCH   2   3
ENDBRANCH   1   2
BRANCH   1  10
ATOM     10  C   UNL     1      93.030 121.841 122.307  1.00  0.00     0.000 C 
BRANCH  10  11
ATOM     11  C   UNL     1      93.525 121.333 120.941  1.00  0.00    -0.000 C 
BRANCH  11  12
ATOM     12  C   UNL     1      94.558 122.269 120.295  1.00  0.00    -0.000 C 
BRANCH  12  13
ATOM     13  C   UNL     1      94.379 122.312 118.770  1.00  0.00    -0.000 C 
BRANCH  13  14
ATOM     14  C   UNL     1      93.065 122.985 118.344  1.00  0.00    -0.000 C 
BRANCH  14  15
ATOM     15  C   UNL     1      92.090 122.004 117.669  1.00  0.00    -0.000 C 
BRANCH  15  16
ATOM     16  C   UNL     1      92.235 121.990 116.139  1.00  0.00    -0.003 C 
ATOM     17  C   UNL     1      92.987 120.762 115.627  1.00  0.00     0.004 C 
ENDBRANCH  15  16
ENDBRANCH  14  15
ENDBRANCH  13  14
ENDBRANCH  12  13
ENDBRANCH  11  12
ENDBRANCH  10  11
ENDBRANCH   1  10
TORSDOF 13
ENDMDL
MODEL 2
REMARK VINA RESULT:    -5.940      0.779      1.459
REMARK INTER + INTRA:         -11.502
REMARK INTER:                 -10.864
REMARK INTRA:                  -0.638
REMARK UNBOUND:                -1.048
REMARK SMILES CCCCCCCCCCCCCCC(=O)[O-]
REMARK SMILES IDX 9 1 10 2 11 3 12 4 13 5 14 6 15 7 16 8 17 9 8 10 7 11 6 12
REMARK SMILES IDX 5 13 4 14 3 15 2 16 1 17
REMARK H PARENT
REMARK Flexibility Score: inf
ROOT
ATOM      1  C   UNL     1      92.907 122.226 122.583  1.00  0.00     0.000 C 
ENDROOT
BRANCH   1   2
ATOM      2  C   UNL     1      93.771 123.232 123.366  1.00  0.00     0.000 C 
BRANCH   2   3
ATOM      3  C   UNL     1      93.786 122.952 124.879  1.00  0.00     0.000 C 
BRANCH   3   4
ATOM      4  C   UNL     1      95.189 123.100 125.491  1.00  0.00     0.000 C 
BRANCH   4   5
ATOM      5  C   UNL     1      96.234 123.582 124.469  1.00  0.00     0.006 C 
BRANCH   5   6
ATOM      6  C   UNL     1      96.801 124.962 124.830  1.00  0.00     0.053 C 
BRANCH   6   7
ATOM      7  C   UNL     1      97.531 124.939 126.139  1.00  0.00     0.041 C 
ATOM      8  O   UNL     1      98.467 124.118 126.330  1.00  0.00    -0.550 OA
ATOM      9  O   UNL     1      97.195 125.845 127.137  1.00  0.00    -0.550 OA
ENDBRANCH   6   7
ENDBRANCH   5   6
ENDBRANCH   4   5
ENDBRANCH   3   4
ENDBRANCH   2   3
ENDBRANCH   1   2
BRANCH   1  10
ATOM     10  C   UNL     1      93.202 122.144 121.071  1.00  0.00     0.000 C 
BRANCH  10  11
ATOM     11  C   UNL     1      94.689 122.255 120.688  1.00  0.00    -0.000 C 
BRANCH  11  12
ATOM     12  C   UNL     1      94.906 122.407 119.175  1.00  0.00    -0.000 C 
BRANCH  12  13
ATOM     13  C   UNL     1      94.506 121.123 118.434  1.00  0.00    -0.000 C 
BRANCH  13  14
ATOM     14  C   UNL     1      93.026 121.114 118.017  1.00  0.00    -0.000 C 
BRANCH  14  15
ATOM     15  C   UNL     1      92.841 121.141 116.490  1.00  0.00    -0.000 C 
BRANCH  15  16
ATOM     16  C   UNL     1      92.048 122.368 116.015  1.00  0.00    -0.003 C 
ATOM     17  C   UNL     1      92.401 123.638 116.790  1.00  0.00     0.004 C 
ENDBRANCH  15  16
ENDBRANCH  14  15
ENDBRANCH  13  14
ENDBRANCH  12  13
ENDBRANCH  11  12
ENDBRANCH  10  11
ENDBRANCH   1  10
TORSDOF 13
ENDMDL
MODEL 3
REMARK VINA RESULT:    -5.894      4.304      8.273
REMARK INTER + INTRA:         -11.422
REMARK INTER:                 -10.452
REMARK INTRA:                  -0.970
REMARK UNBOUND:                -1.048
REMARK SMILES CCCCCCCCCCCCCCC(=O)[O-]
REMARK SMILES IDX 9 1 10 2 11 3 12 4 13 5 14 6 15 7 16 8 17 9 8 10 7 11 6 12
REMARK SMILES IDX 5 13 4 14 3 15 2 16 1 17
REMARK H PARENT
REMARK Flexibility Score: inf
ROOT
ATOM      1  C   UNL     1      93.048 121.841 122.310  1.00  0.00     0.000 C 
ENDROOT
BRANCH   1   2
ATOM      2  C   UNL     1      93.733 121.288 121.046  1.00  0.00     0.000 C 
BRANCH   2   3
ATOM      3  C   UNL     1      94.731 122.281 120.428  1.00  0.00     0.000 C 
BRANCH   3   4
ATOM      4  C   UNL     1      94.613 122.359 118.896  1.00  0.00     0.000 C 
BRANCH   4   5
ATOM      5  C   UNL     1      93.767 121.216 118.308  1.00  0.00     0.006 C 
BRANCH   5   6
ATOM      6  C   UNL     1      92.372 121.691 117.879  1.00  0.00     0.053 C 
BRANCH   6   7
ATOM      7  C   UNL     1      92.321 122.015 116.416  1.00  0.00     0.041 C 
ATOM      8  O   UNL     1      91.903 123.138 116.029  1.00  0.00    -0.550 OA
ATOM      9  O   UNL     1      92.763 121.085 115.483  1.00  0.00    -0.550 OA
ENDBRANCH   6   7
ENDBRANCH   5   6
ENDBRANCH   4   5
ENDBRANCH   3   4
ENDBRANCH   2   3
ENDBRANCH   1   2
BRANCH   1  10
ATOM     10  C   UNL     1      93.103 123.374 122.470  1.00  0.00     0.000 C 
BRANCH  10  11
ATOM     11  C   UNL     1      93.639 123.871 123.825  1.00  0.00    -0.000 C 
BRANCH  11  12
ATOM     12  C   UNL     1      93.488 122.831 124.944  1.00  0.00    -0.000 C 
BRANCH  12  13
ATOM     13  C   UNL     1      94.810 122.648 125.704  1.00  0.00    -0.000 C 
BRANCH  13  14
ATOM     14  C   UNL     1      95.997 123.329 125.004  1.00  0.00    -0.000 C 
BRANCH  14  15
ATOM     15  C   UNL     1      97.295 123.247 125.826  1.00  0.00    -0.000 C 
BRANCH  15  16
ATOM     16  C   UNL     1      97.887 124.632 126.131  1.00  0.00    -0.003 C 
ATOM     17  C   UNL     1      97.312 125.731 125.238  1.00  0.00     0.004 C 
ENDBRANCH  15  16
ENDBRANCH  14  15
ENDBRANCH  13  14
ENDBRANCH  12  13
ENDBRANCH  11  12
ENDBRANCH  10  11
ENDBRANCH   1  10
TORSDOF 13
ENDMDL
MODEL 4
REMARK VINA RESULT:    -5.602      3.887      8.165
REMARK INTER + INTRA:         -10.907
REMARK INTER:                 -10.235
REMARK INTRA:                  -0.672
REMARK UNBOUND:                -1.048
REMARK SMILES CCCCCCCCCCCCCCC(=O)[O-]
REMARK SMILES IDX 9 1 10 2 11 3 12 4 13 5 14 6 15 7 16 8 17 9 8 10 7 11 6 12
REMARK SMILES IDX 5 13 4 14 3 15 2 16 1 17
REMARK H PARENT
REMARK Flexibility Score: inf
ROOT
ATOM      1  C   UNL     1      93.794 122.246 121.214  1.00  0.00     0.000 C 
ENDROOT
BRANCH   1   2
ATOM      2  C   UNL     1      93.390 121.197 120.161  1.00  0.00     0.000 C 
BRANCH   2   3
ATOM      3  C   UNL     1      94.509 120.914 119.144  1.00  0.00     0.000 C 
BRANCH   3   4
ATOM      4  C   UNL     1      93.994 120.886 117.695  1.00  0.00     0.000 C 
BRANCH   4   5
ATOM      5  C   UNL     1      92.532 121.351 117.576  1.00  0.00     0.006 C 
BRANCH   5   6
ATOM      6  C   UNL     1      92.342 122.382 116.456  1.00  0.00     0.053 C 
BRANCH   6   7
ATOM      7  C   UNL     1      92.599 123.778 116.935  1.00  0.00     0.041 C 
ATOM      8  O   UNL     1      93.109 123.977 118.069  1.00  0.00    -0.550 OA
ATOM      9  O   UNL     1      92.303 124.860 116.114  1.00  0.00    -0.550 OA
ENDBRANCH   6   7
ENDBRANCH   5   6
ENDBRANCH   4   5
ENDBRANCH   3   4
ENDBRANCH   2   3
ENDBRANCH   1   2
BRANCH   1  10
ATOM     10  C   UNL     1      92.819 122.395 122.400  1.00  0.00     0.000 C 
BRANCH  10  11
ATOM     11  C   UNL     1      93.189 123.489 123.417  1.00  0.00    -0.000 C 
BRANCH  11  12
ATOM     12  C   UNL     1      93.222 122.974 124.863  1.00  0.00    -0.000 C 
BRANCH  12  13
ATOM     13  C   UNL     1      94.656 122.626 125.289  1.00  0.00    -0.000 C 
BRANCH  13  14
ATOM     14  C   UNL     1      95.666 123.728 124.928  1.00  0.00    -0.000 C 
BRANCH  14  15
ATOM     15  C   UNL     1      97.022 123.539 125.630  1.00  0.00    -0.000 C 
BRANCH  15  16
ATOM     16  C   UNL     1      97.633 124.870 126.097  1.00  0.00    -0.003 C 
ATOM     17  C   UNL     1      97.410 126.007 125.099  1.00  0.00     0.004 C 
ENDBRANCH  15  16
ENDBRANCH  14  15
ENDBRANCH  13  14
ENDBRANCH  12  13
ENDBRANCH  11  12
ENDBRANCH  10  11
ENDBRANCH   1  10
TORSDOF 13
ENDMDL
MODEL 5
REMARK VINA RESULT:    -5.111      4.454      8.418
REMARK INTER + INTRA:         -10.044
REMARK INTER:                  -9.568
REMARK INTRA:                  -0.475
REMARK UNBOUND:                -1.048
REMARK SMILES CCCCCCCCCCCCCCC(=O)[O-]
REMARK SMILES IDX 9 1 10 2 11 3 12 4 13 5 14 6 15 7 16 8 17 9 8 10 7 11 6 12
REMARK SMILES IDX 5 13 4 14 3 15 2 16 1 17
REMARK H PARENT
REMARK Flexibility Score: inf
ROOT
ATOM      1  C   UNL     1      93.653 123.490 124.321  1.00  0.00     0.000 C 
ENDROOT
BRANCH   1   2
ATOM      2  C   UNL     1      93.116 122.457 123.314  1.00  0.00     0.000 C 
BRANCH   2   3
ATOM      3  C   UNL     1      93.652 122.680 121.889  1.00  0.00     0.000 C 
BRANCH   3   4
ATOM      4  C   UNL     1      93.187 121.591 120.908  1.00  0.00     0.000 C 
BRANCH   4   5
ATOM      5  C   UNL     1      93.807 121.750 119.509  1.00  0.00     0.006 C 
BRANCH   5   6
ATOM      6  C   UNL     1      92.788 121.487 118.392  1.00  0.00     0.053 C 
BRANCH   6   7
ATOM      7  C   UNL     1      92.590 122.693 117.524  1.00  0.00     0.041 C 
ATOM      8  O   UNL     1      93.010 123.820 117.897  1.00  0.00    -0.550 OA
ATOM      9  O   UNL     1      91.967 122.565 116.289  1.00  0.00    -0.550 OA
ENDBRANCH   6   7
ENDBRANCH   5   6
ENDBRANCH   4   5
ENDBRANCH   3   4
ENDBRANCH   2   3
ENDBRANCH   1   2
BRANCH   1  10
ATOM     10  C   UNL     1      94.901 123.049 125.113  1.00  0.00     0.000 C 
BRANCH  10  11
ATOM     11  C   UNL     1      96.224 123.695 124.663  1.00  0.00    -0.000 C 
BRANCH  11  12
ATOM     12  C   UNL     1      96.857 124.577 125.749  1.00  0.00    -0.000 C 
BRANCH  12  13
ATOM     13  C   UNL     1      98.236 124.038 126.157  1.00  0.00    -0.000 C 
BRANCH  13  14
ATOM     14  C   UNL     1      98.288 122.501 126.187  1.00  0.00    -0.000 C 
BRANCH  14  15
ATOM     15  C   UNL     1      99.727 121.958 126.140  1.00  0.00    -0.000 C 
BRANCH  15  16
ATOM     16  C   UNL     1      99.806 120.470 126.516  1.00  0.00    -0.003 C 
ATOM     17  C   UNL     1     100.993 119.757 125.869  1.00  0.00     0.004 C 
ENDBRANCH  15  16
ENDBRANCH  14  15
ENDBRANCH  13  14
ENDBRANCH  12  13
ENDBRANCH  11  12
ENDBRANCH  10  11
ENDBRANCH   1  10
TORSDOF 13
ENDMDL
MODEL 6
REMARK VINA RESULT:    -4.849      2.962      4.332
REMARK INTER + INTRA:          -9.583
REMARK INTER:                  -9.002
REMARK INTRA:                  -0.581
REMARK UNBOUND:                -1.048
REMARK SMILES CCCCCCCCCCCCCCC(=O)[O-]
REMARK SMILES IDX 9 1 10 2 11 3 12 4 13 5 14 6 15 7 16 8 17 9 8 10 7 11 6 12
REMARK SMILES IDX 5 13 4 14 3 15 2 16 1 17
REMARK H PARENT
REMARK Flexibility Score: inf
ROOT
ATOM      1  C   UNL     1      96.163 123.386 124.530  1.00  0.00     0.000 C 
ENDROOT
BRANCH   1   2
ATOM      2  C   UNL     1      96.897 124.490 125.311  1.00  0.00     0.000 C 
BRANCH   2   3
ATOM      3  C   UNL     1      97.985 123.935 126.247  1.00  0.00     0.000 C 
BRANCH   3   4
ATOM      4  C   UNL     1      98.159 122.413 126.110  1.00  0.00     0.000 C 
BRANCH   4   5
ATOM      5  C   UNL     1      99.636 121.990 126.036  1.00  0.00     0.006 C 
BRANCH   5   6
ATOM      6  C   UNL     1      99.839 120.526 126.447  1.00  0.00     0.053 C 
BRANCH   6   7
ATOM      7  C   UNL     1     101.021 119.913 125.758  1.00  0.00     0.041 C 
ATOM      8  O   UNL     1     102.037 119.574 126.420  1.00  0.00    -0.550 OA
ATOM      9  O   UNL     1     100.985 119.688 124.387  1.00  0.00    -0.550 OA
ENDBRANCH   6   7
ENDBRANCH   5   6
ENDBRANCH   4   5
ENDBRANCH   3   4
ENDBRANCH   2   3
ENDBRANCH   1   2
BRANCH   1  10
ATOM     10  C   UNL     1      94.830 122.918 125.150  1.00  0.00     0.000 C 
BRANCH  10  11
ATOM     11  C   UNL     1      93.564 123.486 124.484  1.00  0.00    -0.000 C 
BRANCH  11  12
ATOM     12  C   UNL     1      93.584 123.357 122.954  1.00  0.00    -0.000 C 
BRANCH  12  13
ATOM     13  C   UNL     1      93.096 121.969 122.516  1.00  0.00    -0.000 C 
BRANCH  13  14
ATOM     14  C   UNL     1      93.373 121.682 121.031  1.00  0.00    -0.000 C 
BRANCH  14  15
ATOM     15  C   UNL     1      92.726 122.720 120.098  1.00  0.00    -0.000 C 
BRANCH  15  16
ATOM     16  C   UNL     1      92.665 122.242 118.639  1.00  0.00    -0.003 C 
ATOM     17  C   UNL     1      93.774 121.247 118.295  1.00  0.00     0.004 C 
ENDBRANCH  15  16
ENDBRANCH  14  15
ENDBRANCH  13  14
ENDBRANCH  12  13
ENDBRANCH  11  12
ENDBRANCH  10  11
ENDBRANCH   1  10
TORSDOF 13
ENDMDL
MODEL 7
REMARK VINA RESULT:    -4.513     10.646     12.192
REMARK INTER + INTRA:          -8.992
REMARK INTER:                  -7.257
REMARK INTRA:                  -1.735
REMARK UNBOUND:                -1.048
REMARK SMILES CCCCCCCCCCCCCCC(=O)[O-]
REMARK SMILES IDX 9 1 10 2 11 3 12 4 13 5 14 6 15 7 16 8 17 9 8 10 7 11 6 12
REMARK SMILES IDX 5 13 4 14 3 15 2 16 1 17
REMARK H PARENT
REMARK Flexibility Score: inf
ROOT
ATOM      1  C   UNL     1      84.117 126.937 131.293  1.00  0.00     0.000 C 
ENDROOT
BRANCH   1   2
ATOM      2  C   UNL     1      84.307 125.516 131.854  1.00  0.00     0.000 C 
BRANCH   2   3
ATOM      3  C   UNL     1      85.663 125.330 132.556  1.00  0.00     0.000 C 
BRANCH   3   4
ATOM      4  C   UNL     1      86.702 124.640 131.657  1.00  0.00     0.000 C 
BRANCH   4   5
ATOM      5  C   UNL     1      86.130 123.419 130.917  1.00  0.00     0.006 C 
BRANCH   5   6
ATOM      6  C   UNL     1      87.098 122.879 129.856  1.00  0.00     0.053 C 
BRANCH   6   7
ATOM      7  C   UNL     1      87.472 121.452 130.119  1.00  0.00     0.041 C 
ATOM      8  O   UNL     1      86.713 120.518 129.748  1.00  0.00    -0.550 OA
ATOM      9  O   UNL     1      88.675 121.154 130.748  1.00  0.00    -0.550 OA
ENDBRANCH   6   7
ENDBRANCH   5   6
ENDBRANCH   4   5
ENDBRANCH   3   4
ENDBRANCH   2   3
ENDBRANCH   1   2
BRANCH   1  10
ATOM     10  C   UNL     1      84.090 127.038 129.754  1.00  0.00     0.000 C 
BRANCH  10  11
ATOM     11  C   UNL     1      85.469 127.179 129.084  1.00  0.00    -0.000 C 
BRANCH  11  12
ATOM     12  C   UNL     1      85.833 125.972 128.207  1.00  0.00    -0.000 C 
BRANCH  12  13
ATOM     13  C   UNL     1      84.601 125.094 127.946  1.00  0.00    -0.000 C 
BRANCH  13  14
ATOM     14  C   UNL     1      84.906 123.898 127.029  1.00  0.00    -0.000 C 
BRANCH  14  15
ATOM     15  C   UNL     1      83.847 122.787 127.135  1.00  0.00    -0.000 C 
BRANCH  15  16
ATOM     16  C   UNL     1      84.283 121.491 126.433  1.00  0.00    -0.003 C 
ATOM     17  C   UNL     1      84.079 121.540 124.918  1.00  0.00     0.004 C 
ENDBRANCH  15  16
ENDBRANCH  14  15
ENDBRANCH  13  14
ENDBRANCH  12  13
ENDBRANCH  11  12
ENDBRANCH  10  11
ENDBRANCH   1  10
TORSDOF 13
ENDMDL
MODEL 8
REMARK VINA RESULT:    -4.486     11.453     14.175
REMARK INTER + INTRA:          -8.944
REMARK INTER:                  -7.493
REMARK INTRA:                  -1.451
REMARK UNBOUND:                -1.048
REMARK SMILES CCCCCCCCCCCCCCC(=O)[O-]
REMARK SMILES IDX 9 1 10 2 11 3 12 4 13 5 14 6 15 7 16 8 17 9 8 10 7 11 6 12
REMARK SMILES IDX 5 13 4 14 3 15 2 16 1 17
REMARK H PARENT
REMARK Flexibility Score: inf
ROOT
ATOM      1  C   UNL     1      85.138 123.936 127.634  1.00  0.00     0.000 C 
ENDROOT
BRANCH   1   2
ATOM      2  C   UNL     1      83.944 124.553 126.882  1.00  0.00     0.000 C 
BRANCH   2   3
ATOM      3  C   UNL     1      83.784 123.994 125.458  1.00  0.00     0.000 C 
BRANCH   3   4
ATOM      4  C   UNL     1      84.503 122.648 125.269  1.00  0.00     0.000 C 
BRANCH   4   5
ATOM      5  C   UNL     1      83.543 121.515 124.867  1.00  0.00     0.006 C 
BRANCH   5   6
ATOM      6  C   UNL     1      82.605 121.929 123.726  1.00  0.00     0.053 C 
BRANCH   6   7
ATOM      7  C   UNL     1      82.565 120.900 122.638  1.00  0.00     0.041 C 
ATOM      8  O   UNL     1      82.520 121.254 121.430  1.00  0.00    -0.550 OA
ATOM      9  O   UNL     1      82.606 119.548 122.958  1.00  0.00    -0.550 OA
ENDBRANCH   6   7
ENDBRANCH   5   6
ENDBRANCH   4   5
ENDBRANCH   3   4
ENDBRANCH   2   3
ENDBRANCH   1   2
BRANCH   1  10
ATOM     10  C   UNL     1      86.113 124.952 128.265  1.00  0.00     0.000 C 
BRANCH  10  11
ATOM     11  C   UNL     1      85.671 126.424 128.177  1.00  0.00    -0.000 C 
BRANCH  11  12
ATOM     12  C   UNL     1      85.362 127.037 129.551  1.00  0.00    -0.000 C 
BRANCH  12  13
ATOM     13  C   UNL     1      83.967 126.616 130.037  1.00  0.00    -0.000 C 
BRANCH  13  14
ATOM     14  C   UNL     1      83.993 125.979 131.436  1.00  0.00    -0.000 C 
BRANCH  14  15
ATOM     15  C   UNL     1      84.131 124.448 131.387  1.00  0.00    -0.000 C 
BRANCH  15  16
ATOM     16  C   UNL     1      85.550 123.973 131.739  1.00  0.00    -0.003 C 
ATOM     17  C   UNL     1      86.342 125.013 132.532  1.00  0.00     0.004 C 
ENDBRANCH  15  16
ENDBRANCH  14  15
ENDBRANCH  13  14
ENDBRANCH  12  13
ENDBRANCH  11  12
ENDBRANCH  10  11
ENDBRANCH   1  10
TORSDOF 13
ENDMDL
MODEL 9
REMARK VINA RESULT:    -4.445     10.993     13.687
REMARK INTER + INTRA:          -8.871
REMARK INTER:                  -7.105
REMARK INTRA:                  -1.767
REMARK UNBOUND:                -1.048
REMARK SMILES CCCCCCCCCCCCCCC(=O)[O-]
REMARK SMILES IDX 9 1 10 2 11 3 12 4 13 5 14 6 15 7 16 8 17 9 8 10 7 11 6 12
REMARK SMILES IDX 5 13 4 14 3 15 2 16 1 17
REMARK H PARENT
REMARK Flexibility Score: inf
ROOT
ATOM      1  C   UNL     1      84.949 124.590 127.749  1.00  0.00     0.000 C 
ENDROOT
BRANCH   1   2
ATOM      2  C   UNL     1      83.414 124.475 127.791  1.00  0.00     0.000 C 
BRANCH   2   3
ATOM      3  C   UNL     1      82.778 124.471 126.391  1.00  0.00     0.000 C 
BRANCH   3   4
ATOM      4  C   UNL     1      83.742 123.958 125.308  1.00  0.00     0.000 C 
BRANCH   4   5
ATOM      5  C   UNL     1      83.262 122.647 124.661  1.00  0.00     0.006 C 
BRANCH   5   6
ATOM      6  C   UNL     1      84.115 121.445 125.088  1.00  0.00     0.053 C 
BRANCH   6   7
ATOM      7  C   UNL     1      83.796 121.004 126.484  1.00  0.00     0.041 C 
ATOM      8  O   UNL     1      84.688 121.014 127.373  1.00  0.00    -0.550 OA
ATOM      9  O   UNL     1      82.503 120.610 126.809  1.00  0.00    -0.550 OA
ENDBRANCH   6   7
ENDBRANCH   5   6
ENDBRANCH   4   5
ENDBRANCH   3   4
ENDBRANCH   2   3
ENDBRANCH   1   2
BRANCH   1  10
ATOM     10  C   UNL     1      85.525 125.905 128.314  1.00  0.00     0.000 C 
BRANCH  10  11
ATOM     11  C   UNL     1      84.521 126.781 129.084  1.00  0.00    -0.000 C 
BRANCH  11  12
ATOM     12  C   UNL     1      84.858 126.903 130.577  1.00  0.00    -0.000 C 
BRANCH  12  13
ATOM     13  C   UNL     1      84.757 125.538 131.274  1.00  0.00    -0.000 C 
BRANCH  13  14
ATOM     14  C   UNL     1      85.915 125.283 132.252  1.00  0.00    -0.000 C 
BRANCH  14  15
ATOM     15  C   UNL     1      87.048 124.452 131.625  1.00  0.00    -0.000 C 
BRANCH  15  16
ATOM     16  C   UNL     1      86.533 123.170 130.952  1.00  0.00    -0.003 C 
ATOM     17  C   UNL     1      87.418 122.714 129.792  1.00  0.00     0.004 C 
ENDBRANCH  15  16
ENDBRANCH  14  15
ENDBRANCH  13  14
ENDBRANCH  12  13
ENDBRANCH  11  12
ENDBRANCH  10  11
ENDBRANCH   1  10
TORSDOF 13
ENDMDL
