MODEL 1
REMARK VINA RESULT:    15.829      0.000      0.000
REMARK INTER + INTRA:          40.062
REMARK INTER:                  41.739
REMARK INTRA:                  -1.677
REMARK UNBOUND:                -1.677
REMARK SMILES CCCCCCCCCCCCCCCCCCCCCCCCCCCCCC(=O)[O-]
REMARK SMILES IDX 16 1 17 2 18 3 19 4 20 5 21 6 22 7 23 8 24 9 25 10 26 11
REMARK SMILES IDX 27 12 28 13 29 14 30 15 31 16 32 17 15 18 14 19 13 20 12 21
REMARK SMILES IDX 11 22 10 23 9 24 8 25 7 26 6 27 5 28 4 29 3 30 2 31 1 32
REMARK H PARENT
REMARK Flexibility Score: inf
ROOT
ATOM      1  C   UNL     1       6.031  42.554  15.053  1.00  0.00     0.000 C 
ENDROOT
BRANCH   1   2
ATOM      2  C   UNL     1       6.486  42.140  13.650  1.00  0.00     0.000 C 
BRANCH   2   3
ATOM      3  C   UNL     1       7.741  42.918  13.230  1.00  0.00     0.000 C 
BRANCH   3   4
ATOM      4  C   UNL     1       8.131  42.684  11.759  1.00  0.00     0.000 C 
BRANCH   4   5
ATOM      5  C   UNL     1       6.963  42.753  10.757  1.00  0.00     0.000 C 
BRANCH   5   6
ATOM      6  C   UNL     1       6.986  44.032   9.900  1.00  0.00     0.000 C 
BRANCH   6   7
ATOM      7  C   UNL     1       5.895  45.035  10.305  1.00  0.00     0.000 C 
BRANCH   7   8
ATOM      8  C   UNL     1       4.488  44.584   9.876  1.00  0.00     0.000 C 
BRANCH   8   9
ATOM      9  C   UNL     1       4.062  43.268  10.546  1.00  0.00     0.000 C 
BRANCH   9  10
ATOM     10  C   UNL     1       3.791  43.435  12.052  1.00  0.00     0.000 C 
BRANCH  10  11
ATOM     11  C   UNL     1       2.491  44.205  12.337  1.00  0.00     0.000 C 
BRANCH  11  12
ATOM     12  C   UNL     1       1.286  43.634  11.570  1.00  0.00     0.000 C 
BRANCH  12  13
ATOM     13  C   UNL     1       0.068  43.381  12.477  1.00  0.00     0.006 C 
BRANCH  13  14
ATOM     14  C   UNL     1      -0.420  44.620  13.244  1.00  0.00     0.053 C 
BRANCH  14  15
ATOM     15  C   UNL     1      -1.161  44.255  14.493  1.00  0.00     0.041 C 
ATOM     16  O   UNL     1      -1.328  45.108  15.403  1.00  0.00    -0.550 OA
ATOM     17  O   UNL     1      -1.665  42.970  14.654  1.00  0.00    -0.550 OA
ENDBRANCH  14  15
ENDBRANCH  13  14
ENDBRANCH  12  13
ENDBRANCH  11  12
ENDBRANCH  10  11
ENDBRANCH   9  10
ENDBRANCH   8   9
ENDBRANCH   7   8
ENDBRANCH   6   7
ENDBRANCH   5   6
ENDBRANCH   4   5
ENDBRANCH   3   4
ENDBRANCH   2   3
ENDBRANCH   1   2
BRANCH   1  18
ATOM     18  C   UNL     1       5.471  41.357  15.831  1.00  0.00     0.000 C 
BRANCH  18  19
ATOM     19  C   UNL     1       6.565  40.307  16.077  1.00  0.00     0.000 C 
BRANCH  19  20
ATOM     20  C   UNL     1       7.152  40.373  17.498  1.00  0.00     0.000 C 
BRANCH  20  21
ATOM     21  C   UNL     1       6.471  39.450  18.528  1.00  0.00     0.000 C 
BRANCH  21  22
ATOM     22  C   UNL     1       5.903  40.161  19.772  1.00  0.00     0.000 C 
BRANCH  22  23
ATOM     23  C   UNL     1       4.471  40.709  19.608  1.00  0.00     0.000 C 
BRANCH  23  24
ATOM     24  C   UNL     1       3.485  40.289  20.716  1.00  0.00    -0.000 C 
BRANCH  24  25
ATOM     25  C   UNL     1       2.039  40.792  20.529  1.00  0.00    -0.000 C 
BRANCH  25  26
ATOM     26  C   UNL     1       1.603  41.909  21.495  1.00  0.00    -0.000 C 
BRANCH  26  27
ATOM     27  C   UNL     1       1.302  43.237  20.779  1.00  0.00    -0.000 C 
BRANCH  27  28
ATOM     28  C   UNL     1       2.463  43.702  19.884  1.00  0.00    -0.000 C 
BRANCH  28  29
ATOM     29  C   UNL     1       3.551  44.457  20.666  1.00  0.00    -0.000 C 
BRANCH  29  30
ATOM     30  C   UNL     1       4.354  43.533  21.597  1.00  0.00    -0.000 C 
BRANCH  30  31
ATOM     31  C   UNL     1       5.256  44.309  22.568  1.00  0.00    -0.003 C 
ATOM     32  C   UNL     1       4.774  44.154  24.009  1.00  0.00     0.004 C 
ENDBRANCH  30  31
ENDBRANCH  29  30
ENDBRANCH  28  29
ENDBRANCH  27  28
ENDBRANCH  26  27
ENDBRANCH  25  26
ENDBRANCH  24  25
ENDBRANCH  23  24
ENDBRANCH  22  23
ENDBRANCH  21  22
ENDBRANCH  20  21
ENDBRANCH  19  20
ENDBRANCH  18  19
ENDBRANCH   1  18
TORSDOF 28
ENDMDL
MODEL 2
REMARK VINA RESULT:    16.706      1.514      2.202
REMARK INTER + INTRA:          42.374
REMARK INTER:                  42.445
REMARK INTRA:                  -0.071
REMARK UNBOUND:                -1.677
REMARK SMILES CCCCCCCCCCCCCCCCCCCCCCCCCCCCCC(=O)[O-]
REMARK SMILES IDX 16 1 17 2 18 3 19 4 20 5 21 6 22 7 23 8 24 9 25 10 26 11
REMARK SMILES IDX 27 12 28 13 29 14 30 15 31 16 32 17 15 18 14 19 13 20 12 21
REMARK SMILES IDX 11 22 10 23 9 24 8 25 7 26 6 27 5 28 4 29 3 30 2 31 1 32
REMARK H PARENT
REMARK Flexibility Score: inf
ROOT
ATOM      1  C   UNL     1       6.139  42.691  14.936  1.00  0.00     0.000 C 
ENDROOT
BRANCH   1   2
ATOM      2  C   UNL     1       6.273  41.781  13.710  1.00  0.00     0.000 C 
BRANCH   2   3
ATOM      3  C   UNL     1       7.745  41.428  13.451  1.00  0.00     0.000 C 
BRANCH   3   4
ATOM      4  C   UNL     1       7.992  40.878  12.034  1.00  0.00     0.000 C 
BRANCH   4   5
ATOM      5  C   UNL     1       7.600  41.830  10.889  1.00  0.00     0.000 C 
BRANCH   5   6
ATOM      6  C   UNL     1       8.771  42.713  10.418  1.00  0.00     0.000 C 
BRANCH   6   7
ATOM      7  C   UNL     1       8.732  44.122  11.029  1.00  0.00     0.000 C 
BRANCH   7   8
ATOM      8  C   UNL     1       7.920  45.113  10.178  1.00  0.00     0.000 C 
BRANCH   8   9
ATOM      9  C   UNL     1       6.501  44.607   9.878  1.00  0.00     0.000 C 
BRANCH   9  10
ATOM     10  C   UNL     1       5.798  44.048  11.128  1.00  0.00     0.000 C 
BRANCH  10  11
ATOM     11  C   UNL     1       4.468  44.759  11.427  1.00  0.00     0.000 C 
BRANCH  11  12
ATOM     12  C   UNL     1       3.659  45.057  10.153  1.00  0.00     0.000 C 
BRANCH  12  13
ATOM     13  C   UNL     1       2.571  44.004   9.878  1.00  0.00     0.006 C 
BRANCH  13  14
ATOM     14  C   UNL     1       2.334  43.019  11.034  1.00  0.00     0.053 C 
BRANCH  14  15
ATOM     15  C   UNL     1       0.904  43.004  11.479  1.00  0.00     0.041 C 
ATOM     16  O   UNL     1       0.077  42.234  10.927  1.00  0.00    -0.550 OA
ATOM     17  O   UNL     1       0.483  43.844  12.503  1.00  0.00    -0.550 OA
ENDBRANCH  14  15
ENDBRANCH  13  14
ENDBRANCH  12  13
ENDBRANCH  11  12
ENDBRANCH  10  11
ENDBRANCH   9  10
ENDBRANCH   8   9
ENDBRANCH   7   8
ENDBRANCH   6   7
ENDBRANCH   5   6
ENDBRANCH   4   5
ENDBRANCH   3   4
ENDBRANCH   2   3
ENDBRANCH   1   2
BRANCH   1  18
ATOM     18  C   UNL     1       5.200  42.077  15.981  1.00  0.00     0.000 C 
BRANCH  18  19
ATOM     19  C   UNL     1       5.614  40.633  16.304  1.00  0.00     0.000 C 
BRANCH  19  20
ATOM     20  C   UNL     1       6.656  40.546  17.434  1.00  0.00     0.000 C 
BRANCH  20  21
ATOM     21  C   UNL     1       6.252  39.657  18.627  1.00  0.00     0.000 C 
BRANCH  21  22
ATOM     22  C   UNL     1       5.866  40.418  19.911  1.00  0.00     0.000 C 
BRANCH  22  23
ATOM     23  C   UNL     1       4.430  40.979  19.926  1.00  0.00     0.000 C 
BRANCH  23  24
ATOM     24  C   UNL     1       3.329  39.938  20.206  1.00  0.00    -0.000 C 
BRANCH  24  25
ATOM     25  C   UNL     1       2.097  40.476  20.961  1.00  0.00    -0.000 C 
BRANCH  25  26
ATOM     26  C   UNL     1       2.340  41.752  21.788  1.00  0.00    -0.000 C 
BRANCH  26  27
ATOM     27  C   UNL     1       1.962  43.038  21.031  1.00  0.00    -0.000 C 
BRANCH  27  28
ATOM     28  C   UNL     1       3.089  43.532  20.108  1.00  0.00    -0.000 C 
BRANCH  28  29
ATOM     29  C   UNL     1       4.421  43.734  20.851  1.00  0.00    -0.000 C 
BRANCH  29  30
ATOM     30  C   UNL     1       4.230  44.372  22.237  1.00  0.00    -0.000 C 
BRANCH  30  31
ATOM     31  C   UNL     1       4.884  43.556  23.361  1.00  0.00    -0.003 C 
ATOM     32  C   UNL     1       5.695  44.453  24.292  1.00  0.00     0.004 C 
ENDBRANCH  30  31
ENDBRANCH  29  30
ENDBRANCH  28  29
ENDBRANCH  27  28
ENDBRANCH  26  27
ENDBRANCH  25  26
ENDBRANCH  24  25
ENDBRANCH  23  24
ENDBRANCH  22  23
ENDBRANCH  21  22
ENDBRANCH  20  21
ENDBRANCH  19  20
ENDBRANCH  18  19
ENDBRANCH   1  18
TORSDOF 28
ENDMDL
MODEL 3
REMARK VINA RESULT:    17.678      5.837      9.145
REMARK INTER + INTRA:          44.937
REMARK INTER:                  44.705
REMARK INTRA:                   0.232
REMARK UNBOUND:                -1.677
REMARK SMILES CCCCCCCCCCCCCCCCCCCCCCCCCCCCCC(=O)[O-]
REMARK SMILES IDX 16 1 17 2 18 3 19 4 20 5 21 6 22 7 23 8 24 9 25 10 26 11
REMARK SMILES IDX 27 12 28 13 29 14 30 15 31 16 32 17 15 18 14 19 13 20 12 21
REMARK SMILES IDX 11 22 10 23 9 24 8 25 7 26 6 27 5 28 4 29 3 30 2 31 1 32
REMARK H PARENT
REMARK Flexibility Score: inf
ROOT
ATOM      1  C   UNL     1      -2.350  42.725  14.069  1.00  0.00     0.000 C 
ENDROOT
BRANCH   1   2
ATOM      2  C   UNL     1      -1.597  43.936  14.629  1.00  0.00     0.000 C 
BRANCH   2   3
ATOM      3  C   UNL     1      -0.809  44.650  13.520  1.00  0.00     0.000 C 
BRANCH   3   4
ATOM      4  C   UNL     1       0.716  44.547  13.704  1.00  0.00     0.000 C 
BRANCH   4   5
ATOM      5  C   UNL     1       1.485  44.017  12.479  1.00  0.00     0.000 C 
BRANCH   5   6
ATOM      6  C   UNL     1       0.590  43.225  11.508  1.00  0.00     0.000 C 
BRANCH   6   7
ATOM      7  C   UNL     1       1.399  42.360  10.530  1.00  0.00     0.000 C 
BRANCH   7   8
ATOM      8  C   UNL     1       2.851  42.845  10.375  1.00  0.00     0.000 C 
BRANCH   8   9
ATOM      9  C   UNL     1       2.938  44.336  10.012  1.00  0.00     0.000 C 
BRANCH   9  10
ATOM     10  C   UNL     1       4.258  44.979  10.475  1.00  0.00     0.000 C 
BRANCH  10  11
ATOM     11  C   UNL     1       4.645  44.571  11.906  1.00  0.00     0.000 C 
BRANCH  11  12
ATOM     12  C   UNL     1       6.152  44.721  12.176  1.00  0.00     0.000 C 
BRANCH  12  13
ATOM     13  C   UNL     1       6.968  44.953  10.891  1.00  0.00     0.006 C 
BRANCH  13  14
ATOM     14  C   UNL     1       7.999  43.854  10.587  1.00  0.00     0.053 C 
BRANCH  14  15
ATOM     15  C   UNL     1       7.868  42.686  11.516  1.00  0.00     0.041 C 
ATOM     16  O   UNL     1       7.779  41.518  11.056  1.00  0.00    -0.550 OA
ATOM     17  O   UNL     1       7.842  42.888  12.891  1.00  0.00    -0.550 OA
ENDBRANCH  14  15
ENDBRANCH  13  14
ENDBRANCH  12  13
ENDBRANCH  11  12
ENDBRANCH  10  11
ENDBRANCH   9  10
ENDBRANCH   8   9
ENDBRANCH   7   8
ENDBRANCH   6   7
ENDBRANCH   5   6
ENDBRANCH   4   5
ENDBRANCH   3   4
ENDBRANCH   2   3
ENDBRANCH   1   2
BRANCH   1  18
ATOM     18  C   UNL     1      -2.606  41.678  15.161  1.00  0.00     0.000 C 
BRANCH  18  19
ATOM     19  C   UNL     1      -3.655  40.656  14.700  1.00  0.00     0.000 C 
BRANCH  19  20
ATOM     20  C   UNL     1      -5.073  41.248  14.612  1.00  0.00     0.000 C 
BRANCH  20  21
ATOM     21  C   UNL     1      -6.191  40.347  15.175  1.00  0.00     0.000 C 
BRANCH  21  22
ATOM     22  C   UNL     1      -5.747  39.355  16.268  1.00  0.00     0.000 C 
BRANCH  22  23
ATOM     23  C   UNL     1      -4.858  38.197  15.770  1.00  0.00     0.000 C 
BRANCH  23  24
ATOM     24  C   UNL     1      -5.180  36.822  16.387  1.00  0.00    -0.000 C 
BRANCH  24  25
ATOM     25  C   UNL     1      -4.755  35.608  15.536  1.00  0.00    -0.000 C 
BRANCH  25  26
ATOM     26  C   UNL     1      -3.236  35.378  15.434  1.00  0.00    -0.000 C 
BRANCH  26  27
ATOM     27  C   UNL     1      -2.562  35.204  16.806  1.00  0.00    -0.000 C 
BRANCH  27  28
ATOM     28  C   UNL     1      -1.263  36.016  16.933  1.00  0.00    -0.000 C 
BRANCH  28  29
ATOM     29  C   UNL     1      -0.208  35.318  17.809  1.00  0.00    -0.000 C 
BRANCH  29  30
ATOM     30  C   UNL     1      -0.449  33.803  17.923  1.00  0.00    -0.000 C 
BRANCH  30  31
ATOM     31  C   UNL     1       0.329  33.166  19.084  1.00  0.00    -0.003 C 
ATOM     32  C   UNL     1      -0.610  32.750  20.213  1.00  0.00     0.004 C 
ENDBRANCH  30  31
ENDBRANCH  29  30
ENDBRANCH  28  29
ENDBRANCH  27  28
ENDBRANCH  26  27
ENDBRANCH  25  26
ENDBRANCH  24  25
ENDBRANCH  23  24
ENDBRANCH  22  23
ENDBRANCH  21  22
ENDBRANCH  20  21
ENDBRANCH  19  20
ENDBRANCH  18  19
ENDBRANCH   1  18
TORSDOF 28
ENDMDL
MODEL 4
REMARK VINA RESULT:    18.396      2.619      5.925
REMARK INTER + INTRA:          46.832
REMARK INTER:                  47.883
REMARK INTRA:                  -1.051
REMARK UNBOUND:                -1.677
REMARK SMILES CCCCCCCCCCCCCCCCCCCCCCCCCCCCCC(=O)[O-]
REMARK SMILES IDX 16 1 17 2 18 3 19 4 20 5 21 6 22 7 23 8 24 9 25 10 26 11
REMARK SMILES IDX 27 12 28 13 29 14 30 15 31 16 32 17 15 18 14 19 13 20 12 21
REMARK SMILES IDX 11 22 10 23 9 24 8 25 7 26 6 27 5 28 4 29 3 30 2 31 1 32
REMARK H PARENT
REMARK Flexibility Score: inf
ROOT
ATOM      1  C   UNL     1      -1.321  44.252  13.474  1.00  0.00     0.000 C 
ENDROOT
BRANCH   1   2
ATOM      2  C   UNL     1      -0.728  43.002  12.816  1.00  0.00     0.000 C 
BRANCH   2   3
ATOM      3  C   UNL     1       0.654  43.305  12.217  1.00  0.00     0.000 C 
BRANCH   3   4
ATOM      4  C   UNL     1       0.845  42.704  10.812  1.00  0.00     0.000 C 
BRANCH   4   5
ATOM      5  C   UNL     1       2.293  42.720  10.288  1.00  0.00     0.000 C 
BRANCH   5   6
ATOM      6  C   UNL     1       2.764  44.127   9.875  1.00  0.00     0.000 C 
BRANCH   6   7
ATOM      7  C   UNL     1       3.857  44.681  10.802  1.00  0.00     0.000 C 
BRANCH   7   8
ATOM      8  C   UNL     1       5.117  45.119  10.035  1.00  0.00     0.000 C 
BRANCH   8   9
ATOM      9  C   UNL     1       6.299  44.159  10.246  1.00  0.00     0.000 C 
BRANCH   9  10
ATOM     10  C   UNL     1       5.844  42.710  10.498  1.00  0.00     0.000 C 
BRANCH  10  11
ATOM     11  C   UNL     1       6.934  41.681  10.157  1.00  0.00     0.000 C 
BRANCH  11  12
ATOM     12  C   UNL     1       8.109  41.714  11.149  1.00  0.00     0.000 C 
BRANCH  12  13
ATOM     13  C   UNL     1       7.872  42.684  12.322  1.00  0.00     0.006 C 
BRANCH  13  14
ATOM     14  C   UNL     1       7.259  42.030  13.571  1.00  0.00     0.053 C 
BRANCH  14  15
ATOM     15  C   UNL     1       6.068  42.785  14.075  1.00  0.00     0.041 C 
ATOM     16  O   UNL     1       5.685  43.830  13.489  1.00  0.00    -0.550 OA
ATOM     17  O   UNL     1       5.382  42.336  15.197  1.00  0.00    -0.550 OA
ENDBRANCH  14  15
ENDBRANCH  13  14
ENDBRANCH  12  13
ENDBRANCH  11  12
ENDBRANCH  10  11
ENDBRANCH   9  10
ENDBRANCH   8   9
ENDBRANCH   7   8
ENDBRANCH   6   7
ENDBRANCH   5   6
ENDBRANCH   4   5
ENDBRANCH   3   4
ENDBRANCH   2   3
ENDBRANCH   1   2
BRANCH   1  18
ATOM     18  C   UNL     1      -2.176  43.884  14.693  1.00  0.00     0.000 C 
BRANCH  18  19
ATOM     19  C   UNL     1      -2.221  42.361  14.887  1.00  0.00     0.000 C 
BRANCH  19  20
ATOM     20  C   UNL     1      -1.812  41.924  16.305  1.00  0.00     0.000 C 
BRANCH  20  21
ATOM     21  C   UNL     1      -1.357  40.456  16.429  1.00  0.00     0.000 C 
BRANCH  21  22
ATOM     22  C   UNL     1      -1.150  39.953  17.871  1.00  0.00     0.000 C 
BRANCH  22  23
ATOM     23  C   UNL     1      -0.015  38.924  18.043  1.00  0.00     0.000 C 
BRANCH  23  24
ATOM     24  C   UNL     1      -0.035  38.152  19.376  1.00  0.00    -0.000 C 
BRANCH  24  25
ATOM     25  C   UNL     1       1.010  38.610  20.414  1.00  0.00    -0.000 C 
BRANCH  25  26
ATOM     26  C   UNL     1       2.455  38.706  19.890  1.00  0.00    -0.000 C 
BRANCH  26  27
ATOM     27  C   UNL     1       3.374  39.526  20.813  1.00  0.00    -0.000 C 
BRANCH  27  28
ATOM     28  C   UNL     1       3.660  40.933  20.262  1.00  0.00    -0.000 C 
BRANCH  28  29
ATOM     29  C   UNL     1       2.612  41.969  20.703  1.00  0.00    -0.000 C 
BRANCH  29  30
ATOM     30  C   UNL     1       2.620  43.226  19.818  1.00  0.00    -0.000 C 
BRANCH  30  31
ATOM     31  C   UNL     1       2.421  44.519  20.622  1.00  0.00    -0.003 C 
ATOM     32  C   UNL     1       2.402  44.237  22.122  1.00  0.00     0.004 C 
ENDBRANCH  30  31
ENDBRANCH  29  30
ENDBRANCH  28  29
ENDBRANCH  27  28
ENDBRANCH  26  27
ENDBRANCH  25  26
ENDBRANCH  24  25
ENDBRANCH  23  24
ENDBRANCH  22  23
ENDBRANCH  21  22
ENDBRANCH  20  21
ENDBRANCH  19  20
ENDBRANCH  18  19
ENDBRANCH   1  18
TORSDOF 28
ENDMDL
