MODEL 1
REMARK VINA RESULT:    -0.846      0.000      0.000
REMARK INTER + INTRA:          -4.808
REMARK INTER:                  -1.589
REMARK INTRA:                  -3.219
REMARK UNBOUND:                -3.219
REMARK SMILES CCCCCCCCC=CCCCCCCCC(=O)[O-]
REMARK SMILES IDX 10 1 9 2 11 3 12 4 13 5 14 6 15 7 16 8 17 9 18 10 19 11
REMARK SMILES IDX 20 12 8 13 7 14 6 15 5 16 4 17 3 18 2 19 1 20
REMARK H PARENT
REMARK Flexibility Score: inf
ROOT
ATOM      1  C   UNL     1      36.501   3.928  37.976  1.00  0.00    -0.031 C 
ATOM      2  C   UNL     1      37.649   4.376  38.518  1.00  0.00    -0.031 C 
ENDROOT
BRANCH   1   3
ATOM      3  C   UNL     1      35.165   3.935  38.674  1.00  0.00     0.027 C 
BRANCH   3   4
ATOM      4  C   UNL     1      34.030   4.182  37.668  1.00  0.00     0.004 C 
BRANCH   4   5
ATOM      5  C   UNL     1      33.298   2.889  37.273  1.00  0.00     0.000 C 
BRANCH   5   6
ATOM      6  C   UNL     1      33.523   1.751  38.279  1.00  0.00     0.000 C 
BRANCH   6   7
ATOM      7  C   UNL     1      32.288   1.552  39.167  1.00  0.00     0.000 C 
BRANCH   7   8
ATOM      8  C   UNL     1      32.597   1.909  40.628  1.00  0.00     0.006 C 
BRANCH   8   9
ATOM      9  C   UNL     1      31.594   2.915  41.205  1.00  0.00     0.053 C 
BRANCH   9  10
ATOM     10  C   UNL     1      31.875   4.311  40.738  1.00  0.00     0.041 C 
ATOM     11  O   UNL     1      31.172   4.830  39.832  1.00  0.00    -0.550 OA
ATOM     12  O   UNL     1      32.936   5.024  41.280  1.00  0.00    -0.550 OA
ENDBRANCH   9  10
ENDBRANCH   8   9
ENDBRANCH   7   8
ENDBRANCH   6   7
ENDBRANCH   5   6
ENDBRANCH   4   5
ENDBRANCH   3   4
ENDBRANCH   1   3
BRANCH   2  13
ATOM     13  C   UNL     1      37.756   5.038  39.871  1.00  0.00     0.027 C 
BRANCH  13  14
ATOM     14  C   UNL     1      38.705   4.277  40.808  1.00  0.00     0.004 C 
BRANCH  14  15
ATOM     15  C   UNL     1      38.008   3.845  42.110  1.00  0.00     0.000 C 
BRANCH  15  16
ATOM     16  C   UNL     1      36.511   4.190  42.121  1.00  0.00     0.000 C 
BRANCH  16  17
ATOM     17  C   UNL     1      35.614   2.940  42.125  1.00  0.00    -0.000 C 
BRANCH  17  18
ATOM     18  C   UNL     1      36.417   1.630  42.019  1.00  0.00    -0.000 C 
BRANCH  18  19
ATOM     19  C   UNL     1      36.267   0.891  40.677  1.00  0.00    -0.003 C 
ATOM     20  C   UNL     1      37.555   0.875  39.855  1.00  0.00     0.004 C 
ENDBRANCH  18  19
ENDBRANCH  17  18
ENDBRANCH  16  17
ENDBRANCH  15  16
ENDBRANCH  14  15
ENDBRANCH  13  14
ENDBRANCH   2  13
TORSDOF 15
ENDMDL
MODEL 2
REMARK VINA RESULT:    -0.735      2.520      4.361
REMARK INTER + INTRA:          -4.598
REMARK INTER:                  -1.640
REMARK INTRA:                  -2.958
REMARK UNBOUND:                -3.219
REMARK SMILES CCCCCCCCC=CCCCCCCCC(=O)[O-]
REMARK SMILES IDX 10 1 9 2 11 3 12 4 13 5 14 6 15 7 16 8 17 9 18 10 19 11
REMARK SMILES IDX 20 12 8 13 7 14 6 15 5 16 4 17 3 18 2 19 1 20
REMARK H PARENT
REMARK Flexibility Score: inf
ROOT
ATOM      1  C   UNL     1      37.352   3.741  37.459  1.00  0.00    -0.031 C 
ATOM      2  C   UNL     1      36.838   2.605  37.964  1.00  0.00    -0.031 C 
ENDROOT
BRANCH   1   3
ATOM      3  C   UNL     1      37.271   5.089  38.130  1.00  0.00     0.027 C 
BRANCH   3   4
ATOM      4  C   UNL     1      38.677   5.646  38.397  1.00  0.00     0.004 C 
BRANCH   4   5
ATOM      5  C   UNL     1      38.882   6.057  39.864  1.00  0.00     0.000 C 
BRANCH   5   6
ATOM      6  C   UNL     1      38.497   4.945  40.849  1.00  0.00     0.000 C 
BRANCH   6   7
ATOM      7  C   UNL     1      37.697   5.510  42.029  1.00  0.00     0.000 C 
BRANCH   7   8
ATOM      8  C   UNL     1      36.243   5.015  41.997  1.00  0.00     0.006 C 
BRANCH   8   9
ATOM      9  C   UNL     1      35.235   6.164  42.119  1.00  0.00     0.053 C 
BRANCH   9  10
ATOM     10  C   UNL     1      34.743   6.616  40.777  1.00  0.00     0.041 C 
ATOM     11  O   UNL     1      35.451   7.375  40.065  1.00  0.00    -0.550 OA
ATOM     12  O   UNL     1      33.488   6.223  40.329  1.00  0.00    -0.550 OA
ENDBRANCH   9  10
ENDBRANCH   8   9
ENDBRANCH   7   8
ENDBRANCH   6   7
ENDBRANCH   5   6
ENDBRANCH   4   5
ENDBRANCH   3   4
ENDBRANCH   1   3
BRANCH   2  13
ATOM     13  C   UNL     1      36.184   2.487  39.320  1.00  0.00     0.027 C 
BRANCH  13  14
ATOM     14  C   UNL     1      36.554   1.174  40.024  1.00  0.00     0.004 C 
BRANCH  14  15
ATOM     15  C   UNL     1      36.552   1.319  41.556  1.00  0.00     0.000 C 
BRANCH  15  16
ATOM     16  C   UNL     1      37.953   1.590  42.125  1.00  0.00     0.000 C 
BRANCH  16  17
ATOM     17  C   UNL     1      39.062   0.875  41.334  1.00  0.00    -0.000 C 
BRANCH  17  18
ATOM     18  C   UNL     1      40.161   1.836  40.846  1.00  0.00    -0.000 C 
BRANCH  18  19
ATOM     19  C   UNL     1      40.169   2.085  39.327  1.00  0.00    -0.003 C 
ATOM     20  C   UNL     1      41.576   2.258  38.756  1.00  0.00     0.004 C 
ENDBRANCH  18  19
ENDBRANCH  17  18
ENDBRANCH  16  17
ENDBRANCH  15  16
ENDBRANCH  14  15
ENDBRANCH  13  14
ENDBRANCH   2  13
TORSDOF 15
ENDMDL
MODEL 3
REMARK VINA RESULT:    -0.717      4.603      7.290
REMARK INTER + INTRA:          -4.565
REMARK INTER:                  -1.630
REMARK INTRA:                  -2.935
REMARK UNBOUND:                -3.219
REMARK SMILES CCCCCCCCC=CCCCCCCCC(=O)[O-]
REMARK SMILES IDX 10 1 9 2 11 3 12 4 13 5 14 6 15 7 16 8 17 9 18 10 19 11
REMARK SMILES IDX 20 12 8 13 7 14 6 15 5 16 4 17 3 18 2 19 1 20
REMARK H PARENT
REMARK Flexibility Score: inf
ROOT
ATOM      1  C   UNL     1      39.051   3.356  38.777  1.00  0.00    -0.031 C 
ATOM      2  C   UNL     1      38.719   2.326  39.578  1.00  0.00    -0.031 C 
ENDROOT
BRANCH   1   3
ATOM      3  C   UNL     1      40.014   4.455  39.152  1.00  0.00     0.027 C 
BRANCH   3   4
ATOM      4  C   UNL     1      41.242   4.436  38.230  1.00  0.00     0.004 C 
BRANCH   4   5
ATOM      5  C   UNL     1      41.023   3.584  36.970  1.00  0.00     0.000 C 
BRANCH   5   6
ATOM      6  C   UNL     1      42.145   2.562  36.745  1.00  0.00     0.000 C 
BRANCH   6   7
ATOM      7  C   UNL     1      41.872   1.267  37.520  1.00  0.00     0.000 C 
BRANCH   7   8
ATOM      8  C   UNL     1      43.018   0.957  38.496  1.00  0.00     0.006 C 
BRANCH   8   9
ATOM      9  C   UNL     1      42.638   1.258  39.951  1.00  0.00     0.053 C 
BRANCH   9  10
ATOM     10  C   UNL     1      43.276   2.522  40.442  1.00  0.00     0.041 C 
ATOM     11  O   UNL     1      44.227   3.043  39.802  1.00  0.00    -0.550 OA
ATOM     12  O   UNL     1      42.841   3.105  41.625  1.00  0.00    -0.550 OA
ENDBRANCH   9  10
ENDBRANCH   8   9
ENDBRANCH   7   8
ENDBRANCH   6   7
ENDBRANCH   5   6
ENDBRANCH   4   5
ENDBRANCH   3   4
ENDBRANCH   1   3
BRANCH   2  13
ATOM     13  C   UNL     1      39.326   2.064  40.935  1.00  0.00     0.027 C 
BRANCH  13  14
ATOM     14  C   UNL     1      38.256   1.770  41.996  1.00  0.00     0.004 C 
BRANCH  14  15
ATOM     15  C   UNL     1      36.878   1.496  41.367  1.00  0.00     0.000 C 
BRANCH  15  16
ATOM     16  C   UNL     1      35.746   2.259  42.071  1.00  0.00     0.000 C 
BRANCH  16  17
ATOM     17  C   UNL     1      35.173   3.397  41.209  1.00  0.00    -0.000 C 
BRANCH  17  18
ATOM     18  C   UNL     1      35.576   4.793  41.720  1.00  0.00    -0.000 C 
BRANCH  18  19
ATOM     19  C   UNL     1      36.871   5.354  41.106  1.00  0.00    -0.003 C 
ATOM     20  C   UNL     1      38.003   5.494  42.123  1.00  0.00     0.004 C 
ENDBRANCH  18  19
ENDBRANCH  17  18
ENDBRANCH  16  17
ENDBRANCH  15  16
ENDBRANCH  14  15
ENDBRANCH  13  14
ENDBRANCH   2  13
TORSDOF 15
ENDMDL
MODEL 4
REMARK VINA RESULT:    -0.664      2.430      4.606
REMARK INTER + INTRA:          -4.466
REMARK INTER:                  -1.370
REMARK INTRA:                  -3.096
REMARK UNBOUND:                -3.219
REMARK SMILES CCCCCCCCC=CCCCCCCCC(=O)[O-]
REMARK SMILES IDX 10 1 9 2 11 3 12 4 13 5 14 6 15 7 16 8 17 9 18 10 19 11
REMARK SMILES IDX 20 12 8 13 7 14 6 15 5 16 4 17 3 18 2 19 1 20
REMARK H PARENT
REMARK Flexibility Score: inf
ROOT
ATOM      1  C   UNL     1      38.428   3.521  39.987  1.00  0.00    -0.031 C 
ATOM      2  C   UNL     1      37.990   4.710  39.533  1.00  0.00    -0.031 C 
ENDROOT
BRANCH   1   3
ATOM      3  C   UNL     1      38.590   3.168  41.444  1.00  0.00     0.027 C 
BRANCH   3   4
ATOM      4  C   UNL     1      37.571   2.096  41.857  1.00  0.00     0.004 C 
BRANCH   4   5
ATOM      5  C   UNL     1      36.174   2.678  42.123  1.00  0.00     0.000 C 
BRANCH   5   6
ATOM      6  C   UNL     1      35.063   1.905  41.398  1.00  0.00     0.000 C 
BRANCH   6   7
ATOM      7  C   UNL     1      34.523   2.709  40.208  1.00  0.00     0.000 C 
BRANCH   7   8
ATOM      8  C   UNL     1      35.117   2.201  38.886  1.00  0.00     0.006 C 
BRANCH   8   9
ATOM      9  C   UNL     1      34.487   2.885  37.666  1.00  0.00     0.053 C 
BRANCH   9  10
ATOM     10  C   UNL     1      35.438   3.843  37.014  1.00  0.00     0.041 C 
ATOM     11  O   UNL     1      36.561   3.444  36.609  1.00  0.00    -0.550 OA
ATOM     12  O   UNL     1      35.094   5.182  36.884  1.00  0.00    -0.550 OA
ENDBRANCH   9  10
ENDBRANCH   8   9
ENDBRANCH   7   8
ENDBRANCH   6   7
ENDBRANCH   5   6
ENDBRANCH   4   5
ENDBRANCH   3   4
ENDBRANCH   1   3
BRANCH   2  13
ATOM     13  C   UNL     1      37.508   5.839  40.412  1.00  0.00     0.027 C 
BRANCH  13  14
ATOM     14  C   UNL     1      35.991   6.048  40.297  1.00  0.00     0.004 C 
BRANCH  14  15
ATOM     15  C   UNL     1      35.345   6.353  41.659  1.00  0.00     0.000 C 
BRANCH  15  16
ATOM     16  C   UNL     1      33.862   6.734  41.537  1.00  0.00     0.000 C 
BRANCH  16  17
ATOM     17  C   UNL     1      32.921   5.546  41.802  1.00  0.00    -0.000 C 
BRANCH  17  18
ATOM     18  C   UNL     1      31.929   5.302  40.650  1.00  0.00    -0.000 C 
BRANCH  18  19
ATOM     19  C   UNL     1      32.480   5.619  39.249  1.00  0.00    -0.003 C 
ATOM     20  C   UNL     1      31.495   5.286  38.129  1.00  0.00     0.004 C 
ENDBRANCH  18  19
ENDBRANCH  17  18
ENDBRANCH  16  17
ENDBRANCH  15  16
ENDBRANCH  14  15
ENDBRANCH  13  14
ENDBRANCH   2  13
TORSDOF 15
ENDMDL
MODEL 5
REMARK VINA RESULT:    -0.658      3.376      6.224
REMARK INTER + INTRA:          -4.454
REMARK INTER:                  -0.983
REMARK INTRA:                  -3.471
REMARK UNBOUND:                -3.219
REMARK SMILES CCCCCCCCC=CCCCCCCCC(=O)[O-]
REMARK SMILES IDX 10 1 9 2 11 3 12 4 13 5 14 6 15 7 16 8 17 9 18 10 19 11
REMARK SMILES IDX 20 12 8 13 7 14 6 15 5 16 4 17 3 18 2 19 1 20
REMARK H PARENT
REMARK Flexibility Score: inf
ROOT
ATOM      1  C   UNL     1      38.665   8.347  37.479  1.00  0.00    -0.031 C 
ATOM      2  C   UNL     1      37.329   8.242  37.602  1.00  0.00    -0.031 C 
ENDROOT
BRANCH   1   3
ATOM      3  C   UNL     1      39.627   8.430  38.637  1.00  0.00     0.027 C 
BRANCH   3   4
ATOM      4  C   UNL     1      40.424   7.124  38.773  1.00  0.00     0.004 C 
BRANCH   4   5
ATOM      5  C   UNL     1      40.265   6.475  40.157  1.00  0.00     0.000 C 
BRANCH   5   6
ATOM      6  C   UNL     1      39.525   7.379  41.152  1.00  0.00     0.000 C 
BRANCH   6   7
ATOM      7  C   UNL     1      38.591   6.558  42.049  1.00  0.00     0.000 C 
BRANCH   7   8
ATOM      8  C   UNL     1      38.627   5.070  41.667  1.00  0.00     0.006 C 
BRANCH   8   9
ATOM      9  C   UNL     1      37.368   4.322  42.124  1.00  0.00     0.053 C 
BRANCH   9  10
ATOM     10  C   UNL     1      37.392   2.885  41.699  1.00  0.00     0.041 C 
ATOM     11  O   UNL     1      38.289   2.112  42.125  1.00  0.00    -0.550 OA
ATOM     12  O   UNL     1      36.440   2.410  40.806  1.00  0.00    -0.550 OA
ENDBRANCH   9  10
ENDBRANCH   8   9
ENDBRANCH   7   8
ENDBRANCH   6   7
ENDBRANCH   5   6
ENDBRANCH   4   5
ENDBRANCH   3   4
ENDBRANCH   1   3
BRANCH   2  13
ATOM     13  C   UNL     1      36.598   8.098  38.915  1.00  0.00     0.027 C 
BRANCH  13  14
ATOM     14  C   UNL     1      36.286   6.630  39.241  1.00  0.00     0.004 C 
BRANCH  14  15
ATOM     15  C   UNL     1      35.809   5.851  38.003  1.00  0.00     0.000 C 
BRANCH  15  16
ATOM     16  C   UNL     1      36.410   4.440  37.925  1.00  0.00     0.000 C 
BRANCH  16  17
ATOM     17  C   UNL     1      37.939   4.436  38.106  1.00  0.00    -0.000 C 
BRANCH  17  18
ATOM     18  C   UNL     1      38.685   3.937  36.855  1.00  0.00    -0.000 C 
BRANCH  18  19
ATOM     19  C   UNL     1      39.264   5.051  35.964  1.00  0.00    -0.003 C 
ATOM     20  C   UNL     1      38.251   5.600  34.960  1.00  0.00     0.004 C 
ENDBRANCH  18  19
ENDBRANCH  17  18
ENDBRANCH  16  17
ENDBRANCH  15  16
ENDBRANCH  14  15
ENDBRANCH  13  14
ENDBRANCH   2  13
TORSDOF 15
ENDMDL
MODEL 6
REMARK VINA RESULT:    -0.636      2.777      4.139
REMARK INTER + INTRA:          -4.414
REMARK INTER:                  -1.235
REMARK INTRA:                  -3.179
REMARK UNBOUND:                -3.219
REMARK SMILES CCCCCCCCC=CCCCCCCCC(=O)[O-]
REMARK SMILES IDX 10 1 9 2 11 3 12 4 13 5 14 6 15 7 16 8 17 9 18 10 19 11
REMARK SMILES IDX 20 12 8 13 7 14 6 15 5 16 4 17 3 18 2 19 1 20
REMARK H PARENT
REMARK Flexibility Score: inf
ROOT
ATOM      1  C   UNL     1      33.973   5.258  37.450  1.00  0.00    -0.031 C 
ATOM      2  C   UNL     1      35.263   5.259  37.834  1.00  0.00    -0.031 C 
ENDROOT
BRANCH   1   3
ATOM      3  C   UNL     1      32.927   4.302  37.965  1.00  0.00     0.027 C 
BRANCH   3   4
ATOM      4  C   UNL     1      31.926   5.032  38.872  1.00  0.00     0.004 C 
BRANCH   4   5
ATOM      5  C   UNL     1      32.420   5.151  40.322  1.00  0.00     0.000 C 
BRANCH   5   6
ATOM      6  C   UNL     1      32.325   6.584  40.864  1.00  0.00     0.000 C 
BRANCH   6   7
ATOM      7  C   UNL     1      32.050   7.582  39.732  1.00  0.00     0.000 C 
BRANCH   7   8
ATOM      8  C   UNL     1      33.047   8.749  39.772  1.00  0.00     0.006 C 
BRANCH   8   9
ATOM      9  C   UNL     1      34.499   8.268  39.891  1.00  0.00     0.053 C 
BRANCH   9  10
ATOM     10  C   UNL     1      35.179   8.848  41.094  1.00  0.00     0.041 C 
ATOM     11  O   UNL     1      35.350   8.146  42.125  1.00  0.00    -0.550 OA
ATOM     12  O   UNL     1      35.594  10.173  41.086  1.00  0.00    -0.550 OA
ENDBRANCH   9  10
ENDBRANCH   8   9
ENDBRANCH   7   8
ENDBRANCH   6   7
ENDBRANCH   5   6
ENDBRANCH   4   5
ENDBRANCH   3   4
ENDBRANCH   1   3
BRANCH   2  13
ATOM     13  C   UNL     1      35.839   4.364  38.905  1.00  0.00     0.027 C 
BRANCH  13  14
ATOM     14  C   UNL     1      36.325   5.164  40.122  1.00  0.00     0.004 C 
BRANCH  14  15
ATOM     15  C   UNL     1      35.833   4.556  41.447  1.00  0.00     0.000 C 
BRANCH  15  16
ATOM     16  C   UNL     1      36.620   3.299  41.847  1.00  0.00     0.000 C 
BRANCH  16  17
ATOM     17  C   UNL     1      35.707   2.092  42.124  1.00  0.00    -0.000 C 
BRANCH  17  18
ATOM     18  C   UNL     1      34.212   2.462  42.125  1.00  0.00    -0.000 C 
BRANCH  18  19
ATOM     19  C   UNL     1      33.350   1.660  41.133  1.00  0.00    -0.003 C 
ATOM     20  C   UNL     1      34.105   1.274  39.862  1.00  0.00     0.004 C 
ENDBRANCH  18  19
ENDBRANCH  17  18
ENDBRANCH  16  17
ENDBRANCH  15  16
ENDBRANCH  14  15
ENDBRANCH  13  14
ENDBRANCH   2  13
TORSDOF 15
ENDMDL
MODEL 7
REMARK VINA RESULT:    -0.626      3.116      5.244
REMARK INTER + INTRA:          -4.393
REMARK INTER:                  -1.105
REMARK INTRA:                  -3.289
REMARK UNBOUND:                -3.219
REMARK SMILES CCCCCCCCC=CCCCCCCCC(=O)[O-]
REMARK SMILES IDX 10 1 9 2 11 3 12 4 13 5 14 6 15 7 16 8 17 9 18 10 19 11
REMARK SMILES IDX 20 12 8 13 7 14 6 15 5 16 4 17 3 18 2 19 1 20
REMARK H PARENT
REMARK Flexibility Score: inf
ROOT
ATOM      1  C   UNL     1      35.339   5.819  35.662  1.00  0.00    -0.031 C 
ATOM      2  C   UNL     1      34.223   5.381  36.274  1.00  0.00    -0.031 C 
ENDROOT
BRANCH   1   3
ATOM      3  C   UNL     1      35.972   7.167  35.900  1.00  0.00     0.027 C 
BRANCH   3   4
ATOM      4  C   UNL     1      37.267   7.021  36.712  1.00  0.00     0.004 C 
BRANCH   4   5
ATOM      5  C   UNL     1      37.033   7.134  38.226  1.00  0.00     0.000 C 
BRANCH   5   6
ATOM      6  C   UNL     1      37.679   5.985  39.013  1.00  0.00     0.000 C 
BRANCH   6   7
ATOM      7  C   UNL     1      37.832   4.737  38.134  1.00  0.00     0.000 C 
BRANCH   7   8
ATOM      8  C   UNL     1      36.738   3.705  38.447  1.00  0.00     0.006 C 
BRANCH   8   9
ATOM      9  C   UNL     1      36.937   2.396  37.673  1.00  0.00     0.053 C 
BRANCH   9  10
ATOM     10  C   UNL     1      38.045   1.571  38.252  1.00  0.00     0.041 C 
ATOM     11  O   UNL     1      39.063   1.301  37.562  1.00  0.00    -0.550 OA
ATOM     12  O   UNL     1      37.939   1.074  39.545  1.00  0.00    -0.550 OA
ENDBRANCH   9  10
ENDBRANCH   8   9
ENDBRANCH   7   8
ENDBRANCH   6   7
ENDBRANCH   5   6
ENDBRANCH   4   5
ENDBRANCH   3   4
ENDBRANCH   1   3
BRANCH   2  13
ATOM     13  C   UNL     1      33.487   6.132  37.357  1.00  0.00     0.027 C 
BRANCH  13  14
ATOM     14  C   UNL     1      33.615   5.443  38.723  1.00  0.00     0.004 C 
BRANCH  14  15
ATOM     15  C   UNL     1      33.800   6.456  39.866  1.00  0.00     0.000 C 
BRANCH  15  16
ATOM     16  C   UNL     1      34.553   5.861  41.066  1.00  0.00     0.000 C 
BRANCH  16  17
ATOM     17  C   UNL     1      34.326   4.346  41.215  1.00  0.00    -0.000 C 
BRANCH  17  18
ATOM     18  C   UNL     1      35.436   3.654  42.025  1.00  0.00    -0.000 C 
BRANCH  18  19
ATOM     19  C   UNL     1      36.751   4.449  42.125  1.00  0.00    -0.003 C 
ATOM     20  C   UNL     1      37.993   3.562  42.044  1.00  0.00     0.004 C 
ENDBRANCH  18  19
ENDBRANCH  17  18
ENDBRANCH  16  17
ENDBRANCH  15  16
ENDBRANCH  14  15
ENDBRANCH  13  14
ENDBRANCH   2  13
TORSDOF 15
ENDMDL
MODEL 8
REMARK VINA RESULT:    -0.594      4.420      7.170
REMARK INTER + INTRA:          -4.334
REMARK INTER:                  -1.360
REMARK INTRA:                  -2.974
REMARK UNBOUND:                -3.219
REMARK SMILES CCCCCCCCC=CCCCCCCCC(=O)[O-]
REMARK SMILES IDX 10 1 9 2 11 3 12 4 13 5 14 6 15 7 16 8 17 9 18 10 19 11
REMARK SMILES IDX 20 12 8 13 7 14 6 15 5 16 4 17 3 18 2 19 1 20
REMARK H PARENT
REMARK Flexibility Score: inf
ROOT
ATOM      1  C   UNL     1      38.694   4.470  38.069  1.00  0.00    -0.031 C 
ATOM      2  C   UNL     1      37.352   4.571  38.043  1.00  0.00    -0.031 C 
ENDROOT
BRANCH   1   3
ATOM      3  C   UNL     1      39.454   3.169  38.101  1.00  0.00     0.027 C 
BRANCH   3   4
ATOM      4  C   UNL     1      40.758   3.283  37.297  1.00  0.00     0.004 C 
BRANCH   4   5
ATOM      5  C   UNL     1      41.672   2.061  37.477  1.00  0.00     0.000 C 
BRANCH   5   6
ATOM      6  C   UNL     1      41.226   1.152  38.631  1.00  0.00     0.000 C 
BRANCH   6   7
ATOM      7  C   UNL     1      42.283   1.114  39.740  1.00  0.00     0.000 C 
BRANCH   7   8
ATOM      8  C   UNL     1      41.785   1.835  41.002  1.00  0.00     0.006 C 
BRANCH   8   9
ATOM      9  C   UNL     1      41.972   3.355  40.913  1.00  0.00     0.053 C 
BRANCH   9  10
ATOM     10  C   UNL     1      43.389   3.723  40.597  1.00  0.00     0.041 C 
ATOM     11  O   UNL     1      44.305   3.493  41.429  1.00  0.00    -0.550 OA
ATOM     12  O   UNL     1      43.692   4.350  39.396  1.00  0.00    -0.550 OA
ENDBRANCH   9  10
ENDBRANCH   8   9
ENDBRANCH   7   8
ENDBRANCH   6   7
ENDBRANCH   5   6
ENDBRANCH   4   5
ENDBRANCH   3   4
ENDBRANCH   1   3
BRANCH   2  13
ATOM     13  C   UNL     1      36.406   3.398  37.949  1.00  0.00     0.027 C 
BRANCH  13  14
ATOM     14  C   UNL     1      35.614   3.195  39.249  1.00  0.00     0.004 C 
BRANCH  14  15
ATOM     15  C   UNL     1      36.095   1.961  40.032  1.00  0.00     0.000 C 
BRANCH  15  16
ATOM     16  C   UNL     1      36.561   2.310  41.454  1.00  0.00     0.000 C 
BRANCH  16  17
ATOM     17  C   UNL     1      38.072   2.589  41.530  1.00  0.00    -0.000 C 
BRANCH  17  18
ATOM     18  C   UNL     1      38.393   4.079  41.746  1.00  0.00    -0.000 C 
BRANCH  18  19
ATOM     19  C   UNL     1      37.182   4.950  42.125  1.00  0.00    -0.003 C 
ATOM     20  C   UNL     1      37.102   6.245  41.318  1.00  0.00     0.004 C 
ENDBRANCH  18  19
ENDBRANCH  17  18
ENDBRANCH  16  17
ENDBRANCH  15  16
ENDBRANCH  14  15
ENDBRANCH  13  14
ENDBRANCH   2  13
TORSDOF 15
ENDMDL
MODEL 9
REMARK VINA RESULT:     1.299      3.003      5.586
REMARK INTER + INTRA:          -0.781
REMARK INTER:                   2.264
REMARK INTRA:                  -3.045
REMARK UNBOUND:                -3.219
REMARK SMILES CCCCCCCCC=CCCCCCCCC(=O)[O-]
REMARK SMILES IDX 10 1 9 2 11 3 12 4 13 5 14 6 15 7 16 8 17 9 18 10 19 11
REMARK SMILES IDX 20 12 8 13 7 14 6 15 5 16 4 17 3 18 2 19 1 20
REMARK H PARENT
REMARK Flexibility Score: inf
ROOT
ATOM      1  C   UNL     1      36.950   3.002  37.604  1.00  0.00    -0.031 C 
ATOM      2  C   UNL     1      36.720   4.301  37.870  1.00  0.00    -0.031 C 
ENDROOT
BRANCH   1   3
ATOM      3  C   UNL     1      36.141   1.858  38.164  1.00  0.00     0.027 C 
BRANCH   3   4
ATOM      4  C   UNL     1      36.954   1.083  39.211  1.00  0.00     0.004 C 
BRANCH   4   5
ATOM      5  C   UNL     1      38.435   1.491  39.232  1.00  0.00     0.000 C 
BRANCH   5   6
ATOM      6  C   UNL     1      38.947   1.790  40.648  1.00  0.00     0.000 C 
BRANCH   6   7
ATOM      7  C   UNL     1      40.016   2.889  40.624  1.00  0.00     0.000 C 
BRANCH   7   8
ATOM      8  C   UNL     1      40.088   3.558  39.243  1.00  0.00     0.006 C 
BRANCH   8   9
ATOM      9  C   UNL     1      41.220   4.589  39.155  1.00  0.00     0.053 C 
BRANCH   9  10
ATOM     10  C   UNL     1      40.696   5.993  39.193  1.00  0.00     0.041 C 
ATOM     11  O   UNL     1      39.538   6.249  38.775  1.00  0.00    -0.550 OA
ATOM     12  O   UNL     1      41.503   7.022  39.662  1.00  0.00    -0.550 OA
ENDBRANCH   9  10
ENDBRANCH   8   9
ENDBRANCH   7   8
ENDBRANCH   6   7
ENDBRANCH   5   6
ENDBRANCH   4   5
ENDBRANCH   3   4
ENDBRANCH   1   3
BRANCH   2  13
ATOM     13  C   UNL     1      35.565   4.817  38.694  1.00  0.00     0.027 C 
BRANCH  13  14
ATOM     14  C   UNL     1      36.040   5.666  39.882  1.00  0.00     0.004 C 
BRANCH  14  15
ATOM     15  C   UNL     1      36.934   4.864  40.844  1.00  0.00     0.000 C 
BRANCH  15  16
ATOM     16  C   UNL     1      36.196   4.446  42.125  1.00  0.00     0.000 C 
BRANCH  16  17
ATOM     17  C   UNL     1      35.805   2.958  42.125  1.00  0.00    -0.000 C 
BRANCH  17  18
ATOM     18  C   UNL     1      34.281   2.742  42.123  1.00  0.00    -0.000 C 
BRANCH  18  19
ATOM     19  C   UNL     1      33.676   2.445  40.739  1.00  0.00    -0.003 C 
ATOM     20  C   UNL     1      32.227   2.913  40.607  1.00  0.00     0.004 C 
ENDBRANCH  18  19
ENDBRANCH  17  18
ENDBRANCH  16  17
ENDBRANCH  15  16
ENDBRANCH  14  15
ENDBRANCH  13  14
ENDBRANCH   2  13
TORSDOF 15
ENDMDL
