MODEL 1
REMARK VINA RESULT:    -3.321      0.000      0.000
REMARK INTER + INTRA:          -5.516
REMARK INTER:                  -5.068
REMARK INTRA:                  -0.447
REMARK UNBOUND:                -0.447
REMARK SMILES CC1=CCC[C@@H](C)C(=O)C[C@@H](C(C)C)C(=O)C1
REMARK SMILES IDX 8 1 9 2 6 3 7 4 5 5 4 6 3 7 2 8 1 9 10 11 11 12 15 13 16 14
REMARK SMILES IDX 17 15 12 17 13 18 14 19
REMARK H PARENT
REMARK Flexibility Score: 70.00
ROOT
ATOM      1  C   UNL     1      12.676  60.715  21.533  1.00  0.00     0.136 C 
ATOM      2  O   UNL     1      12.514  59.559  21.165  1.00  0.00    -0.299 OA
ENDROOT
BRANCH   1   3
ATOM      3  C   UNL     1      13.314  61.686  20.546  1.00  0.00     0.053 C 
ATOM      4  C   UNL     1      12.383  62.210  19.440  1.00  0.00     0.016 C 
BRANCH   3   5
ATOM      5  C   UNL     1      14.658  61.165  19.978  1.00  0.00     0.015 C 
BRANCH   5   6
ATOM      6  C   UNL     1      15.898  61.389  20.863  1.00  0.00     0.028 C 
BRANCH   6   7
ATOM      7  C   UNL     1      16.209  60.189  21.726  1.00  0.00    -0.028 C 
ATOM      8  C   UNL     1      16.209  60.149  23.079  1.00  0.00    -0.070 CG0
ATOM      9  C   UNL     1      16.440  58.812  23.741  1.00  0.00     0.039 C 
ATOM     10  G   UNL     1      15.899  61.351  23.954  1.00  0.00     0.000 G0
ENDBRANCH   6   7
ENDBRANCH   5   6
ENDBRANCH   3   5
ENDBRANCH   1   3
BRANCH   1  11
ATOM     11  C   UNL     1      12.379  61.051  22.986  1.00  0.00     0.087 C 
BRANCH  11  12
ATOM     12  C   UNL     1      13.373  62.083  23.599  1.00  0.00     0.066 C 
BRANCH  12  13
ATOM     13  C   UNL     1      14.463  61.391  24.420  1.00  0.00     0.140 C 
ATOM     14  O   UNL     1      14.192  60.867  25.492  1.00  0.00    -0.299 OA
BRANCH  13  15
ATOM     15  C   UNL     1      15.900  61.362  23.961  1.00  0.00     0.106 CG0
ATOM     16  G   UNL     1      16.193  60.163  23.077  1.00  0.00     0.000 G0
ENDBRANCH  13  15
ENDBRANCH  12  13
BRANCH  12  17
ATOM     17  C   UNL     1      12.645  63.204  24.416  1.00  0.00    -0.006 C 
ATOM     18  C   UNL     1      11.552  63.930  23.611  1.00  0.00     0.008 C 
ATOM     19  C   UNL     1      13.633  64.220  25.013  1.00  0.00     0.008 C 
ENDBRANCH  12  17
ENDBRANCH  11  12
ENDBRANCH   1  11
TORSDOF 1
ENDMDL
MODEL 2
REMARK VINA RESULT:    -3.184     12.166     14.635
REMARK INTER + INTRA:          -5.307
REMARK INTER:                  -4.928
REMARK INTRA:                  -0.378
REMARK UNBOUND:                -0.447
REMARK SMILES CC1=CCC[C@@H](C)C(=O)C[C@@H](C(C)C)C(=O)C1
REMARK SMILES IDX 8 1 9 2 6 3 7 4 5 5 4 6 3 7 2 8 1 9 10 11 11 12 15 13 16 14
REMARK SMILES IDX 17 15 12 17 13 18 14 19
REMARK H PARENT
REMARK Flexibility Score: 70.00
ROOT
ATOM      1  C   UNL     1      14.845  53.103  34.732  1.00  0.00     0.136 C 
ATOM      2  O   UNL     1      14.721  54.255  35.125  1.00  0.00    -0.299 OA
ENDROOT
BRANCH   1   3
ATOM      3  C   UNL     1      15.718  52.165  35.556  1.00  0.00     0.053 C 
ATOM      4  C   UNL     1      15.075  51.627  36.845  1.00  0.00     0.016 C 
BRANCH   3   5
ATOM      5  C   UNL     1      17.137  52.734  35.807  1.00  0.00     0.015 C 
BRANCH   5   6
ATOM      6  C   UNL     1      18.201  52.386  34.751  1.00  0.00     0.028 C 
BRANCH   6   7
ATOM      7  C   UNL     1      18.172  53.336  33.575  1.00  0.00    -0.028 C 
ATOM      8  C   UNL     1      17.755  53.050  32.320  1.00  0.00    -0.070 CG0
ATOM      9  C   UNL     1      17.706  54.183  31.323  1.00  0.00     0.039 C 
ATOM     10  G   UNL     1      17.252  51.683  31.894  1.00  0.00     0.000 G0
ENDBRANCH   6   7
ENDBRANCH   5   6
ENDBRANCH   3   5
ENDBRANCH   1   3
BRANCH   1  11
ATOM     11  C   UNL     1      14.254  52.744  33.377  1.00  0.00     0.087 C 
BRANCH  11  12
ATOM     12  C   UNL     1      14.791  51.398  32.803  1.00  0.00     0.066 C 
BRANCH  12  13
ATOM     13  C   UNL     1      15.767  51.631  31.648  1.00  0.00     0.140 C 
ATOM     14  O   UNL     1      15.353  51.753  30.504  1.00  0.00    -0.299 OA
BRANCH  13  15
ATOM     15  C   UNL     1      17.258  51.681  31.871  1.00  0.00     0.106 CG0
ATOM     16  G   UNL     1      17.726  53.061  32.298  1.00  0.00     0.000 G0
ENDBRANCH  13  15
ENDBRANCH  12  13
BRANCH  12  17
ATOM     17  C   UNL     1      13.639  50.412  32.409  1.00  0.00    -0.006 C 
ATOM     18  C   UNL     1      12.425  51.117  31.778  1.00  0.00     0.008 C 
ATOM     19  C   UNL     1      13.195  49.537  33.593  1.00  0.00     0.008 C 
ENDBRANCH  12  17
ENDBRANCH  11  12
ENDBRANCH   1  11
TORSDOF 1
ENDMDL
MODEL 3
REMARK VINA RESULT:    -3.049     12.399     14.585
REMARK INTER + INTRA:          -5.100
REMARK INTER:                  -4.898
REMARK INTRA:                  -0.202
REMARK UNBOUND:                -0.447
REMARK SMILES CC1=CCC[C@@H](C)C(=O)C[C@@H](C(C)C)C(=O)C1
REMARK SMILES IDX 8 1 9 2 6 3 7 4 5 5 4 6 3 7 2 8 1 9 10 11 11 12 15 13 16 14
REMARK SMILES IDX 17 15 12 17 13 18 14 19
REMARK H PARENT
REMARK Flexibility Score: 70.00
ROOT
ATOM      1  C   UNL     1      15.401  52.184  33.936  1.00  0.00     0.136 C 
ATOM      2  O   UNL     1      14.190  52.025  34.010  1.00  0.00    -0.299 OA
ENDROOT
BRANCH   1   3
ATOM      3  C   UNL     1      16.200  52.128  35.233  1.00  0.00     0.053 C 
ATOM      4  C   UNL     1      15.367  52.168  36.525  1.00  0.00     0.016 C 
BRANCH   3   5
ATOM      5  C   UNL     1      17.367  53.146  35.261  1.00  0.00     0.015 C 
BRANCH   5   6
ATOM      6  C   UNL     1      18.783  52.554  35.127  1.00  0.00     0.028 C 
BRANCH   6   7
ATOM      7  C   UNL     1      19.574  53.208  34.018  1.00  0.00    -0.028 C 
ATOM      8  C   UNL     1      19.731  52.739  32.758  1.00  0.00    -0.070 CG0
ATOM      9  C   UNL     1      20.473  53.611  31.774  1.00  0.00     0.039 C 
ATOM     10  G   UNL     1      19.127  51.437  32.266  1.00  0.00     0.000 G0
ENDBRANCH   6   7
ENDBRANCH   5   6
ENDBRANCH   3   5
ENDBRANCH   1   3
BRANCH   1  11
ATOM     11  C   UNL     1      15.988  52.581  32.591  1.00  0.00     0.087 C 
BRANCH  11  12
ATOM     12  C   UNL     1      16.533  51.372  31.771  1.00  0.00     0.066 C 
BRANCH  12  13
ATOM     13  C   UNL     1      17.973  51.611  31.312  1.00  0.00     0.140 C 
ATOM     14  O   UNL     1      18.210  51.928  30.155  1.00  0.00    -0.299 OA
BRANCH  13  15
ATOM     15  C   UNL     1      19.141  51.429  32.249  1.00  0.00     0.106 CG0
ATOM     16  G   UNL     1      19.696  52.756  32.734  1.00  0.00     0.000 G0
ENDBRANCH  13  15
ENDBRANCH  12  13
BRANCH  12  17
ATOM     17  C   UNL     1      15.593  50.985  30.579  1.00  0.00    -0.006 C 
ATOM     18  C   UNL     1      14.667  52.132  30.136  1.00  0.00     0.008 C 
ATOM     19  C   UNL     1      14.773  49.719  30.876  1.00  0.00     0.008 C 
ENDBRANCH  12  17
ENDBRANCH  11  12
ENDBRANCH   1  11
TORSDOF 1
ENDMDL
MODEL 4
REMARK VINA RESULT:    -2.943     11.817     14.243
REMARK INTER + INTRA:          -4.939
REMARK INTER:                  -4.409
REMARK INTRA:                  -0.530
REMARK UNBOUND:                -0.447
REMARK SMILES CC1=CCC[C@@H](C)C(=O)C[C@@H](C(C)C)C(=O)C1
REMARK SMILES IDX 8 1 9 2 6 3 7 4 5 5 4 6 3 7 2 8 1 9 10 11 11 12 15 13 16 14
REMARK SMILES IDX 17 15 12 17 13 18 14 19
REMARK H PARENT
REMARK Flexibility Score: 70.00
ROOT
ATOM      1  C   UNL     1      17.870  54.089  33.940  1.00  0.00     0.136 C 
ATOM      2  O   UNL     1      18.483  55.119  33.693  1.00  0.00    -0.299 OA
ENDROOT
BRANCH   1   3
ATOM      3  C   UNL     1      18.686  52.836  34.234  1.00  0.00     0.053 C 
ATOM      4  C   UNL     1      19.545  52.892  35.508  1.00  0.00     0.016 C 
BRANCH   3   5
ATOM      5  C   UNL     1      19.495  52.346  33.008  1.00  0.00     0.015 C 
BRANCH   5   6
ATOM      6  C   UNL     1      18.812  51.282  32.129  1.00  0.00     0.028 C 
BRANCH   6   7
ATOM      7  C   UNL     1      18.074  51.893  30.960  1.00  0.00    -0.028 C 
ATOM      8  C   UNL     1      16.735  51.889  30.763  1.00  0.00    -0.070 CG0
ATOM      9  C   UNL     1      16.199  52.658  29.579  1.00  0.00     0.039 C 
ATOM     10  G   UNL     1      15.749  51.235  31.714  1.00  0.00     0.000 G0
ENDBRANCH   6   7
ENDBRANCH   5   6
ENDBRANCH   3   5
ENDBRANCH   1   3
BRANCH   1  11
ATOM     11  C   UNL     1      16.358  54.101  33.777  1.00  0.00     0.087 C 
BRANCH  11  12
ATOM     12  C   UNL     1      15.707  52.692  33.925  1.00  0.00     0.066 C 
BRANCH  12  13
ATOM     13  C   UNL     1      15.052  52.238  32.619  1.00  0.00     0.140 C 
ATOM     14  O   UNL     1      13.950  52.661  32.299  1.00  0.00    -0.299 OA
BRANCH  13  15
ATOM     15  C   UNL     1      15.717  51.236  31.708  1.00  0.00     0.106 CG0
ATOM     16  G   UNL     1      16.738  51.885  30.792  1.00  0.00     0.000 G0
ENDBRANCH  13  15
ENDBRANCH  12  13
BRANCH  12  17
ATOM     17  C   UNL     1      14.718  52.613  35.136  1.00  0.00    -0.006 C 
ATOM     18  C   UNL     1      14.118  53.977  35.522  1.00  0.00     0.008 C 
ATOM     19  C   UNL     1      15.358  51.943  36.364  1.00  0.00     0.008 C 
ENDBRANCH  12  17
ENDBRANCH  11  12
ENDBRANCH   1  11
TORSDOF 1
ENDMDL
MODEL 5
REMARK VINA RESULT:    -2.838     11.478     14.097
REMARK INTER + INTRA:          -4.778
REMARK INTER:                  -4.636
REMARK INTRA:                  -0.142
REMARK UNBOUND:                -0.447
REMARK SMILES CC1=CCC[C@@H](C)C(=O)C[C@@H](C(C)C)C(=O)C1
REMARK SMILES IDX 8 1 9 2 6 3 7 4 5 5 4 6 3 7 2 8 1 9 10 11 11 12 15 13 16 14
REMARK SMILES IDX 17 15 12 17 13 18 14 19
REMARK H PARENT
REMARK Flexibility Score: 70.00
ROOT
ATOM      1  C   UNL     1      15.496  52.350  34.451  1.00  0.00     0.136 C 
ATOM      2  O   UNL     1      14.619  51.604  34.036  1.00  0.00    -0.299 OA
ENDROOT
BRANCH   1   3
ATOM      3  C   UNL     1      15.161  53.239  35.642  1.00  0.00     0.053 C 
ATOM      4  C   UNL     1      15.063  52.518  36.997  1.00  0.00     0.016 C 
BRANCH   3   5
ATOM      5  C   UNL     1      13.939  54.155  35.381  1.00  0.00     0.015 C 
BRANCH   5   6
ATOM      6  C   UNL     1      14.257  55.615  35.009  1.00  0.00     0.028 C 
BRANCH   6   7
ATOM      7  C   UNL     1      14.125  55.868  33.524  1.00  0.00    -0.028 C 
ATOM      8  C   UNL     1      15.138  56.075  32.651  1.00  0.00    -0.070 CG0
ATOM      9  C   UNL     1      14.786  56.198  31.188  1.00  0.00     0.039 C 
ATOM     10  G   UNL     1      16.601  56.096  33.052  1.00  0.00     0.000 G0
ENDBRANCH   6   7
ENDBRANCH   5   6
ENDBRANCH   3   5
ENDBRANCH   1   3
BRANCH   1  11
ATOM     11  C   UNL     1      16.787  52.447  33.653  1.00  0.00     0.087 C 
BRANCH  11  12
ATOM     12  C   UNL     1      17.569  53.774  33.898  1.00  0.00     0.066 C 
BRANCH  12  13
ATOM     13  C   UNL     1      17.305  54.792  32.786  1.00  0.00     0.140 C 
ATOM     14  O   UNL     1      17.682  54.572  31.644  1.00  0.00    -0.299 OA
BRANCH  13  15
ATOM     15  C   UNL     1      16.614  56.104  33.063  1.00  0.00     0.106 CG0
ATOM     16  G   UNL     1      15.153  56.078  32.652  1.00  0.00     0.000 G0
ENDBRANCH  13  15
ENDBRANCH  12  13
BRANCH  12  17
ATOM     17  C   UNL     1      19.099  53.535  34.125  1.00  0.00    -0.006 C 
ATOM     18  C   UNL     1      19.740  52.633  33.054  1.00  0.00     0.008 C 
ATOM     19  C   UNL     1      19.398  52.990  35.532  1.00  0.00     0.008 C 
ENDBRANCH  12  17
ENDBRANCH  11  12
ENDBRANCH   1  11
TORSDOF 1
ENDMDL
MODEL 6
REMARK VINA RESULT:    -2.788      2.629      4.078
REMARK INTER + INTRA:          -4.703
REMARK INTER:                  -4.486
REMARK INTRA:                  -0.217
REMARK UNBOUND:                -0.447
REMARK SMILES CC1=CCC[C@@H](C)C(=O)C[C@@H](C(C)C)C(=O)C1
REMARK SMILES IDX 8 1 9 2 6 3 7 4 5 5 4 6 3 7 2 8 1 9 10 11 11 12 15 13 16 14
REMARK SMILES IDX 17 15 12 17 13 18 14 19
REMARK H PARENT
REMARK Flexibility Score: 70.00
ROOT
ATOM      1  C   UNL     1      13.024  59.716  21.275  1.00  0.00     0.136 C 
ATOM      2  O   UNL     1      12.025  60.002  20.629  1.00  0.00    -0.299 OA
ENDROOT
BRANCH   1   3
ATOM      3  C   UNL     1      13.842  60.863  21.856  1.00  0.00     0.053 C 
ATOM      4  C   UNL     1      13.040  61.915  22.641  1.00  0.00     0.016 C 
BRANCH   3   5
ATOM      5  C   UNL     1      14.788  61.511  20.814  1.00  0.00     0.015 C 
BRANCH   5   6
ATOM      6  C   UNL     1      15.829  60.575  20.173  1.00  0.00     0.028 C 
BRANCH   6   7
ATOM      7  C   UNL     1      16.944  60.220  21.128  1.00  0.00    -0.028 C 
ATOM      8  C   UNL     1      17.221  58.989  21.619  1.00  0.00    -0.070 CG0
ATOM      9  C   UNL     1      18.455  58.840  22.476  1.00  0.00     0.039 C 
ATOM     10  G   UNL     1      16.415  57.749  21.280  1.00  0.00     0.000 G0
ENDBRANCH   6   7
ENDBRANCH   5   6
ENDBRANCH   3   5
ENDBRANCH   1   3
BRANCH   1  11
ATOM     11  C   UNL     1      13.456  58.258  21.312  1.00  0.00     0.087 C 
BRANCH  11  12
ATOM     12  C   UNL     1      14.146  57.850  22.650  1.00  0.00     0.066 C 
BRANCH  12  13
ATOM     13  C   UNL     1      15.539  57.267  22.406  1.00  0.00     0.140 C 
ATOM     14  O   UNL     1      15.995  56.417  23.159  1.00  0.00    -0.299 OA
BRANCH  13  15
ATOM     15  C   UNL     1      16.406  57.741  21.266  1.00  0.00     0.106 CG0
ATOM     16  G   UNL     1      17.207  58.978  21.633  1.00  0.00     0.000 G0
ENDBRANCH  13  15
ENDBRANCH  12  13
BRANCH  12  17
ATOM     17  C   UNL     1      13.254  56.899  23.518  1.00  0.00    -0.006 C 
ATOM     18  C   UNL     1      12.872  55.595  22.793  1.00  0.00     0.008 C 
ATOM     19  C   UNL     1      11.996  57.606  24.046  1.00  0.00     0.008 C 
ENDBRANCH  12  17
ENDBRANCH  11  12
ENDBRANCH   1  11
TORSDOF 1
ENDMDL
MODEL 7
REMARK VINA RESULT:    -2.771      2.274      2.916
REMARK INTER + INTRA:          -4.677
REMARK INTER:                  -4.332
REMARK INTRA:                  -0.345
REMARK UNBOUND:                -0.447
REMARK SMILES CC1=CCC[C@@H](C)C(=O)C[C@@H](C(C)C)C(=O)C1
REMARK SMILES IDX 8 1 9 2 6 3 7 4 5 5 4 6 3 7 2 8 1 9 10 11 11 12 15 13 16 14
REMARK SMILES IDX 17 15 12 17 13 18 14 19
REMARK H PARENT
REMARK Flexibility Score: 70.00
ROOT
ATOM      1  C   UNL     1      13.399  61.284  22.296  1.00  0.00     0.136 C 
ATOM      2  O   UNL     1      12.824  62.052  23.055  1.00  0.00    -0.299 OA
ENDROOT
BRANCH   1   3
ATOM      3  C   UNL     1      13.896  61.845  20.969  1.00  0.00     0.053 C 
ATOM      4  C   UNL     1      13.256  61.233  19.712  1.00  0.00     0.016 C 
BRANCH   3   5
ATOM      5  C   UNL     1      15.442  61.882  20.875  1.00  0.00     0.015 C 
BRANCH   5   6
ATOM      6  C   UNL     1      16.103  60.692  20.155  1.00  0.00     0.028 C 
BRANCH   6   7
ATOM      7  C   UNL     1      17.237  60.097  20.957  1.00  0.00    -0.028 C 
ATOM      8  C   UNL     1      17.181  58.985  21.727  1.00  0.00    -0.070 CG0
ATOM      9  C   UNL     1      18.466  58.503  22.356  1.00  0.00     0.039 C 
ATOM     10  G   UNL     1      15.923  58.155  21.912  1.00  0.00     0.000 G0
ENDBRANCH   6   7
ENDBRANCH   5   6
ENDBRANCH   3   5
ENDBRANCH   1   3
BRANCH   1  11
ATOM     11  C   UNL     1      13.430  59.808  22.660  1.00  0.00     0.087 C 
BRANCH  11  12
ATOM     12  C   UNL     1      14.501  59.459  23.739  1.00  0.00     0.066 C 
BRANCH  12  13
ATOM     13  C   UNL     1      15.352  58.261  23.314  1.00  0.00     0.140 C 
ATOM     14  O   UNL     1      15.620  57.376  24.116  1.00  0.00    -0.299 OA
BRANCH  13  15
ATOM     15  C   UNL     1      15.918  58.147  21.920  1.00  0.00     0.106 CG0
ATOM     16  G   UNL     1      17.180  58.973  21.747  1.00  0.00     0.000 G0
ENDBRANCH  13  15
ENDBRANCH  12  13
BRANCH  12  17
ATOM     17  C   UNL     1      13.876  59.261  25.161  1.00  0.00    -0.006 C 
ATOM     18  C   UNL     1      12.376  58.917  25.125  1.00  0.00     0.008 C 
ATOM     19  C   UNL     1      14.126  60.471  26.077  1.00  0.00     0.008 C 
ENDBRANCH  12  17
ENDBRANCH  11  12
ENDBRANCH   1  11
TORSDOF 1
ENDMDL
MODEL 8
REMARK VINA RESULT:    -2.741     11.443     13.657
REMARK INTER + INTRA:          -4.631
REMARK INTER:                  -4.381
REMARK INTRA:                  -0.250
REMARK UNBOUND:                -0.447
REMARK SMILES CC1=CCC[C@@H](C)C(=O)C[C@@H](C(C)C)C(=O)C1
REMARK SMILES IDX 8 1 9 2 6 3 7 4 5 5 4 6 3 7 2 8 1 9 10 11 11 12 15 13 16 14
REMARK SMILES IDX 17 15 12 17 13 18 14 19
REMARK H PARENT
REMARK Flexibility Score: 70.00
ROOT
ATOM      1  C   UNL     1      16.934  52.754  34.908  1.00  0.00     0.136 C 
ATOM      2  O   UNL     1      16.010  51.957  35.003  1.00  0.00    -0.299 OA
ENDROOT
BRANCH   1   3
ATOM      3  C   UNL     1      18.340  52.189  34.755  1.00  0.00     0.053 C 
ATOM      4  C   UNL     1      19.429  52.895  35.580  1.00  0.00     0.016 C 
BRANCH   3   5
ATOM      5  C   UNL     1      18.757  52.013  33.273  1.00  0.00     0.015 C 
BRANCH   5   6
ATOM      6  C   UNL     1      20.013  52.785  32.828  1.00  0.00     0.028 C 
BRANCH   6   7
ATOM      7  C   UNL     1      19.699  53.840  31.793  1.00  0.00    -0.028 C 
ATOM      8  C   UNL     1      19.334  55.121  32.035  1.00  0.00    -0.070 CG0
ATOM      9  C   UNL     1      19.175  56.040  30.848  1.00  0.00     0.039 C 
ATOM     10  G   UNL     1      19.170  55.697  33.430  1.00  0.00     0.000 G0
ENDBRANCH   6   7
ENDBRANCH   5   6
ENDBRANCH   3   5
ENDBRANCH   1   3
BRANCH   1  11
ATOM     11  C   UNL     1      16.627  54.230  35.110  1.00  0.00     0.087 C 
BRANCH  11  12
ATOM     12  C   UNL     1      16.623  55.050  33.783  1.00  0.00     0.066 C 
BRANCH  12  13
ATOM     13  C   UNL     1      17.750  56.084  33.762  1.00  0.00     0.140 C 
ATOM     14  O   UNL     1      17.510  57.265  33.973  1.00  0.00    -0.299 OA
BRANCH  13  15
ATOM     15  C   UNL     1      19.174  55.697  33.446  1.00  0.00     0.106 CG0
ATOM     16  G   UNL     1      19.315  55.139  32.042  1.00  0.00     0.000 G0
ENDBRANCH  13  15
ENDBRANCH  12  13
BRANCH  12  17
ATOM     17  C   UNL     1      15.228  55.693  33.480  1.00  0.00    -0.006 C 
ATOM     18  C   UNL     1      14.346  55.850  34.732  1.00  0.00     0.008 C 
ATOM     19  C   UNL     1      14.467  54.936  32.380  1.00  0.00     0.008 C 
ENDBRANCH  12  17
ENDBRANCH  11  12
ENDBRANCH   1  11
TORSDOF 1
ENDMDL
MODEL 9
REMARK VINA RESULT:    -2.570      1.839      3.767
REMARK INTER + INTRA:          -4.370
REMARK INTER:                  -5.068
REMARK INTRA:                   0.698
REMARK UNBOUND:                -0.447
REMARK SMILES CC1=CCC[C@@H](C)C(=O)C[C@@H](C(C)C)C(=O)C1
REMARK SMILES IDX 8 1 9 2 6 3 7 4 5 5 4 6 3 7 2 8 1 9 10 11 11 12 15 13 16 14
REMARK SMILES IDX 17 15 12 17 13 18 14 19
REMARK H PARENT
REMARK Flexibility Score: 70.00
ROOT
ATOM      1  C   UNL     1      15.928  60.413  20.659  1.00  0.00     0.136 C 
ATOM      2  O   UNL     1      15.802  60.479  19.444  1.00  0.00    -0.299 OA
ENDROOT
BRANCH   1   3
ATOM      3  C   UNL     1      16.409  59.093  21.248  1.00  0.00     0.053 C 
ATOM      4  C   UNL     1      15.362  57.966  21.285  1.00  0.00     0.016 C 
BRANCH   3   5
ATOM      5  C   UNL     1      17.120  59.269  22.613  1.00  0.00     0.015 C 
BRANCH   5   6
ATOM      6  C   UNL     1      16.318  58.838  23.854  1.00  0.00     0.028 C 
BRANCH   6   7
ATOM      7  C   UNL     1      15.895  60.017  24.699  1.00  0.00    -0.028 C 
ATOM      8  C   UNL     1      14.724  60.691  24.612  1.00  0.00    -0.070 CG0
ATOM      9  C   UNL     1      14.461  61.772  25.632  1.00  0.00     0.039 C 
ATOM     10  G   UNL     1      13.636  60.357  23.607  1.00  0.00     0.000 G0
ENDBRANCH   6   7
ENDBRANCH   5   6
ENDBRANCH   3   5
ENDBRANCH   1   3
BRANCH   1  11
ATOM     11  C   UNL     1      15.447  61.591  21.492  1.00  0.00     0.087 C 
BRANCH  11  12
ATOM     12  C   UNL     1      13.905  61.815  21.418  1.00  0.00     0.066 C 
BRANCH  12  13
ATOM     13  C   UNL     1      13.235  61.541  22.765  1.00  0.00     0.140 C 
ATOM     14  O   UNL     1      12.382  62.303  23.198  1.00  0.00    -0.299 OA
BRANCH  13  15
ATOM     15  C   UNL     1      13.623  60.357  23.616  1.00  0.00     0.106 CG0
ATOM     16  G   UNL     1      14.725  60.698  24.601  1.00  0.00     0.000 G0
ENDBRANCH  13  15
ENDBRANCH  12  13
BRANCH  12  17
ATOM     17  C   UNL     1      13.238  61.007  20.254  1.00  0.00    -0.006 C 
ATOM     18  C   UNL     1      12.508  61.900  19.234  1.00  0.00     0.008 C 
ATOM     19  C   UNL     1      12.295  59.910  20.776  1.00  0.00     0.008 C 
ENDBRANCH  12  17
ENDBRANCH  11  12
ENDBRANCH   1  11
TORSDOF 1
ENDMDL
