MODEL 1
REMARK VINA RESULT:    -3.749      0.000      0.000
REMARK INTER + INTRA:          -6.419
REMARK INTER:                  -5.940
REMARK INTRA:                  -0.479
REMARK UNBOUND:                -0.479
REMARK SMILES CCCCCCCCCCCC(=O)[O-]
REMARK SMILES IDX 7 1 8 2 9 3 10 4 11 5 12 6 13 7 14 8 6 9 5 10 4 11 3 12 2 13
REMARK SMILES IDX 1 14
REMARK H PARENT
REMARK Flexibility Score: inf
ROOT
ATOM      1  C   UNL     1      28.494  -9.669  30.838  1.00  0.00     0.000 C 
ENDROOT
BRANCH   1   2
ATOM      2  C   UNL     1      27.764 -10.361  29.675  1.00  0.00     0.000 C 
BRANCH   2   3
ATOM      3  C   UNL     1      26.710  -9.454  29.018  1.00  0.00     0.000 C 
BRANCH   3   4
ATOM      4  C   UNL     1      25.278  -9.781  29.478  1.00  0.00     0.006 C 
BRANCH   4   5
ATOM      5  C   UNL     1      24.636  -8.614  30.240  1.00  0.00     0.053 C 
BRANCH   5   6
ATOM      6  C   UNL     1      24.012  -7.618  29.310  1.00  0.00     0.041 C 
ATOM      7  O   UNL     1      23.465  -8.005  28.244  1.00  0.00    -0.550 OA
ATOM      8  O   UNL     1      24.068  -6.261  29.604  1.00  0.00    -0.550 OA
ENDBRANCH   5   6
ENDBRANCH   4   5
ENDBRANCH   3   4
ENDBRANCH   2   3
ENDBRANCH   1   2
BRANCH   1   9
ATOM      9  C   UNL     1      29.803 -10.380  31.232  1.00  0.00     0.000 C 
BRANCH   9  10
ATOM     10  C   UNL     1      30.851  -9.486  31.921  1.00  0.00    -0.000 C 
BRANCH  10  11
ATOM     11  C   UNL     1      30.384  -8.033  32.091  1.00  0.00    -0.000 C 
BRANCH  11  12
ATOM     12  C   UNL     1      31.371  -7.238  32.958  1.00  0.00    -0.000 C 
BRANCH  12  13
ATOM     13  C   UNL     1      31.939  -8.068  34.121  1.00  0.00    -0.003 C 
ATOM     14  C   UNL     1      32.998  -7.313  34.923  1.00  0.00     0.004 C 
ENDBRANCH  12  13
ENDBRANCH  11  12
ENDBRANCH  10  11
ENDBRANCH   9  10
ENDBRANCH   1   9
TORSDOF 10
ENDMDL
MODEL 2
REMARK VINA RESULT:    -3.729      3.216      6.414
REMARK INTER + INTRA:          -6.388
REMARK INTER:                  -5.420
REMARK INTRA:                  -0.968
REMARK UNBOUND:                -0.479
REMARK SMILES CCCCCCCCCCCC(=O)[O-]
REMARK SMILES IDX 7 1 8 2 9 3 10 4 11 5 12 6 13 7 14 8 6 9 5 10 4 11 3 12 2 13
REMARK SMILES IDX 1 14
REMARK H PARENT
REMARK Flexibility Score: inf
ROOT
ATOM      1  C   UNL     1      29.006 -11.301  29.988  1.00  0.00     0.000 C 
ENDROOT
BRANCH   1   2
ATOM      2  C   UNL     1      29.242  -9.918  30.618  1.00  0.00     0.000 C 
BRANCH   2   3
ATOM      3  C   UNL     1      30.380  -9.928  31.652  1.00  0.00     0.000 C 
BRANCH   3   4
ATOM      4  C   UNL     1      31.644  -9.208  31.151  1.00  0.00     0.006 C 
BRANCH   4   5
ATOM      5  C   UNL     1      31.552  -7.687  31.332  1.00  0.00     0.053 C 
BRANCH   5   6
ATOM      6  C   UNL     1      31.077  -7.317  32.704  1.00  0.00     0.041 C 
ATOM      7  O   UNL     1      30.000  -6.682  32.851  1.00  0.00    -0.550 OA
ATOM      8  O   UNL     1      31.843  -7.644  33.817  1.00  0.00    -0.550 OA
ENDBRANCH   5   6
ENDBRANCH   4   5
ENDBRANCH   3   4
ENDBRANCH   2   3
ENDBRANCH   1   2
BRANCH   1   9
ATOM      9  C   UNL     1      27.971 -11.272  28.848  1.00  0.00     0.000 C 
BRANCH   9  10
ATOM     10  C   UNL     1      27.464  -9.870  28.461  1.00  0.00    -0.000 C 
BRANCH  10  11
ATOM     11  C   UNL     1      25.944  -9.716  28.622  1.00  0.00    -0.000 C 
BRANCH  11  12
ATOM     12  C   UNL     1      25.609  -8.742  29.761  1.00  0.00    -0.000 C 
BRANCH  12  13
ATOM     13  C   UNL     1      24.841  -9.417  30.909  1.00  0.00    -0.003 C 
ATOM     14  C   UNL     1      25.739 -10.286  31.788  1.00  0.00     0.004 C 
ENDBRANCH  12  13
ENDBRANCH  11  12
ENDBRANCH  10  11
ENDBRANCH   9  10
ENDBRANCH   1   9
TORSDOF 10
ENDMDL
MODEL 3
REMARK VINA RESULT:    -3.719      1.774      2.729
REMARK INTER + INTRA:          -6.373
REMARK INTER:                  -5.412
REMARK INTRA:                  -0.960
REMARK UNBOUND:                -0.479
REMARK SMILES CCCCCCCCCCCC(=O)[O-]
REMARK SMILES IDX 7 1 8 2 9 3 10 4 11 5 12 6 13 7 14 8 6 9 5 10 4 11 3 12 2 13
REMARK SMILES IDX 1 14
REMARK H PARENT
REMARK Flexibility Score: inf
ROOT
ATOM      1  C   UNL     1      31.249 -11.729  30.263  1.00  0.00     0.000 C 
ENDROOT
BRANCH   1   2
ATOM      2  C   UNL     1      29.727 -11.682  30.050  1.00  0.00     0.000 C 
BRANCH   2   3
ATOM      3  C   UNL     1      28.995 -10.956  31.191  1.00  0.00     0.000 C 
BRANCH   3   4
ATOM      4  C   UNL     1      28.188  -9.741  30.700  1.00  0.00     0.006 C 
BRANCH   4   5
ATOM      5  C   UNL     1      26.693 -10.058  30.563  1.00  0.00     0.053 C 
BRANCH   5   6
ATOM      6  C   UNL     1      26.069  -9.315  29.420  1.00  0.00     0.041 C 
ATOM      7  O   UNL     1      25.242  -8.392  29.642  1.00  0.00    -0.550 OA
ATOM      8  O   UNL     1      26.375  -9.668  28.111  1.00  0.00    -0.550 OA
ENDBRANCH   5   6
ENDBRANCH   4   5
ENDBRANCH   3   4
ENDBRANCH   2   3
ENDBRANCH   1   2
BRANCH   1   9
ATOM      9  C   UNL     1      31.766 -10.579  31.148  1.00  0.00     0.000 C 
BRANCH   9  10
ATOM     10  C   UNL     1      32.745  -9.611  30.458  1.00  0.00    -0.000 C 
BRANCH  10  11
ATOM     11  C   UNL     1      32.597  -8.161  30.940  1.00  0.00    -0.000 C 
BRANCH  11  12
ATOM     12  C   UNL     1      31.132  -7.840  31.268  1.00  0.00    -0.000 C 
BRANCH  12  13
ATOM     13  C   UNL     1      30.958  -7.235  32.672  1.00  0.00    -0.003 C 
ATOM     14  C   UNL     1      31.783  -7.963  33.733  1.00  0.00     0.004 C 
ENDBRANCH  12  13
ENDBRANCH  11  12
ENDBRANCH  10  11
ENDBRANCH   9  10
ENDBRANCH   1   9
TORSDOF 10
ENDMDL
MODEL 4
REMARK VINA RESULT:    -3.716     18.766     20.345
REMARK INTER + INTRA:          -6.368
REMARK INTER:                  -5.469
REMARK INTRA:                  -0.899
REMARK UNBOUND:                -0.479
REMARK SMILES CCCCCCCCCCCC(=O)[O-]
REMARK SMILES IDX 7 1 8 2 9 3 10 4 11 5 12 6 13 7 14 8 6 9 5 10 4 11 3 12 2 13
REMARK SMILES IDX 1 14
REMARK H PARENT
REMARK Flexibility Score: inf
ROOT
ATOM      1  C   UNL     1      37.076   4.979  39.488  1.00  0.00     0.000 C 
ENDROOT
BRANCH   1   2
ATOM      2  C   UNL     1      37.297   6.428  39.953  1.00  0.00     0.000 C 
BRANCH   2   3
ATOM      3  C   UNL     1      35.978   7.153  40.268  1.00  0.00     0.000 C 
BRANCH   3   4
ATOM      4  C   UNL     1      34.963   6.249  40.990  1.00  0.00     0.006 C 
BRANCH   4   5
ATOM      5  C   UNL     1      35.083   6.349  42.516  1.00  0.00     0.053 C 
BRANCH   5   6
ATOM      6  C   UNL     1      33.753   6.197  43.190  1.00  0.00     0.041 C 
ATOM      7  O   UNL     1      33.357   7.065  44.011  1.00  0.00    -0.550 OA
ATOM      8  O   UNL     1      32.969   5.078  42.938  1.00  0.00    -0.550 OA
ENDBRANCH   5   6
ENDBRANCH   4   5
ENDBRANCH   3   4
ENDBRANCH   2   3
ENDBRANCH   1   2
BRANCH   1   9
ATOM      9  C   UNL     1      38.224   4.037  39.898  1.00  0.00     0.000 C 
BRANCH   9  10
ATOM     10  C   UNL     1      39.545   4.737  40.264  1.00  0.00    -0.000 C 
BRANCH  10  11
ATOM     11  C   UNL     1      39.872   4.658  41.763  1.00  0.00    -0.000 C 
BRANCH  11  12
ATOM     12  C   UNL     1      40.020   6.062  42.367  1.00  0.00    -0.000 C 
BRANCH  12  13
ATOM     13  C   UNL     1      38.764   6.512  43.131  1.00  0.00    -0.003 C 
ATOM     14  C   UNL     1      39.077   6.993  44.548  1.00  0.00     0.004 C 
ENDBRANCH  12  13
ENDBRANCH  11  12
ENDBRANCH  10  11
ENDBRANCH   9  10
ENDBRANCH   1   9
TORSDOF 10
ENDMDL
MODEL 5
REMARK VINA RESULT:    -3.703      3.252      6.486
REMARK INTER + INTRA:          -6.346
REMARK INTER:                  -5.360
REMARK INTRA:                  -0.987
REMARK UNBOUND:                -0.479
REMARK SMILES CCCCCCCCCCCC(=O)[O-]
REMARK SMILES IDX 7 1 8 2 9 3 10 4 11 5 12 6 13 7 14 8 6 9 5 10 4 11 3 12 2 13
REMARK SMILES IDX 1 14
REMARK H PARENT
REMARK Flexibility Score: inf
ROOT
ATOM      1  C   UNL     1      29.422 -11.940  31.245  1.00  0.00     0.000 C 
ENDROOT
BRANCH   1   2
ATOM      2  C   UNL     1      30.722 -11.557  30.518  1.00  0.00     0.000 C 
BRANCH   2   3
ATOM      3  C   UNL     1      31.445 -10.377  31.188  1.00  0.00     0.000 C 
BRANCH   3   4
ATOM      4  C   UNL     1      30.605  -9.088  31.185  1.00  0.00     0.006 C 
BRANCH   4   5
ATOM      5  C   UNL     1      31.456  -7.844  31.475  1.00  0.00     0.053 C 
BRANCH   5   6
ATOM      6  C   UNL     1      31.122  -7.240  32.805  1.00  0.00     0.041 C 
ATOM      7  O   UNL     1      30.073  -6.558  32.945  1.00  0.00    -0.550 OA
ATOM      8  O   UNL     1      31.989  -7.400  33.879  1.00  0.00    -0.550 OA
ENDBRANCH   5   6
ENDBRANCH   4   5
ENDBRANCH   3   4
ENDBRANCH   2   3
ENDBRANCH   1   2
BRANCH   1   9
ATOM      9  C   UNL     1      28.180 -11.852  30.337  1.00  0.00     0.000 C 
BRANCH   9  10
ATOM     10  C   UNL     1      28.430 -11.248  28.943  1.00  0.00    -0.000 C 
BRANCH  10  11
ATOM     11  C   UNL     1      27.665  -9.938  28.709  1.00  0.00    -0.000 C 
BRANCH  11  12
ATOM     12  C   UNL     1      26.979  -9.466  30.000  1.00  0.00    -0.000 C 
BRANCH  12  13
ATOM     13  C   UNL     1      25.558  -8.933  29.754  1.00  0.00    -0.003 C 
ATOM     14  C   UNL     1      24.984  -9.380  28.410  1.00  0.00     0.004 C 
ENDBRANCH  12  13
ENDBRANCH  11  12
ENDBRANCH  10  11
ENDBRANCH   9  10
ENDBRANCH   1   9
TORSDOF 10
ENDMDL
MODEL 6
REMARK VINA RESULT:    -3.702      3.090      6.894
REMARK INTER + INTRA:          -6.345
REMARK INTER:                  -5.748
REMARK INTRA:                  -0.597
REMARK UNBOUND:                -0.479
REMARK SMILES CCCCCCCCCCCC(=O)[O-]
REMARK SMILES IDX 7 1 8 2 9 3 10 4 11 5 12 6 13 7 14 8 6 9 5 10 4 11 3 12 2 13
REMARK SMILES IDX 1 14
REMARK H PARENT
REMARK Flexibility Score: inf
ROOT
ATOM      1  C   UNL     1      28.140 -11.205  30.118  1.00  0.00     0.000 C 
ENDROOT
BRANCH   1   2
ATOM      2  C   UNL     1      29.373 -11.082  31.029  1.00  0.00     0.000 C 
BRANCH   2   3
ATOM      3  C   UNL     1      29.771  -9.619  31.287  1.00  0.00     0.000 C 
BRANCH   3   4
ATOM      4  C   UNL     1      31.296  -9.413  31.299  1.00  0.00     0.006 C 
BRANCH   4   5
ATOM      5  C   UNL     1      31.680  -7.965  31.630  1.00  0.00     0.053 C 
BRANCH   5   6
ATOM      6  C   UNL     1      31.078  -7.511  32.926  1.00  0.00     0.041 C 
ATOM      7  O   UNL     1      31.482  -7.997  34.015  1.00  0.00    -0.550 OA
ATOM      8  O   UNL     1      30.048  -6.579  32.926  1.00  0.00    -0.550 OA
ENDBRANCH   5   6
ENDBRANCH   4   5
ENDBRANCH   3   4
ENDBRANCH   2   3
ENDBRANCH   1   2
BRANCH   1   9
ATOM      9  C   UNL     1      27.676  -9.850  29.551  1.00  0.00     0.000 C 
BRANCH   9  10
ATOM     10  C   UNL     1      26.869  -9.930  28.242  1.00  0.00    -0.000 C 
BRANCH  10  11
ATOM     11  C   UNL     1      25.410  -9.481  28.407  1.00  0.00    -0.000 C 
BRANCH  11  12
ATOM     12  C   UNL     1      25.198  -8.793  29.764  1.00  0.00    -0.000 C 
BRANCH  12  13
ATOM     13  C   UNL     1      24.225  -7.606  29.680  1.00  0.00    -0.003 C 
ATOM     14  C   UNL     1      23.290  -7.693  28.474  1.00  0.00     0.004 C 
ENDBRANCH  12  13
ENDBRANCH  11  12
ENDBRANCH  10  11
ENDBRANCH   9  10
ENDBRANCH   1   9
TORSDOF 10
ENDMDL
MODEL 7
REMARK VINA RESULT:    -3.698     16.346     17.727
REMARK INTER + INTRA:          -6.338
REMARK INTER:                  -5.785
REMARK INTRA:                  -0.554
REMARK UNBOUND:                -0.479
REMARK SMILES CCCCCCCCCCCC(=O)[O-]
REMARK SMILES IDX 7 1 8 2 9 3 10 4 11 5 12 6 13 7 14 8 6 9 5 10 4 11 3 12 2 13
REMARK SMILES IDX 1 14
REMARK H PARENT
REMARK Flexibility Score: inf
ROOT
ATOM      1  C   UNL     1      19.930   1.300  44.141  1.00  0.00     0.000 C 
ENDROOT
BRANCH   1   2
ATOM      2  C   UNL     1      19.925   2.389  45.227  1.00  0.00     0.000 C 
BRANCH   2   3
ATOM      3  C   UNL     1      20.209   3.789  44.658  1.00  0.00     0.000 C 
BRANCH   3   4
ATOM      4  C   UNL     1      21.705   4.028  44.388  1.00  0.00     0.006 C 
BRANCH   4   5
ATOM      5  C   UNL     1      22.000   4.222  42.895  1.00  0.00     0.053 C 
BRANCH   5   6
ATOM      6  C   UNL     1      23.000   3.226  42.391  1.00  0.00     0.041 C 
ATOM      7  O   UNL     1      22.623   2.244  41.700  1.00  0.00    -0.550 OA
ATOM      8  O   UNL     1      24.344   3.365  42.716  1.00  0.00    -0.550 OA
ENDBRANCH   5   6
ENDBRANCH   4   5
ENDBRANCH   3   4
ENDBRANCH   2   3
ENDBRANCH   1   2
BRANCH   1   9
ATOM      9  C   UNL     1      19.927  -0.126  44.723  1.00  0.00     0.000 C 
BRANCH   9  10
ATOM     10  C   UNL     1      20.641  -1.185  43.862  1.00  0.00    -0.000 C 
BRANCH  10  11
ATOM     11  C   UNL     1      20.795  -0.762  42.394  1.00  0.00    -0.000 C 
BRANCH  11  12
ATOM     12  C   UNL     1      20.947  -1.989  41.483  1.00  0.00    -0.000 C 
BRANCH  12  13
ATOM     13  C   UNL     1      21.436  -1.622  40.073  1.00  0.00    -0.003 C 
ATOM     14  C   UNL     1      22.902  -1.986  39.843  1.00  0.00     0.004 C 
ENDBRANCH  12  13
ENDBRANCH  11  12
ENDBRANCH  10  11
ENDBRANCH   9  10
ENDBRANCH   1   9
TORSDOF 10
ENDMDL
MODEL 8
REMARK VINA RESULT:    -3.667      1.537      1.708
REMARK INTER + INTRA:          -6.290
REMARK INTER:                  -5.596
REMARK INTRA:                  -0.694
REMARK UNBOUND:                -0.479
REMARK SMILES CCCCCCCCCCCC(=O)[O-]
REMARK SMILES IDX 7 1 8 2 9 3 10 4 11 5 12 6 13 7 14 8 6 9 5 10 4 11 3 12 2 13
REMARK SMILES IDX 1 14
REMARK H PARENT
REMARK Flexibility Score: inf
ROOT
ATOM      1  C   UNL     1      28.876  -9.778  30.533  1.00  0.00     0.000 C 
ENDROOT
BRANCH   1   2
ATOM      2  C   UNL     1      28.302 -10.664  29.415  1.00  0.00     0.000 C 
BRANCH   2   3
ATOM      3  C   UNL     1      27.416  -9.876  28.435  1.00  0.00     0.000 C 
BRANCH   3   4
ATOM      4  C   UNL     1      25.921  -9.965  28.786  1.00  0.00     0.006 C 
BRANCH   4   5
ATOM      5  C   UNL     1      25.430  -8.721  29.540  1.00  0.00     0.053 C 
BRANCH   5   6
ATOM      6  C   UNL     1      24.856  -9.072  30.879  1.00  0.00     0.041 C 
ATOM      7  O   UNL     1      25.613  -9.437  31.816  1.00  0.00    -0.550 OA
ATOM      8  O   UNL     1      23.481  -9.031  31.079  1.00  0.00    -0.550 OA
ENDBRANCH   5   6
ENDBRANCH   4   5
ENDBRANCH   3   4
ENDBRANCH   2   3
ENDBRANCH   1   2
BRANCH   1   9
ATOM      9  C   UNL     1      29.911 -10.511  31.407  1.00  0.00     0.000 C 
BRANCH   9  10
ATOM     10  C   UNL     1      31.233  -9.754  31.631  1.00  0.00    -0.000 C 
BRANCH  10  11
ATOM     11  C   UNL     1      31.129  -8.255  31.310  1.00  0.00    -0.000 C 
BRANCH  11  12
ATOM     12  C   UNL     1      31.162  -7.416  32.595  1.00  0.00    -0.000 C 
BRANCH  12  13
ATOM     13  C   UNL     1      31.664  -8.214  33.810  1.00  0.00    -0.003 C 
ATOM     14  C   UNL     1      32.673  -7.435  34.653  1.00  0.00     0.004 C 
ENDBRANCH  12  13
ENDBRANCH  11  12
ENDBRANCH  10  11
ENDBRANCH   9  10
ENDBRANCH   1   9
TORSDOF 10
ENDMDL
MODEL 9
REMARK VINA RESULT:    -3.641     16.646     17.707
REMARK INTER + INTRA:          -6.249
REMARK INTER:                  -5.317
REMARK INTRA:                  -0.933
REMARK UNBOUND:                -0.479
REMARK SMILES CCCCCCCCCCCC(=O)[O-]
REMARK SMILES IDX 7 1 8 2 9 3 10 4 11 5 12 6 13 7 14 8 6 9 5 10 4 11 3 12 2 13
REMARK SMILES IDX 1 14
REMARK H PARENT
REMARK Flexibility Score: inf
ROOT
ATOM      1  C   UNL     1      19.892   1.501  44.400  1.00  0.00     0.000 C 
ENDROOT
BRANCH   1   2
ATOM      2  C   UNL     1      20.238   0.048  44.766  1.00  0.00     0.000 C 
BRANCH   2   3
ATOM      3  C   UNL     1      20.385  -0.851  43.527  1.00  0.00     0.000 C 
BRANCH   3   4
ATOM      4  C   UNL     1      20.728  -0.057  42.255  1.00  0.00     0.006 C 
BRANCH   4   5
ATOM      5  C   UNL     1      22.140  -0.371  41.741  1.00  0.00     0.053 C 
BRANCH   5   6
ATOM      6  C   UNL     1      22.255  -1.785  41.259  1.00  0.00     0.041 C 
ATOM      7  O   UNL     1      21.350  -2.284  40.540  1.00  0.00    -0.550 OA
ATOM      8  O   UNL     1      23.345  -2.561  41.634  1.00  0.00    -0.550 OA
ENDBRANCH   5   6
ENDBRANCH   4   5
ENDBRANCH   3   4
ENDBRANCH   2   3
ENDBRANCH   1   2
BRANCH   1   9
ATOM      9  C   UNL     1      19.904   2.444  45.618  1.00  0.00     0.000 C 
BRANCH   9  10
ATOM     10  C   UNL     1      20.908   3.609  45.534  1.00  0.00    -0.000 C 
BRANCH  10  11
ATOM     11  C   UNL     1      20.445   4.736  44.599  1.00  0.00    -0.000 C 
BRANCH  11  12
ATOM     12  C   UNL     1      21.205   4.689  43.266  1.00  0.00    -0.000 C 
BRANCH  12  13
ATOM     13  C   UNL     1      22.563   3.977  43.383  1.00  0.00    -0.003 C 
ATOM     14  C   UNL     1      22.926   3.188  42.126  1.00  0.00     0.004 C 
ENDBRANCH  12  13
ENDBRANCH  11  12
ENDBRANCH  10  11
ENDBRANCH   9  10
ENDBRANCH   1   9
TORSDOF 10
ENDMDL
