MODEL 1
REMARK VINA RESULT:    -7.508      0.000      0.000
REMARK INTER + INTRA:         -12.263
REMARK INTER:                 -11.677
REMARK INTRA:                  -0.585
REMARK UNBOUND:                -0.585
REMARK SMILES COc1cc(CNC(=O)CCCCC=CC(C)C)ccc1O
REMARK SMILES IDX 11 1 12 2 13 3 14 4 15 5 16 6 17 7 18 8 10 9 8 10 9 11 7 12
REMARK SMILES IDX 6 14 5 15 4 16 19 17 3 18 20 19 21 20 2 21 1 22 22 23
REMARK H PARENT 7 13 22 24
REMARK Flexibility Score: inf
ROOT
ATOM      1  C   UNL     1       5.222   2.398 -23.309  1.00  0.00     0.010 C 
ENDROOT
BRANCH   1   2
ATOM      2  C   UNL     1       5.512   0.901 -23.123  1.00  0.00     0.005 C 
BRANCH   2   3
ATOM      3  C   UNL     1       5.678   0.505 -21.649  1.00  0.00     0.027 C 
BRANCH   3   4
ATOM      4  C   UNL     1       5.688  -0.990 -21.490  1.00  0.00    -0.031 C 
ATOM      5  C   UNL     1       5.115  -1.798 -22.400  1.00  0.00    -0.028 C 
BRANCH   5   6
ATOM      6  C   UNL     1       5.110  -3.304 -22.268  1.00  0.00     0.005 C 
ATOM      7  C   UNL     1       3.690  -3.847 -22.086  1.00  0.00     0.012 C 
ATOM      8  C   UNL     1       5.809  -3.970 -23.457  1.00  0.00     0.012 C 
ENDBRANCH   5   6
ENDBRANCH   3   4
ENDBRANCH   2   3
ENDBRANCH   1   2
BRANCH   1   9
ATOM      9  C   UNL     1       5.970   3.282 -22.303  1.00  0.00     0.100 C 
BRANCH   9  10
ATOM     10  C   UNL     1       5.093   4.408 -21.845  1.00  0.00     0.220 C 
ATOM     11  O   UNL     1       3.936   4.156 -21.414  1.00  0.00    -0.275 OA
ATOM     12  N   UNL     1       5.585   5.759 -21.864  1.00  0.00    -0.352 N 
ATOM     13  H   UNL     1       6.565   5.939 -22.180  1.00  0.00     0.163 HD
BRANCH  12  14
ATOM     14  C   UNL     1       4.779   6.895 -21.423  1.00  0.00     0.151 C 
BRANCH  14  15
ATOM     15  C   UNL     1       5.308   8.179 -22.008  1.00  0.00    -0.025 A 
ATOM     16  C   UNL     1       4.421   9.196 -22.391  1.00  0.00     0.056 A 
ATOM     17  C   UNL     1       6.687   8.371 -22.166  1.00  0.00     0.009 A 
ATOM     18  C   UNL     1       4.906  10.406 -22.928  1.00  0.00     0.160 A 
ATOM     19  C   UNL     1       7.174   9.563 -22.702  1.00  0.00     0.050 A 
ATOM     20  C   UNL     1       6.294  10.580 -23.083  1.00  0.00     0.157 A 
BRANCH  18  21
ATOM     21  O   UNL     1       4.045  11.446 -23.311  1.00  0.00    -0.493 OA
ATOM     22  C   UNL     1       2.664  11.516 -22.978  1.00  0.00     0.278 C 
ENDBRANCH  18  21
BRANCH  20  23
ATOM     23  O   UNL     1       6.816  11.758 -23.613  1.00  0.00    -0.504 OA
ATOM     24  H   UNL     1       7.716  11.792 -24.074  1.00  0.00     0.293 HD
ENDBRANCH  20  23
ENDBRANCH  14  15
ENDBRANCH  12  14
ENDBRANCH   9  10
ENDBRANCH   1   9
TORSDOF 10
ENDMDL
MODEL 2
REMARK VINA RESULT:    -7.275      1.329      2.208
REMARK INTER + INTRA:         -11.901
REMARK INTER:                 -11.398
REMARK INTRA:                  -0.502
REMARK UNBOUND:                -0.585
REMARK SMILES COc1cc(CNC(=O)CCCCC=CC(C)C)ccc1O
REMARK SMILES IDX 11 1 12 2 13 3 14 4 15 5 16 6 17 7 18 8 10 9 8 10 9 11 7 12
REMARK SMILES IDX 6 14 5 15 4 16 19 17 3 18 20 19 21 20 2 21 1 22 22 23
REMARK H PARENT 7 13 22 24
REMARK Flexibility Score: inf
ROOT
ATOM      1  C   UNL     1       4.305   2.967 -21.403  1.00  0.00     0.010 C 
ENDROOT
BRANCH   1   2
ATOM      2  C   UNL     1       4.571   1.712 -22.247  1.00  0.00     0.005 C 
BRANCH   2   3
ATOM      3  C   UNL     1       5.885   1.009 -21.873  1.00  0.00     0.027 C 
BRANCH   3   4
ATOM      4  C   UNL     1       5.630  -0.397 -21.405  1.00  0.00    -0.031 C 
ATOM      5  C   UNL     1       4.680  -1.165 -21.970  1.00  0.00    -0.028 C 
BRANCH   5   6
ATOM      6  C   UNL     1       4.402  -2.582 -21.521  1.00  0.00     0.005 C 
ATOM      7  C   UNL     1       2.936  -2.764 -21.116  1.00  0.00     0.012 C 
ATOM      8  C   UNL     1       4.810  -3.596 -22.593  1.00  0.00     0.012 C 
ENDBRANCH   5   6
ENDBRANCH   3   4
ENDBRANCH   2   3
ENDBRANCH   1   2
BRANCH   1   9
ATOM      9  C   UNL     1       4.146   4.235 -22.251  1.00  0.00     0.100 C 
BRANCH   9  10
ATOM     10  C   UNL     1       5.301   5.164 -22.023  1.00  0.00     0.220 C 
ATOM     11  O   UNL     1       6.452   4.686 -21.839  1.00  0.00    -0.275 OA
ATOM     12  N   UNL     1       5.098   6.587 -22.052  1.00  0.00    -0.352 N 
ATOM     13  H   UNL     1       4.144   6.961 -22.255  1.00  0.00     0.163 HD
BRANCH  12  14
ATOM     14  C   UNL     1       6.187   7.539 -21.845  1.00  0.00     0.151 C 
BRANCH  14  15
ATOM     15  C   UNL     1       5.834   8.882 -22.428  1.00  0.00    -0.025 A 
ATOM     16  C   UNL     1       6.803   9.628 -23.117  1.00  0.00     0.056 A 
ATOM     17  C   UNL     1       4.536   9.394 -22.297  1.00  0.00     0.009 A 
ATOM     18  C   UNL     1       6.480  10.880 -23.678  1.00  0.00     0.160 A 
ATOM     19  C   UNL     1       4.211  10.635 -22.844  1.00  0.00     0.050 A 
ATOM     20  C   UNL     1       5.172  11.380 -23.533  1.00  0.00     0.157 A 
BRANCH  18  21
ATOM     21  O   UNL     1       7.423  11.645 -24.380  1.00  0.00    -0.493 OA
ATOM     22  C   UNL     1       7.503  11.727 -25.798  1.00  0.00     0.278 C 
ENDBRANCH  18  21
BRANCH  20  23
ATOM     23  O   UNL     1       4.810  12.614 -24.067  1.00  0.00    -0.504 OA
ATOM     24  H   UNL     1       4.725  13.447 -23.498  1.00  0.00     0.293 HD
ENDBRANCH  20  23
ENDBRANCH  14  15
ENDBRANCH  12  14
ENDBRANCH   9  10
ENDBRANCH   1   9
TORSDOF 10
ENDMDL
MODEL 3
REMARK VINA RESULT:    -7.158      2.875     10.918
REMARK INTER + INTRA:         -11.718
REMARK INTER:                 -11.108
REMARK INTRA:                  -0.611
REMARK UNBOUND:                -0.585
REMARK SMILES COc1cc(CNC(=O)CCCCC=CC(C)C)ccc1O
REMARK SMILES IDX 11 1 12 2 13 3 14 4 15 5 16 6 17 7 18 8 10 9 8 10 9 11 7 12
REMARK SMILES IDX 6 14 5 15 4 16 19 17 3 18 20 19 21 20 2 21 1 22 22 23
REMARK H PARENT 7 13 22 24
REMARK Flexibility Score: inf
ROOT
ATOM      1  C   UNL     1       4.248   5.639 -22.395  1.00  0.00     0.010 C 
ENDROOT
BRANCH   1   2
ATOM      2  C   UNL     1       4.507   6.879 -21.527  1.00  0.00     0.005 C 
BRANCH   2   3
ATOM      3  C   UNL     1       5.821   7.592 -21.882  1.00  0.00     0.027 C 
BRANCH   3   4
ATOM      4  C   UNL     1       5.560   8.983 -22.388  1.00  0.00    -0.031 C 
ATOM      5  C   UNL     1       4.363   9.578 -22.226  1.00  0.00    -0.028 C 
BRANCH   5   6
ATOM      6  C   UNL     1       4.072  10.976 -22.723  1.00  0.00     0.005 C 
ATOM      7  C   UNL     1       4.941  11.335 -23.932  1.00  0.00     0.012 C 
ATOM      8  C   UNL     1       2.584  11.155 -23.039  1.00  0.00     0.012 C 
ENDBRANCH   5   6
ENDBRANCH   3   4
ENDBRANCH   2   3
ENDBRANCH   1   2
BRANCH   1   9
ATOM      9  C   UNL     1       3.982   4.375 -21.568  1.00  0.00     0.100 C 
BRANCH   9  10
ATOM     10  C   UNL     1       5.016   3.331 -21.864  1.00  0.00     0.220 C 
ATOM     11  O   UNL     1       6.002   3.625 -22.592  1.00  0.00    -0.275 OA
ATOM     12  N   UNL     1       4.900   2.018 -21.290  1.00  0.00    -0.352 N 
ATOM     13  H   UNL     1       4.100   1.811 -20.650  1.00  0.00     0.163 HD
BRANCH  12  14
ATOM     14  C   UNL     1       5.881   0.963 -21.537  1.00  0.00     0.151 C 
BRANCH  14  15
ATOM     15  C   UNL     1       5.223  -0.392 -21.496  1.00  0.00    -0.025 A 
ATOM     16  C   UNL     1       5.753  -1.455 -22.245  1.00  0.00     0.056 A 
ATOM     17  C   UNL     1       4.085  -0.604 -20.706  1.00  0.00     0.009 A 
ATOM     18  C   UNL     1       5.153  -2.730 -22.204  1.00  0.00     0.160 A 
ATOM     19  C   UNL     1       3.483  -1.861 -20.667  1.00  0.00     0.050 A 
ATOM     20  C   UNL     1       4.008  -2.924 -21.409  1.00  0.00     0.157 A 
BRANCH  18  21
ATOM     21  O   UNL     1       5.664  -3.814 -22.933  1.00  0.00    -0.493 OA
ATOM     22  C   UNL     1       5.558  -3.962 -24.344  1.00  0.00     0.278 C 
ENDBRANCH  18  21
BRANCH  20  23
ATOM     23  O   UNL     1       3.381  -4.166 -21.342  1.00  0.00    -0.504 OA
ATOM     24  H   UNL     1       2.385  -4.278 -21.485  1.00  0.00     0.293 HD
ENDBRANCH  20  23
ENDBRANCH  14  15
ENDBRANCH  12  14
ENDBRANCH   9  10
ENDBRANCH   1   9
TORSDOF 10
ENDMDL
MODEL 4
REMARK VINA RESULT:    -7.118      3.207     11.144
REMARK INTER + INTRA:         -11.657
REMARK INTER:                 -11.199
REMARK INTRA:                  -0.459
REMARK UNBOUND:                -0.585
REMARK SMILES COc1cc(CNC(=O)CCCCC=CC(C)C)ccc1O
REMARK SMILES IDX 11 1 12 2 13 3 14 4 15 5 16 6 17 7 18 8 10 9 8 10 9 11 7 12
REMARK SMILES IDX 6 14 5 15 4 16 19 17 3 18 20 19 21 20 2 21 1 22 22 23
REMARK H PARENT 7 13 22 24
REMARK Flexibility Score: inf
ROOT
ATOM      1  C   UNL     1       5.667   4.833 -21.551  1.00  0.00     0.010 C 
ENDROOT
BRANCH   1   2
ATOM      2  C   UNL     1       5.054   6.047 -22.265  1.00  0.00     0.005 C 
BRANCH   2   3
ATOM      3  C   UNL     1       5.730   7.371 -21.878  1.00  0.00     0.027 C 
BRANCH   3   4
ATOM      4  C   UNL     1       5.254   8.496 -22.753  1.00  0.00    -0.031 C 
ATOM      5  C   UNL     1       4.450   9.465 -22.278  1.00  0.00    -0.028 C 
BRANCH   5   6
ATOM      6  C   UNL     1       3.956  10.609 -23.134  1.00  0.00     0.005 C 
ATOM      7  C   UNL     1       2.773  11.330 -22.480  1.00  0.00     0.012 C 
ATOM      8  C   UNL     1       5.087  11.588 -23.462  1.00  0.00     0.012 C 
ENDBRANCH   5   6
ENDBRANCH   3   4
ENDBRANCH   2   3
ENDBRANCH   1   2
BRANCH   1   9
ATOM      9  C   UNL     1       5.428   3.515 -22.298  1.00  0.00     0.100 C 
BRANCH   9  10
ATOM     10  C   UNL     1       4.653   2.562 -21.440  1.00  0.00     0.220 C 
ATOM     11  O   UNL     1       3.647   2.977 -20.806  1.00  0.00    -0.275 OA
ATOM     12  N   UNL     1       5.036   1.178 -21.373  1.00  0.00    -0.352 N 
ATOM     13  H   UNL     1       5.844   0.845 -21.945  1.00  0.00     0.163 HD
BRANCH  12  14
ATOM     14  C   UNL     1       4.314   0.201 -20.560  1.00  0.00     0.151 C 
BRANCH  14  15
ATOM     15  C   UNL     1       4.428  -1.176 -21.160  1.00  0.00    -0.025 A 
ATOM     16  C   UNL     1       3.469  -2.156 -20.862  1.00  0.00     0.056 A 
ATOM     17  C   UNL     1       5.485  -1.486 -22.027  1.00  0.00     0.009 A 
ATOM     18  C   UNL     1       3.559  -3.444 -21.428  1.00  0.00     0.160 A 
ATOM     19  C   UNL     1       5.584  -2.760 -22.585  1.00  0.00     0.050 A 
ATOM     20  C   UNL     1       4.630  -3.739 -22.293  1.00  0.00     0.157 A 
BRANCH  18  21
ATOM     21  O   UNL     1       2.611  -4.442 -21.157  1.00  0.00    -0.493 OA
ATOM     22  C   UNL     1       1.394  -4.616 -21.872  1.00  0.00     0.278 C 
ENDBRANCH  18  21
BRANCH  20  23
ATOM     23  O   UNL     1       4.760  -5.000 -22.871  1.00  0.00    -0.504 OA
ATOM     24  H   UNL     1       5.490  -5.217 -23.537  1.00  0.00     0.293 HD
ENDBRANCH  20  23
ENDBRANCH  14  15
ENDBRANCH  12  14
ENDBRANCH   9  10
ENDBRANCH   1   9
TORSDOF 10
ENDMDL
MODEL 5
REMARK VINA RESULT:    -7.100      1.039      1.131
REMARK INTER + INTRA:         -11.629
REMARK INTER:                 -10.865
REMARK INTRA:                  -0.764
REMARK UNBOUND:                -0.585
REMARK SMILES COc1cc(CNC(=O)CCCCC=CC(C)C)ccc1O
REMARK SMILES IDX 11 1 12 2 13 3 14 4 15 5 16 6 17 7 18 8 10 9 8 10 9 11 7 12
REMARK SMILES IDX 6 14 5 15 4 16 19 17 3 18 20 19 21 20 2 21 1 22 22 23
REMARK H PARENT 7 13 22 24
REMARK Flexibility Score: inf
ROOT
ATOM      1  C   UNL     1       3.963   2.914 -22.269  1.00  0.00     0.010 C 
ENDROOT
BRANCH   1   2
ATOM      2  C   UNL     1       4.697   1.856 -21.433  1.00  0.00     0.005 C 
BRANCH   2   3
ATOM      3  C   UNL     1       5.807   1.141 -22.217  1.00  0.00     0.027 C 
BRANCH   3   4
ATOM      4  C   UNL     1       5.525  -0.332 -22.331  1.00  0.00    -0.031 C 
ATOM      5  C   UNL     1       4.806  -0.984 -21.399  1.00  0.00    -0.028 C 
BRANCH   5   6
ATOM      6  C   UNL     1       4.506  -2.463 -21.487  1.00  0.00     0.005 C 
ATOM      7  C   UNL     1       3.008  -2.722 -21.673  1.00  0.00     0.012 C 
ATOM      8  C   UNL     1       5.324  -3.133 -22.595  1.00  0.00     0.012 C 
ENDBRANCH   5   6
ENDBRANCH   3   4
ENDBRANCH   2   3
ENDBRANCH   1   2
BRANCH   1   9
ATOM      9  C   UNL     1       4.917   3.869 -22.998  1.00  0.00     0.100 C 
BRANCH   9  10
ATOM     10  C   UNL     1       5.336   4.984 -22.088  1.00  0.00     0.220 C 
ATOM     11  O   UNL     1       6.457   4.928 -21.516  1.00  0.00    -0.275 OA
ATOM     12  N   UNL     1       4.478   6.122 -21.901  1.00  0.00    -0.352 N 
ATOM     13  H   UNL     1       3.575   6.170 -22.423  1.00  0.00     0.163 HD
BRANCH  12  14
ATOM     14  C   UNL     1       4.837   7.242 -21.033  1.00  0.00     0.151 C 
BRANCH  14  15
ATOM     15  C   UNL     1       5.285   8.424 -21.852  1.00  0.00    -0.025 A 
ATOM     16  C   UNL     1       4.362   9.415 -22.222  1.00  0.00     0.056 A 
ATOM     17  C   UNL     1       6.625   8.550 -22.243  1.00  0.00     0.009 A 
ATOM     18  C   UNL     1       4.772  10.532 -22.978  1.00  0.00     0.160 A 
ATOM     19  C   UNL     1       7.036   9.649 -22.996  1.00  0.00     0.050 A 
ATOM     20  C   UNL     1       6.121  10.639 -23.365  1.00  0.00     0.157 A 
BRANCH  18  21
ATOM     21  O   UNL     1       3.876  11.543 -23.355  1.00  0.00    -0.493 OA
ATOM     22  C   UNL     1       2.478  11.524 -23.090  1.00  0.00     0.278 C 
ENDBRANCH  18  21
BRANCH  20  23
ATOM     23  O   UNL     1       6.569  11.724 -24.116  1.00  0.00    -0.504 OA
ATOM     24  H   UNL     1       6.901  12.579 -23.688  1.00  0.00     0.293 HD
ENDBRANCH  20  23
ENDBRANCH  14  15
ENDBRANCH  12  14
ENDBRANCH   9  10
ENDBRANCH   1   9
TORSDOF 10
ENDMDL
MODEL 6
REMARK VINA RESULT:    -7.013      1.621      2.214
REMARK INTER + INTRA:         -11.493
REMARK INTER:                 -11.023
REMARK INTRA:                  -0.470
REMARK UNBOUND:                -0.585
REMARK SMILES COc1cc(CNC(=O)CCCCC=CC(C)C)ccc1O
REMARK SMILES IDX 11 1 12 2 13 3 14 4 15 5 16 6 17 7 18 8 10 9 8 10 9 11 7 12
REMARK SMILES IDX 6 14 5 15 4 16 19 17 3 18 20 19 21 20 2 21 1 22 22 23
REMARK H PARENT 7 13 22 24
REMARK Flexibility Score: inf
ROOT
ATOM      1  C   UNL     1       5.194   4.058 -21.647  1.00  0.00     0.010 C 
ENDROOT
BRANCH   1   2
ATOM      2  C   UNL     1       4.835   2.564 -21.621  1.00  0.00     0.005 C 
BRANCH   2   3
ATOM      3  C   UNL     1       5.900   1.683 -22.288  1.00  0.00     0.027 C 
BRANCH   3   4
ATOM      4  C   UNL     1       5.444   0.252 -22.367  1.00  0.00    -0.031 C 
ATOM      5  C   UNL     1       5.264  -0.491 -21.260  1.00  0.00    -0.028 C 
BRANCH   5   6
ATOM      6  C   UNL     1       4.806  -1.931 -21.309  1.00  0.00     0.005 C 
ATOM      7  C   UNL     1       3.284  -2.032 -21.445  1.00  0.00     0.012 C 
ATOM      8  C   UNL     1       5.515  -2.703 -22.426  1.00  0.00     0.012 C 
ENDBRANCH   5   6
ENDBRANCH   3   4
ENDBRANCH   2   3
ENDBRANCH   1   2
BRANCH   1   9
ATOM      9  C   UNL     1       3.961   4.969 -21.685  1.00  0.00     0.100 C 
BRANCH   9  10
ATOM     10  C   UNL     1       4.036   5.900 -22.857  1.00  0.00     0.220 C 
ATOM     11  O   UNL     1       4.244   5.431 -24.008  1.00  0.00    -0.275 OA
ATOM     12  N   UNL     1       3.836   7.312 -22.671  1.00  0.00    -0.352 N 
ATOM     13  H   UNL     1       3.616   7.673 -21.715  1.00  0.00     0.163 HD
BRANCH  12  14
ATOM     14  C   UNL     1       3.889   8.266 -23.777  1.00  0.00     0.151 C 
BRANCH  14  15
ATOM     15  C   UNL     1       5.042   9.218 -23.599  1.00  0.00    -0.025 A 
ATOM     16  C   UNL     1       4.910  10.563 -23.979  1.00  0.00     0.056 A 
ATOM     17  C   UNL     1       6.251   8.773 -23.046  1.00  0.00     0.009 A 
ATOM     18  C   UNL     1       5.979  11.466 -23.805  1.00  0.00     0.160 A 
ATOM     19  C   UNL     1       7.314   9.660 -22.877  1.00  0.00     0.050 A 
ATOM     20  C   UNL     1       7.186  11.001 -23.252  1.00  0.00     0.157 A 
BRANCH  18  21
ATOM     21  O   UNL     1       5.874  12.818 -24.165  1.00  0.00    -0.493 OA
ATOM     22  C   UNL     1       6.508  13.405 -25.295  1.00  0.00     0.278 C 
ENDBRANCH  18  21
BRANCH  20  23
ATOM     23  O   UNL     1       8.269  11.857 -23.066  1.00  0.00    -0.504 OA
ATOM     24  H   UNL     1       9.167  11.698 -23.505  1.00  0.00     0.293 HD
ENDBRANCH  20  23
ENDBRANCH  14  15
ENDBRANCH  12  14
ENDBRANCH   9  10
ENDBRANCH   1   9
TORSDOF 10
ENDMDL
MODEL 7
REMARK VINA RESULT:    -7.006      1.915      2.458
REMARK INTER + INTRA:         -11.483
REMARK INTER:                 -10.870
REMARK INTRA:                  -0.613
REMARK UNBOUND:                -0.585
REMARK SMILES COc1cc(CNC(=O)CCCCC=CC(C)C)ccc1O
REMARK SMILES IDX 11 1 12 2 13 3 14 4 15 5 16 6 17 7 18 8 10 9 8 10 9 11 7 12
REMARK SMILES IDX 6 14 5 15 4 16 19 17 3 18 20 19 21 20 2 21 1 22 22 23
REMARK H PARENT 7 13 22 24
REMARK Flexibility Score: inf
ROOT
ATOM      1  C   UNL     1       5.063   1.285 -22.393  1.00  0.00     0.010 C 
ENDROOT
BRANCH   1   2
ATOM      2  C   UNL     1       5.595   0.166 -21.485  1.00  0.00     0.005 C 
BRANCH   2   3
ATOM      3  C   UNL     1       4.474  -0.655 -20.831  1.00  0.00     0.027 C 
BRANCH   3   4
ATOM      4  C   UNL     1       4.294  -1.975 -21.528  1.00  0.00    -0.031 C 
ATOM      5  C   UNL     1       5.329  -2.611 -22.107  1.00  0.00    -0.028 C 
BRANCH   5   6
ATOM      6  C   UNL     1       5.179  -3.939 -22.814  1.00  0.00     0.005 C 
ATOM      7  C   UNL     1       3.922  -3.971 -23.687  1.00  0.00     0.012 C 
ATOM      8  C   UNL     1       6.429  -4.278 -23.631  1.00  0.00     0.012 C 
ENDBRANCH   5   6
ENDBRANCH   3   4
ENDBRANCH   2   3
ENDBRANCH   1   2
BRANCH   1   9
ATOM      9  C   UNL     1       4.588   2.516 -21.609  1.00  0.00     0.100 C 
BRANCH   9  10
ATOM     10  C   UNL     1       5.505   3.676 -21.855  1.00  0.00     0.220 C 
ATOM     11  O   UNL     1       6.683   3.462 -22.246  1.00  0.00    -0.275 OA
ATOM     12  N   UNL     1       5.028   5.021 -21.681  1.00  0.00    -0.352 N 
ATOM     13  H   UNL     1       4.033   5.176 -21.404  1.00  0.00     0.163 HD
BRANCH  12  14
ATOM     14  C   UNL     1       5.873   6.191 -21.913  1.00  0.00     0.151 C 
BRANCH  14  15
ATOM     15  C   UNL     1       5.064   7.322 -22.490  1.00  0.00    -0.025 A 
ATOM     16  C   UNL     1       4.241   7.103 -23.606  1.00  0.00     0.056 A 
ATOM     17  C   UNL     1       5.117   8.599 -21.914  1.00  0.00     0.009 A 
ATOM     18  C   UNL     1       3.470   8.152 -24.147  1.00  0.00     0.160 A 
ATOM     19  C   UNL     1       4.362   9.643 -22.447  1.00  0.00     0.050 A 
ATOM     20  C   UNL     1       3.540   9.428 -23.557  1.00  0.00     0.157 A 
BRANCH  18  21
ATOM     21  O   UNL     1       2.631   7.962 -25.255  1.00  0.00    -0.493 OA
ATOM     22  C   UNL     1       2.016   6.727 -25.601  1.00  0.00     0.278 C 
ENDBRANCH  18  21
BRANCH  20  23
ATOM     23  O   UNL     1       2.798  10.494 -24.061  1.00  0.00    -0.504 OA
ATOM     24  H   UNL     1       1.792  10.550 -23.961  1.00  0.00     0.293 HD
ENDBRANCH  20  23
ENDBRANCH  14  15
ENDBRANCH  12  14
ENDBRANCH   9  10
ENDBRANCH   1   9
TORSDOF 10
ENDMDL
MODEL 8
REMARK VINA RESULT:    -6.913      3.290     11.136
REMARK INTER + INTRA:         -11.337
REMARK INTER:                 -10.910
REMARK INTRA:                  -0.427
REMARK UNBOUND:                -0.585
REMARK SMILES COc1cc(CNC(=O)CCCCC=CC(C)C)ccc1O
REMARK SMILES IDX 11 1 12 2 13 3 14 4 15 5 16 6 17 7 18 8 10 9 8 10 9 11 7 12
REMARK SMILES IDX 6 14 5 15 4 16 19 17 3 18 20 19 21 20 2 21 1 22 22 23
REMARK H PARENT 7 13 22 24
REMARK Flexibility Score: inf
ROOT
ATOM      1  C   UNL     1       4.574   4.416 -22.660  1.00  0.00     0.010 C 
ENDROOT
BRANCH   1   2
ATOM      2  C   UNL     1       5.466   5.389 -21.875  1.00  0.00     0.005 C 
BRANCH   2   3
ATOM      3  C   UNL     1       4.734   6.678 -21.474  1.00  0.00     0.027 C 
BRANCH   3   4
ATOM      4  C   UNL     1       4.962   7.766 -22.487  1.00  0.00    -0.031 C 
ATOM      5  C   UNL     1       5.847   8.755 -22.269  1.00  0.00    -0.028 C 
BRANCH   5   6
ATOM      6  C   UNL     1       6.098   9.862 -23.268  1.00  0.00     0.005 C 
ATOM      7  C   UNL     1       4.962  10.887 -23.268  1.00  0.00     0.012 C 
ATOM      8  C   UNL     1       7.452  10.535 -23.024  1.00  0.00     0.012 C 
ENDBRANCH   5   6
ENDBRANCH   3   4
ENDBRANCH   2   3
ENDBRANCH   1   2
BRANCH   1   9
ATOM      9  C   UNL     1       5.187   3.016 -22.792  1.00  0.00     0.100 C 
BRANCH   9  10
ATOM     10  C   UNL     1       4.690   2.123 -21.696  1.00  0.00     0.220 C 
ATOM     11  O   UNL     1       3.994   2.613 -20.767  1.00  0.00    -0.275 OA
ATOM     12  N   UNL     1       4.976   0.715 -21.728  1.00  0.00    -0.352 N 
ATOM     13  H   UNL     1       5.513   0.322 -22.534  1.00  0.00     0.163 HD
BRANCH  12  14
ATOM     14  C   UNL     1       4.511  -0.205 -20.692  1.00  0.00     0.151 C 
BRANCH  14  15
ATOM     15  C   UNL     1       4.276  -1.577 -21.268  1.00  0.00    -0.025 A 
ATOM     16  C   UNL     1       5.117  -2.070 -22.278  1.00  0.00     0.056 A 
ATOM     17  C   UNL     1       3.224  -2.374 -20.797  1.00  0.00     0.009 A 
ATOM     18  C   UNL     1       4.915  -3.357 -22.815  1.00  0.00     0.160 A 
ATOM     19  C   UNL     1       3.014  -3.646 -21.329  1.00  0.00     0.050 A 
ATOM     20  C   UNL     1       3.851  -4.142 -22.333  1.00  0.00     0.157 A 
BRANCH  18  21
ATOM     21  O   UNL     1       5.744  -3.882 -23.817  1.00  0.00    -0.493 OA
ATOM     22  C   UNL     1       7.038  -4.429 -23.592  1.00  0.00     0.278 C 
ENDBRANCH  18  21
BRANCH  20  23
ATOM     23  O   UNL     1       3.611  -5.418 -22.839  1.00  0.00    -0.504 OA
ATOM     24  H   UNL     1       3.511  -6.228 -22.240  1.00  0.00     0.293 HD
ENDBRANCH  20  23
ENDBRANCH  14  15
ENDBRANCH  12  14
ENDBRANCH   9  10
ENDBRANCH   1   9
TORSDOF 10
ENDMDL
MODEL 9
REMARK VINA RESULT:    -6.828      2.997     10.510
REMARK INTER + INTRA:         -11.206
REMARK INTER:                 -10.568
REMARK INTRA:                  -0.638
REMARK UNBOUND:                -0.585
REMARK SMILES COc1cc(CNC(=O)CCCCC=CC(C)C)ccc1O
REMARK SMILES IDX 11 1 12 2 13 3 14 4 15 5 16 6 17 7 18 8 10 9 8 10 9 11 7 12
REMARK SMILES IDX 6 14 5 15 4 16 19 17 3 18 20 19 21 20 2 21 1 22 22 23
REMARK H PARENT 7 13 22 24
REMARK Flexibility Score: inf
ROOT
ATOM      1  C   UNL     1       4.546   5.785 -22.373  1.00  0.00     0.010 C 
ENDROOT
BRANCH   1   2
ATOM      2  C   UNL     1       4.690   7.039 -21.499  1.00  0.00     0.005 C 
BRANCH   2   3
ATOM      3  C   UNL     1       5.868   7.929 -21.921  1.00  0.00     0.027 C 
BRANCH   3   4
ATOM      4  C   UNL     1       5.395   9.100 -22.736  1.00  0.00    -0.031 C 
ATOM      5  C   UNL     1       4.503   9.982 -22.249  1.00  0.00    -0.028 C 
BRANCH   5   6
ATOM      6  C   UNL     1       4.009  11.169 -23.045  1.00  0.00     0.005 C 
ATOM      7  C   UNL     1       4.516  11.126 -24.489  1.00  0.00     0.012 C 
ATOM      8  C   UNL     1       2.481  11.274 -22.997  1.00  0.00     0.012 C 
ENDBRANCH   5   6
ENDBRANCH   3   4
ENDBRANCH   2   3
ENDBRANCH   1   2
BRANCH   1   9
ATOM      9  C   UNL     1       5.302   4.574 -21.812  1.00  0.00     0.100 C 
BRANCH   9  10
ATOM     10  C   UNL     1       5.113   3.383 -22.701  1.00  0.00     0.220 C 
ATOM     11  O   UNL     1       4.200   3.397 -23.570  1.00  0.00    -0.275 OA
ATOM     12  N   UNL     1       5.991   2.250 -22.586  1.00  0.00    -0.352 N 
ATOM     13  H   UNL     1       6.772   2.280 -21.892  1.00  0.00     0.163 HD
BRANCH  12  14
ATOM     14  C   UNL     1       5.860   1.065 -23.431  1.00  0.00     0.151 C 
BRANCH  14  15
ATOM     15  C   UNL     1       5.041   0.008 -22.736  1.00  0.00    -0.025 A 
ATOM     16  C   UNL     1       4.041  -0.683 -23.438  1.00  0.00     0.056 A 
ATOM     17  C   UNL     1       5.277  -0.300 -21.389  1.00  0.00     0.009 A 
ATOM     18  C   UNL     1       3.278  -1.682 -22.801  1.00  0.00     0.160 A 
ATOM     19  C   UNL     1       4.521  -1.284 -20.751  1.00  0.00     0.050 A 
ATOM     20  C   UNL     1       3.526  -1.976 -21.447  1.00  0.00     0.157 A 
BRANCH  18  21
ATOM     21  O   UNL     1       2.278  -2.397 -23.478  1.00  0.00    -0.493 OA
ATOM     22  C   UNL     1       2.321  -2.737 -24.858  1.00  0.00     0.278 C 
ENDBRANCH  18  21
BRANCH  20  23
ATOM     23  O   UNL     1       2.793  -2.953 -20.777  1.00  0.00    -0.504 OA
ATOM     24  H   UNL     1       2.626  -3.870 -21.171  1.00  0.00     0.293 HD
ENDBRANCH  20  23
ENDBRANCH  14  15
ENDBRANCH  12  14
ENDBRANCH   9  10
ENDBRANCH   1   9
TORSDOF 10
ENDMDL
