MODEL 1
REMARK VINA RESULT:     0.409      0.000      0.000
REMARK INTER + INTRA:           0.127
REMARK INTER:                   0.517
REMARK INTRA:                  -0.389
REMARK UNBOUND:                -0.389
REMARK SMILES CC(C)=CCCC(C)=CCO
REMARK SMILES IDX 7 1 9 2 8 3 6 4 5 5 4 6 1 7 2 8 3 9 10 10 11 11
REMARK H PARENT 11 12
REMARK Flexibility Score: inf
ROOT
ATOM      1  C   UNL     1      20.687 -29.956  40.201  1.00  0.00    -0.075 C 
ATOM      2  C   UNL     1      20.696 -29.876  38.851  1.00  0.00    -0.000 C 
ATOM      3  C   UNL     1      20.343 -28.763  41.061  1.00  0.00     0.039 C 
ENDROOT
BRANCH   1   4
ATOM      4  C   UNL     1      21.044 -31.268  40.865  1.00  0.00     0.034 C 
BRANCH   4   5
ATOM      5  C   UNL     1      22.565 -31.434  40.956  1.00  0.00     0.032 C 
BRANCH   5   6
ATOM      6  C   UNL     1      23.060 -32.405  39.913  1.00  0.00    -0.028 C 
ATOM      7  C   UNL     1      24.028 -30.604  38.466  1.00  0.00     0.039 C 
ATOM      8  C   UNL     1      23.697 -32.045  38.776  1.00  0.00    -0.080 C 
ATOM      9  C   UNL     1      24.100 -33.125  37.807  1.00  0.00     0.039 C 
ENDBRANCH   5   6
ENDBRANCH   4   5
ENDBRANCH   1   4
BRANCH   2  10
ATOM     10  C   UNL     1      20.364 -28.624  38.081  1.00  0.00     0.183 C 
BRANCH  10  11
ATOM     11  O   UNL     1      21.437 -27.723  38.115  1.00  0.00    -0.392 OA
ATOM     12  H   UNL     1      21.054 -26.820  37.963  1.00  0.00     0.210 HD
ENDBRANCH  10  11
ENDBRANCH   2  10
TORSDOF 5
ENDMDL
MODEL 2
REMARK VINA RESULT:     0.513     13.833     15.749
REMARK INTER + INTRA:           0.259
REMARK INTER:                   0.504
REMARK INTRA:                  -0.245
REMARK UNBOUND:                -0.389
REMARK SMILES CC(C)=CCCC(C)=CCO
REMARK SMILES IDX 7 1 9 2 8 3 6 4 5 5 4 6 1 7 2 8 3 9 10 10 11 11
REMARK H PARENT 11 12
REMARK Flexibility Score: inf
ROOT
ATOM      1  C   UNL     1      13.136 -18.781  41.856  1.00  0.00    -0.075 C 
ATOM      2  C   UNL     1      13.627 -20.005  42.154  1.00  0.00    -0.000 C 
ATOM      3  C   UNL     1      12.096 -18.114  42.723  1.00  0.00     0.039 C 
ENDROOT
BRANCH   1   4
ATOM      4  C   UNL     1      13.631 -18.070  40.614  1.00  0.00     0.034 C 
BRANCH   4   5
ATOM      5  C   UNL     1      14.938 -17.322  40.901  1.00  0.00     0.032 C 
BRANCH   5   6
ATOM      6  C   UNL     1      15.266 -16.370  39.778  1.00  0.00    -0.028 C 
ATOM      7  C   UNL     1      15.370 -14.373  41.285  1.00  0.00     0.039 C 
ATOM      8  C   UNL     1      15.439 -15.039  39.931  1.00  0.00    -0.080 C 
ATOM      9  C   UNL     1      15.724 -14.206  38.708  1.00  0.00     0.039 C 
ENDBRANCH   5   6
ENDBRANCH   4   5
ENDBRANCH   1   4
BRANCH   2  10
ATOM     10  C   UNL     1      13.207 -20.809  43.357  1.00  0.00     0.183 C 
BRANCH  10  11
ATOM     11  O   UNL     1      14.296 -21.520  43.880  1.00  0.00    -0.392 OA
ATOM     12  H   UNL     1      14.346 -22.374  43.375  1.00  0.00     0.210 HD
ENDBRANCH  10  11
ENDBRANCH   2  10
TORSDOF 5
ENDMDL
MODEL 3
REMARK VINA RESULT:     0.641     15.800     17.254
REMARK INTER + INTRA:           0.421
REMARK INTER:                   0.118
REMARK INTRA:                   0.302
REMARK UNBOUND:                -0.389
REMARK SMILES CC(C)=CCCC(C)=CCO
REMARK SMILES IDX 7 1 9 2 8 3 6 4 5 5 4 6 1 7 2 8 3 9 10 10 11 11
REMARK H PARENT 11 12
REMARK Flexibility Score: inf
ROOT
ATOM      1  C   UNL     1       5.155 -32.407  37.289  1.00  0.00    -0.075 C 
ATOM      2  C   UNL     1       4.756 -32.387  35.997  1.00  0.00    -0.000 C 
ATOM      3  C   UNL     1       6.536 -32.873  37.682  1.00  0.00     0.039 C 
ENDROOT
BRANCH   1   4
ATOM      4  C   UNL     1       4.189 -31.967  38.367  1.00  0.00     0.034 C 
BRANCH   4   5
ATOM      5  C   UNL     1       3.878 -33.124  39.324  1.00  0.00     0.032 C 
BRANCH   5   6
ATOM      6  C   UNL     1       4.141 -32.720  40.754  1.00  0.00    -0.028 C 
ATOM      7  C   UNL     1       6.606 -33.124  40.584  1.00  0.00     0.039 C 
ATOM      8  C   UNL     1       5.358 -32.739  41.341  1.00  0.00    -0.080 C 
ATOM      9  C   UNL     1       5.461 -32.344  42.791  1.00  0.00     0.039 C 
ENDBRANCH   5   6
ENDBRANCH   4   5
ENDBRANCH   1   4
BRANCH   2  10
ATOM     10  C   UNL     1       5.626 -32.806  34.842  1.00  0.00     0.183 C 
BRANCH  10  11
ATOM     11  O   UNL     1       6.542 -31.795  34.520  1.00  0.00    -0.392 OA
ATOM     12  H   UNL     1       7.447 -32.169  34.685  1.00  0.00     0.210 HD
ENDBRANCH  10  11
ENDBRANCH   2  10
TORSDOF 5
ENDMDL
MODEL 4
REMARK VINA RESULT:     0.797     15.427     17.120
REMARK INTER + INTRA:           0.617
REMARK INTER:                   1.065
REMARK INTRA:                  -0.448
REMARK UNBOUND:                -0.389
REMARK SMILES CC(C)=CCCC(C)=CCO
REMARK SMILES IDX 7 1 9 2 8 3 6 4 5 5 4 6 1 7 2 8 3 9 10 10 11 11
REMARK H PARENT 11 12
REMARK Flexibility Score: inf
ROOT
ATOM      1  C   UNL     1       6.556 -32.578  34.171  1.00  0.00    -0.075 C 
ATOM      2  C   UNL     1       6.939 -32.481  32.878  1.00  0.00    -0.000 C 
ATOM      3  C   UNL     1       7.482 -33.125  35.231  1.00  0.00     0.039 C 
ENDROOT
BRANCH   1   4
ATOM      4  C   UNL     1       5.160 -32.142  34.562  1.00  0.00     0.034 C 
BRANCH   4   5
ATOM      5  C   UNL     1       4.669 -32.923  35.786  1.00  0.00     0.032 C 
BRANCH   5   6
ATOM      6  C   UNL     1       4.145 -31.984  36.844  1.00  0.00    -0.028 C 
ATOM      7  C   UNL     1       5.689 -32.857  38.612  1.00  0.00     0.039 C 
ATOM      8  C   UNL     1       4.576 -31.960  38.125  1.00  0.00    -0.080 C 
ATOM      9  C   UNL     1       3.930 -30.992  39.081  1.00  0.00     0.039 C 
ENDBRANCH   5   6
ENDBRANCH   4   5
ENDBRANCH   1   4
BRANCH   2  10
ATOM     10  C   UNL     1       8.298 -32.889  32.371  1.00  0.00     0.183 C 
BRANCH  10  11
ATOM     11  O   UNL     1       9.091 -31.760  32.121  1.00  0.00    -0.392 OA
ATOM     12  H   UNL     1       9.920 -31.872  32.656  1.00  0.00     0.210 HD
ENDBRANCH  10  11
ENDBRANCH   2  10
TORSDOF 5
ENDMDL
MODEL 5
REMARK VINA RESULT:     1.375     14.705     16.240
REMARK INTER + INTRA:           1.347
REMARK INTER:                   1.606
REMARK INTRA:                  -0.259
REMARK UNBOUND:                -0.389
REMARK SMILES CC(C)=CCCC(C)=CCO
REMARK SMILES IDX 7 1 9 2 8 3 6 4 5 5 4 6 1 7 2 8 3 9 10 10 11 11
REMARK H PARENT 11 12
REMARK Flexibility Score: inf
ROOT
ATOM      1  C   UNL     1      15.406 -15.520  40.393  1.00  0.00    -0.075 C 
ATOM      2  C   UNL     1      15.406 -14.876  41.583  1.00  0.00    -0.000 C 
ATOM      3  C   UNL     1      15.384 -14.764  39.086  1.00  0.00     0.039 C 
ENDROOT
BRANCH   1   4
ATOM      4  C   UNL     1      15.414 -17.033  40.373  1.00  0.00     0.034 C 
BRANCH   4   5
ATOM      5  C   UNL     1      13.984 -17.583  40.341  1.00  0.00     0.032 C 
BRANCH   5   6
ATOM      6  C   UNL     1      13.717 -18.447  41.549  1.00  0.00    -0.028 C 
ATOM      7  C   UNL     1      12.456 -20.169  40.239  1.00  0.00     0.039 C 
ATOM      8  C   UNL     1      13.011 -19.599  41.523  1.00  0.00    -0.080 C 
ATOM      9  C   UNL     1      12.792 -20.337  42.818  1.00  0.00     0.039 C 
ENDBRANCH   5   6
ENDBRANCH   4   5
ENDBRANCH   1   4
BRANCH   2  10
ATOM     10  C   UNL     1      15.393 -13.377  41.727  1.00  0.00     0.183 C 
BRANCH  10  11
ATOM     11  O   UNL     1      14.679 -12.996  42.872  1.00  0.00    -0.392 OA
ATOM     12  H   UNL     1      15.202 -12.270  43.303  1.00  0.00     0.210 HD
ENDBRANCH  10  11
ENDBRANCH   2  10
TORSDOF 5
ENDMDL
MODEL 6
REMARK VINA RESULT:     1.430      1.795      4.071
REMARK INTER + INTRA:           1.417
REMARK INTER:                   1.489
REMARK INTRA:                  -0.072
REMARK UNBOUND:                -0.389
REMARK SMILES CC(C)=CCCC(C)=CCO
REMARK SMILES IDX 7 1 9 2 8 3 6 4 5 5 4 6 1 7 2 8 3 9 10 10 11 11
REMARK H PARENT 11 12
REMARK Flexibility Score: inf
ROOT
ATOM      1  C   UNL     1      22.895 -32.228  40.478  1.00  0.00    -0.075 C 
ATOM      2  C   UNL     1      22.860 -31.991  39.147  1.00  0.00    -0.000 C 
ATOM      3  C   UNL     1      23.957 -33.105  41.097  1.00  0.00     0.039 C 
ENDROOT
BRANCH   1   4
ATOM      4  C   UNL     1      21.835 -31.612  41.366  1.00  0.00     0.034 C 
BRANCH   4   5
ATOM      5  C   UNL     1      21.508 -30.185  40.911  1.00  0.00     0.032 C 
BRANCH   5   6
ATOM      6  C   UNL     1      20.367 -30.187  39.924  1.00  0.00    -0.028 C 
ATOM      7  C   UNL     1      21.572 -28.730  38.282  1.00  0.00     0.039 C 
ATOM      8  C   UNL     1      20.371 -29.518  38.750  1.00  0.00    -0.080 C 
ATOM      9  C   UNL     1      19.141 -29.582  37.883  1.00  0.00     0.039 C 
ENDBRANCH   5   6
ENDBRANCH   4   5
ENDBRANCH   1   4
BRANCH   2  10
ATOM     10  C   UNL     1      23.856 -32.553  38.167  1.00  0.00     0.183 C 
BRANCH  10  11
ATOM     11  O   UNL     1      24.121 -31.628  37.147  1.00  0.00    -0.392 OA
ATOM     12  H   UNL     1      24.186 -30.737  37.582  1.00  0.00     0.210 HD
ENDBRANCH  10  11
ENDBRANCH   2  10
TORSDOF 5
ENDMDL
MODEL 7
REMARK VINA RESULT:     2.291      1.772      2.603
REMARK INTER + INTRA:           2.504
REMARK INTER:                   2.766
REMARK INTRA:                  -0.262
REMARK UNBOUND:                -0.389
REMARK SMILES CC(C)=CCCC(C)=CCO
REMARK SMILES IDX 7 1 9 2 8 3 6 4 5 5 4 6 1 7 2 8 3 9 10 10 11 11
REMARK H PARENT 11 12
REMARK Flexibility Score: inf
ROOT
ATOM      1  C   UNL     1      20.438 -29.900  39.170  1.00  0.00    -0.075 C 
ATOM      2  C   UNL     1      20.364 -30.041  40.513  1.00  0.00    -0.000 C 
ATOM      3  C   UNL     1      20.948 -28.628  38.537  1.00  0.00     0.039 C 
ENDROOT
BRANCH   1   4
ATOM      4  C   UNL     1      19.984 -31.039  38.282  1.00  0.00     0.034 C 
BRANCH   4   5
ATOM      5  C   UNL     1      21.171 -31.926  37.889  1.00  0.00     0.032 C 
BRANCH   5   6
ATOM      6  C   UNL     1      21.926 -32.381  39.113  1.00  0.00    -0.028 C 
ATOM      7  C   UNL     1      24.125 -31.528  38.270  1.00  0.00     0.039 C 
ATOM      8  C   UNL     1      23.258 -32.231  39.288  1.00  0.00    -0.080 C 
ATOM      9  C   UNL     1      23.882 -32.772  40.547  1.00  0.00     0.039 C 
ENDBRANCH   5   6
ENDBRANCH   4   5
ENDBRANCH   1   4
BRANCH   2  10
ATOM     10  C   UNL     1      20.781 -28.977  41.495  1.00  0.00     0.183 C 
BRANCH  10  11
ATOM     11  O   UNL     1      21.747 -29.473  42.380  1.00  0.00    -0.392 OA
ATOM     12  H   UNL     1      21.350 -29.424  43.290  1.00  0.00     0.210 HD
ENDBRANCH  10  11
ENDBRANCH   2  10
TORSDOF 5
ENDMDL
MODEL 8
REMARK VINA RESULT:     2.725      1.681      2.355
REMARK INTER + INTRA:           3.052
REMARK INTER:                   3.435
REMARK INTRA:                  -0.382
REMARK UNBOUND:                -0.389
REMARK SMILES CC(C)=CCCC(C)=CCO
REMARK SMILES IDX 7 1 9 2 8 3 6 4 5 5 4 6 1 7 2 8 3 9 10 10 11 11
REMARK H PARENT 11 12
REMARK Flexibility Score: inf
ROOT
ATOM      1  C   UNL     1      20.633 -28.893  38.589  1.00  0.00    -0.075 C 
ATOM      2  C   UNL     1      19.526 -29.006  37.821  1.00  0.00    -0.000 C 
ATOM      3  C   UNL     1      21.766 -27.968  38.211  1.00  0.00     0.039 C 
ENDROOT
BRANCH   1   4
ATOM      4  C   UNL     1      20.746 -29.723  39.849  1.00  0.00     0.034 C 
BRANCH   4   5
ATOM      5  C   UNL     1      20.731 -31.220  39.516  1.00  0.00     0.032 C 
BRANCH   5   6
ATOM      6  C   UNL     1      21.907 -31.583  38.642  1.00  0.00    -0.028 C 
ATOM      7  C   UNL     1      23.150 -32.704  40.505  1.00  0.00     0.039 C 
ATOM      8  C   UNL     1      23.012 -32.228  39.078  1.00  0.00    -0.080 C 
ATOM      9  C   UNL     1      24.124 -32.490  38.097  1.00  0.00     0.039 C 
ENDBRANCH   5   6
ENDBRANCH   4   5
ENDBRANCH   1   4
BRANCH   2  10
ATOM     10  C   UNL     1      19.305 -28.236  36.545  1.00  0.00     0.183 C 
BRANCH  10  11
ATOM     11  O   UNL     1      18.103 -28.621  35.937  1.00  0.00    -0.392 OA
ATOM     12  H   UNL     1      17.403 -28.578  36.641  1.00  0.00     0.210 HD
ENDBRANCH  10  11
ENDBRANCH   2  10
TORSDOF 5
ENDMDL
