MODEL 1
REMARK VINA RESULT:    -3.394      0.000      0.000
REMARK INTER + INTRA:          -3.682
REMARK INTER:                  -3.593
REMARK INTRA:                  -0.090
REMARK UNBOUND:                -0.090
REMARK SMILES C=C(C)[C@@H]1CC=C(C)C(=O)C1
REMARK SMILES IDX 8 1 7 2 6 3 5 4 4 5 11 6 9 7 10 8 2 9 1 10 3 11
REMARK H PARENT
REMARK Flexibility Score: inf
ROOT
ATOM      1  C   UNL     1      21.615  43.390  89.121  1.00  0.00     0.048 C 
ATOM      2  C   UNL     1      21.360  41.912  89.227  1.00  0.00    -0.012 C 
ATOM      3  C   UNL     1      21.739  41.096  88.228  1.00  0.00    -0.019 C 
ATOM      4  C   UNL     1      21.525  39.606  88.291  1.00  0.00     0.036 C 
ATOM      5  C   UNL     1      20.244  39.262  89.075  1.00  0.00     0.025 C 
ATOM      6  C   UNL     1      20.287  39.904  90.474  1.00  0.00     0.089 C 
ATOM      7  C   UNL     1      20.583  41.375  90.372  1.00  0.00     0.158 C 
ATOM      8  O   UNL     1      20.196  42.145  91.292  1.00  0.00    -0.295 OA
ENDROOT
BRANCH   5   9
ATOM      9  C   UNL     1      20.021  37.758  89.154  1.00  0.00    -0.077 C 
ATOM     10  C   UNL     1      18.829  37.211  88.857  1.00  0.00     0.008 C 
ATOM     11  C   UNL     1      21.147  36.848  89.571  1.00  0.00     0.039 C 
ENDBRANCH   5   9
TORSDOF 1
ENDMDL
MODEL 2
REMARK VINA RESULT:    -3.391      2.219      4.456
REMARK INTER + INTRA:          -3.679
REMARK INTER:                  -3.582
REMARK INTRA:                  -0.097
REMARK UNBOUND:                -0.090
REMARK SMILES C=C(C)[C@@H]1CC=C(C)C(=O)C1
REMARK SMILES IDX 8 1 7 2 6 3 5 4 4 5 11 6 9 7 10 8 2 9 1 10 3 11
REMARK H PARENT
REMARK Flexibility Score: inf
ROOT
ATOM      1  C   UNL     1      21.539  40.454  87.326  1.00  0.00     0.048 C 
ATOM      2  C   UNL     1      21.273  41.174  88.619  1.00  0.00    -0.012 C 
ATOM      3  C   UNL     1      21.785  42.400  88.819  1.00  0.00    -0.019 C 
ATOM      4  C   UNL     1      21.535  43.173  90.087  1.00  0.00     0.036 C 
ATOM      5  C   UNL     1      21.402  42.227  91.297  1.00  0.00     0.025 C 
ATOM      6  C   UNL     1      20.312  41.172  91.032  1.00  0.00     0.089 C 
ATOM      7  C   UNL     1      20.553  40.481  89.718  1.00  0.00     0.158 C 
ATOM      8  O   UNL     1      20.104  39.316  89.544  1.00  0.00    -0.295 OA
ENDROOT
BRANCH   5   9
ATOM      9  C   UNL     1      21.140  42.994  92.585  1.00  0.00    -0.077 C 
ATOM     10  C   UNL     1      20.148  42.640  93.421  1.00  0.00     0.008 C 
ATOM     11  C   UNL     1      21.999  44.178  92.947  1.00  0.00     0.039 C 
ENDBRANCH   5   9
TORSDOF 1
ENDMDL
MODEL 3
REMARK VINA RESULT:    -3.381      1.319      4.378
REMARK INTER + INTRA:          -3.669
REMARK INTER:                  -3.572
REMARK INTRA:                  -0.097
REMARK UNBOUND:                -0.090
REMARK SMILES C=C(C)[C@@H]1CC=C(C)C(=O)C1
REMARK SMILES IDX 8 1 7 2 6 3 5 4 4 5 11 6 9 7 10 8 2 9 1 10 3 11
REMARK H PARENT
REMARK Flexibility Score: inf
ROOT
ATOM      1  C   UNL     1      19.591  37.855  88.996  1.00  0.00     0.048 C 
ATOM      2  C   UNL     1      20.118  39.247  89.211  1.00  0.00    -0.012 C 
ATOM      3  C   UNL     1      21.037  39.751  88.370  1.00  0.00    -0.019 C 
ATOM      4  C   UNL     1      21.584  41.145  88.528  1.00  0.00     0.036 C 
ATOM      5  C   UNL     1      21.646  41.552  90.014  1.00  0.00     0.025 C 
ATOM      6  C   UNL     1      20.262  41.390  90.669  1.00  0.00     0.089 C 
ATOM      7  C   UNL     1      19.716  40.012  90.419  1.00  0.00     0.158 C 
ATOM      8  O   UNL     1      18.881  39.525  91.227  1.00  0.00    -0.295 OA
ENDROOT
BRANCH   5   9
ATOM      9  C   UNL     1      22.188  42.964  90.188  1.00  0.00    -0.077 C 
ATOM     10  C   UNL     1      22.216  43.560  91.393  1.00  0.00     0.008 C 
ATOM     11  C   UNL     1      22.711  43.725  88.996  1.00  0.00     0.039 C 
ENDBRANCH   5   9
TORSDOF 1
ENDMDL
MODEL 4
REMARK VINA RESULT:    -3.380      3.429      5.061
REMARK INTER + INTRA:          -3.667
REMARK INTER:                  -3.569
REMARK INTRA:                  -0.098
REMARK UNBOUND:                -0.090
REMARK SMILES C=C(C)[C@@H]1CC=C(C)C(=O)C1
REMARK SMILES IDX 8 1 7 2 6 3 5 4 4 5 11 6 9 7 10 8 2 9 1 10 3 11
REMARK H PARENT
REMARK Flexibility Score: inf
ROOT
ATOM      1  C   UNL     1      21.693  43.355  88.927  1.00  0.00     0.048 C 
ATOM      2  C   UNL     1      21.453  42.962  90.358  1.00  0.00    -0.012 C 
ATOM      3  C   UNL     1      20.502  42.059  90.654  1.00  0.00    -0.019 C 
ATOM      4  C   UNL     1      20.233  41.616  92.067  1.00  0.00     0.036 C 
ATOM      5  C   UNL     1      20.495  42.760  93.067  1.00  0.00     0.025 C 
ATOM      6  C   UNL     1      21.924  43.306  92.889  1.00  0.00     0.089 C 
ATOM      7  C   UNL     1      22.179  43.660  91.450  1.00  0.00     0.158 C 
ATOM      8  O   UNL     1      23.046  44.533  91.176  1.00  0.00    -0.295 OA
ENDROOT
BRANCH   5   9
ATOM      9  C   UNL     1      20.236  42.322  94.502  1.00  0.00    -0.077 C 
ATOM     10  C   UNL     1      20.771  42.984  95.543  1.00  0.00     0.008 C 
ATOM     11  C   UNL     1      19.364  41.125  94.781  1.00  0.00     0.039 C 
ENDBRANCH   5   9
TORSDOF 1
ENDMDL
MODEL 5
REMARK VINA RESULT:    -3.322      3.360      5.545
REMARK INTER + INTRA:          -3.605
REMARK INTER:                  -3.507
REMARK INTRA:                  -0.098
REMARK UNBOUND:                -0.090
REMARK SMILES C=C(C)[C@@H]1CC=C(C)C(=O)C1
REMARK SMILES IDX 8 1 7 2 6 3 5 4 4 5 11 6 9 7 10 8 2 9 1 10 3 11
REMARK H PARENT
REMARK Flexibility Score: inf
ROOT
ATOM      1  C   UNL     1      21.701  42.366  88.840  1.00  0.00     0.048 C 
ATOM      2  C   UNL     1      21.532  42.787  90.273  1.00  0.00    -0.012 C 
ATOM      3  C   UNL     1      22.339  43.729  90.793  1.00  0.00    -0.019 C 
ATOM      4  C   UNL     1      22.202  44.201  92.216  1.00  0.00     0.036 C 
ATOM      5  C   UNL     1      21.715  43.062  93.134  1.00  0.00     0.025 C 
ATOM      6  C   UNL     1      20.407  42.460  92.590  1.00  0.00     0.089 C 
ATOM      7  C   UNL     1      20.561  42.078  91.144  1.00  0.00     0.158 C 
ATOM      8  O   UNL     1      19.829  41.170  90.667  1.00  0.00    -0.295 OA
ENDROOT
BRANCH   5   9
ATOM      9  C   UNL     1      21.563  43.528  94.576  1.00  0.00    -0.077 C 
ATOM     10  C   UNL     1      20.711  42.922  95.421  1.00  0.00     0.008 C 
ATOM     11  C   UNL     1      22.377  44.690  95.084  1.00  0.00     0.039 C 
ENDBRANCH   5   9
TORSDOF 1
ENDMDL
MODEL 6
REMARK VINA RESULT:    -3.303      3.284      5.138
REMARK INTER + INTRA:          -3.586
REMARK INTER:                  -3.489
REMARK INTRA:                  -0.097
REMARK UNBOUND:                -0.090
REMARK SMILES C=C(C)[C@@H]1CC=C(C)C(=O)C1
REMARK SMILES IDX 8 1 7 2 6 3 5 4 4 5 11 6 9 7 10 8 2 9 1 10 3 11
REMARK H PARENT
REMARK Flexibility Score: inf
ROOT
ATOM      1  C   UNL     1      20.470  42.873  95.004  1.00  0.00     0.048 C 
ATOM      2  C   UNL     1      20.822  43.008  93.548  1.00  0.00    -0.012 C 
ATOM      3  C   UNL     1      20.185  42.257  92.634  1.00  0.00    -0.019 C 
ATOM      4  C   UNL     1      20.485  42.366  91.162  1.00  0.00     0.036 C 
ATOM      5  C   UNL     1      21.968  42.714  90.922  1.00  0.00     0.025 C 
ATOM      6  C   UNL     1      22.346  43.994  91.691  1.00  0.00     0.089 C 
ATOM      7  C   UNL     1      21.955  43.876  93.138  1.00  0.00     0.158 C 
ATOM      8  O   UNL     1      22.578  44.554  93.999  1.00  0.00    -0.295 OA
ENDROOT
BRANCH   5   9
ATOM      9  C   UNL     1      22.283  42.836  89.438  1.00  0.00    -0.077 C 
ATOM     10  C   UNL     1      22.966  43.888  88.952  1.00  0.00     0.008 C 
ATOM     11  C   UNL     1      21.830  41.765  88.479  1.00  0.00     0.039 C 
ENDBRANCH   5   9
TORSDOF 1
ENDMDL
MODEL 7
REMARK VINA RESULT:    -3.239      4.007      6.004
REMARK INTER + INTRA:          -3.518
REMARK INTER:                  -3.421
REMARK INTRA:                  -0.097
REMARK UNBOUND:                -0.090
REMARK SMILES C=C(C)[C@@H]1CC=C(C)C(=O)C1
REMARK SMILES IDX 8 1 7 2 6 3 5 4 4 5 11 6 9 7 10 8 2 9 1 10 3 11
REMARK H PARENT
REMARK Flexibility Score: inf
ROOT
ATOM      1  C   UNL     1      19.257  37.506  88.886  1.00  0.00     0.048 C 
ATOM      2  C   UNL     1      17.923  37.378  89.568  1.00  0.00    -0.012 C 
ATOM      3  C   UNL     1      16.939  36.671  88.986  1.00  0.00    -0.019 C 
ATOM      4  C   UNL     1      15.591  36.496  89.634  1.00  0.00     0.036 C 
ATOM      5  C   UNL     1      15.210  37.736  90.467  1.00  0.00     0.025 C 
ATOM      6  C   UNL     1      16.314  38.048  91.494  1.00  0.00     0.089 C 
ATOM      7  C   UNL     1      17.656  38.134  90.819  1.00  0.00     0.158 C 
ATOM      8  O   UNL     1      18.566  38.826  91.347  1.00  0.00    -0.295 OA
ENDROOT
BRANCH   5   9
ATOM      9  C   UNL     1      13.853  37.568  91.135  1.00  0.00    -0.077 C 
ATOM     10  C   UNL     1      13.367  38.499  91.976  1.00  0.00     0.008 C 
ATOM     11  C   UNL     1      13.022  36.341  90.861  1.00  0.00     0.039 C 
ENDBRANCH   5   9
TORSDOF 1
ENDMDL
MODEL 8
REMARK VINA RESULT:    -3.237      2.511      4.657
REMARK INTER + INTRA:          -3.516
REMARK INTER:                  -3.426
REMARK INTRA:                  -0.090
REMARK UNBOUND:                -0.090
REMARK SMILES C=C(C)[C@@H]1CC=C(C)C(=O)C1
REMARK SMILES IDX 8 1 7 2 6 3 5 4 4 5 11 6 9 7 10 8 2 9 1 10 3 11
REMARK H PARENT
REMARK Flexibility Score: inf
ROOT
ATOM      1  C   UNL     1      18.966  40.914  94.567  1.00  0.00     0.048 C 
ATOM      2  C   UNL     1      19.731  41.221  93.310  1.00  0.00    -0.012 C 
ATOM      3  C   UNL     1      20.482  42.333  93.238  1.00  0.00    -0.019 C 
ATOM      4  C   UNL     1      21.282  42.679  92.010  1.00  0.00     0.036 C 
ATOM      5  C   UNL     1      20.577  42.185  90.731  1.00  0.00     0.025 C 
ATOM      6  C   UNL     1      20.285  40.677  90.832  1.00  0.00     0.089 C 
ATOM      7  C   UNL     1      19.558  40.363  92.110  1.00  0.00     0.158 C 
ATOM      8  O   UNL     1      18.825  39.339  92.165  1.00  0.00    -0.295 OA
ENDROOT
BRANCH   5   9
ATOM      9  C   UNL     1      21.380  42.520  89.482  1.00  0.00    -0.077 C 
ATOM     10  C   UNL     1      21.328  43.742  88.923  1.00  0.00     0.008 C 
ATOM     11  C   UNL     1      22.258  41.473  88.845  1.00  0.00     0.039 C 
ENDBRANCH   5   9
TORSDOF 1
ENDMDL
MODEL 9
REMARK VINA RESULT:    -3.210      2.235      4.324
REMARK INTER + INTRA:          -3.487
REMARK INTER:                  -3.391
REMARK INTRA:                  -0.097
REMARK UNBOUND:                -0.090
REMARK SMILES C=C(C)[C@@H]1CC=C(C)C(=O)C1
REMARK SMILES IDX 8 1 7 2 6 3 5 4 4 5 11 6 9 7 10 8 2 9 1 10 3 11
REMARK H PARENT
REMARK Flexibility Score: inf
ROOT
ATOM      1  C   UNL     1      18.972  40.484  94.546  1.00  0.00     0.048 C 
ATOM      2  C   UNL     1      19.421  40.898  93.172  1.00  0.00    -0.012 C 
ATOM      3  C   UNL     1      19.309  40.039  92.144  1.00  0.00    -0.019 C 
ATOM      4  C   UNL     1      19.726  40.408  90.745  1.00  0.00     0.036 C 
ATOM      5  C   UNL     1      20.921  41.381  90.761  1.00  0.00     0.025 C 
ATOM      6  C   UNL     1      20.591  42.618  91.617  1.00  0.00     0.089 C 
ATOM      7  C   UNL     1      20.100  42.204  92.977  1.00  0.00     0.158 C 
ATOM      8  O   UNL     1      20.238  42.996  93.948  1.00  0.00    -0.295 OA
ENDROOT
BRANCH   5   9
ATOM      9  C   UNL     1      21.348  41.771  89.353  1.00  0.00    -0.077 C 
ATOM     10  C   UNL     1      21.553  43.056  89.014  1.00  0.00     0.008 C 
ATOM     11  C   UNL     1      21.551  40.708  88.304  1.00  0.00     0.039 C 
ENDBRANCH   5   9
TORSDOF 1
ENDMDL
