MODEL 1
REMARK VINA RESULT:     3.573      0.000      0.000
REMARK INTER + INTRA:           4.140
REMARK INTER:                   4.199
REMARK INTRA:                  -0.059
REMARK UNBOUND:                -0.059
REMARK SMILES O=C([O-])CCC(=O)[O-]
REMARK SMILES IDX 4 1 2 2 1 3 3 4 5 5 6 6 7 7 8 8
REMARK H PARENT
REMARK Flexibility Score: inf
ROOT
ATOM      1  C   UNL     1      -1.188  -8.356  24.328  1.00  0.00     0.059 C 
ENDROOT
BRANCH   1   2
ATOM      2  C   UNL     1      -2.659  -8.128  24.158  1.00  0.00     0.042 C 
ATOM      3  O   UNL     1      -3.484  -8.755  24.873  1.00  0.00    -0.550 OA
ATOM      4  O   UNL     1      -3.119  -7.253  23.182  1.00  0.00    -0.550 OA
ENDBRANCH   1   2
BRANCH   1   5
ATOM      5  C   UNL     1      -0.879  -9.096  25.633  1.00  0.00     0.059 C 
BRANCH   5   6
ATOM      6  C   UNL     1       0.263  -8.464  26.369  1.00  0.00     0.042 C 
ATOM      7  O   UNL     1       0.992  -9.158  27.125  1.00  0.00    -0.550 OA
ATOM      8  O   UNL     1       0.496  -7.100  26.249  1.00  0.00    -0.550 OA
ENDBRANCH   5   6
ENDBRANCH   1   5
TORSDOF 3
ENDMDL
MODEL 2
REMARK VINA RESULT:     5.776      8.926     10.136
REMARK INTER + INTRA:           6.729
REMARK INTER:                   6.825
REMARK INTRA:                  -0.095
REMARK UNBOUND:                -0.059
REMARK SMILES O=C([O-])CCC(=O)[O-]
REMARK SMILES IDX 4 1 2 2 1 3 3 4 5 5 6 6 7 7 8 8
REMARK H PARENT
REMARK Flexibility Score: inf
ROOT
ATOM      1  C   UNL     1      -4.341 -17.025  25.965  1.00  0.00     0.059 C 
ENDROOT
BRANCH   1   2
ATOM      2  C   UNL     1      -4.999 -15.717  26.286  1.00  0.00     0.042 C 
ATOM      3  O   UNL     1      -5.936 -15.669  27.125  1.00  0.00    -0.550 OA
ATOM      4  O   UNL     1      -4.602 -14.559  25.629  1.00  0.00    -0.550 OA
ENDBRANCH   1   2
BRANCH   1   5
ATOM      5  C   UNL     1      -5.371 -18.102  25.612  1.00  0.00     0.059 C 
BRANCH   5   6
ATOM      6  C   UNL     1      -5.517 -18.260  24.129  1.00  0.00     0.042 C 
ATOM      7  O   UNL     1      -6.494 -18.895  23.653  1.00  0.00    -0.550 OA
ATOM      8  O   UNL     1      -4.552 -17.740  23.277  1.00  0.00    -0.550 OA
ENDBRANCH   5   6
ENDBRANCH   1   5
TORSDOF 3
ENDMDL
