MODEL 1
REMARK VINA RESULT:    -3.511      0.000      0.000
REMARK INTER + INTRA:          -5.821
REMARK INTER:                  -5.050
REMARK INTRA:                  -0.771
REMARK UNBOUND:                -0.771
REMARK SMILES CCCCCCCCCO
REMARK SMILES IDX 6 1 5 2 4 3 3 4 2 5 1 6 7 7 8 8 9 9 10 10
REMARK H PARENT 10 11
REMARK Flexibility Score: inf
ROOT
ATOM      1  C   UNL     1     163.135 161.354 180.424  1.00  0.00     0.000 C 
ENDROOT
BRANCH   1   2
ATOM      2  C   UNL     1     163.853 160.900 181.705  1.00  0.00     0.000 C 
BRANCH   2   3
ATOM      3  C   UNL     1     162.916 160.994 182.919  1.00  0.00    -0.000 C 
BRANCH   3   4
ATOM      4  C   UNL     1     162.436 162.429 183.188  1.00  0.00    -0.000 C 
BRANCH   4   5
ATOM      5  C   UNL     1     160.961 162.489 183.615  1.00  0.00    -0.003 C 
ATOM      6  C   UNL     1     160.258 161.162 183.342  1.00  0.00     0.004 C 
ENDBRANCH   4   5
ENDBRANCH   3   4
ENDBRANCH   2   3
ENDBRANCH   1   2
BRANCH   1   7
ATOM      7  C   UNL     1     161.918 160.480 180.084  1.00  0.00     0.002 C 
BRANCH   7   8
ATOM      8  C   UNL     1     160.821 161.258 179.341  1.00  0.00     0.028 C 
BRANCH   8   9
ATOM      9  C   UNL     1     160.719 162.707 179.824  1.00  0.00     0.156 C 
BRANCH   9  10
ATOM     10  O   UNL     1     160.093 163.510 178.859  1.00  0.00    -0.396 OA
ATOM     11  H   UNL     1     160.694 163.538 178.071  1.00  0.00     0.210 HD
ENDBRANCH   9  10
ENDBRANCH   8   9
ENDBRANCH   7   8
ENDBRANCH   1   7
TORSDOF 8
ENDMDL
MODEL 2
REMARK VINA RESULT:    -3.464      0.989      2.318
REMARK INTER + INTRA:          -5.753
REMARK INTER:                  -5.121
REMARK INTRA:                  -0.632
REMARK UNBOUND:                -0.771
REMARK SMILES CCCCCCCCCO
REMARK SMILES IDX 6 1 5 2 4 3 3 4 2 5 1 6 7 7 8 8 9 9 10 10
REMARK H PARENT 10 11
REMARK Flexibility Score: inf
ROOT
ATOM      1  C   UNL     1     159.924 160.266 180.557  1.00  0.00     0.000 C 
ENDROOT
BRANCH   1   2
ATOM      2  C   UNL     1     159.875 160.435 182.083  1.00  0.00     0.000 C 
BRANCH   2   3
ATOM      3  C   UNL     1     160.226 161.876 182.486  1.00  0.00    -0.000 C 
BRANCH   3   4
ATOM      4  C   UNL     1     161.267 161.939 183.616  1.00  0.00    -0.000 C 
BRANCH   4   5
ATOM      5  C   UNL     1     162.676 162.273 183.102  1.00  0.00    -0.003 C 
ATOM      6  C   UNL     1     163.493 161.003 182.879  1.00  0.00     0.004 C 
ENDBRANCH   4   5
ENDBRANCH   3   4
ENDBRANCH   2   3
ENDBRANCH   1   2
BRANCH   1   7
ATOM      7  C   UNL     1     161.272 160.690 179.955  1.00  0.00     0.002 C 
BRANCH   7   8
ATOM      8  C   UNL     1     161.111 161.563 178.700  1.00  0.00     0.028 C 
BRANCH   8   9
ATOM      9  C   UNL     1     161.158 163.057 179.032  1.00  0.00     0.156 C 
BRANCH   9  10
ATOM     10  O   UNL     1     159.878 163.625 178.945  1.00  0.00    -0.396 OA
ATOM     11  H   UNL     1     159.954 164.423 178.360  1.00  0.00     0.210 HD
ENDBRANCH   9  10
ENDBRANCH   8   9
ENDBRANCH   7   8
ENDBRANCH   1   7
TORSDOF 8
ENDMDL
MODEL 3
REMARK VINA RESULT:    -3.450      1.529      3.236
REMARK INTER + INTRA:          -5.733
REMARK INTER:                  -5.054
REMARK INTRA:                  -0.679
REMARK UNBOUND:                -0.771
REMARK SMILES CCCCCCCCCO
REMARK SMILES IDX 6 1 5 2 4 3 3 4 2 5 1 6 7 7 8 8 9 9 10 10
REMARK H PARENT 10 11
REMARK Flexibility Score: inf
ROOT
ATOM      1  C   UNL     1     161.115 163.372 182.882  1.00  0.00     0.000 C 
ENDROOT
BRANCH   1   2
ATOM      2  C   UNL     1     160.737 162.110 183.673  1.00  0.00     0.000 C 
BRANCH   2   3
ATOM      3  C   UNL     1     160.890 160.853 182.802  1.00  0.00    -0.000 C 
BRANCH   3   4
ATOM      4  C   UNL     1     162.025 160.979 181.773  1.00  0.00    -0.000 C 
BRANCH   4   5
ATOM      5  C   UNL     1     161.583 160.585 180.355  1.00  0.00    -0.003 C 
ATOM      6  C   UNL     1     160.062 160.519 180.254  1.00  0.00     0.004 C 
ENDBRANCH   4   5
ENDBRANCH   3   4
ENDBRANCH   2   3
ENDBRANCH   1   2
BRANCH   1   7
ATOM      7  C   UNL     1     159.920 163.985 182.135  1.00  0.00     0.002 C 
BRANCH   7   8
ATOM      8  C   UNL     1     160.338 165.101 181.164  1.00  0.00     0.028 C 
BRANCH   8   9
ATOM      9  C   UNL     1     160.996 164.542 179.900  1.00  0.00     0.156 C 
BRANCH   9  10
ATOM     10  O   UNL     1     160.062 163.840 179.124  1.00  0.00    -0.396 OA
ATOM     11  H   UNL     1     159.635 163.171 179.719  1.00  0.00     0.210 HD
ENDBRANCH   9  10
ENDBRANCH   8   9
ENDBRANCH   7   8
ENDBRANCH   1   7
TORSDOF 8
ENDMDL
MODEL 4
REMARK VINA RESULT:    -3.296      2.353      4.220
REMARK INTER + INTRA:          -5.513
REMARK INTER:                  -4.868
REMARK INTRA:                  -0.645
REMARK UNBOUND:                -0.771
REMARK SMILES CCCCCCCCCO
REMARK SMILES IDX 6 1 5 2 4 3 3 4 2 5 1 6 7 7 8 8 9 9 10 10
REMARK H PARENT 10 11
REMARK Flexibility Score: inf
ROOT
ATOM      1  C   UNL     1     162.342 162.739 182.742  1.00  0.00     0.000 C 
ENDROOT
BRANCH   1   2
ATOM      2  C   UNL     1     161.281 162.157 183.688  1.00  0.00     0.000 C 
BRANCH   2   3
ATOM      3  C   UNL     1     160.227 161.358 182.905  1.00  0.00    -0.000 C 
BRANCH   3   4
ATOM      4  C   UNL     1     160.184 161.736 181.416  1.00  0.00    -0.000 C 
BRANCH   4   5
ATOM      5  C   UNL     1     160.332 160.516 180.493  1.00  0.00    -0.003 C 
ATOM      6  C   UNL     1     161.738 160.441 179.905  1.00  0.00     0.004 C 
ENDBRANCH   4   5
ENDBRANCH   3   4
ENDBRANCH   2   3
ENDBRANCH   1   2
BRANCH   1   7
ATOM      7  C   UNL     1     163.741 162.150 182.982  1.00  0.00     0.002 C 
BRANCH   7   8
ATOM      8  C   UNL     1     163.739 160.613 183.013  1.00  0.00     0.028 C 
BRANCH   8   9
ATOM      9  C   UNL     1     165.073 160.030 182.538  1.00  0.00     0.156 C 
BRANCH   9  10
ATOM     10  O   UNL     1     165.104 159.939 181.138  1.00  0.00    -0.396 OA
ATOM     11  H   UNL     1     165.773 160.599 180.820  1.00  0.00     0.210 HD
ENDBRANCH   9  10
ENDBRANCH   8   9
ENDBRANCH   7   8
ENDBRANCH   1   7
TORSDOF 8
ENDMDL
MODEL 5
REMARK VINA RESULT:    -3.249      1.552      2.986
REMARK INTER + INTRA:          -5.445
REMARK INTER:                  -4.681
REMARK INTRA:                  -0.764
REMARK UNBOUND:                -0.771
REMARK SMILES CCCCCCCCCO
REMARK SMILES IDX 6 1 5 2 4 3 3 4 2 5 1 6 7 7 8 8 9 9 10 10
REMARK H PARENT 10 11
REMARK Flexibility Score: inf
ROOT
ATOM      1  C   UNL     1     160.307 162.172 182.450  1.00  0.00     0.000 C 
ENDROOT
BRANCH   1   2
ATOM      2  C   UNL     1     161.277 161.721 183.553  1.00  0.00     0.000 C 
BRANCH   2   3
ATOM      3  C   UNL     1     162.482 160.980 182.952  1.00  0.00    -0.000 C 
BRANCH   3   4
ATOM      4  C   UNL     1     163.603 161.933 182.509  1.00  0.00    -0.000 C 
BRANCH   4   5
ATOM      5  C   UNL     1     163.720 163.169 183.415  1.00  0.00    -0.003 C 
ATOM      6  C   UNL     1     163.835 164.446 182.587  1.00  0.00     0.004 C 
ENDBRANCH   4   5
ENDBRANCH   3   4
ENDBRANCH   2   3
ENDBRANCH   1   2
BRANCH   1   7
ATOM      7  C   UNL     1     160.138 163.698 182.394  1.00  0.00     0.002 C 
BRANCH   7   8
ATOM      8  C   UNL     1     160.443 164.277 181.004  1.00  0.00     0.028 C 
BRANCH   8   9
ATOM      9  C   UNL     1     160.684 163.177 179.966  1.00  0.00     0.156 C 
BRANCH   9  10
ATOM     10  O   UNL     1     160.079 163.506 178.745  1.00  0.00    -0.396 OA
ATOM     11  H   UNL     1     160.016 162.667 178.217  1.00  0.00     0.210 HD
ENDBRANCH   9  10
ENDBRANCH   8   9
ENDBRANCH   7   8
ENDBRANCH   1   7
TORSDOF 8
ENDMDL
MODEL 6
REMARK VINA RESULT:    -3.234      1.823      3.352
REMARK INTER + INTRA:          -5.422
REMARK INTER:                  -4.840
REMARK INTRA:                  -0.582
REMARK UNBOUND:                -0.771
REMARK SMILES CCCCCCCCCO
REMARK SMILES IDX 6 1 5 2 4 3 3 4 2 5 1 6 7 7 8 8 9 9 10 10
REMARK H PARENT 10 11
REMARK Flexibility Score: inf
ROOT
ATOM      1  C   UNL     1     160.799 162.085 183.677  1.00  0.00     0.000 C 
ENDROOT
BRANCH   1   2
ATOM      2  C   UNL     1     161.734 163.088 182.984  1.00  0.00     0.000 C 
BRANCH   2   3
ATOM      3  C   UNL     1     163.195 162.848 183.394  1.00  0.00    -0.000 C 
BRANCH   3   4
ATOM      4  C   UNL     1     163.930 161.894 182.439  1.00  0.00    -0.000 C 
BRANCH   4   5
ATOM      5  C   UNL     1     163.967 160.449 182.960  1.00  0.00    -0.003 C 
ATOM      6  C   UNL     1     165.399 160.010 183.254  1.00  0.00     0.004 C 
ENDBRANCH   4   5
ENDBRANCH   3   4
ENDBRANCH   2   3
ENDBRANCH   1   2
BRANCH   1   7
ATOM      7  C   UNL     1     160.242 161.027 182.712  1.00  0.00     0.002 C 
BRANCH   7   8
ATOM      8  C   UNL     1     160.376 161.442 181.238  1.00  0.00     0.028 C 
BRANCH   8   9
ATOM      9  C   UNL     1     160.654 160.241 180.329  1.00  0.00     0.156 C 
BRANCH   9  10
ATOM     10  O   UNL     1     162.024 160.145 180.040  1.00  0.00    -0.396 OA
ATOM     11  H   UNL     1     162.383 161.069 180.031  1.00  0.00     0.210 HD
ENDBRANCH   9  10
ENDBRANCH   8   9
ENDBRANCH   7   8
ENDBRANCH   1   7
TORSDOF 8
ENDMDL
MODEL 7
REMARK VINA RESULT:    -3.170      1.238      2.939
REMARK INTER + INTRA:          -5.331
REMARK INTER:                  -4.620
REMARK INTRA:                  -0.710
REMARK UNBOUND:                -0.771
REMARK SMILES CCCCCCCCCO
REMARK SMILES IDX 6 1 5 2 4 3 3 4 2 5 1 6 7 7 8 8 9 9 10 10
REMARK H PARENT 10 11
REMARK Flexibility Score: inf
ROOT
ATOM      1  C   UNL     1     161.417 162.880 183.440  1.00  0.00     0.000 C 
ENDROOT
BRANCH   1   2
ATOM      2  C   UNL     1     161.499 161.349 183.346  1.00  0.00     0.000 C 
BRANCH   2   3
ATOM      3  C   UNL     1     162.908 160.900 182.926  1.00  0.00    -0.000 C 
BRANCH   3   4
ATOM      4  C   UNL     1     163.797 162.074 182.486  1.00  0.00    -0.000 C 
BRANCH   4   5
ATOM      5  C   UNL     1     164.064 162.077 180.973  1.00  0.00    -0.003 C 
ATOM      6  C   UNL     1     163.338 160.924 180.286  1.00  0.00     0.004 C 
ENDBRANCH   4   5
ENDBRANCH   3   4
ENDBRANCH   2   3
ENDBRANCH   1   2
BRANCH   1   7
ATOM      7  C   UNL     1     160.284 163.468 182.585  1.00  0.00     0.002 C 
BRANCH   7   8
ATOM      8  C   UNL     1     160.222 162.852 181.179  1.00  0.00     0.028 C 
BRANCH   8   9
ATOM      9  C   UNL     1     160.748 163.813 180.109  1.00  0.00     0.156 C 
BRANCH   9  10
ATOM     10  O   UNL     1     160.131 163.567 178.874  1.00  0.00    -0.396 OA
ATOM     11  H   UNL     1     159.166 163.769 178.986  1.00  0.00     0.210 HD
ENDBRANCH   9  10
ENDBRANCH   8   9
ENDBRANCH   7   8
ENDBRANCH   1   7
TORSDOF 8
ENDMDL
MODEL 8
REMARK VINA RESULT:    -3.127      3.357      4.710
REMARK INTER + INTRA:          -5.269
REMARK INTER:                  -4.733
REMARK INTRA:                  -0.537
REMARK UNBOUND:                -0.771
REMARK SMILES CCCCCCCCCO
REMARK SMILES IDX 6 1 5 2 4 3 3 4 2 5 1 6 7 7 8 8 9 9 10 10
REMARK H PARENT 10 11
REMARK Flexibility Score: inf
ROOT
ATOM      1  C   UNL     1     163.936 162.167 182.916  1.00  0.00     0.000 C 
ENDROOT
BRANCH   1   2
ATOM      2  C   UNL     1     162.613 162.936 183.055  1.00  0.00     0.000 C 
BRANCH   2   3
ATOM      3  C   UNL     1     161.494 162.014 183.565  1.00  0.00    -0.000 C 
BRANCH   3   4
ATOM      4  C   UNL     1     160.276 161.987 182.628  1.00  0.00    -0.000 C 
BRANCH   4   5
ATOM      5  C   UNL     1     160.037 160.601 182.009  1.00  0.00    -0.003 C 
ATOM      6  C   UNL     1     160.706 160.489 180.642  1.00  0.00     0.004 C 
ENDBRANCH   4   5
ENDBRANCH   3   4
ENDBRANCH   2   3
ENDBRANCH   1   2
BRANCH   1   7
ATOM      7  C   UNL     1     163.739 160.643 182.903  1.00  0.00     0.002 C 
BRANCH   7   8
ATOM      8  C   UNL     1     165.028 159.877 183.239  1.00  0.00     0.028 C 
BRANCH   8   9
ATOM      9  C   UNL     1     166.211 160.821 183.470  1.00  0.00     0.156 C 
BRANCH   9  10
ATOM     10  O   UNL     1     167.047 160.330 184.483  1.00  0.00    -0.396 OA
ATOM     11  H   UNL     1     167.943 160.731 184.340  1.00  0.00     0.210 HD
ENDBRANCH   9  10
ENDBRANCH   8   9
ENDBRANCH   7   8
ENDBRANCH   1   7
TORSDOF 8
ENDMDL
MODEL 9
REMARK VINA RESULT:    -3.099      1.996      3.310
REMARK INTER + INTRA:          -5.228
REMARK INTER:                  -4.618
REMARK INTRA:                  -0.610
REMARK UNBOUND:                -0.771
REMARK SMILES CCCCCCCCCO
REMARK SMILES IDX 6 1 5 2 4 3 3 4 2 5 1 6 7 7 8 8 9 9 10 10
REMARK H PARENT 10 11
REMARK Flexibility Score: inf
ROOT
ATOM      1  C   UNL     1     163.348 162.578 182.752  1.00  0.00     0.000 C 
ENDROOT
BRANCH   1   2
ATOM      2  C   UNL     1     162.027 162.874 183.478  1.00  0.00     0.000 C 
BRANCH   2   3
ATOM      3  C   UNL     1     160.829 162.355 182.668  1.00  0.00    -0.000 C 
BRANCH   3   4
ATOM      4  C   UNL     1     160.147 161.145 183.327  1.00  0.00    -0.000 C 
BRANCH   4   5
ATOM      5  C   UNL     1     159.875 160.006 182.332  1.00  0.00    -0.003 C 
ATOM      6  C   UNL     1     159.975 160.501 180.892  1.00  0.00     0.004 C 
ENDBRANCH   4   5
ENDBRANCH   3   4
ENDBRANCH   2   3
ENDBRANCH   1   2
BRANCH   1   7
ATOM      7  C   UNL     1     163.752 161.097 182.833  1.00  0.00     0.002 C 
BRANCH   7   8
ATOM      8  C   UNL     1     164.329 160.567 181.511  1.00  0.00     0.028 C 
BRANCH   8   9
ATOM      9  C   UNL     1     163.520 161.045 180.302  1.00  0.00     0.156 C 
BRANCH   9  10
ATOM     10  O   UNL     1     163.574 160.101 179.265  1.00  0.00    -0.396 OA
ATOM     11  H   UNL     1     164.423 159.600 179.374  1.00  0.00     0.210 HD
ENDBRANCH   9  10
ENDBRANCH   8   9
ENDBRANCH   7   8
ENDBRANCH   1   7
TORSDOF 8
ENDMDL
