MODEL 1
REMARK VINA RESULT:    -4.545      0.000      0.000
REMARK INTER + INTRA:          -3.053
REMARK INTER:                  -5.607
REMARK INTRA:                   2.554
REMARK UNBOUND:                 2.554
REMARK SMILES C=C1CC[C@@H]2[C@@H]([C@@H]3[C@@H](C)CC[C@@H]13)C2(C)C
REMARK SMILES IDX 3 1 2 2 1 3 12 4 9 5 8 6 10 7 7 8 11 9 4 11 5 12 6 13 13 14
REMARK SMILES IDX 14 16 15 17
REMARK H PARENT
REMARK Flexibility Score: 80.00
ROOT
ATOM      1  C   UNL     1     110.688 105.227 129.093  1.00  0.00     0.031 C 
ENDROOT
BRANCH   1   2
ATOM      2  C   UNL     1     110.997 105.945 127.769  1.00  0.00    -0.074 C 
ATOM      3  C   UNL     1     111.782 107.034 127.788  1.00  0.00     0.008 C 
BRANCH   2   4
ATOM      4  C   UNL     1     110.561 105.363 126.413  1.00  0.00     0.018 C 
ATOM      5  C   UNL     1     107.744 105.730 123.916  1.00  0.00     0.008 C 
ATOM      6  C   UNL     1     108.963 105.130 124.625  1.00  0.00    -0.010 C 
ATOM      7  C   UNL     1     110.301 105.590 124.004  1.00  0.00     0.004 C 
ATOM      8  C   UNL     1     109.078 105.572 126.078  1.00  0.00     0.003 CG0
ATOM      9  C   UNL     1     111.250 105.927 125.173  1.00  0.00     0.008 C 
ATOM     10  G   UNL     1     108.010 105.096 127.106  1.00  0.00     0.000 G0
ENDBRANCH   2   4
ENDBRANCH   1   2
BRANCH   1  11
ATOM     11  C   UNL     1     109.189 104.829 129.283  1.00  0.00     0.009 C 
BRANCH  11  12
ATOM     12  C   UNL     1     108.663 104.034 128.077  1.00  0.00    -0.001 C 
ATOM     13  C   UNL     1     108.015 105.093 127.130  1.00  0.00     0.002 CG0
ATOM     14  C   UNL     1     107.280 103.810 127.484  1.00  0.00    -0.029 C 
ATOM     15  G   UNL     1     109.074 105.540 126.080  1.00  0.00     0.000 G0
ATOM     16  C   UNL     1     107.163 102.761 126.374  1.00  0.00     0.011 C 
ATOM     17  C   UNL     1     106.099 103.934 128.454  1.00  0.00     0.011 C 
ENDBRANCH  11  12
ENDBRANCH   1  11
TORSDOF 0
ENDMDL
MODEL 2
REMARK VINA RESULT:    -4.513      4.295      5.085
REMARK INTER + INTRA:          -3.014
REMARK INTER:                  -5.627
REMARK INTRA:                   2.614
REMARK UNBOUND:                 2.554
REMARK SMILES C=C1CC[C@@H]2[C@@H]([C@@H]3[C@@H](C)CC[C@@H]13)C2(C)C
REMARK SMILES IDX 3 1 2 2 1 3 12 4 9 5 8 6 10 7 7 8 11 9 4 11 5 12 6 13 13 14
REMARK SMILES IDX 14 16 15 17
REMARK H PARENT
REMARK Flexibility Score: 80.00
ROOT
ATOM      1  C   UNL     1     106.942 110.700 128.908  1.00  0.00     0.031 C 
ENDROOT
BRANCH   1   2
ATOM      2  C   UNL     1     106.363 110.933 127.502  1.00  0.00    -0.074 C 
ATOM      3  C   UNL     1     105.235 111.650 127.374  1.00  0.00     0.008 C 
BRANCH   2   4
ATOM      4  C   UNL     1     107.120 110.500 126.234  1.00  0.00     0.018 C 
ATOM      5  C   UNL     1     107.209 107.601 123.806  1.00  0.00     0.008 C 
ATOM      6  C   UNL     1     107.650 108.874 124.537  1.00  0.00    -0.010 C 
ATOM      7  C   UNL     1     107.182 110.164 123.825  1.00  0.00     0.004 C 
ATOM      8  C   UNL     1     107.040 108.998 125.927  1.00  0.00     0.003 CG0
ATOM      9  C   UNL     1     106.657 111.119 124.917  1.00  0.00     0.008 C 
ATOM     10  G   UNL     1     107.462 107.990 127.036  1.00  0.00     0.000 G0
ENDBRANCH   2   4
ENDBRANCH   1   2
BRANCH   1  11
ATOM     11  C   UNL     1     107.412 109.236 129.184  1.00  0.00     0.009 C 
BRANCH  11  12
ATOM     12  C   UNL     1     108.363 108.736 128.086  1.00  0.00    -0.001 C 
ATOM     13  C   UNL     1     107.458 107.988 127.057  1.00  0.00     0.002 CG0
ATOM     14  C   UNL     1     108.744 107.357 127.568  1.00  0.00    -0.029 C 
ATOM     15  G   UNL     1     107.053 108.982 125.931  1.00  0.00     0.000 G0
ATOM     16  C   UNL     1     109.910 107.285 126.577  1.00  0.00     0.011 C 
ATOM     17  C   UNL     1     108.599 106.196 128.560  1.00  0.00     0.011 C 
ENDBRANCH  11  12
ENDBRANCH   1  11
TORSDOF 0
ENDMDL
MODEL 3
REMARK VINA RESULT:    -4.503      4.776      6.167
REMARK INTER + INTRA:          -3.002
REMARK INTER:                  -5.538
REMARK INTRA:                   2.536
REMARK UNBOUND:                 2.554
REMARK SMILES C=C1CC[C@@H]2[C@@H]([C@@H]3[C@@H](C)CC[C@@H]13)C2(C)C
REMARK SMILES IDX 3 1 2 2 1 3 12 4 9 5 8 6 10 7 7 8 11 9 4 11 5 12 6 13 13 14
REMARK SMILES IDX 14 16 15 17
REMARK H PARENT
REMARK Flexibility Score: 80.00
ROOT
ATOM      1  C   UNL     1     106.934 110.800 124.573  1.00  0.00     0.031 C 
ENDROOT
BRANCH   1   2
ATOM      2  C   UNL     1     107.386 109.347 124.796  1.00  0.00    -0.074 C 
ATOM      3  C   UNL     1     107.276 108.470 123.785  1.00  0.00     0.008 C 
BRANCH   2   4
ATOM      4  C   UNL     1     108.100 108.912 126.088  1.00  0.00     0.018 C 
ATOM      5  C   UNL     1     107.273 107.307 129.411  1.00  0.00     0.008 C 
ATOM      6  C   UNL     1     108.064 108.073 128.346  1.00  0.00    -0.010 C 
ATOM      7  C   UNL     1     108.992 107.156 127.517  1.00  0.00     0.004 C 
ATOM      8  C   UNL     1     107.171 108.715 127.293  1.00  0.00     0.003 CG0
ATOM      9  C   UNL     1     108.847 107.581 126.041  1.00  0.00     0.008 C 
ATOM     10  G   UNL     1     106.229 109.884 127.704  1.00  0.00     0.000 G0
ENDBRANCH   2   4
ENDBRANCH   1   2
BRANCH   1  11
ATOM     11  C   UNL     1     106.077 111.399 125.734  1.00  0.00     0.009 C 
BRANCH  11  12
ATOM     12  C   UNL     1     106.777 111.232 127.092  1.00  0.00    -0.001 C 
ATOM     13  C   UNL     1     106.211 109.907 127.692  1.00  0.00     0.002 CG0
ATOM     14  C   UNL     1     106.286 111.174 128.530  1.00  0.00    -0.029 C 
ATOM     15  G   UNL     1     107.168 108.739 127.316  1.00  0.00     0.000 G0
ATOM     16  C   UNL     1     107.354 111.204 129.629  1.00  0.00     0.011 C 
ATOM     17  C   UNL     1     104.962 111.888 128.825  1.00  0.00     0.011 C 
ENDBRANCH  11  12
ENDBRANCH   1  11
TORSDOF 0
ENDMDL
MODEL 4
REMARK VINA RESULT:    -4.487      4.389      5.096
REMARK INTER + INTRA:          -2.982
REMARK INTER:                  -5.610
REMARK INTRA:                   2.628
REMARK UNBOUND:                 2.554
REMARK SMILES C=C1CC[C@@H]2[C@@H]([C@@H]3[C@@H](C)CC[C@@H]13)C2(C)C
REMARK SMILES IDX 3 1 2 2 1 3 12 4 9 5 8 6 10 7 7 8 11 9 4 11 5 12 6 13 13 14
REMARK SMILES IDX 14 16 15 17
REMARK H PARENT
REMARK Flexibility Score: 80.00
ROOT
ATOM      1  C   UNL     1     105.294 101.804 129.181  1.00  0.00     0.031 C 
ENDROOT
BRANCH   1   2
ATOM      2  C   UNL     1     105.955 101.536 127.819  1.00  0.00    -0.074 C 
ATOM      3  C   UNL     1     107.049 100.759 127.768  1.00  0.00     0.008 C 
BRANCH   2   4
ATOM      4  C   UNL     1     105.312 102.006 126.502  1.00  0.00     0.018 C 
ATOM      5  C   UNL     1     105.530 104.910 124.089  1.00  0.00     0.008 C 
ATOM      6  C   UNL     1     104.980 103.658 124.780  1.00  0.00    -0.010 C 
ATOM      7  C   UNL     1     105.439 102.349 124.096  1.00  0.00     0.004 C 
ATOM      8  C   UNL     1     105.482 103.503 126.209  1.00  0.00     0.003 CG0
ATOM      9  C   UNL     1     105.839 101.369 125.218  1.00  0.00     0.008 C 
ATOM     10  G   UNL     1     105.029 104.527 127.290  1.00  0.00     0.000 G0
ENDBRANCH   2   4
ENDBRANCH   1   2
BRANCH   1  11
ATOM     11  C   UNL     1     104.893 103.293 129.429  1.00  0.00     0.009 C 
BRANCH  11  12
ATOM     12  C   UNL     1     104.042 103.844 128.274  1.00  0.00    -0.001 C 
ATOM     13  C   UNL     1     105.051 104.531 127.302  1.00  0.00     0.002 CG0
ATOM     14  C   UNL     1     103.777 105.240 127.732  1.00  0.00    -0.029 C 
ATOM     15  G   UNL     1     105.463 103.508 126.203  1.00  0.00     0.000 G0
ATOM     16  C   UNL     1     102.679 105.376 126.671  1.00  0.00     0.011 C 
ATOM     17  C   UNL     1     103.930 106.395 128.729  1.00  0.00     0.011 C 
ENDBRANCH  11  12
ENDBRANCH   1  11
TORSDOF 0
ENDMDL
MODEL 5
REMARK VINA RESULT:    -4.354      1.775      3.586
REMARK INTER + INTRA:          -2.818
REMARK INTER:                  -5.399
REMARK INTRA:                   2.580
REMARK UNBOUND:                 2.554
REMARK SMILES C=C1CC[C@@H]2[C@@H]([C@@H]3[C@@H](C)CC[C@@H]13)C2(C)C
REMARK SMILES IDX 3 1 2 2 1 3 12 4 9 5 8 6 10 7 7 8 11 9 4 11 5 12 6 13 13 14
REMARK SMILES IDX 14 16 15 17
REMARK H PARENT
REMARK Flexibility Score: 80.00
ROOT
ATOM      1  C   UNL     1     111.619 107.119 126.387  1.00  0.00     0.031 C 
ENDROOT
BRANCH   1   2
ATOM      2  C   UNL     1     110.806 107.439 127.653  1.00  0.00    -0.074 C 
ATOM      3  C   UNL     1     111.454 107.603 128.817  1.00  0.00     0.008 C 
BRANCH   2   4
ATOM      4  C   UNL     1     109.296 107.727 127.592  1.00  0.00     0.018 C 
ATOM      5  C   UNL     1     106.015 105.906 128.066  1.00  0.00     0.008 C 
ATOM      6  C   UNL     1     106.999 107.002 127.643  1.00  0.00    -0.010 C 
ATOM      7  C   UNL     1     107.171 108.098 128.719  1.00  0.00     0.004 C 
ATOM      8  C   UNL     1     108.415 106.479 127.442  1.00  0.00     0.003 CG0
ATOM      9  C   UNL     1     108.680 108.407 128.813  1.00  0.00     0.008 C 
ATOM     10  G   UNL     1     108.707 105.502 126.267  1.00  0.00     0.000 G0
ENDBRANCH   2   4
ENDBRANCH   1   2
BRANCH   1  11
ATOM     11  C   UNL     1     111.022 105.978 125.502  1.00  0.00     0.009 C 
BRANCH  11  12
ATOM     12  C   UNL     1     109.546 106.242 125.167  1.00  0.00    -0.001 C 
ATOM     13  C   UNL     1     108.728 105.496 126.268  1.00  0.00     0.002 CG0
ATOM     14  C   UNL     1     108.373 105.347 124.797  1.00  0.00    -0.029 C 
ATOM     15  G   UNL     1     108.406 106.497 127.416  1.00  0.00     0.000 G0
ATOM     16  C   UNL     1     107.090 106.043 124.330  1.00  0.00     0.011 C 
ATOM     17  C   UNL     1     108.722 104.010 124.133  1.00  0.00     0.011 C 
ENDBRANCH  11  12
ENDBRANCH   1  11
TORSDOF 0
ENDMDL
MODEL 6
REMARK VINA RESULT:    -4.353      4.503      5.865
REMARK INTER + INTRA:          -2.816
REMARK INTER:                  -5.378
REMARK INTRA:                   2.562
REMARK UNBOUND:                 2.554
REMARK SMILES C=C1CC[C@@H]2[C@@H]([C@@H]3[C@@H](C)CC[C@@H]13)C2(C)C
REMARK SMILES IDX 3 1 2 2 1 3 12 4 9 5 8 6 10 7 7 8 11 9 4 11 5 12 6 13 13 14
REMARK SMILES IDX 14 16 15 17
REMARK H PARENT
REMARK Flexibility Score: 80.00
ROOT
ATOM      1  C   UNL     1     105.262 111.296 127.547  1.00  0.00     0.031 C 
ENDROOT
BRANCH   1   2
ATOM      2  C   UNL     1     106.468 110.728 128.314  1.00  0.00    -0.074 C 
ATOM      3  C   UNL     1     107.037 111.473 129.275  1.00  0.00     0.008 C 
BRANCH   2   4
ATOM      4  C   UNL     1     106.941 109.277 128.116  1.00  0.00     0.018 C 
ATOM      5  C   UNL     1     109.538 107.359 126.146  1.00  0.00     0.008 C 
ATOM      6  C   UNL     1     108.293 107.625 126.999  1.00  0.00    -0.010 C 
ATOM      7  C   UNL     1     108.573 107.516 128.515  1.00  0.00     0.004 C 
ATOM      8  C   UNL     1     107.760 109.043 126.839  1.00  0.00     0.003 CG0
ATOM      9  C   UNL     1     107.860 108.704 129.193  1.00  0.00     0.008 C 
ATOM     10  G   UNL     1     107.150 109.478 125.476  1.00  0.00     0.000 G0
ENDBRANCH   2   4
ENDBRANCH   1   2
BRANCH   1  11
ATOM     11  C   UNL     1     105.319 111.091 126.000  1.00  0.00     0.009 C 
BRANCH  11  12
ATOM     12  C   UNL     1     105.579 109.620 125.638  1.00  0.00    -0.001 C 
ATOM     13  C   UNL     1     107.127 109.497 125.474  1.00  0.00     0.002 CG0
ATOM     14  C   UNL     1     106.183 108.923 124.428  1.00  0.00    -0.029 C 
ATOM     15  G   UNL     1     107.738 109.031 126.827  1.00  0.00     0.000 G0
ATOM     16  C   UNL     1     106.067 107.395 124.379  1.00  0.00     0.011 C 
ATOM     17  C   UNL     1     106.088 109.673 123.095  1.00  0.00     0.011 C 
ENDBRANCH  11  12
ENDBRANCH   1  11
TORSDOF 0
ENDMDL
MODEL 7
REMARK VINA RESULT:    -4.349      4.517      6.400
REMARK INTER + INTRA:          -2.811
REMARK INTER:                  -5.455
REMARK INTRA:                   2.643
REMARK UNBOUND:                 2.554
REMARK SMILES C=C1CC[C@@H]2[C@@H]([C@@H]3[C@@H](C)CC[C@@H]13)C2(C)C
REMARK SMILES IDX 3 1 2 2 1 3 12 4 9 5 8 6 10 7 7 8 11 9 4 11 5 12 6 13 13 14
REMARK SMILES IDX 14 16 15 17
REMARK H PARENT
REMARK Flexibility Score: 80.00
ROOT
ATOM      1  C   UNL     1     105.323 111.586 126.260  1.00  0.00     0.031 C 
ENDROOT
BRANCH   1   2
ATOM      2  C   UNL     1     105.044 110.769 127.533  1.00  0.00    -0.074 C 
ATOM      3  C   UNL     1     104.866 111.417 128.696  1.00  0.00     0.008 C 
BRANCH   2   4
ATOM      4  C   UNL     1     104.813 109.249 127.483  1.00  0.00     0.018 C 
ATOM      5  C   UNL     1     106.755 106.043 127.988  1.00  0.00     0.008 C 
ATOM      6  C   UNL     1     105.625 106.981 127.554  1.00  0.00    -0.010 C 
ATOM      7  C   UNL     1     104.519 107.120 128.625  1.00  0.00     0.004 C 
ATOM      8  C   UNL     1     106.094 108.415 127.344  1.00  0.00     0.003 CG0
ATOM      9  C   UNL     1     104.154 108.617 128.707  1.00  0.00     0.008 C 
ATOM     10  G   UNL     1     107.064 108.734 126.169  1.00  0.00     0.000 G0
ENDBRANCH   2   4
ENDBRANCH   1   2
BRANCH   1  11
ATOM     11  C   UNL     1     106.468 111.021 125.362  1.00  0.00     0.009 C 
BRANCH  11  12
ATOM     12  C   UNL     1     106.258 109.529 125.057  1.00  0.00    -0.001 C 
ATOM     13  C   UNL     1     107.054 108.761 126.159  1.00  0.00     0.002 CG0
ATOM     14  C   UNL     1     107.192 108.386 124.691  1.00  0.00    -0.029 C 
ATOM     15  G   UNL     1     106.087 108.421 127.329  1.00  0.00     0.000 G0
ATOM     16  C   UNL     1     106.539 107.068 124.259  1.00  0.00     0.011 C 
ATOM     17  C   UNL     1     108.502 108.775 123.997  1.00  0.00     0.011 C 
ENDBRANCH  11  12
ENDBRANCH   1  11
TORSDOF 0
ENDMDL
MODEL 8
REMARK VINA RESULT:    -4.317      4.831      7.073
REMARK INTER + INTRA:          -2.772
REMARK INTER:                  -5.416
REMARK INTRA:                   2.643
REMARK UNBOUND:                 2.554
REMARK SMILES C=C1CC[C@@H]2[C@@H]([C@@H]3[C@@H](C)CC[C@@H]13)C2(C)C
REMARK SMILES IDX 3 1 2 2 1 3 12 4 9 5 8 6 10 7 7 8 11 9 4 11 5 12 6 13 13 14
REMARK SMILES IDX 14 16 15 17
REMARK H PARENT
REMARK Flexibility Score: 80.00
ROOT
ATOM      1  C   UNL     1     102.039 107.203 129.120  1.00  0.00     0.031 C 
ENDROOT
BRANCH   1   2
ATOM      2  C   UNL     1     101.610 106.502 127.820  1.00  0.00    -0.074 C 
ATOM      3  C   UNL     1     100.763 105.462 127.890  1.00  0.00     0.008 C 
BRANCH   2   4
ATOM      4  C   UNL     1     102.001 107.054 126.438  1.00  0.00     0.018 C 
ATOM      5  C   UNL     1     104.649 106.522 123.790  1.00  0.00     0.008 C 
ATOM      6  C   UNL     1     103.506 107.191 124.562  1.00  0.00    -0.010 C 
ATOM      7  C   UNL     1     102.112 106.804 124.020  1.00  0.00     0.004 C 
ATOM      8  C   UNL     1     103.449 106.762 126.022  1.00  0.00     0.003 CG0
ATOM      9  C   UNL     1     101.213 106.524 125.242  1.00  0.00     0.008 C 
ATOM     10  G   UNL     1     104.597 107.182 126.985  1.00  0.00     0.000 G0
ENDBRANCH   2   4
ENDBRANCH   1   2
BRANCH   1  11
ATOM     11  C   UNL     1     103.562 107.536 129.207  1.00  0.00     0.009 C 
BRANCH  11  12
ATOM     12  C   UNL     1     104.044 108.292 127.959  1.00  0.00    -0.001 C 
ATOM     13  C   UNL     1     104.606 107.196 126.998  1.00  0.00     0.002 CG0
ATOM     14  C   UNL     1     105.397 108.463 127.286  1.00  0.00    -0.029 C 
ATOM     15  G   UNL     1     103.477 106.764 126.018  1.00  0.00     0.000 G0
ATOM     16  C   UNL     1     105.483 109.488 126.151  1.00  0.00     0.011 C 
ATOM     17  C   UNL     1     106.627 108.319 128.191  1.00  0.00     0.011 C 
ENDBRANCH  11  12
ENDBRANCH   1  11
TORSDOF 0
ENDMDL
MODEL 9
REMARK VINA RESULT:    -4.283      1.163      3.576
REMARK INTER + INTRA:          -2.730
REMARK INTER:                  -5.401
REMARK INTRA:                   2.670
REMARK UNBOUND:                 2.554
REMARK SMILES C=C1CC[C@@H]2[C@@H]([C@@H]3[C@@H](C)CC[C@@H]13)C2(C)C
REMARK SMILES IDX 3 1 2 2 1 3 12 4 9 5 8 6 10 7 7 8 11 9 4 11 5 12 6 13 13 14
REMARK SMILES IDX 14 16 15 17
REMARK H PARENT
REMARK Flexibility Score: 80.00
ROOT
ATOM      1  C   UNL     1     111.193 107.435 127.762  1.00  0.00     0.031 C 
ENDROOT
BRANCH   1   2
ATOM      2  C   UNL     1     110.798 106.096 128.408  1.00  0.00    -0.074 C 
ATOM      3  C   UNL     1     111.663 105.497 129.242  1.00  0.00     0.008 C 
BRANCH   2   4
ATOM      4  C   UNL     1     109.387 105.505 128.245  1.00  0.00     0.018 C 
ATOM      5  C   UNL     1     107.565 103.007 126.068  1.00  0.00     0.008 C 
ATOM      6  C   UNL     1     107.783 104.149 127.066  1.00  0.00    -0.010 C 
ATOM      7  C   UNL     1     107.825 103.661 128.532  1.00  0.00     0.004 C 
ATOM      8  C   UNL     1     109.126 104.842 126.886  1.00  0.00     0.003 CG0
ATOM      9  C   UNL     1     108.993 104.398 129.220  1.00  0.00     0.008 C 
ATOM     10  G   UNL     1     109.390 105.670 125.594  1.00  0.00     0.000 G0
ENDBRANCH   2   4
ENDBRANCH   1   2
BRANCH   1  11
ATOM     11  C   UNL     1     110.856 107.548 126.241  1.00  0.00     0.009 C 
BRANCH  11  12
ATOM     12  C   UNL     1     109.386 107.193 125.964  1.00  0.00    -0.001 C 
ATOM     13  C   UNL     1     109.385 105.675 125.601  1.00  0.00     0.002 CG0
ATOM     14  C   UNL     1     108.637 106.683 124.742  1.00  0.00    -0.029 C 
ATOM     15  G   UNL     1     109.099 104.852 126.891  1.00  0.00     0.000 G0
ATOM     16  C   UNL     1     107.107 106.653 124.829  1.00  0.00     0.011 C 
ATOM     17  C   UNL     1     109.252 107.022 123.379  1.00  0.00     0.011 C 
ENDBRANCH  11  12
ENDBRANCH   1  11
TORSDOF 0
ENDMDL
