MODEL 1
REMARK VINA RESULT:    -5.378      0.000      0.000
REMARK INTER + INTRA:          -6.595
REMARK INTER:                  -6.321
REMARK INTRA:                  -0.274
REMARK UNBOUND:                -0.274
REMARK SMILES O=c1c(O)c(-c2ccc(O)cc2)oc2cc(O)cc(O)c12
REMARK SMILES IDX 5 1 3 2 2 3 1 4 21 5 19 6 18 7 16 8 15 9 14 10 13 11 6 12
REMARK SMILES IDX 7 13 8 14 9 15 12 16 11 17 10 18 4 20 20 22 17 24
REMARK H PARENT 10 19 4 21 20 23 17 25
REMARK Flexibility Score: inf
ROOT
ATOM      1  C   UNL     1     -25.786  13.423 -27.467  1.00  0.00     0.180 A 
ATOM      2  C   UNL     1     -25.042  13.438 -28.659  1.00  0.00     0.208 A 
ATOM      3  C   UNL     1     -23.758  12.871 -28.668  1.00  0.00     0.238 A 
ATOM      4  O   UNL     1     -23.075  12.937 -29.724  1.00  0.00    -0.285 OA
ATOM      5  C   UNL     1     -23.240  12.283 -27.490  1.00  0.00     0.111 A 
ATOM      6  C   UNL     1     -21.966  11.644 -27.395  1.00  0.00     0.134 A 
ATOM      7  C   UNL     1     -21.501  11.211 -26.147  1.00  0.00     0.093 A 
ATOM      8  C   UNL     1     -22.289  11.335 -25.003  1.00  0.00     0.123 A 
ATOM      9  C   UNL     1     -23.560  11.903 -25.094  1.00  0.00     0.094 A 
ATOM     10  C   UNL     1     -24.037  12.377 -26.319  1.00  0.00     0.146 A 
ATOM     11  O   UNL     1     -25.247  12.922 -26.362  1.00  0.00    -0.452 OA
ENDROOT
BRANCH   1  12
ATOM     12  C   UNL     1     -27.157  13.979 -27.385  1.00  0.00     0.021 A 
ATOM     13  C   UNL     1     -27.380  15.354 -27.186  1.00  0.00     0.016 A 
ATOM     14  C   UNL     1     -28.683  15.857 -27.136  1.00  0.00     0.047 A 
ATOM     15  C   UNL     1     -29.776  15.001 -27.298  1.00  0.00     0.115 A 
ATOM     16  C   UNL     1     -28.259  13.127 -27.568  1.00  0.00     0.016 A 
ATOM     17  C   UNL     1     -29.561  13.635 -27.516  1.00  0.00     0.047 A 
BRANCH  15  18
ATOM     18  O   UNL     1     -31.069  15.517 -27.244  1.00  0.00    -0.508 OA
ATOM     19  H   UNL     1     -31.573  15.595 -26.369  1.00  0.00     0.293 HD
ENDBRANCH  15  18
ENDBRANCH   1  12
BRANCH   2  20
ATOM     20  O   UNL     1     -25.563  14.045 -29.805  1.00  0.00    -0.502 OA
ATOM     21  H   UNL     1     -25.789  13.522 -30.643  1.00  0.00     0.293 HD
ENDBRANCH   2  20
BRANCH   6  22
ATOM     22  O   UNL     1     -21.139  11.386 -28.493  1.00  0.00    -0.507 OA
ATOM     23  H   UNL     1     -21.416  11.488 -29.457  1.00  0.00     0.293 HD
ENDBRANCH   6  22
BRANCH   8  24
ATOM     24  O   UNL     1     -21.801  10.879 -23.780  1.00  0.00    -0.508 OA
ATOM     25  H   UNL     1     -22.287  10.166 -23.248  1.00  0.00     0.293 HD
ENDBRANCH   8  24
TORSDOF 5
ENDMDL
MODEL 2
REMARK VINA RESULT:    -4.591      1.938      6.970
REMARK INTER + INTRA:          -5.670
REMARK INTER:                  -5.415
REMARK INTRA:                  -0.255
REMARK UNBOUND:                -0.274
REMARK SMILES O=c1c(O)c(-c2ccc(O)cc2)oc2cc(O)cc(O)c12
REMARK SMILES IDX 5 1 3 2 2 3 1 4 21 5 19 6 18 7 16 8 15 9 14 10 13 11 6 12
REMARK SMILES IDX 7 13 8 14 9 15 12 16 11 17 10 18 4 20 20 22 17 24
REMARK H PARENT 10 19 4 21 20 23 17 25
REMARK Flexibility Score: inf
ROOT
ATOM      1  C   UNL     1     -25.903  13.113 -28.555  1.00  0.00     0.180 A 
ATOM      2  C   UNL     1     -26.769  12.122 -29.048  1.00  0.00     0.208 A 
ATOM      3  C   UNL     1     -28.145  12.391 -29.112  1.00  0.00     0.238 A 
ATOM      4  O   UNL     1     -28.922  11.479 -29.503  1.00  0.00    -0.285 OA
ATOM      5  C   UNL     1     -28.637  13.651 -28.699  1.00  0.00     0.111 A 
ATOM      6  C   UNL     1     -30.008  14.046 -28.758  1.00  0.00     0.134 A 
ATOM      7  C   UNL     1     -30.400  15.270 -28.201  1.00  0.00     0.093 A 
ATOM      8  C   UNL     1     -29.462  16.141 -27.646  1.00  0.00     0.123 A 
ATOM      9  C   UNL     1     -28.112  15.791 -27.637  1.00  0.00     0.094 A 
ATOM     10  C   UNL     1     -27.695  14.562 -28.153  1.00  0.00     0.146 A 
ATOM     11  O   UNL     1     -26.402  14.262 -28.115  1.00  0.00    -0.452 OA
ENDROOT
BRANCH   1  12
ATOM     12  C   UNL     1     -24.437  12.914 -28.480  1.00  0.00     0.021 A 
ATOM     13  C   UNL     1     -23.852  12.160 -27.447  1.00  0.00     0.016 A 
ATOM     14  C   UNL     1     -22.468  11.967 -27.411  1.00  0.00     0.047 A 
ATOM     15  C   UNL     1     -21.654  12.509 -28.410  1.00  0.00     0.115 A 
ATOM     16  C   UNL     1     -23.616  13.438 -29.493  1.00  0.00     0.016 A 
ATOM     17  C   UNL     1     -22.232  13.243 -29.453  1.00  0.00     0.047 A 
BRANCH  15  18
ATOM     18  O   UNL     1     -20.276  12.309 -28.360  1.00  0.00    -0.508 OA
ATOM     19  H   UNL     1     -19.779  12.268 -27.479  1.00  0.00     0.293 HD
ENDBRANCH  15  18
ENDBRANCH   1  12
BRANCH   2  20
ATOM     20  O   UNL     1     -26.265  10.876 -29.430  1.00  0.00    -0.502 OA
ATOM     21  H   UNL     1     -25.277  10.655 -29.397  1.00  0.00     0.293 HD
ENDBRANCH   2  20
BRANCH   6  22
ATOM     22  O   UNL     1     -31.012  13.292 -29.374  1.00  0.00    -0.507 OA
ATOM     23  H   UNL     1     -31.041  13.069 -30.357  1.00  0.00     0.293 HD
ENDBRANCH   6  22
BRANCH   8  24
ATOM     24  O   UNL     1     -29.885  17.358 -27.115  1.00  0.00    -0.508 OA
ATOM     25  H   UNL     1     -29.495  17.724 -26.255  1.00  0.00     0.293 HD
ENDBRANCH   8  24
TORSDOF 5
ENDMDL
MODEL 3
REMARK VINA RESULT:    -4.457      2.611      7.204
REMARK INTER + INTRA:          -5.513
REMARK INTER:                  -5.540
REMARK INTRA:                   0.027
REMARK UNBOUND:                -0.274
REMARK SMILES O=c1c(O)c(-c2ccc(O)cc2)oc2cc(O)cc(O)c12
REMARK SMILES IDX 5 1 3 2 2 3 1 4 21 5 19 6 18 7 16 8 15 9 14 10 13 11 6 12
REMARK SMILES IDX 7 13 8 14 9 15 12 16 11 17 10 18 4 20 20 22 17 24
REMARK H PARENT 10 19 4 21 20 23 17 25
REMARK Flexibility Score: inf
ROOT
ATOM      1  C   UNL     1     -21.234  12.475 -27.659  1.00  0.00     0.180 A 
ATOM      2  C   UNL     1     -21.680  13.143 -28.812  1.00  0.00     0.208 A 
ATOM      3  C   UNL     1     -23.060  13.287 -29.025  1.00  0.00     0.238 A 
ATOM      4  O   UNL     1     -23.454  13.838 -30.087  1.00  0.00    -0.285 OA
ATOM      5  C   UNL     1     -23.976  12.778 -28.075  1.00  0.00     0.111 A 
ATOM      6  C   UNL     1     -25.396  12.903 -28.168  1.00  0.00     0.134 A 
ATOM      7  C   UNL     1     -26.210  12.247 -27.237  1.00  0.00     0.093 A 
ATOM      8  C   UNL     1     -25.658  11.525 -26.180  1.00  0.00     0.123 A 
ATOM      9  C   UNL     1     -24.272  11.446 -26.044  1.00  0.00     0.094 A 
ATOM     10  C   UNL     1     -23.433  12.060 -26.978  1.00  0.00     0.146 A 
ATOM     11  O   UNL     1     -22.119  11.951 -26.819  1.00  0.00    -0.452 OA
ENDROOT
BRANCH   1  12
ATOM     12  C   UNL     1     -19.795  12.305 -27.353  1.00  0.00     0.021 A 
ATOM     13  C   UNL     1     -18.899  13.388 -27.418  1.00  0.00     0.016 A 
ATOM     14  C   UNL     1     -17.550  13.208 -27.102  1.00  0.00     0.047 A 
ATOM     15  C   UNL     1     -17.080  11.953 -26.703  1.00  0.00     0.115 A 
ATOM     16  C   UNL     1     -19.321  11.051 -26.931  1.00  0.00     0.016 A 
ATOM     17  C   UNL     1     -17.970  10.875 -26.616  1.00  0.00     0.047 A 
BRANCH  15  18
ATOM     18  O   UNL     1     -15.732  11.788 -26.392  1.00  0.00    -0.508 OA
ATOM     19  H   UNL     1     -15.196  11.009 -26.755  1.00  0.00     0.293 HD
ENDBRANCH  15  18
ENDBRANCH   1  12
BRANCH   2  20
ATOM     20  O   UNL     1     -20.759  13.619 -29.749  1.00  0.00    -0.502 OA
ATOM     21  H   UNL     1     -19.784  13.774 -29.523  1.00  0.00     0.293 HD
ENDBRANCH   2  20
BRANCH   6  22
ATOM     22  O   UNL     1     -26.049  13.677 -29.132  1.00  0.00    -0.507 OA
ATOM     23  H   UNL     1     -25.637  13.979 -30.002  1.00  0.00     0.293 HD
ENDBRANCH   6  22
BRANCH   8  24
ATOM     24  O   UNL     1     -26.499  10.898 -25.262  1.00  0.00    -0.508 OA
ATOM     25  H   UNL     1     -26.229  10.038 -24.799  1.00  0.00     0.293 HD
ENDBRANCH   8  24
TORSDOF 5
ENDMDL
MODEL 4
REMARK VINA RESULT:    -3.835      1.806      3.168
REMARK INTER + INTRA:          -4.781
REMARK INTER:                  -4.830
REMARK INTRA:                   0.048
REMARK UNBOUND:                -0.274
REMARK SMILES O=c1c(O)c(-c2ccc(O)cc2)oc2cc(O)cc(O)c12
REMARK SMILES IDX 5 1 3 2 2 3 1 4 21 5 19 6 18 7 16 8 15 9 14 10 13 11 6 12
REMARK SMILES IDX 7 13 8 14 9 15 12 16 11 17 10 18 4 20 20 22 17 24
REMARK H PARENT 10 19 4 21 20 23 17 25
REMARK Flexibility Score: inf
ROOT
ATOM      1  C   UNL     1     -26.838  14.161 -27.034  1.00  0.00     0.180 A 
ATOM      2  C   UNL     1     -26.740  14.286 -25.638  1.00  0.00     0.208 A 
ATOM      3  C   UNL     1     -25.632  13.726 -24.981  1.00  0.00     0.238 A 
ATOM      4  O   UNL     1     -25.577  13.793 -23.725  1.00  0.00    -0.285 OA
ATOM      5  C   UNL     1     -24.630  13.065 -25.729  1.00  0.00     0.111 A 
ATOM      6  C   UNL     1     -23.444  12.496 -25.172  1.00  0.00     0.134 A 
ATOM      7  C   UNL     1     -22.584  11.752 -25.989  1.00  0.00     0.093 A 
ATOM      8  C   UNL     1     -22.832  11.611 -27.354  1.00  0.00     0.123 A 
ATOM      9  C   UNL     1     -23.956  12.212 -27.921  1.00  0.00     0.094 A 
ATOM     10  C   UNL     1     -24.851  12.931 -27.125  1.00  0.00     0.146 A 
ATOM     11  O   UNL     1     -25.915  13.479 -27.701  1.00  0.00    -0.452 OA
ENDROOT
BRANCH   1  12
ATOM     12  C   UNL     1     -27.963  14.746 -27.801  1.00  0.00     0.021 A 
ATOM     13  C   UNL     1     -28.391  16.068 -27.581  1.00  0.00     0.016 A 
ATOM     14  C   UNL     1     -29.440  16.605 -28.333  1.00  0.00     0.047 A 
ATOM     15  C   UNL     1     -30.063  15.837 -29.322  1.00  0.00     0.115 A 
ATOM     16  C   UNL     1     -28.580  13.987 -28.810  1.00  0.00     0.016 A 
ATOM     17  C   UNL     1     -29.629  14.528 -29.560  1.00  0.00     0.047 A 
BRANCH  15  18
ATOM     18  O   UNL     1     -31.108  16.386 -30.062  1.00  0.00    -0.508 OA
ATOM     19  H   UNL     1     -31.972  16.678 -29.623  1.00  0.00     0.293 HD
ENDBRANCH  15  18
ENDBRANCH   1  12
BRANCH   2  20
ATOM     20  O   UNL     1     -27.752  14.922 -24.916  1.00  0.00    -0.502 OA
ATOM     21  H   UNL     1     -27.942  15.914 -25.003  1.00  0.00     0.293 HD
ENDBRANCH   2  20
BRANCH   6  22
ATOM     22  O   UNL     1     -23.054  12.656 -23.838  1.00  0.00    -0.507 OA
ATOM     23  H   UNL     1     -23.534  13.234 -23.166  1.00  0.00     0.293 HD
ENDBRANCH   6  22
BRANCH   8  24
ATOM     24  O   UNL     1     -21.946  10.876 -28.140  1.00  0.00    -0.508 OA
ATOM     25  H   UNL     1     -21.927  10.974 -29.149  1.00  0.00     0.293 HD
ENDBRANCH   8  24
TORSDOF 5
ENDMDL
MODEL 5
REMARK VINA RESULT:    -3.792      2.089      7.114
REMARK INTER + INTRA:          -4.732
REMARK INTER:                  -4.701
REMARK INTRA:                  -0.031
REMARK UNBOUND:                -0.274
REMARK SMILES O=c1c(O)c(-c2ccc(O)cc2)oc2cc(O)cc(O)c12
REMARK SMILES IDX 5 1 3 2 2 3 1 4 21 5 19 6 18 7 16 8 15 9 14 10 13 11 6 12
REMARK SMILES IDX 7 13 8 14 9 15 12 16 11 17 10 18 4 20 20 22 17 24
REMARK H PARENT 10 19 4 21 20 23 17 25
REMARK Flexibility Score: inf
ROOT
ATOM      1  C   UNL     1     -25.463  13.591 -28.075  1.00  0.00     0.180 A 
ATOM      2  C   UNL     1     -25.738  13.613 -26.697  1.00  0.00     0.208 A 
ATOM      3  C   UNL     1     -26.910  14.242 -26.247  1.00  0.00     0.238 A 
ATOM      4  O   UNL     1     -27.123  14.307 -25.007  1.00  0.00    -0.285 OA
ATOM      5  C   UNL     1     -27.799  14.826 -27.180  1.00  0.00     0.111 A 
ATOM      6  C   UNL     1     -29.036  15.454 -26.839  1.00  0.00     0.134 A 
ATOM      7  C   UNL     1     -29.773  16.112 -27.830  1.00  0.00     0.093 A 
ATOM      8  C   UNL     1     -29.353  16.110 -29.161  1.00  0.00     0.123 A 
ATOM      9  C   UNL     1     -28.178  15.448 -29.515  1.00  0.00     0.094 A 
ATOM     10  C   UNL     1     -27.402  14.813 -28.542  1.00  0.00     0.146 A 
ATOM     11  O   UNL     1     -26.284  14.203 -28.920  1.00  0.00    -0.452 OA
ENDROOT
BRANCH   1  12
ATOM     12  C   UNL     1     -24.261  12.925 -28.628  1.00  0.00     0.021 A 
ATOM     13  C   UNL     1     -23.317  13.635 -29.395  1.00  0.00     0.016 A 
ATOM     14  C   UNL     1     -22.179  12.990 -29.886  1.00  0.00     0.047 A 
ATOM     15  C   UNL     1     -21.960  11.637 -29.609  1.00  0.00     0.115 A 
ATOM     16  C   UNL     1     -24.024  11.572 -28.335  1.00  0.00     0.016 A 
ATOM     17  C   UNL     1     -22.884  10.930 -28.830  1.00  0.00     0.047 A 
BRANCH  15  18
ATOM     18  O   UNL     1     -20.821  11.008 -30.107  1.00  0.00    -0.508 OA
ATOM     19  H   UNL     1     -19.947  11.507 -30.221  1.00  0.00     0.293 HD
ENDBRANCH  15  18
ENDBRANCH   1  12
BRANCH   2  20
ATOM     20  O   UNL     1     -24.836  13.051 -25.790  1.00  0.00    -0.502 OA
ATOM     21  H   UNL     1     -24.956  12.121 -25.408  1.00  0.00     0.293 HD
ENDBRANCH   2  20
BRANCH   6  22
ATOM     22  O   UNL     1     -29.592  15.435 -25.556  1.00  0.00    -0.507 OA
ATOM     23  H   UNL     1     -29.499  14.675 -24.901  1.00  0.00     0.293 HD
ENDBRANCH   6  22
BRANCH   8  24
ATOM     24  O   UNL     1     -30.120  16.762 -30.124  1.00  0.00    -0.508 OA
ATOM     25  H   UNL     1     -31.099  16.974 -29.967  1.00  0.00     0.293 HD
ENDBRANCH   8  24
TORSDOF 5
ENDMDL
MODEL 6
REMARK VINA RESULT:    -3.518      2.278      7.423
REMARK INTER + INTRA:          -4.409
REMARK INTER:                  -4.572
REMARK INTRA:                   0.163
REMARK UNBOUND:                -0.274
REMARK SMILES O=c1c(O)c(-c2ccc(O)cc2)oc2cc(O)cc(O)c12
REMARK SMILES IDX 5 1 3 2 2 3 1 4 21 5 19 6 18 7 16 8 15 9 14 10 13 11 6 12
REMARK SMILES IDX 7 13 8 14 9 15 12 16 11 17 10 18 4 20 20 22 17 24
REMARK H PARENT 10 19 4 21 20 23 17 25
REMARK Flexibility Score: inf
ROOT
ATOM      1  C   UNL     1     -22.074  12.057 -26.949  1.00  0.00     0.180 A 
ATOM      2  C   UNL     1     -22.720  11.443 -25.863  1.00  0.00     0.208 A 
ATOM      3  C   UNL     1     -24.123  11.378 -25.855  1.00  0.00     0.238 A 
ATOM      4  O   UNL     1     -24.699  10.876 -24.853  1.00  0.00    -0.285 OA
ATOM      5  C   UNL     1     -24.860  11.911 -26.939  1.00  0.00     0.111 A 
ATOM      6  C   UNL     1     -26.283  11.864 -27.054  1.00  0.00     0.134 A 
ATOM      7  C   UNL     1     -26.913  12.539 -28.106  1.00  0.00     0.093 A 
ATOM      8  C   UNL     1     -26.171  13.203 -29.082  1.00  0.00     0.123 A 
ATOM      9  C   UNL     1     -24.778  13.205 -29.013  1.00  0.00     0.094 A 
ATOM     10  C   UNL     1     -24.122  12.571 -27.955  1.00  0.00     0.146 A 
ATOM     11  O   UNL     1     -22.795  12.606 -27.920  1.00  0.00    -0.452 OA
ENDROOT
BRANCH   1  12
ATOM     12  C   UNL     1     -20.598  12.142 -27.043  1.00  0.00     0.021 A 
ATOM     13  C   UNL     1     -19.955  13.333 -27.430  1.00  0.00     0.016 A 
ATOM     14  C   UNL     1     -18.560  13.395 -27.488  1.00  0.00     0.047 A 
ATOM     15  C   UNL     1     -17.790  12.279 -27.147  1.00  0.00     0.115 A 
ATOM     16  C   UNL     1     -19.817  11.031 -26.681  1.00  0.00     0.016 A 
ATOM     17  C   UNL     1     -18.421  11.097 -26.741  1.00  0.00     0.047 A 
BRANCH  15  18
ATOM     18  O   UNL     1     -16.400  12.356 -27.211  1.00  0.00    -0.508 OA
ATOM     19  H   UNL     1     -15.918  12.521 -28.087  1.00  0.00     0.293 HD
ENDBRANCH  15  18
ENDBRANCH   1  12
BRANCH   2  20
ATOM     20  O   UNL     1     -21.975  10.942 -24.793  1.00  0.00    -0.502 OA
ATOM     21  H   UNL     1     -20.963  10.970 -24.774  1.00  0.00     0.293 HD
ENDBRANCH   2  20
BRANCH   6  22
ATOM     22  O   UNL     1     -27.112  11.150 -26.184  1.00  0.00    -0.507 OA
ATOM     23  H   UNL     1     -27.084  11.218 -25.178  1.00  0.00     0.293 HD
ENDBRANCH   6  22
BRANCH   8  24
ATOM     24  O   UNL     1     -26.832  13.851 -30.124  1.00  0.00    -0.508 OA
ATOM     25  H   UNL     1     -27.273  13.333 -30.875  1.00  0.00     0.293 HD
ENDBRANCH   8  24
TORSDOF 5
ENDMDL
MODEL 7
REMARK VINA RESULT:    -3.507      2.037      6.790
REMARK INTER + INTRA:          -4.396
REMARK INTER:                  -4.380
REMARK INTRA:                  -0.017
REMARK UNBOUND:                -0.274
REMARK SMILES O=c1c(O)c(-c2ccc(O)cc2)oc2cc(O)cc(O)c12
REMARK SMILES IDX 5 1 3 2 2 3 1 4 21 5 19 6 18 7 16 8 15 9 14 10 13 11 6 12
REMARK SMILES IDX 7 13 8 14 9 15 12 16 11 17 10 18 4 20 20 22 17 24
REMARK H PARENT 10 19 4 21 20 23 17 25
REMARK Flexibility Score: inf
ROOT
ATOM      1  C   UNL     1     -23.062  12.116 -27.768  1.00  0.00     0.180 A 
ATOM      2  C   UNL     1     -23.720  11.670 -28.927  1.00  0.00     0.208 A 
ATOM      3  C   UNL     1     -25.072  12.002 -29.112  1.00  0.00     0.238 A 
ATOM      4  O   UNL     1     -25.671  11.553 -30.125  1.00  0.00    -0.285 OA
ATOM      5  C   UNL     1     -25.743  12.789 -28.147  1.00  0.00     0.111 A 
ATOM      6  C   UNL     1     -27.101  13.219 -28.252  1.00  0.00     0.134 A 
ATOM      7  C   UNL     1     -27.700  13.884 -27.176  1.00  0.00     0.093 A 
ATOM      8  C   UNL     1     -26.974  14.193 -26.025  1.00  0.00     0.123 A 
ATOM      9  C   UNL     1     -25.630  13.831 -25.936  1.00  0.00     0.094 A 
ATOM     10  C   UNL     1     -25.014  13.134 -26.979  1.00  0.00     0.146 A 
ATOM     11  O   UNL     1     -23.736  12.798 -26.850  1.00  0.00    -0.452 OA
ENDROOT
BRANCH   1  12
ATOM     12  C   UNL     1     -21.631  11.828 -27.514  1.00  0.00     0.021 A 
ATOM     13  C   UNL     1     -21.214  11.156 -26.350  1.00  0.00     0.016 A 
ATOM     14  C   UNL     1     -19.861  10.875 -26.144  1.00  0.00     0.047 A 
ATOM     15  C   UNL     1     -18.910  11.247 -27.099  1.00  0.00     0.115 A 
ATOM     16  C   UNL     1     -20.673  12.181 -28.480  1.00  0.00     0.016 A 
ATOM     17  C   UNL     1     -19.320  11.898 -28.269  1.00  0.00     0.047 A 
BRANCH  15  18
ATOM     18  O   UNL     1     -17.564  10.961 -26.879  1.00  0.00    -0.508 OA
ATOM     19  H   UNL     1     -16.841  11.309 -27.497  1.00  0.00     0.293 HD
ENDBRANCH  15  18
ENDBRANCH   1  12
BRANCH   2  20
ATOM     20  O   UNL     1     -23.046  10.875 -29.857  1.00  0.00    -0.502 OA
ATOM     21  H   UNL     1     -22.795   9.912 -29.669  1.00  0.00     0.293 HD
ENDBRANCH   2  20
BRANCH   6  22
ATOM     22  O   UNL     1     -27.889  13.043 -29.394  1.00  0.00    -0.507 OA
ATOM     23  H   UNL     1     -28.774  12.561 -29.411  1.00  0.00     0.293 HD
ENDBRANCH   6  22
BRANCH   8  24
ATOM     24  O   UNL     1     -27.599  14.870 -24.980  1.00  0.00    -0.508 OA
ATOM     25  H   UNL     1     -27.072  15.442 -24.330  1.00  0.00     0.293 HD
ENDBRANCH   8  24
TORSDOF 5
ENDMDL
MODEL 8
REMARK VINA RESULT:    -3.150      1.281      3.080
REMARK INTER + INTRA:          -3.977
REMARK INTER:                  -3.766
REMARK INTRA:                  -0.211
REMARK UNBOUND:                -0.274
REMARK SMILES O=c1c(O)c(-c2ccc(O)cc2)oc2cc(O)cc(O)c12
REMARK SMILES IDX 5 1 3 2 2 3 1 4 21 5 19 6 18 7 16 8 15 9 14 10 13 11 6 12
REMARK SMILES IDX 7 13 8 14 9 15 12 16 11 17 10 18 4 20 20 22 17 24
REMARK H PARENT 10 19 4 21 20 23 17 25
REMARK Flexibility Score: inf
ROOT
ATOM      1  C   UNL     1     -25.341  13.141 -27.202  1.00  0.00     0.180 A 
ATOM      2  C   UNL     1     -24.956  12.882 -25.875  1.00  0.00     0.208 A 
ATOM      3  C   UNL     1     -23.704  12.294 -25.633  1.00  0.00     0.238 A 
ATOM      4  O   UNL     1     -23.387  12.014 -24.446  1.00  0.00    -0.285 OA
ATOM      5  C   UNL     1     -22.848  11.988 -26.717  1.00  0.00     0.111 A 
ATOM      6  C   UNL     1     -21.541  11.427 -26.585  1.00  0.00     0.134 A 
ATOM      7  C   UNL     1     -20.834  11.045 -27.731  1.00  0.00     0.093 A 
ATOM      8  C   UNL     1     -21.357  11.262 -29.005  1.00  0.00     0.123 A 
ATOM      9  C   UNL     1     -22.608  11.863 -29.148  1.00  0.00     0.094 A 
ATOM     10  C   UNL     1     -23.353  12.223 -28.022  1.00  0.00     0.146 A 
ATOM     11  O   UNL     1     -24.543  12.783 -28.201  1.00  0.00    -0.452 OA
ENDROOT
BRANCH   1  12
ATOM     12  C   UNL     1     -26.634  13.782 -27.536  1.00  0.00     0.021 A 
ATOM     13  C   UNL     1     -27.705  13.039 -28.068  1.00  0.00     0.016 A 
ATOM     14  C   UNL     1     -28.923  13.662 -28.354  1.00  0.00     0.047 A 
ATOM     15  C   UNL     1     -29.094  15.027 -28.100  1.00  0.00     0.115 A 
ATOM     16  C   UNL     1     -26.819  15.148 -27.264  1.00  0.00     0.016 A 
ATOM     17  C   UNL     1     -28.040  15.768 -27.552  1.00  0.00     0.047 A 
BRANCH  15  18
ATOM     18  O   UNL     1     -30.313  15.634 -28.392  1.00  0.00    -0.508 OA
ATOM     19  H   UNL     1     -30.381  16.394 -29.057  1.00  0.00     0.293 HD
ENDBRANCH  15  18
ENDBRANCH   1  12
BRANCH   2  20
ATOM     20  O   UNL     1     -25.826  13.171 -24.821  1.00  0.00    -0.502 OA
ATOM     21  H   UNL     1     -25.625  12.911 -23.863  1.00  0.00     0.293 HD
ENDBRANCH   2  20
BRANCH   6  22
ATOM     22  O   UNL     1     -20.886  11.254 -25.361  1.00  0.00    -0.507 OA
ATOM     23  H   UNL     1     -19.935  10.935 -25.259  1.00  0.00     0.293 HD
ENDBRANCH   6  22
BRANCH   8  24
ATOM     24  O   UNL     1     -20.619  10.883 -30.125  1.00  0.00    -0.508 OA
ATOM     25  H   UNL     1     -20.084  10.022 -30.140  1.00  0.00     0.293 HD
ENDBRANCH   8  24
TORSDOF 5
ENDMDL
