MODEL 1
REMARK VINA RESULT:    -3.703      0.000      0.000
REMARK INTER + INTRA:          -6.370
REMARK INTER:                  -5.652
REMARK INTRA:                  -0.719
REMARK UNBOUND:                -0.719
REMARK SMILES CC1=CCC[C@H](C)C(=O)C[C@H](C(C)C)C(=O)C1
REMARK SMILES IDX 8 1 9 2 6 3 7 4 5 5 4 6 3 7 2 8 1 9 10 11 11 12 15 13 16 14
REMARK SMILES IDX 17 15 12 17 13 18 14 19
REMARK H PARENT
REMARK Flexibility Score: 70.00
ROOT
ATOM      1  C   UNL     1       7.116 -17.575  23.764  1.00  0.00     0.136 C 
ATOM      2  O   UNL     1       5.948 -17.256  23.925  1.00  0.00    -0.299 OA
ENDROOT
BRANCH   1   3
ATOM      3  C   UNL     1       7.607 -18.892  24.387  1.00  0.00     0.053 C 
ATOM      4  C   UNL     1       7.131 -19.015  25.836  1.00  0.00     0.016 C 
BRANCH   3   5
ATOM      5  C   UNL     1       7.066 -20.008  23.515  1.00  0.00     0.015 C 
BRANCH   5   6
ATOM      6  C   UNL     1       7.144 -20.082  22.012  1.00  0.00     0.028 C 
BRANCH   6   7
ATOM      7  C   UNL     1       8.569 -20.485  21.625  1.00  0.00    -0.028 C 
ATOM      8  C   UNL     1       9.521 -19.753  20.948  1.00  0.00    -0.070 CG0
ATOM      9  C   UNL     1      10.793 -20.484  20.588  1.00  0.00     0.039 C 
ATOM     10  G   UNL     1       9.438 -18.261  20.553  1.00  0.00     0.000 G0
ENDBRANCH   6   7
ENDBRANCH   5   6
ENDBRANCH   3   5
ENDBRANCH   1   3
BRANCH   1  11
ATOM     11  C   UNL     1       8.034 -16.637  22.958  1.00  0.00     0.087 C 
BRANCH  11  12
ATOM     12  C   UNL     1       9.566 -17.037  22.944  1.00  0.00     0.066 C 
BRANCH  12  13
ATOM     13  C   UNL     1      10.083 -17.250  21.500  1.00  0.00     0.140 C 
ATOM     14  O   UNL     1      11.071 -16.634  21.130  1.00  0.00    -0.299 OA
BRANCH  13  15
ATOM     15  C   UNL     1       9.439 -18.253  20.533  1.00  0.00     0.106 CG0
ATOM     16  G   UNL     1       9.529 -19.731  20.977  1.00  0.00     0.000 G0
ENDBRANCH  13  15
ENDBRANCH  12  13
BRANCH  12  17
ATOM     17  C   UNL     1      10.441 -15.985  23.700  1.00  0.00    -0.006 C 
ATOM     18  C   UNL     1      11.139 -16.583  24.937  1.00  0.00     0.008 C 
ATOM     19  C   UNL     1       9.597 -14.779  24.158  1.00  0.00     0.008 C 
ENDBRANCH  12  17
ENDBRANCH  11  12
ENDBRANCH   1  11
TORSDOF 1
ENDMDL
MODEL 2
REMARK VINA RESULT:    -3.535      2.997      4.980
REMARK INTER + INTRA:          -6.113
REMARK INTER:                  -5.580
REMARK INTRA:                  -0.533
REMARK UNBOUND:                -0.719
REMARK SMILES CC1=CCC[C@H](C)C(=O)C[C@H](C(C)C)C(=O)C1
REMARK SMILES IDX 8 1 9 2 6 3 7 4 5 5 4 6 3 7 2 8 1 9 10 11 11 12 15 13 16 14
REMARK SMILES IDX 17 15 12 17 13 18 14 19
REMARK H PARENT
REMARK Flexibility Score: 70.00
ROOT
ATOM      1  C   UNL     1      10.874 -16.344  20.133  1.00  0.00     0.136 C 
ATOM      2  O   UNL     1      11.755 -16.003  19.359  1.00  0.00    -0.299 OA
ENDROOT
BRANCH   1   3
ATOM      3  C   UNL     1       9.425 -16.382  19.622  1.00  0.00     0.053 C 
ATOM      4  C   UNL     1       9.279 -17.398  18.486  1.00  0.00     0.016 C 
BRANCH   3   5
ATOM      5  C   UNL     1       8.558 -16.737  20.815  1.00  0.00     0.015 C 
BRANCH   5   6
ATOM      6  C   UNL     1       7.534 -15.847  21.468  1.00  0.00     0.028 C 
BRANCH   6   7
ATOM      7  C   UNL     1       7.338 -16.318  22.911  1.00  0.00    -0.028 C 
ATOM      8  C   UNL     1       8.111 -16.051  24.021  1.00  0.00    -0.070 CG0
ATOM      9  C   UNL     1       7.737 -16.785  25.287  1.00  0.00     0.039 C 
ATOM     10  G   UNL     1       9.291 -15.058  24.113  1.00  0.00     0.000 G0
ENDBRANCH   6   7
ENDBRANCH   5   6
ENDBRANCH   3   5
ENDBRANCH   1   3
BRANCH   1  11
ATOM     11  C   UNL     1      11.262 -16.705  21.580  1.00  0.00     0.087 C 
BRANCH  11  12
ATOM     12  C   UNL     1      11.450 -15.473  22.556  1.00  0.00     0.066 C 
BRANCH  12  13
ATOM     13  C   UNL     1      10.683 -15.680  23.885  1.00  0.00     0.140 C 
ATOM     14  O   UNL     1      11.215 -16.317  24.782  1.00  0.00    -0.299 OA
BRANCH  13  15
ATOM     15  C   UNL     1       9.301 -15.064  24.144  1.00  0.00     0.106 CG0
ATOM     16  G   UNL     1       8.117 -16.048  24.009  1.00  0.00     0.000 G0
ENDBRANCH  13  15
ENDBRANCH  12  13
BRANCH  12  17
ATOM     17  C   UNL     1      12.962 -15.180  22.826  1.00  0.00    -0.006 C 
ATOM     18  C   UNL     1      13.478 -13.972  22.021  1.00  0.00     0.008 C 
ATOM     19  C   UNL     1      13.840 -16.401  22.480  1.00  0.00     0.008 C 
ENDBRANCH  12  17
ENDBRANCH  11  12
ENDBRANCH   1  11
TORSDOF 1
ENDMDL
MODEL 3
REMARK VINA RESULT:    -3.493      2.265      5.151
REMARK INTER + INTRA:          -6.049
REMARK INTER:                  -5.415
REMARK INTRA:                  -0.634
REMARK UNBOUND:                -0.719
REMARK SMILES CC1=CCC[C@H](C)C(=O)C[C@H](C(C)C)C(=O)C1
REMARK SMILES IDX 8 1 9 2 6 3 7 4 5 5 4 6 3 7 2 8 1 9 10 11 11 12 15 13 16 14
REMARK SMILES IDX 17 15 12 17 13 18 14 19
REMARK H PARENT
REMARK Flexibility Score: 70.00
ROOT
ATOM      1  C   UNL     1      10.843 -18.342  22.516  1.00  0.00     0.136 C 
ATOM      2  O   UNL     1      11.501 -17.382  22.147  1.00  0.00    -0.299 OA
ENDROOT
BRANCH   1   3
ATOM      3  C   UNL     1      11.355 -19.167  23.707  1.00  0.00     0.053 C 
ATOM      4  C   UNL     1      12.673 -19.861  23.357  1.00  0.00     0.016 C 
BRANCH   3   5
ATOM      5  C   UNL     1      11.514 -18.199  24.863  1.00  0.00     0.015 C 
BRANCH   5   6
ATOM      6  C   UNL     1      10.460 -17.843  25.879  1.00  0.00     0.028 C 
BRANCH   6   7
ATOM      7  C   UNL     1      10.025 -16.397  25.634  1.00  0.00    -0.028 C 
ATOM      8  C   UNL     1       8.906 -15.928  24.980  1.00  0.00    -0.070 CG0
ATOM      9  C   UNL     1       8.830 -14.434  24.774  1.00  0.00     0.039 C 
ATOM     10  G   UNL     1       7.710 -16.764  24.470  1.00  0.00     0.000 G0
ENDBRANCH   6   7
ENDBRANCH   5   6
ENDBRANCH   3   5
ENDBRANCH   1   3
BRANCH   1  11
ATOM     11  C   UNL     1       9.543 -18.680  21.761  1.00  0.00     0.087 C 
BRANCH  11  12
ATOM     12  C   UNL     1       8.229 -18.684  22.645  1.00  0.00     0.066 C 
BRANCH  12  13
ATOM     13  C   UNL     1       7.794 -17.247  23.021  1.00  0.00     0.140 C 
ATOM     14  O   UNL     1       7.468 -16.476  22.131  1.00  0.00    -0.299 OA
BRANCH  13  15
ATOM     15  C   UNL     1       7.697 -16.769  24.477  1.00  0.00     0.106 CG0
ATOM     16  G   UNL     1       8.894 -15.919  24.961  1.00  0.00     0.000 G0
ENDBRANCH  13  15
ENDBRANCH  12  13
BRANCH  12  17
ATOM     17  C   UNL     1       7.064 -19.452  21.938  1.00  0.00    -0.006 C 
ATOM     18  C   UNL     1       6.085 -20.086  22.945  1.00  0.00     0.008 C 
ATOM     19  C   UNL     1       7.604 -20.568  21.021  1.00  0.00     0.008 C 
ENDBRANCH  12  17
ENDBRANCH  11  12
ENDBRANCH   1  11
TORSDOF 1
ENDMDL
MODEL 4
REMARK VINA RESULT:    -3.462      2.413      3.567
REMARK INTER + INTRA:          -6.002
REMARK INTER:                  -5.665
REMARK INTRA:                  -0.338
REMARK UNBOUND:                -0.719
REMARK SMILES CC1=CCC[C@H](C)C(=O)C[C@H](C(C)C)C(=O)C1
REMARK SMILES IDX 8 1 9 2 6 3 7 4 5 5 4 6 3 7 2 8 1 9 10 11 11 12 15 13 16 14
REMARK SMILES IDX 17 15 12 17 13 18 14 19
REMARK H PARENT
REMARK Flexibility Score: 70.00
ROOT
ATOM      1  C   UNL     1       7.580 -19.120  25.064  1.00  0.00     0.136 C 
ATOM      2  O   UNL     1       6.764 -19.850  25.605  1.00  0.00    -0.299 OA
ENDROOT
BRANCH   1   3
ATOM      3  C   UNL     1       7.571 -19.021  23.530  1.00  0.00     0.053 C 
ATOM      4  C   UNL     1       7.184 -20.364  22.905  1.00  0.00     0.016 C 
BRANCH   3   5
ATOM      5  C   UNL     1       6.585 -17.925  23.176  1.00  0.00     0.015 C 
BRANCH   5   6
ATOM      6  C   UNL     1       6.923 -16.576  22.597  1.00  0.00     0.028 C 
BRANCH   6   7
ATOM      7  C   UNL     1       8.304 -16.666  21.944  1.00  0.00    -0.028 C 
ATOM      8  C   UNL     1       9.490 -16.087  22.343  1.00  0.00    -0.070 CG0
ATOM      9  C   UNL     1      10.660 -16.246  21.401  1.00  0.00     0.039 C 
ATOM     10  G   UNL     1       9.754 -15.327  23.662  1.00  0.00     0.000 G0
ENDBRANCH   6   7
ENDBRANCH   5   6
ENDBRANCH   3   5
ENDBRANCH   1   3
BRANCH   1  11
ATOM     11  C   UNL     1       8.580 -18.349  25.946  1.00  0.00     0.087 C 
BRANCH  11  12
ATOM     12  C   UNL     1       9.720 -17.579  25.162  1.00  0.00     0.066 C 
BRANCH  12  13
ATOM     13  C   UNL     1       9.357 -16.090  24.948  1.00  0.00     0.140 C 
ATOM     14  O   UNL     1       8.775 -15.490  25.839  1.00  0.00    -0.299 OA
BRANCH  13  15
ATOM     15  C   UNL     1       9.754 -15.318  23.682  1.00  0.00     0.106 CG0
ATOM     16  G   UNL     1       9.499 -16.072  22.357  1.00  0.00     0.000 G0
ENDBRANCH  13  15
ENDBRANCH  12  13
BRANCH  12  17
ATOM     17  C   UNL     1      11.104 -17.718  25.879  1.00  0.00    -0.006 C 
ATOM     18  C   UNL     1      12.277 -17.778  24.882  1.00  0.00     0.008 C 
ATOM     19  C   UNL     1      11.154 -18.983  26.760  1.00  0.00     0.008 C 
ENDBRANCH  12  17
ENDBRANCH  11  12
ENDBRANCH   1  11
TORSDOF 1
ENDMDL
MODEL 5
REMARK VINA RESULT:    -3.458      2.007      5.110
REMARK INTER + INTRA:          -5.996
REMARK INTER:                  -5.576
REMARK INTRA:                  -0.420
REMARK UNBOUND:                -0.719
REMARK SMILES CC1=CCC[C@H](C)C(=O)C[C@H](C(C)C)C(=O)C1
REMARK SMILES IDX 8 1 9 2 6 3 7 4 5 5 4 6 3 7 2 8 1 9 10 11 11 12 15 13 16 14
REMARK SMILES IDX 17 15 12 17 13 18 14 19
REMARK H PARENT
REMARK Flexibility Score: 70.00
ROOT
ATOM      1  C   UNL     1      10.328 -16.531  21.844  1.00  0.00     0.136 C 
ATOM      2  O   UNL     1      11.318 -16.657  21.139  1.00  0.00    -0.299 OA
ENDROOT
BRANCH   1   3
ATOM      3  C   UNL     1      10.521 -16.130  23.314  1.00  0.00     0.053 C 
ATOM      4  C   UNL     1      12.004 -15.909  23.624  1.00  0.00     0.016 C 
BRANCH   3   5
ATOM      5  C   UNL     1       9.703 -14.872  23.529  1.00  0.00     0.015 C 
BRANCH   5   6
ATOM      6  C   UNL     1       8.602 -14.686  24.540  1.00  0.00     0.028 C 
BRANCH   6   7
ATOM      7  C   UNL     1       8.271 -16.052  25.146  1.00  0.00    -0.028 C 
ATOM      8  C   UNL     1       7.458 -17.047  24.646  1.00  0.00    -0.070 CG0
ATOM      9  C   UNL     1       7.216 -18.229  25.553  1.00  0.00     0.039 C 
ATOM     10  G   UNL     1       6.801 -17.094  23.248  1.00  0.00     0.000 G0
ENDBRANCH   6   7
ENDBRANCH   5   6
ENDBRANCH   3   5
ENDBRANCH   1   3
BRANCH   1  11
ATOM     11  C   UNL     1       8.942 -16.791  21.222  1.00  0.00     0.087 C 
BRANCH  11  12
ATOM     12  C   UNL     1       8.385 -18.262  21.404  1.00  0.00     0.066 C 
BRANCH  12  13
ATOM     13  C   UNL     1       7.175 -18.295  22.369  1.00  0.00     0.140 C 
ATOM     14  O   UNL     1       6.536 -19.331  22.479  1.00  0.00    -0.299 OA
BRANCH  13  15
ATOM     15  C   UNL     1       6.782 -17.094  23.240  1.00  0.00     0.106 CG0
ATOM     16  G   UNL     1       7.472 -17.043  24.622  1.00  0.00     0.000 G0
ENDBRANCH  13  15
ENDBRANCH  12  13
BRANCH  12  17
ATOM     17  C   UNL     1       8.019 -18.911  20.029  1.00  0.00    -0.006 C 
ATOM     18  C   UNL     1       9.268 -19.294  19.210  1.00  0.00     0.008 C 
ATOM     19  C   UNL     1       7.155 -17.962  19.173  1.00  0.00     0.008 C 
ENDBRANCH  12  17
ENDBRANCH  11  12
ENDBRANCH   1  11
TORSDOF 1
ENDMDL
MODEL 6
REMARK VINA RESULT:    -3.326     12.115     13.962
REMARK INTER + INTRA:          -5.794
REMARK INTER:                  -5.269
REMARK INTRA:                  -0.525
REMARK UNBOUND:                -0.719
REMARK SMILES CC1=CCC[C@H](C)C(=O)C[C@H](C(C)C)C(=O)C1
REMARK SMILES IDX 8 1 9 2 6 3 7 4 5 5 4 6 3 7 2 8 1 9 10 11 11 12 15 13 16 14
REMARK SMILES IDX 17 15 12 17 13 18 14 19
REMARK H PARENT
REMARK Flexibility Score: 70.00
ROOT
ATOM      1  C   UNL     1      18.205 -26.346  24.806  1.00  0.00     0.136 C 
ATOM      2  O   UNL     1      17.094 -25.924  25.092  1.00  0.00    -0.299 OA
ENDROOT
BRANCH   1   3
ATOM      3  C   UNL     1      18.579 -27.773  25.236  1.00  0.00     0.053 C 
ATOM      4  C   UNL     1      17.845 -28.805  24.377  1.00  0.00     0.016 C 
BRANCH   3   5
ATOM      5  C   UNL     1      20.084 -27.884  25.095  1.00  0.00     0.015 C 
BRANCH   5   6
ATOM      6  C   UNL     1      21.102 -27.619  26.173  1.00  0.00     0.028 C 
BRANCH   6   7
ATOM      7  C   UNL     1      22.360 -27.047  25.515  1.00  0.00    -0.028 C 
ATOM      8  C   UNL     1      22.701 -25.729  25.298  1.00  0.00    -0.070 CG0
ATOM      9  C   UNL     1      23.953 -25.489  24.488  1.00  0.00     0.039 C 
ATOM     10  G   UNL     1      21.959 -24.480  25.823  1.00  0.00     0.000 G0
ENDBRANCH   6   7
ENDBRANCH   5   6
ENDBRANCH   3   5
ENDBRANCH   1   3
BRANCH   1  11
ATOM     11  C   UNL     1      19.171 -25.421  24.043  1.00  0.00     0.087 C 
BRANCH  11  12
ATOM     12  C   UNL     1      19.513 -24.054  24.767  1.00  0.00     0.066 C 
BRANCH  12  13
ATOM     13  C   UNL     1      21.039 -23.793  24.796  1.00  0.00     0.140 C 
ATOM     14  O   UNL     1      21.515 -22.990  24.008  1.00  0.00    -0.299 OA
BRANCH  13  15
ATOM     15  C   UNL     1      21.970 -24.460  25.818  1.00  0.00     0.106 CG0
ATOM     16  G   UNL     1      22.699 -25.722  25.304  1.00  0.00     0.000 G0
ENDBRANCH  13  15
ENDBRANCH  12  13
BRANCH  12  17
ATOM     17  C   UNL     1      18.755 -22.853  24.114  1.00  0.00    -0.006 C 
ATOM     18  C   UNL     1      17.773 -22.178  25.091  1.00  0.00     0.008 C 
ATOM     19  C   UNL     1      17.963 -23.301  22.868  1.00  0.00     0.008 C 
ENDBRANCH  12  17
ENDBRANCH  11  12
ENDBRANCH   1  11
TORSDOF 1
ENDMDL
MODEL 7
REMARK VINA RESULT:    -3.316      2.533      4.235
REMARK INTER + INTRA:          -5.779
REMARK INTER:                  -5.422
REMARK INTRA:                  -0.357
REMARK UNBOUND:                -0.719
REMARK SMILES CC1=CCC[C@H](C)C(=O)C[C@H](C(C)C)C(=O)C1
REMARK SMILES IDX 8 1 9 2 6 3 7 4 5 5 4 6 3 7 2 8 1 9 10 11 11 12 15 13 16 14
REMARK SMILES IDX 17 15 12 17 13 18 14 19
REMARK H PARENT
REMARK Flexibility Score: 70.00
ROOT
ATOM      1  C   UNL     1       8.086 -18.604  22.499  1.00  0.00     0.136 C 
ATOM      2  O   UNL     1       7.992 -18.072  21.403  1.00  0.00    -0.299 OA
ENDROOT
BRANCH   1   3
ATOM      3  C   UNL     1       6.796 -18.960  23.254  1.00  0.00     0.053 C 
ATOM      4  C   UNL     1       5.999 -20.022  22.492  1.00  0.00     0.016 C 
BRANCH   3   5
ATOM      5  C   UNL     1       7.220 -19.445  24.626  1.00  0.00     0.015 C 
BRANCH   5   6
ATOM      6  C   UNL     1       7.053 -18.701  25.925  1.00  0.00     0.028 C 
BRANCH   6   7
ATOM      7  C   UNL     1       7.393 -17.229  25.682  1.00  0.00    -0.028 C 
ATOM      8  C   UNL     1       8.631 -16.629  25.594  1.00  0.00    -0.070 CG0
ATOM      9  C   UNL     1       8.637 -15.123  25.492  1.00  0.00     0.039 C 
ATOM     10  G   UNL     1      10.005 -17.337  25.554  1.00  0.00     0.000 G0
ENDBRANCH   6   7
ENDBRANCH   5   6
ENDBRANCH   3   5
ENDBRANCH   1   3
BRANCH   1  11
ATOM     11  C   UNL     1       9.491 -18.878  23.067  1.00  0.00     0.087 C 
BRANCH  11  12
ATOM     12  C   UNL     1      10.521 -17.683  22.931  1.00  0.00     0.066 C 
BRANCH  12  13
ATOM     13  C   UNL     1      10.853 -17.060  24.309  1.00  0.00     0.140 C 
ATOM     14  O   UNL     1      11.791 -16.282  24.394  1.00  0.00    -0.299 OA
BRANCH  13  15
ATOM     15  C   UNL     1      10.011 -17.335  25.563  1.00  0.00     0.106 CG0
ATOM     16  G   UNL     1       8.630 -16.640  25.581  1.00  0.00     0.000 G0
ENDBRANCH  13  15
ENDBRANCH  12  13
BRANCH  12  17
ATOM     17  C   UNL     1      11.825 -18.129  22.193  1.00  0.00    -0.006 C 
ATOM     18  C   UNL     1      11.575 -18.455  20.707  1.00  0.00     0.008 C 
ATOM     19  C   UNL     1      12.450 -19.372  22.861  1.00  0.00     0.008 C 
ENDBRANCH  12  17
ENDBRANCH  11  12
ENDBRANCH   1  11
TORSDOF 1
ENDMDL
MODEL 8
REMARK VINA RESULT:    -3.274      2.089      3.265
REMARK INTER + INTRA:          -5.715
REMARK INTER:                  -5.283
REMARK INTRA:                  -0.432
REMARK UNBOUND:                -0.719
REMARK SMILES CC1=CCC[C@H](C)C(=O)C[C@H](C(C)C)C(=O)C1
REMARK SMILES IDX 8 1 9 2 6 3 7 4 5 5 4 6 3 7 2 8 1 9 10 11 11 12 15 13 16 14
REMARK SMILES IDX 17 15 12 17 13 18 14 19
REMARK H PARENT
REMARK Flexibility Score: 70.00
ROOT
ATOM      1  C   UNL     1      10.240 -16.443  25.402  1.00  0.00     0.136 C 
ATOM      2  O   UNL     1      10.814 -17.174  26.196  1.00  0.00    -0.299 OA
ENDROOT
BRANCH   1   3
ATOM      3  C   UNL     1       8.817 -15.971  25.738  1.00  0.00     0.053 C 
ATOM      4  C   UNL     1       8.453 -14.728  24.922  1.00  0.00     0.016 C 
BRANCH   3   5
ATOM      5  C   UNL     1       7.895 -17.136  25.437  1.00  0.00     0.015 C 
BRANCH   5   6
ATOM      6  C   UNL     1       8.109 -18.192  24.383  1.00  0.00     0.028 C 
BRANCH   6   7
ATOM      7  C   UNL     1       7.457 -17.712  23.084  1.00  0.00    -0.028 C 
ATOM      8  C   UNL     1       8.016 -17.585  21.831  1.00  0.00    -0.070 CG0
ATOM      9  C   UNL     1       7.148 -16.942  20.775  1.00  0.00     0.039 C 
ATOM     10  G   UNL     1       9.419 -18.059  21.387  1.00  0.00     0.000 G0
ENDBRANCH   6   7
ENDBRANCH   5   6
ENDBRANCH   3   5
ENDBRANCH   1   3
BRANCH   1  11
ATOM     11  C   UNL     1      10.971 -16.044  24.106  1.00  0.00     0.087 C 
BRANCH  11  12
ATOM     12  C   UNL     1      11.314 -17.242  23.128  1.00  0.00     0.066 C 
BRANCH  12  13
ATOM     13  C   UNL     1      10.563 -17.107  21.781  1.00  0.00     0.140 C 
ATOM     14  O   UNL     1      10.925 -16.252  20.986  1.00  0.00    -0.299 OA
BRANCH  13  15
ATOM     15  C   UNL     1       9.419 -18.048  21.377  1.00  0.00     0.106 CG0
ATOM     16  G   UNL     1       8.013 -17.588  21.824  1.00  0.00     0.000 G0
ENDBRANCH  13  15
ENDBRANCH  12  13
BRANCH  12  17
ATOM     17  C   UNL     1      12.855 -17.370  22.896  1.00  0.00    -0.006 C 
ATOM     18  C   UNL     1      13.516 -18.354  23.881  1.00  0.00     0.008 C 
ATOM     19  C   UNL     1      13.558 -16.004  23.035  1.00  0.00     0.008 C 
ENDBRANCH  12  17
ENDBRANCH  11  12
ENDBRANCH   1  11
TORSDOF 1
ENDMDL
MODEL 9
REMARK VINA RESULT:    -3.233      2.693      4.487
REMARK INTER + INTRA:          -5.653
REMARK INTER:                  -5.015
REMARK INTRA:                  -0.639
REMARK UNBOUND:                -0.719
REMARK SMILES CC1=CCC[C@H](C)C(=O)C[C@H](C(C)C)C(=O)C1
REMARK SMILES IDX 8 1 9 2 6 3 7 4 5 5 4 6 3 7 2 8 1 9 10 11 11 12 15 13 16 14
REMARK SMILES IDX 17 15 12 17 13 18 14 19
REMARK H PARENT
REMARK Flexibility Score: 70.00
ROOT
ATOM      1  C   UNL     1       9.685 -19.087  22.471  1.00  0.00     0.136 C 
ATOM      2  O   UNL     1       9.086 -19.464  23.467  1.00  0.00    -0.299 OA
ENDROOT
BRANCH   1   3
ATOM      3  C   UNL     1       8.876 -18.782  21.201  1.00  0.00     0.053 C 
ATOM      4  C   UNL     1       8.177 -20.044  20.690  1.00  0.00     0.016 C 
BRANCH   3   5
ATOM      5  C   UNL     1       7.885 -17.697  21.573  1.00  0.00     0.015 C 
BRANCH   5   6
ATOM      6  C   UNL     1       8.198 -16.238  21.784  1.00  0.00     0.028 C 
BRANCH   6   7
ATOM      7  C   UNL     1       8.052 -15.926  23.275  1.00  0.00    -0.028 C 
ATOM      8  C   UNL     1       9.034 -15.662  24.205  1.00  0.00    -0.070 CG0
ATOM      9  C   UNL     1       8.578 -15.534  25.639  1.00  0.00     0.039 C 
ATOM     10  G   UNL     1      10.540 -15.451  23.930  1.00  0.00     0.000 G0
ENDBRANCH   6   7
ENDBRANCH   5   6
ENDBRANCH   3   5
ENDBRANCH   1   3
BRANCH   1  11
ATOM     11  C   UNL     1      11.218 -18.950  22.540  1.00  0.00     0.087 C 
BRANCH  11  12
ATOM     12  C   UNL     1      11.762 -17.463  22.578  1.00  0.00     0.066 C 
BRANCH  12  13
ATOM     13  C   UNL     1      11.382 -16.752  23.900  1.00  0.00     0.140 C 
ATOM     14  O   UNL     1      11.795 -17.208  24.955  1.00  0.00    -0.299 OA
BRANCH  13  15
ATOM     15  C   UNL     1      10.553 -15.460  23.932  1.00  0.00     0.106 CG0
ATOM     16  G   UNL     1       9.046 -15.663  24.209  1.00  0.00     0.000 G0
ENDBRANCH  13  15
ENDBRANCH  12  13
BRANCH  12  17
ATOM     17  C   UNL     1      13.308 -17.412  22.343  1.00  0.00    -0.006 C 
ATOM     18  C   UNL     1      13.673 -16.814  20.970  1.00  0.00     0.008 C 
ATOM     19  C   UNL     1      13.936 -18.817  22.440  1.00  0.00     0.008 C 
ENDBRANCH  12  17
ENDBRANCH  11  12
ENDBRANCH   1  11
TORSDOF 1
ENDMDL
