MODEL 1
REMARK VINA RESULT:    -5.858      0.000      0.000
REMARK INTER + INTRA:          -7.147
REMARK INTER:                  -6.886
REMARK INTRA:                  -0.261
REMARK UNBOUND:                -0.261
REMARK SMILES O=c1c(O)c(-c2ccc(O)cc2)oc2cc(O)cc(O)c12
REMARK SMILES IDX 5 1 3 2 2 3 1 4 21 5 19 6 18 7 16 8 15 9 14 10 13 11 6 12
REMARK SMILES IDX 7 13 8 14 9 15 12 16 11 17 10 18 4 20 20 22 17 24
REMARK H PARENT 10 19 4 21 20 23 17 25
REMARK Flexibility Score: inf
ROOT
ATOM      1  C   UNL     1      27.410  -3.593  35.418  1.00  0.00     0.180 A 
ATOM      2  C   UNL     1      26.595  -2.866  36.303  1.00  0.00     0.208 A 
ATOM      3  C   UNL     1      25.227  -3.172  36.375  1.00  0.00     0.238 A 
ATOM      4  O   UNL     1      24.492  -2.481  37.129  1.00  0.00    -0.285 OA
ATOM      5  C   UNL     1      24.693  -4.210  35.574  1.00  0.00     0.111 A 
ATOM      6  C   UNL     1      23.330  -4.631  35.595  1.00  0.00     0.134 A 
ATOM      7  C   UNL     1      22.886  -5.580  34.666  1.00  0.00     0.093 A 
ATOM      8  C   UNL     1      23.770  -6.170  33.761  1.00  0.00     0.123 A 
ATOM      9  C   UNL     1      25.115  -5.809  33.772  1.00  0.00     0.094 A 
ATOM     10  C   UNL     1      25.581  -4.839  34.663  1.00  0.00     0.146 A 
ATOM     11  O   UNL     1      26.868  -4.516  34.632  1.00  0.00    -0.452 OA
ENDROOT
BRANCH   1  12
ATOM     12  C   UNL     1      28.866  -3.346  35.304  1.00  0.00     0.021 A 
ATOM     13  C   UNL     1      29.770  -3.831  36.267  1.00  0.00     0.016 A 
ATOM     14  C   UNL     1      31.143  -3.606  36.125  1.00  0.00     0.047 A 
ATOM     15  C   UNL     1      31.631  -2.906  35.014  1.00  0.00     0.115 A 
ATOM     16  C   UNL     1      29.366  -2.664  34.183  1.00  0.00     0.016 A 
ATOM     17  C   UNL     1      30.739  -2.439  34.044  1.00  0.00     0.047 A 
BRANCH  15  18
ATOM     18  O   UNL     1      32.996  -2.675  34.864  1.00  0.00    -0.508 OA
ATOM     19  H   UNL     1      33.512  -2.105  35.522  1.00  0.00     0.293 HD
ENDBRANCH  15  18
ENDBRANCH   1  12
BRANCH   2  20
ATOM     20  O   UNL     1      27.138  -1.830  37.068  1.00  0.00    -0.502 OA
ATOM     21  H   UNL     1      26.724  -1.524  37.940  1.00  0.00     0.293 HD
ENDBRANCH   2  20
BRANCH   6  22
ATOM     22  O   UNL     1      22.386  -4.173  36.519  1.00  0.00    -0.507 OA
ATOM     23  H   UNL     1      21.393  -4.340  36.457  1.00  0.00     0.293 HD
ENDBRANCH   6  22
BRANCH   8  24
ATOM     24  O   UNL     1      23.323  -7.125  32.849  1.00  0.00    -0.508 OA
ATOM     25  H   UNL     1      23.299  -6.937  31.854  1.00  0.00     0.293 HD
ENDBRANCH   8  24
TORSDOF 5
ENDMDL
MODEL 2
REMARK VINA RESULT:    -5.785      7.294      9.341
REMARK INTER + INTRA:          -7.061
REMARK INTER:                  -6.835
REMARK INTRA:                  -0.226
REMARK UNBOUND:                -0.261
REMARK SMILES O=c1c(O)c(-c2ccc(O)cc2)oc2cc(O)cc(O)c12
REMARK SMILES IDX 5 1 3 2 2 3 1 4 21 5 19 6 18 7 16 8 15 9 14 10 13 11 6 12
REMARK SMILES IDX 7 13 8 14 9 15 12 16 11 17 10 18 4 20 20 22 17 24
REMARK H PARENT 10 19 4 21 20 23 17 25
REMARK Flexibility Score: inf
ROOT
ATOM      1  C   UNL     1      26.721  -0.506  42.924  1.00  0.00     0.180 A 
ATOM      2  C   UNL     1      26.040   0.536  43.577  1.00  0.00     0.208 A 
ATOM      3  C   UNL     1      25.671   1.674  42.841  1.00  0.00     0.238 A 
ATOM      4  O   UNL     1      25.110   2.626  43.443  1.00  0.00    -0.285 OA
ATOM      5  C   UNL     1      25.971   1.748  41.460  1.00  0.00     0.111 A 
ATOM      6  C   UNL     1      25.608   2.835  40.609  1.00  0.00     0.134 A 
ATOM      7  C   UNL     1      26.072   2.862  39.288  1.00  0.00     0.093 A 
ATOM      8  C   UNL     1      26.829   1.810  38.769  1.00  0.00     0.123 A 
ATOM      9  C   UNL     1      27.138   0.717  39.574  1.00  0.00     0.094 A 
ATOM     10  C   UNL     1      26.721   0.678  40.907  1.00  0.00     0.146 A 
ATOM     11  O   UNL     1      27.046  -0.378  41.643  1.00  0.00    -0.452 OA
ENDROOT
BRANCH   1  12
ATOM     12  C   UNL     1      27.121  -1.747  43.626  1.00  0.00     0.021 A 
ATOM     13  C   UNL     1      28.205  -1.765  44.523  1.00  0.00     0.016 A 
ATOM     14  C   UNL     1      28.548  -2.943  45.194  1.00  0.00     0.047 A 
ATOM     15  C   UNL     1      27.807  -4.114  44.986  1.00  0.00     0.115 A 
ATOM     16  C   UNL     1      26.371  -2.920  43.440  1.00  0.00     0.016 A 
ATOM     17  C   UNL     1      26.717  -4.097  44.110  1.00  0.00     0.047 A 
BRANCH  15  18
ATOM     18  O   UNL     1      28.141  -5.293  45.646  1.00  0.00    -0.508 OA
ATOM     19  H   UNL     1      28.709  -6.006  45.204  1.00  0.00     0.293 HD
ENDBRANCH  15  18
ENDBRANCH   1  12
BRANCH   2  20
ATOM     20  O   UNL     1      25.773   0.452  44.946  1.00  0.00    -0.502 OA
ATOM     21  H   UNL     1      25.576  -0.427  45.408  1.00  0.00     0.293 HD
ENDBRANCH   2  20
BRANCH   6  22
ATOM     22  O   UNL     1      24.779   3.890  41.001  1.00  0.00    -0.507 OA
ATOM     23  H   UNL     1      24.005   4.245  40.459  1.00  0.00     0.293 HD
ENDBRANCH   6  22
BRANCH   8  24
ATOM     24  O   UNL     1      27.274   1.837  37.448  1.00  0.00    -0.508 OA
ATOM     25  H   UNL     1      27.310   0.996  36.884  1.00  0.00     0.293 HD
ENDBRANCH   8  24
TORSDOF 5
ENDMDL
MODEL 3
REMARK VINA RESULT:    -5.458      1.217      2.903
REMARK INTER + INTRA:          -6.676
REMARK INTER:                  -6.394
REMARK INTRA:                  -0.282
REMARK UNBOUND:                -0.261
REMARK SMILES O=c1c(O)c(-c2ccc(O)cc2)oc2cc(O)cc(O)c12
REMARK SMILES IDX 5 1 3 2 2 3 1 4 21 5 19 6 18 7 16 8 15 9 14 10 13 11 6 12
REMARK SMILES IDX 7 13 8 14 9 15 12 16 11 17 10 18 4 20 20 22 17 24
REMARK H PARENT 10 19 4 21 20 23 17 25
REMARK Flexibility Score: inf
ROOT
ATOM      1  C   UNL     1      27.670  -4.205  34.743  1.00  0.00     0.180 A 
ATOM      2  C   UNL     1      27.382  -5.453  34.165  1.00  0.00     0.208 A 
ATOM      3  C   UNL     1      26.057  -5.918  34.176  1.00  0.00     0.238 A 
ATOM      4  O   UNL     1      25.813  -7.060  33.705  1.00  0.00    -0.285 OA
ATOM      5  C   UNL     1      25.035  -5.123  34.749  1.00  0.00     0.111 A 
ATOM      6  C   UNL     1      23.653  -5.477  34.779  1.00  0.00     0.134 A 
ATOM      7  C   UNL     1      22.750  -4.675  35.489  1.00  0.00     0.093 A 
ATOM      8  C   UNL     1      23.168  -3.499  36.113  1.00  0.00     0.123 A 
ATOM      9  C   UNL     1      24.505  -3.114  36.038  1.00  0.00     0.094 A 
ATOM     10  C   UNL     1      25.436  -3.911  35.369  1.00  0.00     0.146 A 
ATOM     11  O   UNL     1      26.702  -3.513  35.332  1.00  0.00    -0.452 OA
ENDROOT
BRANCH   1  12
ATOM     12  C   UNL     1      29.038  -3.636  34.748  1.00  0.00     0.021 A 
ATOM     13  C   UNL     1      29.967  -3.971  35.750  1.00  0.00     0.016 A 
ATOM     14  C   UNL     1      31.262  -3.441  35.720  1.00  0.00     0.047 A 
ATOM     15  C   UNL     1      31.646  -2.581  34.683  1.00  0.00     0.115 A 
ATOM     16  C   UNL     1      29.439  -2.791  33.701  1.00  0.00     0.016 A 
ATOM     17  C   UNL     1      30.732  -2.261  33.674  1.00  0.00     0.047 A 
BRANCH  15  18
ATOM     18  O   UNL     1      32.931  -2.046  34.644  1.00  0.00    -0.508 OA
ATOM     19  H   UNL     1      33.702  -2.550  34.223  1.00  0.00     0.293 HD
ENDBRANCH  15  18
ENDBRANCH   1  12
BRANCH   2  20
ATOM     20  O   UNL     1      28.408  -6.231  33.624  1.00  0.00    -0.502 OA
ATOM     21  H   UNL     1      28.689  -7.117  34.026  1.00  0.00     0.293 HD
ENDBRANCH   2  20
BRANCH   6  22
ATOM     22  O   UNL     1      23.116  -6.581  34.112  1.00  0.00    -0.507 OA
ATOM     23  H   UNL     1      22.297  -6.555  33.522  1.00  0.00     0.293 HD
ENDBRANCH   6  22
BRANCH   8  24
ATOM     24  O   UNL     1      22.260  -2.698  36.804  1.00  0.00    -0.508 OA
ATOM     25  H   UNL     1      21.944  -2.939  37.735  1.00  0.00     0.293 HD
ENDBRANCH   8  24
TORSDOF 5
ENDMDL
MODEL 4
REMARK VINA RESULT:    -5.394      8.463      9.923
REMARK INTER + INTRA:          -6.600
REMARK INTER:                  -6.401
REMARK INTRA:                  -0.199
REMARK UNBOUND:                -0.261
REMARK SMILES O=c1c(O)c(-c2ccc(O)cc2)oc2cc(O)cc(O)c12
REMARK SMILES IDX 5 1 3 2 2 3 1 4 21 5 19 6 18 7 16 8 15 9 14 10 13 11 6 12
REMARK SMILES IDX 7 13 8 14 9 15 12 16 11 17 10 18 4 20 20 22 17 24
REMARK H PARENT 10 19 4 21 20 23 17 25
REMARK Flexibility Score: inf
ROOT
ATOM      1  C   UNL     1      26.951  -1.595  43.766  1.00  0.00     0.180 A 
ATOM      2  C   UNL     1      28.058  -1.749  44.618  1.00  0.00     0.208 A 
ATOM      3  C   UNL     1      28.285  -2.998  45.220  1.00  0.00     0.238 A 
ATOM      4  O   UNL     1      29.247  -3.115  46.024  1.00  0.00    -0.285 OA
ATOM      5  C   UNL     1      27.412  -4.080  44.950  1.00  0.00     0.111 A 
ATOM      6  C   UNL     1      27.570  -5.398  45.473  1.00  0.00     0.134 A 
ATOM      7  C   UNL     1      26.573  -6.355  45.244  1.00  0.00     0.093 A 
ATOM      8  C   UNL     1      25.458  -6.060  44.457  1.00  0.00     0.123 A 
ATOM      9  C   UNL     1      25.326  -4.793  43.893  1.00  0.00     0.094 A 
ATOM     10  C   UNL     1      26.285  -3.806  44.133  1.00  0.00     0.146 A 
ATOM     11  O   UNL     1      26.114  -2.610  43.585  1.00  0.00    -0.452 OA
ENDROOT
BRANCH   1  12
ATOM     12  C   UNL     1      26.661  -0.317  43.075  1.00  0.00     0.021 A 
ATOM     13  C   UNL     1      26.832  -0.180  41.685  1.00  0.00     0.016 A 
ATOM     14  C   UNL     1      26.527   1.029  41.052  1.00  0.00     0.047 A 
ATOM     15  C   UNL     1      26.036   2.110  41.796  1.00  0.00     0.115 A 
ATOM     16  C   UNL     1      26.148   0.765  43.809  1.00  0.00     0.016 A 
ATOM     17  C   UNL     1      25.845   1.972  43.174  1.00  0.00     0.047 A 
BRANCH  15  18
ATOM     18  O   UNL     1      25.731   3.319  41.175  1.00  0.00    -0.508 OA
ATOM     19  H   UNL     1      26.400   4.079  41.138  1.00  0.00     0.293 HD
ENDBRANCH  15  18
ENDBRANCH   1  12
BRANCH   2  20
ATOM     20  O   UNL     1      28.895  -0.663  44.888  1.00  0.00    -0.502 OA
ATOM     21  H   UNL     1      29.033   0.093  44.229  1.00  0.00     0.293 HD
ENDBRANCH   2  20
BRANCH   6  22
ATOM     22  O   UNL     1      28.689  -5.823  46.194  1.00  0.00    -0.507 OA
ATOM     23  H   UNL     1      28.745  -6.686  46.714  1.00  0.00     0.293 HD
ENDBRANCH   6  22
BRANCH   8  24
ATOM     24  O   UNL     1      24.479  -7.023  44.222  1.00  0.00    -0.508 OA
ATOM     25  H   UNL     1      23.766  -7.232  44.910  1.00  0.00     0.293 HD
ENDBRANCH   8  24
TORSDOF 5
ENDMDL
MODEL 5
REMARK VINA RESULT:    -5.308      1.714      6.842
REMARK INTER + INTRA:          -6.500
REMARK INTER:                  -6.224
REMARK INTRA:                  -0.276
REMARK UNBOUND:                -0.261
REMARK SMILES O=c1c(O)c(-c2ccc(O)cc2)oc2cc(O)cc(O)c12
REMARK SMILES IDX 5 1 3 2 2 3 1 4 21 5 19 6 18 7 16 8 15 9 14 10 13 11 6 12
REMARK SMILES IDX 7 13 8 14 9 15 12 16 11 17 10 18 4 20 20 22 17 24
REMARK H PARENT 10 19 4 21 20 23 17 25
REMARK Flexibility Score: inf
ROOT
ATOM      1  C   UNL     1      27.289  -4.062  35.595  1.00  0.00     0.180 A 
ATOM      2  C   UNL     1      28.041  -4.856  36.479  1.00  0.00     0.208 A 
ATOM      3  C   UNL     1      29.440  -4.733  36.481  1.00  0.00     0.238 A 
ATOM      4  O   UNL     1      30.111  -5.485  37.236  1.00  0.00    -0.285 OA
ATOM      5  C   UNL     1      30.069  -3.808  35.613  1.00  0.00     0.111 A 
ATOM      6  C   UNL     1      31.475  -3.572  35.560  1.00  0.00     0.134 A 
ATOM      7  C   UNL     1      31.997  -2.729  34.571  1.00  0.00     0.093 A 
ATOM      8  C   UNL     1      31.158  -2.063  33.676  1.00  0.00     0.123 A 
ATOM      9  C   UNL     1      29.779  -2.240  33.759  1.00  0.00     0.094 A 
ATOM     10  C   UNL     1      29.230  -3.103  34.711  1.00  0.00     0.146 A 
ATOM     11  O   UNL     1      27.912  -3.251  34.747  1.00  0.00    -0.452 OA
ENDROOT
BRANCH   1  12
ATOM     12  C   UNL     1      25.810  -4.116  35.552  1.00  0.00     0.021 A 
ATOM     13  C   UNL     1      25.134  -5.099  34.806  1.00  0.00     0.016 A 
ATOM     14  C   UNL     1      23.736  -5.146  34.801  1.00  0.00     0.047 A 
ATOM     15  C   UNL     1      22.998  -4.220  35.550  1.00  0.00     0.115 A 
ATOM     16  C   UNL     1      25.062  -3.206  36.317  1.00  0.00     0.016 A 
ATOM     17  C   UNL     1      23.665  -3.254  36.308  1.00  0.00     0.047 A 
BRANCH  15  18
ATOM     18  O   UNL     1      21.606  -4.256  35.550  1.00  0.00    -0.508 OA
ATOM     19  H   UNL     1      21.070  -4.043  36.383  1.00  0.00     0.293 HD
ENDBRANCH  15  18
ENDBRANCH   1  12
BRANCH   2  20
ATOM     20  O   UNL     1      27.403  -5.778  37.312  1.00  0.00    -0.502 OA
ATOM     21  H   UNL     1      27.008  -5.519  38.208  1.00  0.00     0.293 HD
ENDBRANCH   2  20
BRANCH   6  22
ATOM     22  O   UNL     1      32.392  -4.116  36.464  1.00  0.00    -0.507 OA
ATOM     23  H   UNL     1      32.252  -4.972  36.980  1.00  0.00     0.293 HD
ENDBRANCH   6  22
BRANCH   8  24
ATOM     24  O   UNL     1      31.684  -1.213  32.705  1.00  0.00    -0.508 OA
ATOM     25  H   UNL     1      32.077  -1.574  31.843  1.00  0.00     0.293 HD
ENDBRANCH   8  24
TORSDOF 5
ENDMDL
MODEL 6
REMARK VINA RESULT:    -5.107      1.809      2.043
REMARK INTER + INTRA:          -6.264
REMARK INTER:                  -5.974
REMARK INTRA:                  -0.290
REMARK UNBOUND:                -0.261
REMARK SMILES O=c1c(O)c(-c2ccc(O)cc2)oc2cc(O)cc(O)c12
REMARK SMILES IDX 5 1 3 2 2 3 1 4 21 5 19 6 18 7 16 8 15 9 14 10 13 11 6 12
REMARK SMILES IDX 7 13 8 14 9 15 12 16 11 17 10 18 4 20 20 22 17 24
REMARK H PARENT 10 19 4 21 20 23 17 25
REMARK Flexibility Score: inf
ROOT
ATOM      1  C   UNL     1      28.403  -4.805  35.720  1.00  0.00     0.180 A 
ATOM      2  C   UNL     1      28.004  -3.561  36.241  1.00  0.00     0.208 A 
ATOM      3  C   UNL     1      26.633  -3.267  36.325  1.00  0.00     0.238 A 
ATOM      4  O   UNL     1      26.283  -2.132  36.743  1.00  0.00    -0.285 OA
ATOM      5  C   UNL     1      25.679  -4.224  35.903  1.00  0.00     0.111 A 
ATOM      6  C   UNL     1      24.265  -4.048  35.980  1.00  0.00     0.134 A 
ATOM      7  C   UNL     1      23.418  -5.007  35.412  1.00  0.00     0.093 A 
ATOM      8  C   UNL     1      23.932  -6.167  34.828  1.00  0.00     0.123 A 
ATOM      9  C   UNL     1      25.309  -6.376  34.801  1.00  0.00     0.094 A 
ATOM     10  C   UNL     1      26.181  -5.420  35.327  1.00  0.00     0.146 A 
ATOM     11  O   UNL     1      27.486  -5.654  35.271  1.00  0.00    -0.452 OA
ENDROOT
BRANCH   1  12
ATOM     12  C   UNL     1      29.827  -5.197  35.623  1.00  0.00     0.021 A 
ATOM     13  C   UNL     1      30.513  -5.747  36.722  1.00  0.00     0.016 A 
ATOM     14  C   UNL     1      31.851  -6.134  36.600  1.00  0.00     0.047 A 
ATOM     15  C   UNL     1      32.517  -5.988  35.375  1.00  0.00     0.115 A 
ATOM     16  C   UNL     1      30.497  -5.075  34.394  1.00  0.00     0.016 A 
ATOM     17  C   UNL     1      31.835  -5.461  34.275  1.00  0.00     0.047 A 
BRANCH  15  18
ATOM     18  O   UNL     1      33.850  -6.368  35.242  1.00  0.00    -0.508 OA
ATOM     19  H   UNL     1      34.488  -6.348  36.030  1.00  0.00     0.293 HD
ENDBRANCH  15  18
ENDBRANCH   1  12
BRANCH   2  20
ATOM     20  O   UNL     1      28.962  -2.623  36.633  1.00  0.00    -0.502 OA
ATOM     21  H   UNL     1      28.975  -2.213  37.558  1.00  0.00     0.293 HD
ENDBRANCH   2  20
BRANCH   6  22
ATOM     22  O   UNL     1      23.647  -2.972  36.623  1.00  0.00    -0.507 OA
ATOM     23  H   UNL     1      22.665  -2.925  36.851  1.00  0.00     0.293 HD
ENDBRANCH   6  22
BRANCH   8  24
ATOM     24  O   UNL     1      23.081  -7.124  34.279  1.00  0.00    -0.508 OA
ATOM     25  H   UNL     1      22.738  -7.045  33.329  1.00  0.00     0.293 HD
ENDBRANCH   8  24
TORSDOF 5
ENDMDL
MODEL 7
REMARK VINA RESULT:    -5.080      2.043      7.127
REMARK INTER + INTRA:          -6.232
REMARK INTER:                  -5.987
REMARK INTRA:                  -0.245
REMARK UNBOUND:                -0.261
REMARK SMILES O=c1c(O)c(-c2ccc(O)cc2)oc2cc(O)cc(O)c12
REMARK SMILES IDX 5 1 3 2 2 3 1 4 21 5 19 6 18 7 16 8 15 9 14 10 13 11 6 12
REMARK SMILES IDX 7 13 8 14 9 15 12 16 11 17 10 18 4 20 20 22 17 24
REMARK H PARENT 10 19 4 21 20 23 17 25
REMARK Flexibility Score: inf
ROOT
ATOM      1  C   UNL     1      26.690  -5.061  34.762  1.00  0.00     0.180 A 
ATOM      2  C   UNL     1      27.037  -5.429  33.450  1.00  0.00     0.208 A 
ATOM      3  C   UNL     1      28.389  -5.404  33.072  1.00  0.00     0.238 A 
ATOM      4  O   UNL     1      28.688  -5.683  31.881  1.00  0.00    -0.285 OA
ATOM      5  C   UNL     1      29.378  -5.028  34.012  1.00  0.00     0.111 A 
ATOM      6  C   UNL     1      30.781  -5.007  33.748  1.00  0.00     0.134 A 
ATOM      7  C   UNL     1      31.657  -4.492  34.712  1.00  0.00     0.093 A 
ATOM      8  C   UNL     1      31.187  -4.060  35.954  1.00  0.00     0.123 A 
ATOM      9  C   UNL     1      29.826  -4.133  36.243  1.00  0.00     0.094 A 
ATOM     10  C   UNL     1      28.923  -4.607  35.289  1.00  0.00     0.146 A 
ATOM     11  O   UNL     1      27.634  -4.649  35.601  1.00  0.00    -0.452 OA
ENDROOT
BRANCH   1  12
ATOM     12  C   UNL     1      25.290  -5.085  35.243  1.00  0.00     0.021 A 
ATOM     13  C   UNL     1      24.378  -4.072  34.896  1.00  0.00     0.016 A 
ATOM     14  C   UNL     1      23.053  -4.130  35.342  1.00  0.00     0.047 A 
ATOM     15  C   UNL     1      22.621  -5.206  36.128  1.00  0.00     0.115 A 
ATOM     16  C   UNL     1      24.842  -6.171  36.014  1.00  0.00     0.016 A 
ATOM     17  C   UNL     1      23.519  -6.226  36.459  1.00  0.00     0.047 A 
BRANCH  15  18
ATOM     18  O   UNL     1      21.305  -5.273  36.579  1.00  0.00    -0.508 OA
ATOM     19  H   UNL     1      21.077  -5.638  37.496  1.00  0.00     0.293 HD
ENDBRANCH  15  18
ENDBRANCH   1  12
BRANCH   2  20
ATOM     20  O   UNL     1      26.043  -5.776  32.532  1.00  0.00    -0.502 OA
ATOM     21  H   UNL     1      25.208  -5.220  32.398  1.00  0.00     0.293 HD
ENDBRANCH   2  20
BRANCH   6  22
ATOM     22  O   UNL     1      31.362  -5.500  32.577  1.00  0.00    -0.507 OA
ATOM     23  H   UNL     1      30.847  -5.831  31.774  1.00  0.00     0.293 HD
ENDBRANCH   6  22
BRANCH   8  24
ATOM     24  O   UNL     1      32.067  -3.564  36.914  1.00  0.00    -0.508 OA
ATOM     25  H   UNL     1      31.736  -3.035  37.713  1.00  0.00     0.293 HD
ENDBRANCH   8  24
TORSDOF 5
ENDMDL
MODEL 8
REMARK VINA RESULT:    -5.058      2.720      3.385
REMARK INTER + INTRA:          -6.206
REMARK INTER:                  -6.173
REMARK INTRA:                  -0.033
REMARK UNBOUND:                -0.261
REMARK SMILES O=c1c(O)c(-c2ccc(O)cc2)oc2cc(O)cc(O)c12
REMARK SMILES IDX 5 1 3 2 2 3 1 4 21 5 19 6 18 7 16 8 15 9 14 10 13 11 6 12
REMARK SMILES IDX 7 13 8 14 9 15 12 16 11 17 10 18 4 20 20 22 17 24
REMARK H PARENT 10 19 4 21 20 23 17 25
REMARK Flexibility Score: inf
ROOT
ATOM      1  C   UNL     1      29.828  -3.235  34.392  1.00  0.00     0.180 A 
ATOM      2  C   UNL     1      29.691  -3.369  35.784  1.00  0.00     0.208 A 
ATOM      3  C   UNL     1      28.773  -4.303  36.291  1.00  0.00     0.238 A 
ATOM      4  O   UNL     1      28.616  -4.380  37.538  1.00  0.00    -0.285 OA
ATOM      5  C   UNL     1      28.015  -5.102  35.401  1.00  0.00     0.111 A 
ATOM      6  C   UNL     1      27.086  -6.107  35.805  1.00  0.00     0.134 A 
ATOM      7  C   UNL     1      26.296  -6.744  34.840  1.00  0.00     0.093 A 
ATOM      8  C   UNL     1      26.449  -6.460  33.482  1.00  0.00     0.123 A 
ATOM      9  C   UNL     1      27.396  -5.524  33.074  1.00  0.00     0.094 A 
ATOM     10  C   UNL     1      28.174  -4.844  34.015  1.00  0.00     0.146 A 
ATOM     11  O   UNL     1      29.056  -3.952  33.583  1.00  0.00    -0.452 OA
ENDROOT
BRANCH   1  12
ATOM     12  C   UNL     1      30.792  -2.291  33.782  1.00  0.00     0.021 A 
ATOM     13  C   UNL     1      32.155  -2.307  34.133  1.00  0.00     0.016 A 
ATOM     14  C   UNL     1      33.052  -1.422  33.525  1.00  0.00     0.047 A 
ATOM     15  C   UNL     1      32.601  -0.521  32.551  1.00  0.00     0.115 A 
ATOM     16  C   UNL     1      30.354  -1.399  32.790  1.00  0.00     0.016 A 
ATOM     17  C   UNL     1      31.252  -0.515  32.185  1.00  0.00     0.047 A 
BRANCH  15  18
ATOM     18  O   UNL     1      33.485   0.366  31.941  1.00  0.00    -0.508 OA
ATOM     19  H   UNL     1      33.158   1.098  31.323  1.00  0.00     0.293 HD
ENDBRANCH  15  18
ENDBRANCH   1  12
BRANCH   2  20
ATOM     20  O   UNL     1      30.433  -2.556  36.645  1.00  0.00    -0.502 OA
ATOM     21  H   UNL     1      30.859  -1.689  36.341  1.00  0.00     0.293 HD
ENDBRANCH   2  20
BRANCH   6  22
ATOM     22  O   UNL     1      26.921  -6.531  37.126  1.00  0.00    -0.507 OA
ATOM     23  H   UNL     1      26.532  -7.422  37.400  1.00  0.00     0.293 HD
ENDBRANCH   6  22
BRANCH   8  24
ATOM     24  O   UNL     1      25.670  -7.111  32.527  1.00  0.00    -0.508 OA
ATOM     25  H   UNL     1      25.023  -6.602  31.936  1.00  0.00     0.293 HD
ENDBRANCH   8  24
TORSDOF 5
ENDMDL
MODEL 9
REMARK VINA RESULT:    -4.956      2.005      3.200
REMARK INTER + INTRA:          -6.086
REMARK INTER:                  -5.799
REMARK INTRA:                  -0.287
REMARK UNBOUND:                -0.261
REMARK SMILES O=c1c(O)c(-c2ccc(O)cc2)oc2cc(O)cc(O)c12
REMARK SMILES IDX 5 1 3 2 2 3 1 4 21 5 19 6 18 7 16 8 15 9 14 10 13 11 6 12
REMARK SMILES IDX 7 13 8 14 9 15 12 16 11 17 10 18 4 20 20 22 17 24
REMARK H PARENT 10 19 4 21 20 23 17 25
REMARK Flexibility Score: inf
ROOT
ATOM      1  C   UNL     1      27.758  -4.709  35.793  1.00  0.00     0.180 A 
ATOM      2  C   UNL     1      26.986  -5.865  36.003  1.00  0.00     0.208 A 
ATOM      3  C   UNL     1      25.604  -5.732  36.212  1.00  0.00     0.238 A 
ATOM      4  O   UNL     1      24.927  -6.766  36.453  1.00  0.00    -0.285 OA
ATOM      5  C   UNL     1      25.009  -4.447  36.194  1.00  0.00     0.111 A 
ATOM      6  C   UNL     1      23.613  -4.198  36.355  1.00  0.00     0.134 A 
ATOM      7  C   UNL     1      23.153  -2.879  36.450  1.00  0.00     0.093 A 
ATOM      8  C   UNL     1      24.030  -1.800  36.325  1.00  0.00     0.123 A 
ATOM      9  C   UNL     1      25.386  -2.033  36.107  1.00  0.00     0.094 A 
ATOM     10  C   UNL     1      25.881  -3.338  36.044  1.00  0.00     0.146 A 
ATOM     11  O   UNL     1      27.181  -3.515  35.848  1.00  0.00    -0.452 OA
ENDROOT
BRANCH   1  12
ATOM     12  C   UNL     1      29.216  -4.771  35.541  1.00  0.00     0.021 A 
ATOM     13  C   UNL     1      30.146  -4.692  36.593  1.00  0.00     0.016 A 
ATOM     14  C   UNL     1      31.518  -4.778  36.333  1.00  0.00     0.047 A 
ATOM     15  C   UNL     1      31.976  -4.956  35.020  1.00  0.00     0.115 A 
ATOM     16  C   UNL     1      29.683  -4.971  34.231  1.00  0.00     0.016 A 
ATOM     17  C   UNL     1      31.054  -5.055  33.973  1.00  0.00     0.047 A 
BRANCH  15  18
ATOM     18  O   UNL     1      33.339  -5.041  34.749  1.00  0.00    -0.508 OA
ATOM     19  H   UNL     1      33.808  -4.353  34.173  1.00  0.00     0.293 HD
ENDBRANCH  15  18
ENDBRANCH   1  12
BRANCH   2  20
ATOM     20  O   UNL     1      27.597  -7.122  36.038  1.00  0.00    -0.502 OA
ATOM     21  H   UNL     1      28.567  -7.261  35.787  1.00  0.00     0.293 HD
ENDBRANCH   2  20
BRANCH   6  22
ATOM     22  O   UNL     1      22.641  -5.202  36.398  1.00  0.00    -0.507 OA
ATOM     23  H   UNL     1      22.770  -6.109  36.822  1.00  0.00     0.293 HD
ENDBRANCH   6  22
BRANCH   8  24
ATOM     24  O   UNL     1      23.563  -0.490  36.405  1.00  0.00    -0.508 OA
ATOM     25  H   UNL     1      23.756   0.093  37.211  1.00  0.00     0.293 HD
ENDBRANCH   8  24
TORSDOF 5
ENDMDL
