MODEL 1
REMARK VINA RESULT:    -3.458      0.000      0.000
REMARK INTER + INTRA:          -4.745
REMARK INTER:                  -4.469
REMARK INTRA:                  -0.276
REMARK UNBOUND:                -0.276
REMARK SMILES CCCCCCC(=O)[O-]
REMARK SMILES IDX 5 1 6 2 7 3 8 4 9 5 4 6 3 7 2 8 1 9
REMARK H PARENT
REMARK Flexibility Score: inf
ROOT
ATOM      1  C   UNL     1      98.503   4.148 -29.527  1.00  0.00     0.006 C 
ENDROOT
BRANCH   1   2
ATOM      2  C   UNL     1      99.866   3.496 -29.799  1.00  0.00     0.053 C 
BRANCH   2   3
ATOM      3  C   UNL     1      99.778   2.000 -29.789  1.00  0.00     0.041 C 
ATOM      4  O   UNL     1      99.542   1.388 -28.715  1.00  0.00    -0.550 OA
ATOM      5  O   UNL     1      99.920   1.286 -30.972  1.00  0.00    -0.550 OA
ENDBRANCH   2   3
ENDBRANCH   1   2
BRANCH   1   6
ATOM      6  C   UNL     1      98.596   5.271 -28.481  1.00  0.00     0.000 C 
BRANCH   6   7
ATOM      7  C   UNL     1      99.031   4.764 -27.095  1.00  0.00    -0.000 C 
BRANCH   7   8
ATOM      8  C   UNL     1      98.041   3.794 -26.424  1.00  0.00    -0.003 C 
ATOM      9  C   UNL     1      98.437   3.429 -24.993  1.00  0.00     0.004 C 
ENDBRANCH   7   8
ENDBRANCH   6   7
ENDBRANCH   1   6
TORSDOF 5
ENDMDL
MODEL 2
REMARK VINA RESULT:    -3.372      1.865      2.673
REMARK INTER + INTRA:          -4.634
REMARK INTER:                  -4.226
REMARK INTRA:                  -0.408
REMARK UNBOUND:                -0.276
REMARK SMILES CCCCCCC(=O)[O-]
REMARK SMILES IDX 5 1 6 2 7 3 8 4 9 5 4 6 3 7 2 8 1 9
REMARK H PARENT
REMARK Flexibility Score: inf
ROOT
ATOM      1  C   UNL     1      99.128   4.875 -27.253  1.00  0.00     0.006 C 
ENDROOT
BRANCH   1   2
ATOM      2  C   UNL     1      98.640   5.243 -28.661  1.00  0.00     0.053 C 
BRANCH   2   3
ATOM      3  C   UNL     1      98.472   4.029 -29.525  1.00  0.00     0.041 C 
ATOM      4  O   UNL     1      97.323   3.666 -29.889  1.00  0.00    -0.550 OA
ATOM      5  O   UNL     1      99.587   3.323 -29.956  1.00  0.00    -0.550 OA
ENDBRANCH   2   3
ENDBRANCH   1   2
BRANCH   1   6
ATOM      6  C   UNL     1      98.086   4.057 -26.473  1.00  0.00     0.000 C 
BRANCH   6   7
ATOM      7  C   UNL     1      98.681   2.793 -25.825  1.00  0.00    -0.000 C 
BRANCH   7   8
ATOM      8  C   UNL     1      98.683   1.546 -26.728  1.00  0.00    -0.003 C 
ATOM      9  C   UNL     1     100.085   1.137 -27.179  1.00  0.00     0.004 C 
ENDBRANCH   7   8
ENDBRANCH   6   7
ENDBRANCH   1   6
TORSDOF 5
ENDMDL
MODEL 3
REMARK VINA RESULT:    -3.350      1.725      3.149
REMARK INTER + INTRA:          -4.606
REMARK INTER:                  -4.298
REMARK INTRA:                  -0.308
REMARK UNBOUND:                -0.276
REMARK SMILES CCCCCCC(=O)[O-]
REMARK SMILES IDX 5 1 6 2 7 3 8 4 9 5 4 6 3 7 2 8 1 9
REMARK H PARENT
REMARK Flexibility Score: inf
ROOT
ATOM      1  C   UNL     1      98.350   2.481 -25.798  1.00  0.00     0.006 C 
ENDROOT
BRANCH   1   2
ATOM      2  C   UNL     1      99.488   1.860 -26.621  1.00  0.00     0.053 C 
BRANCH   2   3
ATOM      3  C   UNL     1      99.078   0.556 -27.237  1.00  0.00     0.041 C 
ATOM      4  O   UNL     1      98.985  -0.478 -26.527  1.00  0.00    -0.550 OA
ATOM      5  O   UNL     1      98.766   0.494 -28.589  1.00  0.00    -0.550 OA
ENDBRANCH   2   3
ENDBRANCH   1   2
BRANCH   1   6
ATOM      6  C   UNL     1      98.022   3.913 -26.251  1.00  0.00     0.000 C 
BRANCH   6   7
ATOM      7  C   UNL     1      99.114   4.523 -27.148  1.00  0.00    -0.000 C 
BRANCH   7   8
ATOM      8  C   UNL     1      98.594   5.194 -28.432  1.00  0.00    -0.003 C 
ATOM      9  C   UNL     1      98.104   4.190 -29.476  1.00  0.00     0.004 C 
ENDBRANCH   7   8
ENDBRANCH   6   7
ENDBRANCH   1   6
TORSDOF 5
ENDMDL
MODEL 4
REMARK VINA RESULT:    -3.331      1.476      2.678
REMARK INTER + INTRA:          -4.582
REMARK INTER:                  -4.218
REMARK INTRA:                  -0.364
REMARK UNBOUND:                -0.276
REMARK SMILES CCCCCCC(=O)[O-]
REMARK SMILES IDX 5 1 6 2 7 3 8 4 9 5 4 6 3 7 2 8 1 9
REMARK H PARENT
REMARK Flexibility Score: inf
ROOT
ATOM      1  C   UNL     1      99.541   1.794 -27.243  1.00  0.00     0.006 C 
ENDROOT
BRANCH   1   2
ATOM      2  C   UNL     1      99.032   0.793 -28.290  1.00  0.00     0.053 C 
BRANCH   2   3
ATOM      3  C   UNL     1      99.105   1.357 -29.677  1.00  0.00     0.041 C 
ATOM      4  O   UNL     1     100.125   1.161 -30.387  1.00  0.00    -0.550 OA
ATOM      5  O   UNL     1      98.030   2.066 -30.197  1.00  0.00    -0.550 OA
ENDBRANCH   2   3
ENDBRANCH   1   2
BRANCH   1   6
ATOM      6  C   UNL     1      98.394   2.573 -26.579  1.00  0.00     0.000 C 
BRANCH   6   7
ATOM      7  C   UNL     1      98.686   4.080 -26.457  1.00  0.00    -0.000 C 
BRANCH   7   8
ATOM      8  C   UNL     1      99.489   4.678 -27.627  1.00  0.00    -0.003 C 
ATOM      9  C   UNL     1      98.600   5.262 -28.726  1.00  0.00     0.004 C 
ENDBRANCH   7   8
ENDBRANCH   6   7
ENDBRANCH   1   6
TORSDOF 5
ENDMDL
MODEL 5
REMARK VINA RESULT:    -3.248      2.594      4.420
REMARK INTER + INTRA:          -4.474
REMARK INTER:                  -4.264
REMARK INTRA:                  -0.210
REMARK UNBOUND:                -0.276
REMARK SMILES CCCCCCC(=O)[O-]
REMARK SMILES IDX 5 1 6 2 7 3 8 4 9 5 4 6 3 7 2 8 1 9
REMARK H PARENT
REMARK Flexibility Score: inf
ROOT
ATOM      1  C   UNL     1      98.883   3.927 -26.417  1.00  0.00     0.006 C 
ENDROOT
BRANCH   1   2
ATOM      2  C   UNL     1      98.269   3.742 -25.023  1.00  0.00     0.053 C 
BRANCH   2   3
ATOM      3  C   UNL     1      97.202   2.690 -25.021  1.00  0.00     0.041 C 
ATOM      4  O   UNL     1      96.006   3.002 -24.784  1.00  0.00    -0.550 OA
ATOM      5  O   UNL     1      97.524   1.372 -25.317  1.00  0.00    -0.550 OA
ENDBRANCH   2   3
ENDBRANCH   1   2
BRANCH   1   6
ATOM      6  C   UNL     1      97.898   4.578 -27.403  1.00  0.00     0.000 C 
BRANCH   6   7
ATOM      7  C   UNL     1      98.603   5.271 -28.583  1.00  0.00    -0.000 C 
BRANCH   7   8
ATOM      8  C   UNL     1     100.043   4.794 -28.845  1.00  0.00    -0.003 C 
ATOM      9  C   UNL     1     100.123   3.671 -29.879  1.00  0.00     0.004 C 
ENDBRANCH   7   8
ENDBRANCH   6   7
ENDBRANCH   1   6
TORSDOF 5
ENDMDL
MODEL 6
REMARK VINA RESULT:    -3.210      2.386      3.645
REMARK INTER + INTRA:          -4.424
REMARK INTER:                  -4.178
REMARK INTRA:                  -0.246
REMARK UNBOUND:                -0.276
REMARK SMILES CCCCCCC(=O)[O-]
REMARK SMILES IDX 5 1 6 2 7 3 8 4 9 5 4 6 3 7 2 8 1 9
REMARK H PARENT
REMARK Flexibility Score: inf
ROOT
ATOM      1  C   UNL     1      98.681   4.094 -26.192  1.00  0.00     0.006 C 
ENDROOT
BRANCH   1   2
ATOM      2  C   UNL     1      97.676   4.490 -27.282  1.00  0.00     0.053 C 
BRANCH   2   3
ATOM      3  C   UNL     1      98.363   4.875 -28.557  1.00  0.00     0.041 C 
ATOM      4  O   UNL     1      99.286   5.731 -28.545  1.00  0.00    -0.550 OA
ATOM      5  O   UNL     1      98.008   4.262 -29.752  1.00  0.00    -0.550 OA
ENDBRANCH   2   3
ENDBRANCH   1   2
BRANCH   1   6
ATOM      6  C   UNL     1      98.086   3.088 -25.192  1.00  0.00     0.000 C 
BRANCH   6   7
ATOM      7  C   UNL     1      98.764   1.708 -25.256  1.00  0.00    -0.000 C 
BRANCH   7   8
ATOM      8  C   UNL     1      99.678   1.495 -26.477  1.00  0.00    -0.003 C 
ATOM      9  C   UNL     1      99.057   0.587 -27.538  1.00  0.00     0.004 C 
ENDBRANCH   7   8
ENDBRANCH   6   7
ENDBRANCH   1   6
TORSDOF 5
ENDMDL
MODEL 7
REMARK VINA RESULT:    -3.139      3.765      5.042
REMARK INTER + INTRA:          -4.333
REMARK INTER:                  -4.094
REMARK INTRA:                  -0.240
REMARK UNBOUND:                -0.276
REMARK SMILES CCCCCCC(=O)[O-]
REMARK SMILES IDX 5 1 6 2 7 3 8 4 9 5 4 6 3 7 2 8 1 9
REMARK H PARENT
REMARK Flexibility Score: inf
ROOT
ATOM      1  C   UNL     1      96.937   2.888 -25.909  1.00  0.00     0.006 C 
ENDROOT
BRANCH   1   2
ATOM      2  C   UNL     1      95.936   3.483 -26.909  1.00  0.00     0.053 C 
BRANCH   2   3
ATOM      3  C   UNL     1      94.582   3.669 -26.294  1.00  0.00     0.041 C 
ATOM      4  O   UNL     1      94.138   4.827 -26.079  1.00  0.00    -0.550 OA
ATOM      5  O   UNL     1      93.796   2.563 -25.994  1.00  0.00    -0.550 OA
ENDBRANCH   2   3
ENDBRANCH   1   2
BRANCH   1   6
ATOM      6  C   UNL     1      98.220   3.728 -25.802  1.00  0.00     0.000 C 
BRANCH   6   7
ATOM      7  C   UNL     1      99.132   3.586 -27.035  1.00  0.00    -0.000 C 
BRANCH   7   8
ATOM      8  C   UNL     1      99.605   4.918 -27.643  1.00  0.00    -0.003 C 
ATOM      9  C   UNL     1      98.609   5.507 -28.642  1.00  0.00     0.004 C 
ENDBRANCH   7   8
ENDBRANCH   6   7
ENDBRANCH   1   6
TORSDOF 5
ENDMDL
MODEL 8
REMARK VINA RESULT:    -1.335      2.398      3.282
REMARK INTER + INTRA:          -2.002
REMARK INTER:                  -1.616
REMARK INTRA:                  -0.386
REMARK UNBOUND:                -0.276
REMARK SMILES CCCCCCC(=O)[O-]
REMARK SMILES IDX 5 1 6 2 7 3 8 4 9 5 4 6 3 7 2 8 1 9
REMARK H PARENT
REMARK Flexibility Score: inf
ROOT
ATOM      1  C   UNL     1      98.921   1.512 -29.135  1.00  0.00     0.006 C 
ENDROOT
BRANCH   1   2
ATOM      2  C   UNL     1      99.903   1.224 -27.991  1.00  0.00     0.053 C 
BRANCH   2   3
ATOM      3  C   UNL     1      99.208   1.173 -26.664  1.00  0.00     0.041 C 
ATOM      4  O   UNL     1      99.625   0.402 -25.761  1.00  0.00    -0.550 OA
ATOM      5  O   UNL     1      98.124   2.004 -26.414  1.00  0.00    -0.550 OA
ENDBRANCH   2   3
ENDBRANCH   1   2
BRANCH   1   6
ATOM      6  C   UNL     1      99.192   2.869 -29.805  1.00  0.00     0.000 C 
BRANCH   6   7
ATOM      7  C   UNL     1      98.146   3.937 -29.439  1.00  0.00    -0.000 C 
BRANCH   7   8
ATOM      8  C   UNL     1      98.675   5.085 -28.560  1.00  0.00    -0.003 C 
ATOM      9  C   UNL     1     100.125   4.882 -28.120  1.00  0.00     0.004 C 
ENDBRANCH   7   8
ENDBRANCH   6   7
ENDBRANCH   1   6
TORSDOF 5
ENDMDL
