MODEL 1
REMARK VINA RESULT:    -3.790      0.000      0.000
REMARK INTER + INTRA:          -4.011
REMARK INTER:                  -4.011
REMARK INTRA:                   0.000
REMARK UNBOUND:                 0.000
REMARK SMILES Cc1cc(O)c(C)c(C)c1O
REMARK SMILES IDX 1 1 2 2 3 3 4 4 6 5 8 6 10 7 9 8 7 9 11 10 5 12
REMARK H PARENT 11 11 5 13
REMARK Flexibility Score: inf
ROOT
ATOM      1  C   UNL     1      -9.550   5.422  -4.964  1.00  0.00     0.048 C 
ATOM      2  C   UNL     1      -8.262   5.982  -4.427  1.00  0.00    -0.005 A 
ATOM      3  C   UNL     1      -7.079   5.247  -4.544  1.00  0.00     0.053 A 
ATOM      4  C   UNL     1      -5.866   5.763  -4.081  1.00  0.00     0.119 A 
ATOM      5  C   UNL     1      -5.819   7.038  -3.480  1.00  0.00    -0.003 A 
ATOM      6  C   UNL     1      -7.024   7.778  -3.314  1.00  0.00    -0.002 A 
ATOM      7  C   UNL     1      -8.238   7.254  -3.829  1.00  0.00     0.121 A 
ATOM      8  C   UNL     1      -7.037   9.125  -2.625  1.00  0.00     0.049 C 
ATOM      9  C   UNL     1      -4.494   7.587  -3.004  1.00  0.00     0.049 C 
ENDROOT
BRANCH   7  10
ATOM     10  O   UNL     1      -9.435   7.977  -3.766  1.00  0.00    -0.507 OA
ATOM     11  H   UNL     1     -10.143   7.832  -3.058  1.00  0.00     0.293 HD
ENDBRANCH   7  10
BRANCH   4  12
ATOM     12  O   UNL     1      -4.704   5.003  -4.219  1.00  0.00    -0.508 OA
ATOM     13  H   UNL     1      -4.697   4.002  -4.059  1.00  0.00     0.293 HD
ENDBRANCH   4  12
TORSDOF 2
ENDMDL
MODEL 2
REMARK VINA RESULT:    -3.718      1.400      3.369
REMARK INTER + INTRA:          -3.936
REMARK INTER:                  -3.936
REMARK INTRA:                   0.000
REMARK UNBOUND:                 0.000
REMARK SMILES Cc1cc(O)c(C)c(C)c1O
REMARK SMILES IDX 1 1 2 2 3 3 4 4 6 5 8 6 10 7 9 8 7 9 11 10 5 12
REMARK H PARENT 11 11 5 13
REMARK Flexibility Score: inf
ROOT
ATOM      1  C   UNL     1      -5.220   4.846  -4.125  1.00  0.00     0.048 C 
ATOM      2  C   UNL     1      -6.412   5.757  -4.022  1.00  0.00    -0.005 A 
ATOM      3  C   UNL     1      -7.616   5.401  -4.637  1.00  0.00     0.053 A 
ATOM      4  C   UNL     1      -8.745   6.217  -4.527  1.00  0.00     0.119 A 
ATOM      5  C   UNL     1      -8.683   7.420  -3.794  1.00  0.00    -0.003 A 
ATOM      6  C   UNL     1      -7.451   7.816  -3.201  1.00  0.00    -0.002 A 
ATOM      7  C   UNL     1      -6.329   6.953  -3.290  1.00  0.00     0.121 A 
ATOM      8  C   UNL     1      -7.317   9.125  -2.453  1.00  0.00     0.049 C 
ATOM      9  C   UNL     1      -9.921   8.278  -3.669  1.00  0.00     0.049 C 
ENDROOT
BRANCH   7  10
ATOM     10  O   UNL     1      -5.118   7.255  -2.655  1.00  0.00    -0.507 OA
ATOM     11  H   UNL     1      -4.907   7.005  -1.698  1.00  0.00     0.293 HD
ENDBRANCH   7  10
BRANCH   4  12
ATOM     12  O   UNL     1      -9.932   5.828  -5.149  1.00  0.00    -0.508 OA
ATOM     13  H   UNL     1     -10.813   5.797  -4.649  1.00  0.00     0.293 HD
ENDBRANCH   4  12
TORSDOF 2
ENDMDL
MODEL 3
REMARK VINA RESULT:    -3.709      1.535      3.752
REMARK INTER + INTRA:          -3.926
REMARK INTER:                  -3.926
REMARK INTRA:                   0.000
REMARK UNBOUND:                 0.000
REMARK SMILES Cc1cc(O)c(C)c(C)c1O
REMARK SMILES IDX 1 1 2 2 3 3 4 4 6 5 8 6 10 7 9 8 7 9 11 10 5 12
REMARK H PARENT 11 11 5 13
REMARK Flexibility Score: inf
ROOT
ATOM      1  C   UNL     1      -4.736   3.056  -4.574  1.00  0.00     0.048 C 
ATOM      2  C   UNL     1      -5.173   4.443  -4.191  1.00  0.00    -0.005 A 
ATOM      3  C   UNL     1      -6.532   4.770  -4.194  1.00  0.00     0.053 A 
ATOM      4  C   UNL     1      -6.962   6.043  -3.811  1.00  0.00     0.119 A 
ATOM      5  C   UNL     1      -6.025   7.022  -3.419  1.00  0.00    -0.003 A 
ATOM      6  C   UNL     1      -4.636   6.715  -3.455  1.00  0.00    -0.002 A 
ATOM      7  C   UNL     1      -4.223   5.404  -3.806  1.00  0.00     0.121 A 
ATOM      8  C   UNL     1      -3.587   7.747  -3.099  1.00  0.00     0.049 C 
ATOM      9  C   UNL     1      -6.512   8.386  -2.988  1.00  0.00     0.049 C 
ENDROOT
BRANCH   7  10
ATOM     10  O   UNL     1      -2.875   5.025  -3.778  1.00  0.00    -0.507 OA
ATOM     11  H   UNL     1      -2.474   4.430  -3.066  1.00  0.00     0.293 HD
ENDBRANCH   7  10
BRANCH   4  12
ATOM     12  O   UNL     1      -8.327   6.334  -3.820  1.00  0.00    -0.508 OA
ATOM     13  H   UNL     1      -9.018   5.645  -4.094  1.00  0.00     0.293 HD
ENDBRANCH   4  12
TORSDOF 2
ENDMDL
MODEL 4
REMARK VINA RESULT:    -3.536      1.116      2.884
REMARK INTER + INTRA:          -3.743
REMARK INTER:                  -3.743
REMARK INTRA:                   0.000
REMARK UNBOUND:                 0.000
REMARK SMILES Cc1cc(O)c(C)c(C)c1O
REMARK SMILES IDX 1 1 2 2 3 3 4 4 6 5 8 6 10 7 9 8 7 9 11 10 5 12
REMARK H PARENT 11 11 5 13
REMARK Flexibility Score: inf
ROOT
ATOM      1  C   UNL     1      -8.021   9.125  -1.907  1.00  0.00     0.048 C 
ATOM      2  C   UNL     1      -7.397   7.968  -2.636  1.00  0.00    -0.005 A 
ATOM      3  C   UNL     1      -6.132   7.508  -2.260  1.00  0.00     0.053 A 
ATOM      4  C   UNL     1      -5.547   6.414  -2.904  1.00  0.00     0.119 A 
ATOM      5  C   UNL     1      -6.227   5.759  -3.951  1.00  0.00    -0.003 A 
ATOM      6  C   UNL     1      -7.496   6.246  -4.374  1.00  0.00    -0.002 A 
ATOM      7  C   UNL     1      -8.090   7.331  -3.679  1.00  0.00     0.121 A 
ATOM      8  C   UNL     1      -8.241   5.615  -5.530  1.00  0.00     0.049 C 
ATOM      9  C   UNL     1      -5.587   4.565  -4.621  1.00  0.00     0.049 C 
ENDROOT
BRANCH   7  10
ATOM     10  O   UNL     1      -9.372   7.796  -4.001  1.00  0.00    -0.507 OA
ATOM     11  H   UNL     1      -9.659   8.760  -3.909  1.00  0.00     0.293 HD
ENDBRANCH   7  10
BRANCH   4  12
ATOM     12  O   UNL     1      -4.285   5.978  -2.498  1.00  0.00    -0.508 OA
ATOM     13  H   UNL     1      -3.966   6.081  -1.542  1.00  0.00     0.293 HD
ENDBRANCH   4  12
TORSDOF 2
ENDMDL
MODEL 5
REMARK VINA RESULT:    -3.481      1.991      3.303
REMARK INTER + INTRA:          -3.685
REMARK INTER:                  -3.685
REMARK INTRA:                   0.000
REMARK UNBOUND:                 0.000
REMARK SMILES Cc1cc(O)c(C)c(C)c1O
REMARK SMILES IDX 1 1 2 2 3 3 4 4 6 5 8 6 10 7 9 8 7 9 11 10 5 12
REMARK H PARENT 11 11 5 13
REMARK Flexibility Score: inf
ROOT
ATOM      1  C   UNL     1      -7.803   8.013  -4.075  1.00  0.00     0.048 C 
ATOM      2  C   UNL     1      -6.536   7.220  -3.910  1.00  0.00    -0.005 A 
ATOM      3  C   UNL     1      -5.351   7.867  -3.551  1.00  0.00     0.053 A 
ATOM      4  C   UNL     1      -4.170   7.144  -3.361  1.00  0.00     0.119 A 
ATOM      5  C   UNL     1      -4.157   5.745  -3.535  1.00  0.00    -0.003 A 
ATOM      6  C   UNL     1      -5.348   5.080  -3.944  1.00  0.00    -0.002 A 
ATOM      7  C   UNL     1      -6.545   5.827  -4.091  1.00  0.00     0.121 A 
ATOM      8  C   UNL     1      -5.373   3.588  -4.200  1.00  0.00     0.049 C 
ATOM      9  C   UNL     1      -2.875   4.978  -3.304  1.00  0.00     0.049 C 
ENDROOT
BRANCH   7  10
ATOM     10  O   UNL     1      -7.761   5.210  -4.411  1.00  0.00    -0.507 OA
ATOM     11  H   UNL     1      -7.905   4.647  -5.238  1.00  0.00     0.293 HD
ENDBRANCH   7  10
BRANCH   4  12
ATOM     12  O   UNL     1      -3.005   7.822  -2.997  1.00  0.00    -0.508 OA
ATOM     13  H   UNL     1      -2.643   8.594  -3.546  1.00  0.00     0.293 HD
ENDBRANCH   4  12
TORSDOF 2
ENDMDL
MODEL 6
REMARK VINA RESULT:    -3.422      1.671      2.324
REMARK INTER + INTRA:          -3.622
REMARK INTER:                  -3.622
REMARK INTRA:                   0.000
REMARK UNBOUND:                 0.000
REMARK SMILES Cc1cc(O)c(C)c(C)c1O
REMARK SMILES IDX 1 1 2 2 3 3 4 4 6 5 8 6 10 7 9 8 7 9 11 10 5 12
REMARK H PARENT 11 11 5 13
REMARK Flexibility Score: inf
ROOT
ATOM      1  C   UNL     1      -8.523   6.332  -4.182  1.00  0.00     0.048 C 
ATOM      2  C   UNL     1      -7.068   5.973  -4.053  1.00  0.00    -0.005 A 
ATOM      3  C   UNL     1      -6.643   4.674  -4.344  1.00  0.00     0.053 A 
ATOM      4  C   UNL     1      -5.292   4.327  -4.261  1.00  0.00     0.119 A 
ATOM      5  C   UNL     1      -4.334   5.288  -3.876  1.00  0.00    -0.003 A 
ATOM      6  C   UNL     1      -4.761   6.603  -3.534  1.00  0.00    -0.002 A 
ATOM      7  C   UNL     1      -6.131   6.945  -3.665  1.00  0.00     0.121 A 
ATOM      8  C   UNL     1      -3.781   7.654  -3.060  1.00  0.00     0.049 C 
ATOM      9  C   UNL     1      -2.875   4.900  -3.814  1.00  0.00     0.049 C 
ENDROOT
BRANCH   7  10
ATOM     10  O   UNL     1      -6.591   8.245  -3.421  1.00  0.00    -0.507 OA
ATOM     11  H   UNL     1      -6.670   8.649  -2.498  1.00  0.00     0.293 HD
ENDBRANCH   7  10
BRANCH   4  12
ATOM     12  O   UNL     1      -4.902   3.022  -4.564  1.00  0.00    -0.508 OA
ATOM     13  H   UNL     1      -3.989   2.664  -4.307  1.00  0.00     0.293 HD
ENDBRANCH   4  12
TORSDOF 2
ENDMDL
MODEL 7
REMARK VINA RESULT:    -3.364      2.357      3.720
REMARK INTER + INTRA:          -3.561
REMARK INTER:                  -3.561
REMARK INTRA:                   0.000
REMARK UNBOUND:                 0.000
REMARK SMILES Cc1cc(O)c(C)c(C)c1O
REMARK SMILES IDX 1 1 2 2 3 3 4 4 6 5 8 6 10 7 9 8 7 9 11 10 5 12
REMARK H PARENT 11 11 5 13
REMARK Flexibility Score: inf
ROOT
ATOM      1  C   UNL     1      -5.028   6.459  -3.748  1.00  0.00     0.048 C 
ATOM      2  C   UNL     1      -6.177   7.065  -2.989  1.00  0.00    -0.005 A 
ATOM      3  C   UNL     1      -6.257   6.906  -1.603  1.00  0.00     0.053 A 
ATOM      4  C   UNL     1      -7.298   7.488  -0.874  1.00  0.00     0.119 A 
ATOM      5  C   UNL     1      -8.291   8.243  -1.533  1.00  0.00    -0.003 A 
ATOM      6  C   UNL     1      -8.245   8.374  -2.950  1.00  0.00    -0.002 A 
ATOM      7  C   UNL     1      -7.157   7.811  -3.665  1.00  0.00     0.121 A 
ATOM      8  C   UNL     1      -9.317   9.125  -3.710  1.00  0.00     0.049 C 
ATOM      9  C   UNL     1      -9.397   8.881  -0.725  1.00  0.00     0.049 C 
ENDROOT
BRANCH   7  10
ATOM     10  O   UNL     1      -7.020   7.981  -5.048  1.00  0.00    -0.507 OA
ATOM     11  H   UNL     1      -7.723   7.706  -5.720  1.00  0.00     0.293 HD
ENDBRANCH   7  10
BRANCH   4  12
ATOM     12  O   UNL     1      -7.344   7.313   0.509  1.00  0.00    -0.508 OA
ATOM     13  H   UNL     1      -8.053   6.741   0.953  1.00  0.00     0.293 HD
ENDBRANCH   4  12
TORSDOF 2
ENDMDL
MODEL 8
REMARK VINA RESULT:    -3.338      1.420      4.016
REMARK INTER + INTRA:          -3.533
REMARK INTER:                  -3.533
REMARK INTRA:                   0.000
REMARK UNBOUND:                 0.000
REMARK SMILES Cc1cc(O)c(C)c(C)c1O
REMARK SMILES IDX 1 1 2 2 3 3 4 4 6 5 8 6 10 7 9 8 7 9 11 10 5 12
REMARK H PARENT 11 11 5 13
REMARK Flexibility Score: inf
ROOT
ATOM      1  C   UNL     1      -4.104   5.467  -2.717  1.00  0.00     0.048 C 
ATOM      2  C   UNL     1      -5.403   6.144  -3.057  1.00  0.00    -0.005 A 
ATOM      3  C   UNL     1      -5.783   7.304  -2.377  1.00  0.00     0.053 A 
ATOM      4  C   UNL     1      -6.971   7.966  -2.699  1.00  0.00     0.119 A 
ATOM      5  C   UNL     1      -7.808   7.467  -3.718  1.00  0.00    -0.003 A 
ATOM      6  C   UNL     1      -7.454   6.262  -4.388  1.00  0.00    -0.002 A 
ATOM      7  C   UNL     1      -6.224   5.629  -4.074  1.00  0.00     0.121 A 
ATOM      8  C   UNL     1      -8.346   5.654  -5.449  1.00  0.00     0.049 C 
ATOM      9  C   UNL     1      -9.078   8.210  -4.067  1.00  0.00     0.049 C 
ENDROOT
BRANCH   7  10
ATOM     10  O   UNL     1      -5.789   4.488  -4.760  1.00  0.00    -0.507 OA
ATOM     11  H   UNL     1      -6.009   3.543  -4.475  1.00  0.00     0.293 HD
ENDBRANCH   7  10
BRANCH   4  12
ATOM     12  O   UNL     1      -7.317   9.125  -2.003  1.00  0.00    -0.508 OA
ATOM     13  H   UNL     1      -6.628   9.671  -1.497  1.00  0.00     0.293 HD
ENDBRANCH   4  12
TORSDOF 2
ENDMDL
MODEL 9
REMARK VINA RESULT:    -3.306      1.527      4.566
REMARK INTER + INTRA:          -3.499
REMARK INTER:                  -3.499
REMARK INTRA:                   0.000
REMARK UNBOUND:                 0.000
REMARK SMILES Cc1cc(O)c(C)c(C)c1O
REMARK SMILES IDX 1 1 2 2 3 3 4 4 6 5 8 6 10 7 9 8 7 9 11 10 5 12
REMARK H PARENT 11 11 5 13
REMARK Flexibility Score: inf
ROOT
ATOM      1  C   UNL     1      -2.876   7.190  -2.995  1.00  0.00     0.048 C 
ATOM      2  C   UNL     1      -4.270   6.699  -3.271  1.00  0.00    -0.005 A 
ATOM      3  C   UNL     1      -5.234   7.580  -3.767  1.00  0.00     0.053 A 
ATOM      4  C   UNL     1      -6.526   7.137  -4.061  1.00  0.00     0.119 A 
ATOM      5  C   UNL     1      -6.879   5.788  -3.853  1.00  0.00    -0.003 A 
ATOM      6  C   UNL     1      -5.919   4.890  -3.305  1.00  0.00    -0.002 A 
ATOM      7  C   UNL     1      -4.601   5.351  -3.054  1.00  0.00     0.121 A 
ATOM      8  C   UNL     1      -6.264   3.446  -3.010  1.00  0.00     0.049 C 
ATOM      9  C   UNL     1      -8.276   5.323  -4.197  1.00  0.00     0.049 C 
ENDROOT
BRANCH   7  10
ATOM     10  O   UNL     1      -3.597   4.489  -2.594  1.00  0.00    -0.507 OA
ATOM     11  H   UNL     1      -2.622   4.580  -2.842  1.00  0.00     0.293 HD
ENDBRANCH   7  10
BRANCH   4  12
ATOM     12  O   UNL     1      -7.462   8.044  -4.560  1.00  0.00    -0.508 OA
ATOM     13  H   UNL     1      -7.185   8.942  -4.940  1.00  0.00     0.293 HD
ENDBRANCH   4  12
TORSDOF 2
ENDMDL
