MODEL 1
REMARK VINA RESULT:    -3.587      0.000      0.000
REMARK INTER + INTRA:          -5.528
REMARK INTER:                  -4.845
REMARK INTRA:                  -0.683
REMARK UNBOUND:                -0.683
REMARK SMILES O=C[C@H](O)[C@@H](O)[C@H](O)CO
REMARK SMILES IDX 7 1 9 2 10 3 5 5 3 6 2 7 1 8 4 9 6 11 8 13
REMARK H PARENT 10 4 4 10 6 12 8 14
REMARK Flexibility Score: inf
ROOT
ATOM      1  C   UNL     1      24.165  19.183  25.646  1.00  0.00     0.171 C 
ENDROOT
BRANCH   1   2
ATOM      2  C   UNL     1      23.122  19.653  26.678  1.00  0.00     0.190 C 
BRANCH   2   3
ATOM      3  O   UNL     1      22.444  20.786  26.208  1.00  0.00    -0.394 OA
ATOM      4  H   UNL     1      22.020  20.527  25.348  1.00  0.00     0.210 HD
ENDBRANCH   2   3
ENDBRANCH   1   2
BRANCH   1   5
ATOM      5  C   UNL     1      25.497  19.961  25.788  1.00  0.00     0.181 C 
BRANCH   5   6
ATOM      6  C   UNL     1      26.422  19.737  24.563  1.00  0.00     0.209 C 
BRANCH   6   7
ATOM      7  C   UNL     1      27.864  20.037  24.884  1.00  0.00     0.258 C 
ATOM      8  O   UNL     1      28.172  21.122  25.351  1.00  0.00    -0.300 OA
ENDBRANCH   6   7
BRANCH   6   9
ATOM      9  O   UNL     1      25.999  20.491  23.454  1.00  0.00    -0.383 OA
ATOM     10  H   UNL     1      26.114  21.451  23.678  1.00  0.00     0.211 HD
ENDBRANCH   6   9
ENDBRANCH   5   6
BRANCH   5  11
ATOM     11  O   UNL     1      25.235  21.332  25.967  1.00  0.00    -0.387 OA
ATOM     12  H   UNL     1      25.196  21.745  25.065  1.00  0.00     0.211 HD
ENDBRANCH   5  11
ENDBRANCH   1   5
BRANCH   1  13
ATOM     13  O   UNL     1      23.648  19.279  24.341  1.00  0.00    -0.388 OA
ATOM     14  H   UNL     1      23.247  20.181  24.237  1.00  0.00     0.211 HD
ENDBRANCH   1  13
TORSDOF 8
ENDMDL
MODEL 2
REMARK VINA RESULT:    -3.553      1.556      1.801
REMARK INTER + INTRA:          -5.482
REMARK INTER:                  -4.794
REMARK INTRA:                  -0.688
REMARK UNBOUND:                -0.683
REMARK SMILES O=C[C@H](O)[C@@H](O)[C@H](O)CO
REMARK SMILES IDX 7 1 9 2 10 3 5 5 3 6 2 7 1 8 4 9 6 11 8 13
REMARK H PARENT 10 4 4 10 6 12 8 14
REMARK Flexibility Score: inf
ROOT
ATOM      1  C   UNL     1      24.703  18.875  24.559  1.00  0.00     0.171 C 
ENDROOT
BRANCH   1   2
ATOM      2  C   UNL     1      24.288  19.273  25.988  1.00  0.00     0.190 C 
BRANCH   2   3
ATOM      3  O   UNL     1      23.591  20.489  25.976  1.00  0.00    -0.394 OA
ATOM      4  H   UNL     1      24.102  21.103  25.386  1.00  0.00     0.210 HD
ENDBRANCH   2   3
ENDBRANCH   1   2
BRANCH   1   5
ATOM      5  C   UNL     1      26.059  19.510  24.163  1.00  0.00     0.181 C 
BRANCH   5   6
ATOM      6  C   UNL     1      26.585  18.939  22.820  1.00  0.00     0.209 C 
BRANCH   6   7
ATOM      7  C   UNL     1      28.086  19.041  22.714  1.00  0.00     0.258 C 
ATOM      8  O   UNL     1      28.663  20.024  23.148  1.00  0.00    -0.300 OA
ENDBRANCH   6   7
BRANCH   6   9
ATOM      9  O   UNL     1      25.973  19.566  21.720  1.00  0.00    -0.383 OA
ATOM     10  H   UNL     1      25.489  18.869  21.204  1.00  0.00     0.211 HD
ENDBRANCH   6   9
ENDBRANCH   5   6
BRANCH   5  11
ATOM     11  O   UNL     1      25.931  20.909  24.091  1.00  0.00    -0.387 OA
ATOM     12  H   UNL     1      25.222  21.107  23.426  1.00  0.00     0.211 HD
ENDBRANCH   5  11
ENDBRANCH   1   5
BRANCH   1  13
ATOM     13  O   UNL     1      23.691  19.205  23.639  1.00  0.00    -0.388 OA
ATOM     14  H   UNL     1      23.870  18.709  22.799  1.00  0.00     0.211 HD
ENDBRANCH   1  13
TORSDOF 8
ENDMDL
MODEL 3
REMARK VINA RESULT:    -3.358      1.072      4.288
REMARK INTER + INTRA:          -5.219
REMARK INTER:                  -4.497
REMARK INTRA:                  -0.722
REMARK UNBOUND:                -0.683
REMARK SMILES O=C[C@H](O)[C@@H](O)[C@H](O)CO
REMARK SMILES IDX 7 1 9 2 10 3 5 5 3 6 2 7 1 8 4 9 6 11 8 13
REMARK H PARENT 10 4 4 10 6 12 8 14
REMARK Flexibility Score: inf
ROOT
ATOM      1  C   UNL     1      27.559  19.694  24.888  1.00  0.00     0.171 C 
ENDROOT
BRANCH   1   2
ATOM      2  C   UNL     1      28.231  20.361  23.673  1.00  0.00     0.190 C 
BRANCH   2   3
ATOM      3  O   UNL     1      28.226  19.492  22.573  1.00  0.00    -0.394 OA
ATOM      4  H   UNL     1      27.278  19.243  22.413  1.00  0.00     0.210 HD
ENDBRANCH   2   3
ENDBRANCH   1   2
BRANCH   1   5
ATOM      5  C   UNL     1      26.023  19.601  24.708  1.00  0.00     0.181 C 
BRANCH   5   6
ATOM      6  C   UNL     1      25.270  20.082  25.976  1.00  0.00     0.209 C 
BRANCH   6   7
ATOM      7  C   UNL     1      23.877  19.513  26.054  1.00  0.00     0.258 C 
ATOM      8  O   UNL     1      23.424  18.875  25.117  1.00  0.00    -0.300 OA
ENDBRANCH   6   7
BRANCH   6   9
ATOM      9  O   UNL     1      25.230  21.486  26.049  1.00  0.00    -0.383 OA
ATOM     10  H   UNL     1      26.099  21.833  25.716  1.00  0.00     0.211 HD
ENDBRANCH   6   9
ENDBRANCH   5   6
BRANCH   5  11
ATOM     11  O   UNL     1      25.626  20.346  23.583  1.00  0.00    -0.387 OA
ATOM     12  H   UNL     1      26.345  21.005  23.396  1.00  0.00     0.211 HD
ENDBRANCH   5  11
ENDBRANCH   1   5
BRANCH   1  13
ATOM     13  O   UNL     1      27.899  20.369  26.075  1.00  0.00    -0.388 OA
ATOM     14  H   UNL     1      27.123  20.925  26.342  1.00  0.00     0.211 HD
ENDBRANCH   1  13
TORSDOF 8
ENDMDL
MODEL 4
REMARK VINA RESULT:    -3.235      1.700      2.756
REMARK INTER + INTRA:          -5.052
REMARK INTER:                  -4.413
REMARK INTRA:                  -0.639
REMARK UNBOUND:                -0.683
REMARK SMILES O=C[C@H](O)[C@@H](O)[C@H](O)CO
REMARK SMILES IDX 7 1 9 2 10 3 5 5 3 6 2 7 1 8 4 9 6 11 8 13
REMARK H PARENT 10 4 4 10 6 12 8 14
REMARK Flexibility Score: inf
ROOT
ATOM      1  C   UNL     1      26.296  19.613  24.508  1.00  0.00     0.171 C 
ENDROOT
BRANCH   1   2
ATOM      2  C   UNL     1      25.518  19.853  25.815  1.00  0.00     0.190 C 
BRANCH   2   3
ATOM      3  O   UNL     1      25.310  21.225  26.017  1.00  0.00    -0.394 OA
ATOM      4  H   UNL     1      26.186  21.609  26.283  1.00  0.00     0.210 HD
ENDBRANCH   2   3
ENDBRANCH   1   2
BRANCH   1   5
ATOM      5  C   UNL     1      27.825  19.739  24.724  1.00  0.00     0.181 C 
BRANCH   5   6
ATOM      6  C   UNL     1      28.620  19.096  23.558  1.00  0.00     0.209 C 
BRANCH   6   7
ATOM      7  C   UNL     1      29.986  19.714  23.399  1.00  0.00     0.258 C 
ATOM      8  O   UNL     1      30.160  20.611  22.590  1.00  0.00    -0.300 OA
ENDBRANCH   6   7
BRANCH   6   9
ATOM      9  O   UNL     1      27.907  19.168  22.347  1.00  0.00    -0.383 OA
ATOM     10  H   UNL     1      28.183  18.397  21.786  1.00  0.00     0.211 HD
ENDBRANCH   6   9
ENDBRANCH   5   6
BRANCH   5  11
ATOM     11  O   UNL     1      28.177  21.092  24.878  1.00  0.00    -0.387 OA
ATOM     12  H   UNL     1      28.837  21.308  24.169  1.00  0.00     0.211 HD
ENDBRANCH   5  11
ENDBRANCH   1   5
BRANCH   1  13
ATOM     13  O   UNL     1      25.845  20.481  23.496  1.00  0.00    -0.388 OA
ATOM     14  H   UNL     1      24.853  20.474  23.509  1.00  0.00     0.211 HD
ENDBRANCH   1  13
TORSDOF 8
ENDMDL
MODEL 5
REMARK VINA RESULT:    -3.132      2.255      3.532
REMARK INTER + INTRA:          -4.913
REMARK INTER:                  -4.810
REMARK INTRA:                  -0.103
REMARK UNBOUND:                -0.683
REMARK SMILES O=C[C@H](O)[C@@H](O)[C@H](O)CO
REMARK SMILES IDX 7 1 9 2 10 3 5 5 3 6 2 7 1 8 4 9 6 11 8 13
REMARK H PARENT 10 4 4 10 6 12 8 14
REMARK Flexibility Score: inf
ROOT
ATOM      1  C   UNL     1      26.387  20.221  24.103  1.00  0.00     0.171 C 
ENDROOT
BRANCH   1   2
ATOM      2  C   UNL     1      26.155  19.132  23.038  1.00  0.00     0.190 C 
BRANCH   2   3
ATOM      3  O   UNL     1      26.010  19.711  21.770  1.00  0.00    -0.394 OA
ATOM      4  H   UNL     1      25.114  19.442  21.436  1.00  0.00     0.210 HD
ENDBRANCH   2   3
ENDBRANCH   1   2
BRANCH   1   5
ATOM      5  C   UNL     1      27.700  19.978  24.888  1.00  0.00     0.181 C 
BRANCH   5   6
ATOM      6  C   UNL     1      28.882  20.780  24.283  1.00  0.00     0.209 C 
BRANCH   6   7
ATOM      7  C   UNL     1      29.787  19.907  23.450  1.00  0.00     0.258 C 
ATOM      8  O   UNL     1      30.271  20.340  22.416  1.00  0.00    -0.300 OA
ENDBRANCH   6   7
BRANCH   6   9
ATOM      9  O   UNL     1      29.622  21.439  25.281  1.00  0.00    -0.383 OA
ATOM     10  H   UNL     1      30.198  22.114  24.837  1.00  0.00     0.211 HD
ENDBRANCH   6   9
ENDBRANCH   5   6
BRANCH   5  11
ATOM     11  O   UNL     1      27.517  20.311  26.243  1.00  0.00    -0.387 OA
ATOM     12  H   UNL     1      28.145  19.753  26.772  1.00  0.00     0.211 HD
ENDBRANCH   5  11
ENDBRANCH   1   5
BRANCH   1  13
ATOM     13  O   UNL     1      25.280  20.314  24.966  1.00  0.00    -0.388 OA
ATOM     14  H   UNL     1      25.622  20.384  25.895  1.00  0.00     0.211 HD
ENDBRANCH   1  13
TORSDOF 8
ENDMDL
MODEL 6
REMARK VINA RESULT:    -3.112      1.460      1.817
REMARK INTER + INTRA:          -4.886
REMARK INTER:                  -4.666
REMARK INTRA:                  -0.220
REMARK UNBOUND:                -0.683
REMARK SMILES O=C[C@H](O)[C@@H](O)[C@H](O)CO
REMARK SMILES IDX 7 1 9 2 10 3 5 5 3 6 2 7 1 8 4 9 6 11 8 13
REMARK H PARENT 10 4 4 10 6 12 8 14
REMARK Flexibility Score: inf
ROOT
ATOM      1  C   UNL     1      24.724  18.875  24.051  1.00  0.00     0.171 C 
ENDROOT
BRANCH   1   2
ATOM      2  C   UNL     1      23.290  18.875  24.614  1.00  0.00     0.190 C 
BRANCH   2   3
ATOM      3  O   UNL     1      22.430  19.586  23.765  1.00  0.00    -0.394 OA
ATOM      4  H   UNL     1      21.576  19.700  24.258  1.00  0.00     0.210 HD
ENDBRANCH   2   3
ENDBRANCH   1   2
BRANCH   1   5
ATOM      5  C   UNL     1      25.772  19.127  25.163  1.00  0.00     0.181 C 
BRANCH   5   6
ATOM      6  C   UNL     1      26.463  20.505  24.994  1.00  0.00     0.209 C 
BRANCH   6   7
ATOM      7  C   UNL     1      27.899  20.475  25.453  1.00  0.00     0.258 C 
ATOM      8  O   UNL     1      28.621  21.441  25.263  1.00  0.00    -0.300 OA
ENDBRANCH   6   7
BRANCH   6   9
ATOM      9  O   UNL     1      25.757  21.521  25.662  1.00  0.00    -0.383 OA
ATOM     10  H   UNL     1      26.294  21.797  26.450  1.00  0.00     0.211 HD
ENDBRANCH   6   9
ENDBRANCH   5   6
BRANCH   5  11
ATOM     11  O   UNL     1      25.161  19.030  26.427  1.00  0.00    -0.387 OA
ATOM     12  H   UNL     1      24.209  18.791  26.278  1.00  0.00     0.211 HD
ENDBRANCH   5  11
ENDBRANCH   1   5
BRANCH   1  13
ATOM     13  O   UNL     1      24.846  19.809  23.006  1.00  0.00    -0.388 OA
ATOM     14  H   UNL     1      25.176  20.660  23.395  1.00  0.00     0.211 HD
ENDBRANCH   1  13
TORSDOF 8
ENDMDL
MODEL 7
REMARK VINA RESULT:    -3.077     17.847     18.392
REMARK INTER + INTRA:          -4.840
REMARK INTER:                  -4.335
REMARK INTRA:                  -0.505
REMARK UNBOUND:                -0.683
REMARK SMILES O=C[C@H](O)[C@@H](O)[C@H](O)CO
REMARK SMILES IDX 7 1 9 2 10 3 5 5 3 6 2 7 1 8 4 9 6 11 8 13
REMARK H PARENT 10 4 4 10 6 12 8 14
REMARK Flexibility Score: inf
ROOT
ATOM      1  C   UNL     1      25.363  38.543  26.403  1.00  0.00     0.171 C 
ENDROOT
BRANCH   1   2
ATOM      2  C   UNL     1      24.705  38.874  27.757  1.00  0.00     0.190 C 
BRANCH   2   3
ATOM      3  O   UNL     1      25.099  37.947  28.732  1.00  0.00    -0.394 OA
ATOM      4  H   UNL     1      24.296  37.403  28.947  1.00  0.00     0.210 HD
ENDBRANCH   2   3
ENDBRANCH   1   2
BRANCH   1   5
ATOM      5  C   UNL     1      24.386  38.776  25.224  1.00  0.00     0.181 C 
BRANCH   5   6
ATOM      6  C   UNL     1      25.145  38.994  23.889  1.00  0.00     0.209 C 
BRANCH   6   7
ATOM      7  C   UNL     1      24.866  37.894  22.896  1.00  0.00     0.258 C 
ATOM      8  O   UNL     1      23.962  38.018  22.086  1.00  0.00    -0.300 OA
ENDBRANCH   6   7
BRANCH   6   9
ATOM      9  O   UNL     1      26.530  39.123  24.100  1.00  0.00    -0.383 OA
ATOM     10  H   UNL     1      26.879  38.237  24.380  1.00  0.00     0.211 HD
ENDBRANCH   6   9
ENDBRANCH   5   6
BRANCH   5  11
ATOM     11  O   UNL     1      23.497  37.691  25.118  1.00  0.00    -0.387 OA
ATOM     12  H   UNL     1      23.861  37.077  24.428  1.00  0.00     0.211 HD
ENDBRANCH   5  11
ENDBRANCH   1   5
BRANCH   1  13
ATOM     13  O   UNL     1      25.867  37.230  26.405  1.00  0.00    -0.388 OA
ATOM     14  H   UNL     1      25.191  36.644  25.976  1.00  0.00     0.211 HD
ENDBRANCH   1  13
TORSDOF 8
ENDMDL
MODEL 8
REMARK VINA RESULT:    -2.977      1.504      2.273
REMARK INTER + INTRA:          -4.704
REMARK INTER:                  -3.945
REMARK INTRA:                  -0.760
REMARK UNBOUND:                -0.683
REMARK SMILES O=C[C@H](O)[C@@H](O)[C@H](O)CO
REMARK SMILES IDX 7 1 9 2 10 3 5 5 3 6 2 7 1 8 4 9 6 11 8 13
REMARK H PARENT 10 4 4 10 6 12 8 14
REMARK Flexibility Score: inf
ROOT
ATOM      1  C   UNL     1      25.634  20.258  26.131  1.00  0.00     0.171 C 
ENDROOT
BRANCH   1   2
ATOM      2  C   UNL     1      24.120  20.543  26.126  1.00  0.00     0.190 C 
BRANCH   2   3
ATOM      3  O   UNL     1      23.876  21.900  26.379  1.00  0.00    -0.394 OA
ATOM      4  H   UNL     1      23.309  21.939  27.193  1.00  0.00     0.210 HD
ENDBRANCH   2   3
ENDBRANCH   1   2
BRANCH   1   5
ATOM      5  C   UNL     1      26.362  21.029  25.002  1.00  0.00     0.181 C 
BRANCH   5   6
ATOM      6  C   UNL     1      27.899  21.034  25.214  1.00  0.00     0.209 C 
BRANCH   6   7
ATOM      7  C   UNL     1      28.599  20.081  24.279  1.00  0.00     0.258 C 
ATOM      8  O   UNL     1      28.482  18.876  24.435  1.00  0.00    -0.300 OA
ENDBRANCH   6   7
BRANCH   6   9
ATOM      9  O   UNL     1      28.235  20.746  26.548  1.00  0.00    -0.383 OA
ATOM     10  H   UNL     1      29.164  21.062  26.703  1.00  0.00     0.211 HD
ENDBRANCH   6   9
ENDBRANCH   5   6
BRANCH   5  11
ATOM     11  O   UNL     1      26.036  20.470  23.753  1.00  0.00    -0.387 OA
ATOM     12  H   UNL     1      25.416  21.099  23.300  1.00  0.00     0.211 HD
ENDBRANCH   5  11
ENDBRANCH   1   5
BRANCH   1  13
ATOM     13  O   UNL     1      25.879  18.875  26.053  1.00  0.00    -0.388 OA
ATOM     14  H   UNL     1      26.861  18.737  26.079  1.00  0.00     0.211 HD
ENDBRANCH   1  13
TORSDOF 8
ENDMDL
