MODEL 1
REMARK VINA RESULT:    -2.223      0.000      0.000
REMARK INTER + INTRA:          -2.929
REMARK INTER:                  -2.613
REMARK INTRA:                  -0.316
REMARK UNBOUND:                -0.316
REMARK SMILES O=c1cc(-c2ccc(O)c(O)c2)oc2cc(O)cc(O)c12
REMARK SMILES IDX 4 1 3 2 2 3 1 4 21 5 19 6 18 7 16 8 15 9 14 10 13 11 5 12
REMARK SMILES IDX 6 13 7 14 8 15 12 16 10 17 9 18 11 20 20 22 17 24
REMARK H PARENT 9 19 11 21 20 23 17 25
REMARK Flexibility Score: inf
ROOT
ATOM      1  C   UNL     1      -6.698  20.523  19.087  1.00  0.00     0.138 A 
ATOM      2  C   UNL     1      -7.499  20.606  17.937  1.00  0.00     0.100 A 
ATOM      3  C   UNL     1      -6.904  20.532  16.677  1.00  0.00     0.197 A 
ATOM      4  O   UNL     1      -7.633  20.604  15.651  1.00  0.00    -0.289 OA
ATOM      5  C   UNL     1      -5.508  20.371  16.577  1.00  0.00     0.107 A 
ATOM      6  C   UNL     1      -4.825  20.289  15.340  1.00  0.00     0.134 A 
ATOM      7  C   UNL     1      -3.433  20.124  15.325  1.00  0.00     0.093 A 
ATOM      8  C   UNL     1      -2.711  20.040  16.519  1.00  0.00     0.123 A 
ATOM      9  C   UNL     1      -3.382  20.121  17.744  1.00  0.00     0.094 A 
ATOM     10  C   UNL     1      -4.769  20.287  17.780  1.00  0.00     0.146 A 
ATOM     11  O   UNL     1      -5.382  20.363  18.957  1.00  0.00    -0.456 OA
ENDROOT
BRANCH   1  12
ATOM     12  C   UNL     1      -7.277  20.596  20.453  1.00  0.00     0.021 A 
ATOM     13  C   UNL     1      -8.581  21.074  20.679  1.00  0.00     0.016 A 
ATOM     14  C   UNL     1      -9.095  21.140  21.976  1.00  0.00     0.051 A 
ATOM     15  C   UNL     1      -8.320  20.740  23.068  1.00  0.00     0.157 A 
ATOM     16  C   UNL     1      -6.495  20.207  21.556  1.00  0.00     0.062 A 
ATOM     17  C   UNL     1      -7.013  20.272  22.858  1.00  0.00     0.158 A 
BRANCH  15  18
ATOM     18  O   UNL     1      -8.863  20.816  24.350  1.00  0.00    -0.504 OA
ATOM     19  H   UNL     1      -8.579  21.527  25.013  1.00  0.00     0.293 HD
ENDBRANCH  15  18
BRANCH  17  20
ATOM     20  O   UNL     1      -6.231  19.875  23.943  1.00  0.00    -0.504 OA
ATOM     21  H   UNL     1      -5.629  19.063  23.893  1.00  0.00     0.293 HD
ENDBRANCH  17  20
ENDBRANCH   1  12
BRANCH   6  22
ATOM     22  O   UNL     1      -5.518  20.367  14.131  1.00  0.00    -0.507 OA
ATOM     23  H   UNL     1      -5.141  19.976  13.275  1.00  0.00     0.293 HD
ENDBRANCH   6  22
BRANCH   8  24
ATOM     24  O   UNL     1      -1.329  19.876  16.476  1.00  0.00    -0.508 OA
ATOM     25  H   UNL     1      -0.908  18.966  16.332  1.00  0.00     0.293 HD
ENDBRANCH   8  24
TORSDOF 5
ENDMDL
