MODEL 1
REMARK VINA RESULT:    -4.727      0.000      0.000
REMARK INTER + INTRA:          -5.471
REMARK INTER:                  -5.280
REMARK INTRA:                  -0.191
REMARK UNBOUND:                -0.191
REMARK SMILES CC(C)c1ccc(C=O)cc1
REMARK SMILES IDX 4 1 5 2 6 3 7 4 10 5 11 6 2 7 1 8 3 9 8 10 9 11
REMARK H PARENT
REMARK Flexibility Score: inf
ROOT
ATOM      1  C   UNL     1       3.212  -7.989   4.556  1.00  0.00    -0.045 A 
ATOM      2  C   UNL     1       2.484  -9.048   3.988  1.00  0.00     0.005 A 
ATOM      3  C   UNL     1       1.086  -9.020   3.966  1.00  0.00     0.012 A 
ATOM      4  C   UNL     1       0.389  -7.930   4.515  1.00  0.00     0.014 A 
ATOM      5  C   UNL     1       1.112  -6.871   5.084  1.00  0.00     0.012 A 
ATOM      6  C   UNL     1       2.510  -6.899   5.105  1.00  0.00     0.005 A 
ENDROOT
BRANCH   1   7
ATOM      7  C   UNL     1       4.728  -8.033   4.572  1.00  0.00     0.013 C 
ATOM      8  C   UNL     1       5.319  -6.631   4.761  1.00  0.00     0.012 C 
ATOM      9  C   UNL     1       5.275  -8.696   3.302  1.00  0.00     0.012 C 
ENDBRANCH   1   7
BRANCH   4  10
ATOM     10  C   UNL     1      -1.084  -7.883   4.502  1.00  0.00     0.260 C 
ATOM     11  O   UNL     1      -1.725  -7.876   3.418  1.00  0.00    -0.298 OA
ENDBRANCH   4  10
TORSDOF 2
ENDMDL
MODEL 2
REMARK VINA RESULT:    -4.720      0.032      1.461
REMARK INTER + INTRA:          -5.463
REMARK INTER:                  -5.271
REMARK INTRA:                  -0.192
REMARK UNBOUND:                -0.191
REMARK SMILES CC(C)c1ccc(C=O)cc1
REMARK SMILES IDX 4 1 5 2 6 3 7 4 10 5 11 6 2 7 1 8 3 9 8 10 9 11
REMARK H PARENT
REMARK Flexibility Score: inf
ROOT
ATOM      1  C   UNL     1       3.189  -7.997   4.566  1.00  0.00    -0.045 A 
ATOM      2  C   UNL     1       2.505  -6.902   5.122  1.00  0.00     0.005 A 
ATOM      3  C   UNL     1       1.108  -6.855   5.108  1.00  0.00     0.012 A 
ATOM      4  C   UNL     1       0.367  -7.902   4.535  1.00  0.00     0.014 A 
ATOM      5  C   UNL     1       1.046  -8.997   3.979  1.00  0.00     0.012 A 
ATOM      6  C   UNL     1       2.443  -9.045   3.993  1.00  0.00     0.005 A 
ENDROOT
BRANCH   1   7
ATOM      7  C   UNL     1       4.706  -8.036   4.588  1.00  0.00     0.013 C 
ATOM      8  C   UNL     1       5.291  -6.630   4.767  1.00  0.00     0.012 C 
ATOM      9  C   UNL     1       5.259  -8.709   3.326  1.00  0.00     0.012 C 
ENDBRANCH   1   7
BRANCH   4  10
ATOM     10  C   UNL     1      -1.107  -7.870   4.510  1.00  0.00     0.260 C 
ATOM     11  O   UNL     1      -1.738  -7.858   3.421  1.00  0.00    -0.298 OA
ENDBRANCH   4  10
TORSDOF 2
ENDMDL
MODEL 3
REMARK VINA RESULT:    -4.623     17.638     19.239
REMARK INTER + INTRA:          -5.355
REMARK INTER:                  -5.165
REMARK INTRA:                  -0.189
REMARK UNBOUND:                -0.191
REMARK SMILES CC(C)c1ccc(C=O)cc1
REMARK SMILES IDX 4 1 5 2 6 3 7 4 10 5 11 6 2 7 1 8 3 9 8 10 9 11
REMARK H PARENT
REMARK Flexibility Score: inf
ROOT
ATOM      1  C   UNL     1      -7.522   7.589  -2.753  1.00  0.00    -0.045 A 
ATOM      2  C   UNL     1      -7.511   6.232  -3.120  1.00  0.00     0.005 A 
ATOM      3  C   UNL     1      -6.313   5.596  -3.458  1.00  0.00     0.012 A 
ATOM      4  C   UNL     1      -5.101   6.306  -3.437  1.00  0.00     0.014 A 
ATOM      5  C   UNL     1      -5.108   7.660  -3.070  1.00  0.00     0.012 A 
ATOM      6  C   UNL     1      -6.305   8.297  -2.732  1.00  0.00     0.005 A 
ENDROOT
BRANCH   1   7
ATOM      7  C   UNL     1      -8.829   8.267  -2.388  1.00  0.00     0.013 C 
ATOM      8  C   UNL     1      -8.584   9.665  -1.809  1.00  0.00     0.012 C 
ATOM      9  C   UNL     1      -9.646   7.403  -1.419  1.00  0.00     0.012 C 
ENDBRANCH   1   7
BRANCH   4  10
ATOM     10  C   UNL     1      -3.828   5.653  -3.791  1.00  0.00     0.260 C 
ATOM     11  O   UNL     1      -3.214   4.932  -2.960  1.00  0.00    -0.298 OA
ENDBRANCH   4  10
TORSDOF 2
ENDMDL
MODEL 4
REMARK VINA RESULT:    -4.558      0.605      1.168
REMARK INTER + INTRA:          -5.282
REMARK INTER:                  -5.098
REMARK INTRA:                  -0.185
REMARK UNBOUND:                -0.191
REMARK SMILES CC(C)c1ccc(C=O)cc1
REMARK SMILES IDX 4 1 5 2 6 3 7 4 10 5 11 6 2 7 1 8 3 9 8 10 9 11
REMARK H PARENT
REMARK Flexibility Score: inf
ROOT
ATOM      1  C   UNL     1       3.182  -7.557   4.623  1.00  0.00    -0.045 A 
ATOM      2  C   UNL     1       2.680  -8.739   4.052  1.00  0.00     0.005 A 
ATOM      3  C   UNL     1       1.303  -8.972   3.995  1.00  0.00     0.012 A 
ATOM      4  C   UNL     1       0.400  -8.028   4.512  1.00  0.00     0.014 A 
ATOM      5  C   UNL     1       0.897  -6.847   5.083  1.00  0.00     0.012 A 
ATOM      6  C   UNL     1       2.274  -6.613   5.140  1.00  0.00     0.005 A 
ENDROOT
BRANCH   1   7
ATOM      7  C   UNL     1       4.679  -7.317   4.678  1.00  0.00     0.013 C 
ATOM      8  C   UNL     1       5.435  -8.352   3.838  1.00  0.00     0.012 C 
ATOM      9  C   UNL     1       5.183  -7.306   6.126  1.00  0.00     0.012 C 
ENDBRANCH   1   7
BRANCH   4  10
ATOM     10  C   UNL     1      -1.056  -8.256   4.462  1.00  0.00     0.260 C 
ATOM     11  O   UNL     1      -1.757  -7.783   3.529  1.00  0.00    -0.298 OA
ENDBRANCH   4  10
TORSDOF 2
ENDMDL
MODEL 5
REMARK VINA RESULT:    -4.218      1.110      2.188
REMARK INTER + INTRA:          -4.902
REMARK INTER:                  -4.709
REMARK INTRA:                  -0.193
REMARK UNBOUND:                -0.191
REMARK SMILES CC(C)c1ccc(C=O)cc1
REMARK SMILES IDX 4 1 5 2 6 3 7 4 10 5 11 6 2 7 1 8 3 9 8 10 9 11
REMARK H PARENT
REMARK Flexibility Score: inf
ROOT
ATOM      1  C   UNL     1       4.291  -6.876   4.979  1.00  0.00    -0.045 A 
ATOM      2  C   UNL     1       3.154  -6.193   5.445  1.00  0.00     0.005 A 
ATOM      3  C   UNL     1       1.875  -6.723   5.246  1.00  0.00     0.012 A 
ATOM      4  C   UNL     1       1.710  -7.946   4.575  1.00  0.00     0.014 A 
ATOM      5  C   UNL     1       2.843  -8.630   4.109  1.00  0.00     0.012 A 
ATOM      6  C   UNL     1       4.121  -8.101   4.308  1.00  0.00     0.005 A 
ENDROOT
BRANCH   1   7
ATOM      7  C   UNL     1       5.672  -6.289   5.202  1.00  0.00     0.013 C 
ATOM      8  C   UNL     1       5.641  -4.758   5.123  1.00  0.00     0.012 C 
ATOM      9  C   UNL     1       6.686  -6.873   4.211  1.00  0.00     0.012 C 
ENDBRANCH   1   7
BRANCH   4  10
ATOM     10  C   UNL     1       0.370  -8.521   4.355  1.00  0.00     0.260 C 
ATOM     11  O   UNL     1      -0.595  -7.798   3.990  1.00  0.00    -0.298 OA
ENDBRANCH   4  10
TORSDOF 2
ENDMDL
MODEL 6
REMARK VINA RESULT:    -4.185     18.148     19.672
REMARK INTER + INTRA:          -4.865
REMARK INTER:                  -4.685
REMARK INTRA:                  -0.180
REMARK UNBOUND:                -0.191
REMARK SMILES CC(C)c1ccc(C=O)cc1
REMARK SMILES IDX 4 1 5 2 6 3 7 4 10 5 11 6 2 7 1 8 3 9 8 10 9 11
REMARK H PARENT
REMARK Flexibility Score: inf
ROOT
ATOM      1  C   UNL     1      -6.962   8.019  -3.999  1.00  0.00    -0.045 A 
ATOM      2  C   UNL     1      -5.664   8.471  -4.295  1.00  0.00     0.005 A 
ATOM      3  C   UNL     1      -4.570   7.606  -4.194  1.00  0.00     0.012 A 
ATOM      4  C   UNL     1      -4.753   6.272  -3.793  1.00  0.00     0.014 A 
ATOM      5  C   UNL     1      -6.047   5.818  -3.496  1.00  0.00     0.012 A 
ATOM      6  C   UNL     1      -7.141   6.682  -3.597  1.00  0.00     0.005 A 
ENDROOT
BRANCH   1   7
ATOM      7  C   UNL     1      -8.140   8.968  -4.113  1.00  0.00     0.013 C 
ATOM      8  C   UNL     1      -9.188   8.680  -3.031  1.00  0.00     0.012 C 
ATOM      9  C   UNL     1      -8.762   8.910  -5.514  1.00  0.00     0.012 C 
ENDBRANCH   1   7
BRANCH   4  10
ATOM     10  C   UNL     1      -3.612   5.346  -3.680  1.00  0.00     0.260 C 
ATOM     11  O   UNL     1      -3.215   4.937  -2.557  1.00  0.00    -0.298 OA
ENDBRANCH   4  10
TORSDOF 2
ENDMDL
MODEL 7
REMARK VINA RESULT:    -4.138      1.418      2.317
REMARK INTER + INTRA:          -4.813
REMARK INTER:                  -4.630
REMARK INTRA:                  -0.183
REMARK UNBOUND:                -0.191
REMARK SMILES CC(C)c1ccc(C=O)cc1
REMARK SMILES IDX 4 1 5 2 6 3 7 4 10 5 11 6 2 7 1 8 3 9 8 10 9 11
REMARK H PARENT
REMARK Flexibility Score: inf
ROOT
ATOM      1  C   UNL     1       5.139  -7.315   4.583  1.00  0.00    -0.045 A 
ATOM      2  C   UNL     1       4.956  -8.513   3.869  1.00  0.00     0.005 A 
ATOM      3  C   UNL     1       3.676  -9.048   3.696  1.00  0.00     0.012 A 
ATOM      4  C   UNL     1       2.555  -8.396   4.235  1.00  0.00     0.014 A 
ATOM      5  C   UNL     1       2.734  -7.202   4.948  1.00  0.00     0.012 A 
ATOM      6  C   UNL     1       4.013  -6.666   5.121  1.00  0.00     0.005 A 
ENDROOT
BRANCH   1   7
ATOM      7  C   UNL     1       6.534  -6.746   4.764  1.00  0.00     0.013 C 
ATOM      8  C   UNL     1       7.173  -6.411   3.411  1.00  0.00     0.012 C 
ATOM      9  C   UNL     1       7.420  -7.701   5.573  1.00  0.00     0.012 C 
ENDBRANCH   1   7
BRANCH   4  10
ATOM     10  C   UNL     1       1.197  -8.946   4.062  1.00  0.00     0.260 C 
ATOM     11  O   UNL     1       0.195  -8.188   3.974  1.00  0.00    -0.298 OA
ENDBRANCH   4  10
TORSDOF 2
ENDMDL
MODEL 8
REMARK VINA RESULT:    -4.045      3.384      5.483
REMARK INTER + INTRA:          -4.709
REMARK INTER:                  -4.519
REMARK INTRA:                  -0.191
REMARK UNBOUND:                -0.191
REMARK SMILES CC(C)c1ccc(C=O)cc1
REMARK SMILES IDX 4 1 5 2 6 3 7 4 10 5 11 6 2 7 1 8 3 9 8 10 9 11
REMARK H PARENT
REMARK Flexibility Score: inf
ROOT
ATOM      1  C   UNL     1       4.575  -7.861   4.397  1.00  0.00    -0.045 A 
ATOM      2  C   UNL     1       4.145  -6.750   5.144  1.00  0.00     0.005 A 
ATOM      3  C   UNL     1       4.985  -5.648   5.327  1.00  0.00     0.012 A 
ATOM      4  C   UNL     1       6.274  -5.636   4.767  1.00  0.00     0.014 A 
ATOM      5  C   UNL     1       6.707  -6.743   4.023  1.00  0.00     0.012 A 
ATOM      6  C   UNL     1       5.867  -7.845   3.839  1.00  0.00     0.005 A 
ENDROOT
BRANCH   1   7
ATOM      7  C   UNL     1       3.653  -9.050   4.207  1.00  0.00     0.013 C 
ATOM      8  C   UNL     1       4.052  -9.866   2.971  1.00  0.00     0.012 C 
ATOM      9  C   UNL     1       2.188  -8.604   4.125  1.00  0.00     0.012 C 
ENDBRANCH   1   7
BRANCH   4  10
ATOM     10  C   UNL     1       7.175  -4.483   4.950  1.00  0.00     0.260 C 
ATOM     11  O   UNL     1       7.017  -3.423   4.288  1.00  0.00    -0.298 OA
ENDBRANCH   4  10
TORSDOF 2
ENDMDL
