MODEL 1
REMARK VINA RESULT:    -6.018      0.000      0.000
REMARK INTER + INTRA:         -11.002
REMARK INTER:                  -9.359
REMARK INTRA:                  -1.642
REMARK UNBOUND:                -1.642
REMARK SMILES C[C@@]12C[C@@]3(O)O[C@@H](O1)[C@]1(COC(=O)c4ccccc4)[C@H]3C[C@@]12O[C@H]1O[C@@H](CO)[C@H](O)[C@H](O)[C@@H]1O
REMARK SMILES IDX 1 1 2 2 3 3 4 4 20 5 21 6 22 7 9 8 7 9 8 10 6 11 23 12 24 13
REMARK SMILES IDX 33 14 25 15 31 16 26 17 29 18 34 19 32 21 27 23 28 24 30 26
REMARK SMILES IDX 5 28 10 30 11 31 12 32 13 33 14 34 15 35 19 36 16 37 18 38
REMARK SMILES IDX 17 39
REMARK H PARENT 34 20 32 22 28 25 30 27 5 29
REMARK Flexibility Score: inf
ROOT
ATOM      1  C   UNL     1      -5.821  89.164 -14.844  1.00  0.00     0.046 C 
ATOM      2  C   UNL     1      -5.794  90.177 -13.677  1.00  0.00     0.104 C 
ATOM      3  C   UNL     1      -6.649  89.493 -12.532  1.00  0.00     0.104 C 
ATOM      4  C   UNL     1      -6.641  90.498 -11.362  1.00  0.00     0.175 C 
ATOM      5  C   UNL     1      -7.059  91.899 -11.895  1.00  0.00     0.070 C 
ATOM      6  C   UNL     1      -7.682  91.917 -13.318  1.00  0.00     0.050 C 
ATOM      7  C   UNL     1      -6.266  91.701 -13.897  1.00  0.00     0.115 C 
ATOM      8  C   UNL     1      -5.744  92.279 -12.548  1.00  0.00     0.096 C 
ATOM      9  C   UNL     1      -4.696  91.302 -12.073  1.00  0.00     0.267 C 
ATOM     10  O   UNL     1      -4.504  90.341 -13.126  1.00  0.00    -0.342 OA
ATOM     11  O   UNL     1      -5.278  90.647 -10.968  1.00  0.00    -0.320 OA
ENDROOT
BRANCH   7  12
ATOM     12  O   UNL     1      -5.860  92.588 -14.961  1.00  0.00    -0.339 OA
BRANCH  12  13
ATOM     13  C   UNL     1      -6.323  92.273 -16.278  1.00  0.00     0.282 C 
ATOM     14  C   UNL     1      -5.147  91.847 -17.201  1.00  0.00     0.202 C 
ATOM     15  O   UNL     1      -7.041  93.409 -16.797  1.00  0.00    -0.341 OA
ATOM     16  C   UNL     1      -4.751  93.051 -18.064  1.00  0.00     0.179 C 
ATOM     17  C   UNL     1      -7.275  93.285 -18.201  1.00  0.00     0.178 C 
ATOM     18  C   UNL     1      -5.945  93.392 -19.001  1.00  0.00     0.177 C 
BRANCH  14  19
ATOM     19  O   UNL     1      -5.568  90.779 -18.032  1.00  0.00    -0.385 OA
ATOM     20  H   UNL     1      -5.554  89.940 -17.498  1.00  0.00     0.211 HD
ENDBRANCH  14  19
BRANCH  16  21
ATOM     21  O   UNL     1      -3.584  92.768 -18.798  1.00  0.00    -0.387 OA
ATOM     22  H   UNL     1      -3.899  92.315 -19.616  1.00  0.00     0.211 HD
ENDBRANCH  16  21
BRANCH  17  23
ATOM     23  C   UNL     1      -8.269  94.376 -18.645  1.00  0.00     0.191 C 
BRANCH  23  24
ATOM     24  O   UNL     1      -8.165  94.608 -20.024  1.00  0.00    -0.394 OA
ATOM     25  H   UNL     1      -8.644  95.468 -20.234  1.00  0.00     0.210 HD
ENDBRANCH  23  24
ENDBRANCH  17  23
BRANCH  18  26
ATOM     26  O   UNL     1      -6.003  92.508 -20.110  1.00  0.00    -0.387 OA
ATOM     27  H   UNL     1      -6.681  92.862 -20.737  1.00  0.00     0.211 HD
ENDBRANCH  18  26
ENDBRANCH  12  13
ENDBRANCH   7  12
BRANCH   4  28
ATOM     28  O   UNL     1      -7.426  90.072 -10.278  1.00  0.00    -0.365 OA
ATOM     29  H   UNL     1      -6.799  89.999  -9.520  1.00  0.00     0.214 HD
ENDBRANCH   4  28
BRANCH   8  30
ATOM     30  C   UNL     1      -5.429  93.792 -12.294  1.00  0.00     0.249 C 
BRANCH  30  31
ATOM     31  O   UNL     1      -4.056  93.897 -11.865  1.00  0.00    -0.461 OA
BRANCH  31  32
ATOM     32  C   UNL     1      -3.580  94.676 -10.800  1.00  0.00     0.338 C 
ATOM     33  O   UNL     1      -2.621  95.495 -10.965  1.00  0.00    -0.246 OA
BRANCH  32  34
ATOM     34  C   UNL     1      -4.174  94.464  -9.462  1.00  0.00     0.060 A 
ATOM     35  C   UNL     1      -4.085  93.233  -8.802  1.00  0.00     0.015 A 
ATOM     36  C   UNL     1      -4.976  95.483  -8.892  1.00  0.00     0.015 A 
ATOM     37  C   UNL     1      -4.881  92.974  -7.666  1.00  0.00     0.001 A 
ATOM     38  C   UNL     1      -5.806  95.221  -7.800  1.00  0.00     0.001 A 
ATOM     39  C   UNL     1      -5.773  93.951  -7.201  1.00  0.00     0.000 A 
ENDBRANCH  32  34
ENDBRANCH  31  32
ENDBRANCH  30  31
ENDBRANCH   8  30
TORSDOF 12
ENDMDL
MODEL 2
REMARK VINA RESULT:    -5.917      6.936     10.638
REMARK INTER + INTRA:         -10.846
REMARK INTER:                  -9.783
REMARK INTRA:                  -1.063
REMARK UNBOUND:                -1.642
REMARK SMILES C[C@@]12C[C@@]3(O)O[C@@H](O1)[C@]1(COC(=O)c4ccccc4)[C@H]3C[C@@]12O[C@H]1O[C@@H](CO)[C@H](O)[C@H](O)[C@@H]1O
REMARK SMILES IDX 1 1 2 2 3 3 4 4 20 5 21 6 22 7 9 8 7 9 8 10 6 11 23 12 24 13
REMARK SMILES IDX 33 14 25 15 31 16 26 17 29 18 34 19 32 21 27 23 28 24 30 26
REMARK SMILES IDX 5 28 10 30 11 31 12 32 13 33 14 34 15 35 19 36 16 37 18 38
REMARK SMILES IDX 17 39
REMARK H PARENT 34 20 32 22 28 25 30 27 5 29
REMARK Flexibility Score: inf
ROOT
ATOM      1  C   UNL     1      -5.377  82.722  -9.823  1.00  0.00     0.046 C 
ATOM      2  C   UNL     1      -5.078  83.952  -8.938  1.00  0.00     0.104 C 
ATOM      3  C   UNL     1      -3.525  83.858  -8.631  1.00  0.00     0.104 C 
ATOM      4  C   UNL     1      -3.212  85.075  -7.736  1.00  0.00     0.175 C 
ATOM      5  C   UNL     1      -4.225  85.110  -6.555  1.00  0.00     0.070 C 
ATOM      6  C   UNL     1      -5.060  83.815  -6.348  1.00  0.00     0.050 C 
ATOM      7  C   UNL     1      -5.904  84.212  -7.580  1.00  0.00     0.115 C 
ATOM      8  C   UNL     1      -5.416  85.666  -7.312  1.00  0.00     0.096 C 
ATOM      9  C   UNL     1      -4.917  86.173  -8.643  1.00  0.00     0.267 C 
ATOM     10  O   UNL     1      -5.243  85.174  -9.626  1.00  0.00    -0.342 OA
ATOM     11  O   UNL     1      -3.515  86.233  -8.512  1.00  0.00    -0.320 OA
ENDROOT
BRANCH   7  12
ATOM     12  O   UNL     1      -7.339  84.175  -7.420  1.00  0.00    -0.339 OA
BRANCH  12  13
ATOM     13  C   UNL     1      -8.042  83.144  -8.120  1.00  0.00     0.282 C 
ATOM     14  C   UNL     1      -8.950  83.739  -9.232  1.00  0.00     0.202 C 
ATOM     15  O   UNL     1      -8.787  82.365  -7.165  1.00  0.00    -0.341 OA
ATOM     16  C   UNL     1     -10.387  83.800  -8.699  1.00  0.00     0.179 C 
ATOM     17  C   UNL     1      -9.736  81.514  -7.809  1.00  0.00     0.178 C 
ATOM     18  C   UNL     1     -10.880  82.344  -8.459  1.00  0.00     0.177 C 
BRANCH  14  19
ATOM     19  O   UNL     1      -8.898  82.904 -10.376  1.00  0.00    -0.385 OA
ATOM     20  H   UNL     1      -8.887  81.956 -10.074  1.00  0.00     0.211 HD
ENDBRANCH  14  19
BRANCH  16  21
ATOM     21  O   UNL     1     -11.220  84.484  -9.605  1.00  0.00    -0.387 OA
ATOM     22  H   UNL     1     -10.849  85.397  -9.654  1.00  0.00     0.211 HD
ENDBRANCH  16  21
BRANCH  17  23
ATOM     23  C   UNL     1     -10.303  80.519  -6.777  1.00  0.00     0.191 C 
BRANCH  23  24
ATOM     24  O   UNL     1      -9.805  79.229  -7.010  1.00  0.00    -0.394 OA
ATOM     25  H   UNL     1      -9.948  78.682  -6.176  1.00  0.00     0.210 HD
ENDBRANCH  23  24
ENDBRANCH  17  23
BRANCH  18  26
ATOM     26  O   UNL     1     -11.266  81.721  -9.675  1.00  0.00    -0.387 OA
ATOM     27  H   UNL     1     -12.072  82.188 -10.005  1.00  0.00     0.211 HD
ENDBRANCH  18  26
ENDBRANCH  12  13
ENDBRANCH   7  12
BRANCH   4  28
ATOM     28  O   UNL     1      -1.875  85.101  -7.308  1.00  0.00    -0.365 OA
ATOM     29  H   UNL     1      -1.620  86.054  -7.321  1.00  0.00     0.214 HD
ENDBRANCH   4  28
BRANCH   8  30
ATOM     30  C   UNL     1      -6.181  86.710  -6.429  1.00  0.00     0.249 C 
BRANCH  30  31
ATOM     31  O   UNL     1      -6.005  88.012  -7.023  1.00  0.00    -0.461 OA
BRANCH  31  32
ATOM     32  C   UNL     1      -4.900  88.858  -6.848  1.00  0.00     0.338 C 
ATOM     33  O   UNL     1      -4.097  88.695  -5.875  1.00  0.00    -0.246 OA
BRANCH  32  34
ATOM     34  C   UNL     1      -4.736  89.992  -7.784  1.00  0.00     0.060 A 
ATOM     35  C   UNL     1      -4.238  91.230  -7.362  1.00  0.00     0.015 A 
ATOM     36  C   UNL     1      -5.224  89.872  -9.108  1.00  0.00     0.015 A 
ATOM     37  C   UNL     1      -4.345  92.363  -8.197  1.00  0.00     0.001 A 
ATOM     38  C   UNL     1      -5.381  90.995  -9.923  1.00  0.00     0.001 A 
ATOM     39  C   UNL     1      -4.960  92.250  -9.452  1.00  0.00     0.000 A 
ENDBRANCH  32  34
ENDBRANCH  31  32
ENDBRANCH  30  31
ENDBRANCH   8  30
TORSDOF 12
ENDMDL
MODEL 3
REMARK VINA RESULT:    -5.786      2.386      3.771
REMARK INTER + INTRA:         -10.641
REMARK INTER:                  -8.816
REMARK INTRA:                  -1.826
REMARK UNBOUND:                -1.642
REMARK SMILES C[C@@]12C[C@@]3(O)O[C@@H](O1)[C@]1(COC(=O)c4ccccc4)[C@H]3C[C@@]12O[C@H]1O[C@@H](CO)[C@H](O)[C@H](O)[C@@H]1O
REMARK SMILES IDX 1 1 2 2 3 3 4 4 20 5 21 6 22 7 9 8 7 9 8 10 6 11 23 12 24 13
REMARK SMILES IDX 33 14 25 15 31 16 26 17 29 18 34 19 32 21 27 23 28 24 30 26
REMARK SMILES IDX 5 28 10 30 11 31 12 32 13 33 14 34 15 35 19 36 16 37 18 38
REMARK SMILES IDX 17 39
REMARK H PARENT 34 20 32 22 28 25 30 27 5 29
REMARK Flexibility Score: inf
ROOT
ATOM      1  C   UNL     1      -8.352  88.243 -14.126  1.00  0.00     0.046 C 
ATOM      2  C   UNL     1      -8.761  89.273 -13.049  1.00  0.00     0.104 C 
ATOM      3  C   UNL     1     -10.345  89.281 -13.081  1.00  0.00     0.104 C 
ATOM      4  C   UNL     1     -10.770  90.315 -12.018  1.00  0.00     0.175 C 
ATOM      5  C   UNL     1      -9.993  91.642 -12.263  1.00  0.00     0.070 C 
ATOM      6  C   UNL     1      -9.264  91.750 -13.631  1.00  0.00     0.050 C 
ATOM      7  C   UNL     1      -8.191  90.779 -13.090  1.00  0.00     0.115 C 
ATOM      8  C   UNL     1      -8.661  91.221 -11.672  1.00  0.00     0.096 C 
ATOM      9  C   UNL     1      -8.883  89.939 -10.907  1.00  0.00     0.267 C 
ATOM     10  O   UNL     1      -8.421  88.861 -11.742  1.00  0.00    -0.342 OA
ATOM     11  O   UNL     1     -10.282  89.830 -10.768  1.00  0.00    -0.320 OA
ENDROOT
BRANCH   7  12
ATOM     12  O   UNL     1      -6.813  91.179 -13.259  1.00  0.00    -0.339 OA
BRANCH  12  13
ATOM     13  C   UNL     1      -6.267  91.077 -14.578  1.00  0.00     0.282 C 
ATOM     14  C   UNL     1      -5.106  90.045 -14.627  1.00  0.00     0.202 C 
ATOM     15  O   UNL     1      -5.851  92.388 -15.006  1.00  0.00    -0.341 OA
ATOM     16  C   UNL     1      -3.778  90.810 -14.572  1.00  0.00     0.179 C 
ATOM     17  C   UNL     1      -5.035  92.323 -16.176  1.00  0.00     0.178 C 
ATOM     18  C   UNL     1      -3.658  91.671 -15.862  1.00  0.00     0.177 C 
BRANCH  14  19
ATOM     19  O   UNL     1      -5.185  89.308 -15.835  1.00  0.00    -0.385 OA
ATOM     20  H   UNL     1      -6.086  88.890 -15.891  1.00  0.00     0.211 HD
ENDBRANCH  14  19
BRANCH  16  21
ATOM     21  O   UNL     1      -2.699  89.916 -14.446  1.00  0.00    -0.387 OA
ATOM     22  H   UNL     1      -1.900  90.441 -14.691  1.00  0.00     0.211 HD
ENDBRANCH  16  21
BRANCH  17  23
ATOM     23  C   UNL     1      -4.849  93.745 -16.742  1.00  0.00     0.191 C 
BRANCH  23  24
ATOM     24  O   UNL     1      -3.724  93.802 -17.576  1.00  0.00    -0.394 OA
ATOM     25  H   UNL     1      -3.208  94.636 -17.349  1.00  0.00     0.210 HD
ENDBRANCH  23  24
ENDBRANCH  17  23
BRANCH  18  26
ATOM     26  O   UNL     1      -3.257  90.885 -16.974  1.00  0.00    -0.387 OA
ATOM     27  H   UNL     1      -2.293  91.047 -17.120  1.00  0.00     0.211 HD
ENDBRANCH  18  26
ENDBRANCH  12  13
ENDBRANCH   7  12
BRANCH   4  28
ATOM     28  O   UNL     1     -12.161  90.500 -11.969  1.00  0.00    -0.365 OA
ATOM     29  H   UNL     1     -12.443  90.580 -12.911  1.00  0.00     0.214 HD
ENDBRANCH   4  28
BRANCH   8  30
ATOM     30  C   UNL     1      -8.032  92.400 -10.856  1.00  0.00     0.249 C 
BRANCH  30  31
ATOM     31  O   UNL     1      -7.199  91.835  -9.824  1.00  0.00    -0.461 OA
BRANCH  31  32
ATOM     32  C   UNL     1      -5.849  91.478  -9.953  1.00  0.00     0.338 C 
ATOM     33  O   UNL     1      -5.477  90.267  -9.836  1.00  0.00    -0.246 OA
BRANCH  32  34
ATOM     34  C   UNL     1      -4.859  92.558 -10.156  1.00  0.00     0.060 A 
ATOM     35  C   UNL     1      -4.415  93.360  -9.097  1.00  0.00     0.015 A 
ATOM     36  C   UNL     1      -4.453  92.887 -11.472  1.00  0.00     0.015 A 
ATOM     37  C   UNL     1      -3.690  94.543  -9.355  1.00  0.00     0.001 A 
ATOM     38  C   UNL     1      -3.781  94.080 -11.742  1.00  0.00     0.001 A 
ATOM     39  C   UNL     1      -3.420  94.922 -10.677  1.00  0.00     0.000 A 
ENDBRANCH  32  34
ENDBRANCH  31  32
ENDBRANCH  30  31
ENDBRANCH   8  30
TORSDOF 12
ENDMDL
MODEL 4
REMARK VINA RESULT:    -5.754      1.980      3.016
REMARK INTER + INTRA:         -10.592
REMARK INTER:                  -9.430
REMARK INTRA:                  -1.163
REMARK UNBOUND:                -1.642
REMARK SMILES C[C@@]12C[C@@]3(O)O[C@@H](O1)[C@]1(COC(=O)c4ccccc4)[C@H]3C[C@@]12O[C@H]1O[C@@H](CO)[C@H](O)[C@H](O)[C@@H]1O
REMARK SMILES IDX 1 1 2 2 3 3 4 4 20 5 21 6 22 7 9 8 7 9 8 10 6 11 23 12 24 13
REMARK SMILES IDX 33 14 25 15 31 16 26 17 29 18 34 19 32 21 27 23 28 24 30 26
REMARK SMILES IDX 5 28 10 30 11 31 12 32 13 33 14 34 15 35 19 36 16 37 18 38
REMARK SMILES IDX 17 39
REMARK H PARENT 34 20 32 22 28 25 30 27 5 29
REMARK Flexibility Score: inf
ROOT
ATOM      1  C   UNL     1      -9.142  88.960 -13.897  1.00  0.00     0.046 C 
ATOM      2  C   UNL     1      -8.353  89.416 -12.650  1.00  0.00     0.104 C 
ATOM      3  C   UNL     1      -9.307  89.087 -11.428  1.00  0.00     0.104 C 
ATOM      4  C   UNL     1      -8.538  89.549 -10.174  1.00  0.00     0.175 C 
ATOM      5  C   UNL     1      -8.046  91.009 -10.389  1.00  0.00     0.070 C 
ATOM      6  C   UNL     1      -8.681  91.761 -11.592  1.00  0.00     0.050 C 
ATOM      7  C   UNL     1      -7.790  90.920 -12.534  1.00  0.00     0.115 C 
ATOM      8  C   UNL     1      -6.869  90.706 -11.297  1.00  0.00     0.096 C 
ATOM      9  C   UNL     1      -6.616  89.220 -11.239  1.00  0.00     0.267 C 
ATOM     10  O   UNL     1      -7.191  88.645 -12.427  1.00  0.00    -0.342 OA
ATOM     11  O   UNL     1      -7.347  88.765 -10.122  1.00  0.00    -0.320 OA
ENDROOT
BRANCH   7  12
ATOM     12  O   UNL     1      -7.046  91.645 -13.537  1.00  0.00    -0.339 OA
BRANCH  12  13
ATOM     13  C   UNL     1      -6.620  90.907 -14.687  1.00  0.00     0.282 C 
ATOM     14  C   UNL     1      -5.185  90.342 -14.491  1.00  0.00     0.202 C 
ATOM     15  O   UNL     1      -6.719  91.759 -15.844  1.00  0.00    -0.341 OA
ATOM     16  C   UNL     1      -4.201  91.266 -15.220  1.00  0.00     0.179 C 
ATOM     17  C   UNL     1      -6.040  91.197 -16.968  1.00  0.00     0.178 C 
ATOM     18  C   UNL     1      -4.500  91.191 -16.745  1.00  0.00     0.177 C 
BRANCH  14  19
ATOM     19  O   UNL     1      -5.116  89.038 -15.042  1.00  0.00    -0.385 OA
ATOM     20  H   UNL     1      -4.202  88.677 -14.883  1.00  0.00     0.211 HD
ENDBRANCH  14  19
BRANCH  16  21
ATOM     21  O   UNL     1      -2.873  90.893 -14.936  1.00  0.00    -0.387 OA
ATOM     22  H   UNL     1      -2.943  90.014 -14.493  1.00  0.00     0.211 HD
ENDBRANCH  16  21
BRANCH  17  23
ATOM     23  C   UNL     1      -6.405  92.001 -18.231  1.00  0.00     0.191 C 
BRANCH  23  24
ATOM     24  O   UNL     1      -6.116  91.263 -19.388  1.00  0.00    -0.394 OA
ATOM     25  H   UNL     1      -6.227  90.286 -19.172  1.00  0.00     0.210 HD
ENDBRANCH  23  24
ENDBRANCH  17  23
BRANCH  18  26
ATOM     26  O   UNL     1      -3.956  90.014 -17.323  1.00  0.00    -0.387 OA
ATOM     27  H   UNL     1      -4.158  89.263 -16.712  1.00  0.00     0.211 HD
ENDBRANCH  18  26
ENDBRANCH  12  13
ENDBRANCH   7  12
BRANCH   4  28
ATOM     28  O   UNL     1      -9.284  89.394  -8.994  1.00  0.00    -0.365 OA
ATOM     29  H   UNL     1      -9.250  90.275  -8.551  1.00  0.00     0.214 HD
ENDBRANCH   4  28
BRANCH   8  30
ATOM     30  C   UNL     1      -5.651  91.619 -10.929  1.00  0.00     0.249 C 
BRANCH  30  31
ATOM     31  O   UNL     1      -4.834  90.912  -9.975  1.00  0.00    -0.461 OA
BRANCH  31  32
ATOM     32  C   UNL     1      -4.465  91.370  -8.702  1.00  0.00     0.338 C 
ATOM     33  O   UNL     1      -4.031  90.565  -7.816  1.00  0.00    -0.246 OA
BRANCH  32  34
ATOM     34  C   UNL     1      -4.661  92.802  -8.393  1.00  0.00     0.060 A 
ATOM     35  C   UNL     1      -5.597  93.230  -7.442  1.00  0.00     0.015 A 
ATOM     36  C   UNL     1      -3.994  93.777  -9.173  1.00  0.00     0.015 A 
ATOM     37  C   UNL     1      -5.958  94.591  -7.360  1.00  0.00     0.001 A 
ATOM     38  C   UNL     1      -4.380  95.118  -9.136  1.00  0.00     0.001 A 
ATOM     39  C   UNL     1      -5.385  95.520  -8.240  1.00  0.00     0.000 A 
ENDBRANCH  32  34
ENDBRANCH  31  32
ENDBRANCH  30  31
ENDBRANCH   8  30
TORSDOF 12
ENDMDL
MODEL 5
REMARK VINA RESULT:    -5.728      6.951     10.929
REMARK INTER + INTRA:         -10.552
REMARK INTER:                  -8.952
REMARK INTRA:                  -1.600
REMARK UNBOUND:                -1.642
REMARK SMILES C[C@@]12C[C@@]3(O)O[C@@H](O1)[C@]1(COC(=O)c4ccccc4)[C@H]3C[C@@]12O[C@H]1O[C@@H](CO)[C@H](O)[C@H](O)[C@@H]1O
REMARK SMILES IDX 1 1 2 2 3 3 4 4 20 5 21 6 22 7 9 8 7 9 8 10 6 11 23 12 24 13
REMARK SMILES IDX 33 14 25 15 31 16 26 17 29 18 34 19 32 21 27 23 28 24 30 26
REMARK SMILES IDX 5 28 10 30 11 31 12 32 13 33 14 34 15 35 19 36 16 37 18 38
REMARK SMILES IDX 17 39
REMARK H PARENT 34 20 32 22 28 25 30 27 5 29
REMARK Flexibility Score: inf
ROOT
ATOM      1  C   UNL     1      -5.304  82.759  -9.895  1.00  0.00     0.046 C 
ATOM      2  C   UNL     1      -5.006  83.934  -8.937  1.00  0.00     0.104 C 
ATOM      3  C   UNL     1      -3.488  83.742  -8.525  1.00  0.00     0.104 C 
ATOM      4  C   UNL     1      -3.177  84.902  -7.558  1.00  0.00     0.175 C 
ATOM      5  C   UNL     1      -4.271  84.947  -6.452  1.00  0.00     0.070 C 
ATOM      6  C   UNL     1      -5.185  83.694  -6.361  1.00  0.00     0.050 C 
ATOM      7  C   UNL     1      -5.915  84.186  -7.632  1.00  0.00     0.115 C 
ATOM      8  C   UNL     1      -5.372  85.599  -7.266  1.00  0.00     0.096 C 
ATOM      9  C   UNL     1      -4.751  86.129  -8.535  1.00  0.00     0.267 C 
ATOM     10  O   UNL     1      -5.056  85.189  -9.581  1.00  0.00    -0.342 OA
ATOM     11  O   UNL     1      -3.360  86.106  -8.303  1.00  0.00    -0.320 OA
ENDROOT
BRANCH   7  12
ATOM     12  O   UNL     1      -7.358  84.223  -7.576  1.00  0.00    -0.339 OA
BRANCH  12  13
ATOM     13  C   UNL     1      -8.057  83.130  -8.180  1.00  0.00     0.282 C 
ATOM     14  C   UNL     1      -9.065  83.633  -9.252  1.00  0.00     0.202 C 
ATOM     15  O   UNL     1      -8.699  82.364  -7.143  1.00  0.00    -0.341 OA
ATOM     16  C   UNL     1     -10.464  83.655  -8.624  1.00  0.00     0.179 C 
ATOM     17  C   UNL     1      -9.648  81.443  -7.682  1.00  0.00     0.178 C 
ATOM     18  C   UNL     1     -10.870  82.192  -8.288  1.00  0.00     0.177 C 
BRANCH  14  19
ATOM     19  O   UNL     1      -9.051  82.748 -10.359  1.00  0.00    -0.385 OA
ATOM     20  H   UNL     1      -9.958  82.743 -10.769  1.00  0.00     0.211 HD
ENDBRANCH  14  19
BRANCH  16  21
ATOM     21  O   UNL     1     -11.387  84.259  -9.499  1.00  0.00    -0.387 OA
ATOM     22  H   UNL     1     -11.037  84.079 -10.404  1.00  0.00     0.211 HD
ENDBRANCH  16  21
BRANCH  17  23
ATOM     23  C   UNL     1     -10.097  80.473  -6.572  1.00  0.00     0.191 C 
BRANCH  23  24
ATOM     24  O   UNL     1     -11.228  79.750  -6.976  1.00  0.00    -0.394 OA
ATOM     25  H   UNL     1     -10.938  79.072  -7.662  1.00  0.00     0.210 HD
ENDBRANCH  23  24
ENDBRANCH  17  23
BRANCH  18  26
ATOM     26  O   UNL     1     -11.308  81.496  -9.446  1.00  0.00    -0.387 OA
ATOM     27  H   UNL     1     -12.145  81.026  -9.210  1.00  0.00     0.211 HD
ENDBRANCH  18  26
ENDBRANCH  12  13
ENDBRANCH   7  12
BRANCH   4  28
ATOM     28  O   UNL     1      -1.876  84.837  -7.035  1.00  0.00    -0.365 OA
ATOM     29  H   UNL     1      -1.507  85.745  -7.150  1.00  0.00     0.214 HD
ENDBRANCH   4  28
BRANCH   8  30
ATOM     30  C   UNL     1      -6.143  86.648  -6.395  1.00  0.00     0.249 C 
BRANCH  30  31
ATOM     31  O   UNL     1      -6.038  87.931  -7.044  1.00  0.00    -0.461 OA
BRANCH  31  32
ATOM     32  C   UNL     1      -7.094  88.663  -7.607  1.00  0.00     0.338 C 
ATOM     33  O   UNL     1      -8.085  89.032  -6.899  1.00  0.00    -0.246 OA
BRANCH  32  34
ATOM     34  C   UNL     1      -7.060  88.929  -9.061  1.00  0.00     0.060 A 
ATOM     35  C   UNL     1      -7.435  87.958  -9.997  1.00  0.00     0.015 A 
ATOM     36  C   UNL     1      -6.501  90.143  -9.529  1.00  0.00     0.015 A 
ATOM     37  C   UNL     1      -7.139  88.136 -11.365  1.00  0.00     0.001 A 
ATOM     38  C   UNL     1      -6.158  90.308 -10.872  1.00  0.00     0.001 A 
ATOM     39  C   UNL     1      -6.459  89.286 -11.789  1.00  0.00     0.000 A 
ENDBRANCH  32  34
ENDBRANCH  31  32
ENDBRANCH  30  31
ENDBRANCH   8  30
TORSDOF 12
ENDMDL
MODEL 6
REMARK VINA RESULT:    -5.639      1.854      2.815
REMARK INTER + INTRA:         -10.413
REMARK INTER:                  -8.565
REMARK INTRA:                  -1.848
REMARK UNBOUND:                -1.642
REMARK SMILES C[C@@]12C[C@@]3(O)O[C@@H](O1)[C@]1(COC(=O)c4ccccc4)[C@H]3C[C@@]12O[C@H]1O[C@@H](CO)[C@H](O)[C@H](O)[C@@H]1O
REMARK SMILES IDX 1 1 2 2 3 3 4 4 20 5 21 6 22 7 9 8 7 9 8 10 6 11 23 12 24 13
REMARK SMILES IDX 33 14 25 15 31 16 26 17 29 18 34 19 32 21 27 23 28 24 30 26
REMARK SMILES IDX 5 28 10 30 11 31 12 32 13 33 14 34 15 35 19 36 16 37 18 38
REMARK SMILES IDX 17 39
REMARK H PARENT 34 20 32 22 28 25 30 27 5 29
REMARK Flexibility Score: inf
ROOT
ATOM      1  C   UNL     1      -5.169  89.128 -14.189  1.00  0.00     0.046 C 
ATOM      2  C   UNL     1      -6.055  89.753 -13.088  1.00  0.00     0.104 C 
ATOM      3  C   UNL     1      -6.363  88.558 -12.094  1.00  0.00     0.104 C 
ATOM      4  C   UNL     1      -7.258  89.163 -10.994  1.00  0.00     0.175 C 
ATOM      5  C   UNL     1      -8.439  89.925 -11.663  1.00  0.00     0.070 C 
ATOM      6  C   UNL     1      -8.645  89.646 -13.178  1.00  0.00     0.050 C 
ATOM      7  C   UNL     1      -7.412  90.533 -13.466  1.00  0.00     0.115 C 
ATOM      8  C   UNL     1      -7.682  91.174 -12.072  1.00  0.00     0.096 C 
ATOM      9  C   UNL     1      -6.351  91.157 -11.361  1.00  0.00     0.267 C 
ATOM     10  O   UNL     1      -5.367  90.710 -12.311  1.00  0.00    -0.342 OA
ATOM     11  O   UNL     1      -6.483  90.177 -10.356  1.00  0.00    -0.320 OA
ENDROOT
BRANCH   7  12
ATOM     12  O   UNL     1      -7.572  91.553 -14.476  1.00  0.00    -0.339 OA
BRANCH  12  13
ATOM     13  C   UNL     1      -6.418  91.874 -15.260  1.00  0.00     0.282 C 
ATOM     14  C   UNL     1      -5.705  93.143 -14.716  1.00  0.00     0.202 C 
ATOM     15  O   UNL     1      -6.822  92.020 -16.634  1.00  0.00    -0.341 OA
ATOM     16  C   UNL     1      -6.125  94.339 -15.580  1.00  0.00     0.179 C 
ATOM     17  C   UNL     1      -5.794  92.624 -17.422  1.00  0.00     0.178 C 
ATOM     18  C   UNL     1      -5.586  94.112 -17.021  1.00  0.00     0.177 C 
BRANCH  14  19
ATOM     19  O   UNL     1      -4.301  92.963 -14.799  1.00  0.00    -0.385 OA
ATOM     20  H   UNL     1      -3.905  93.772 -15.223  1.00  0.00     0.211 HD
ENDBRANCH  14  19
BRANCH  16  21
ATOM     21  O   UNL     1      -5.639  95.539 -15.029  1.00  0.00    -0.387 OA
ATOM     22  H   UNL     1      -6.333  96.212 -15.229  1.00  0.00     0.211 HD
ENDBRANCH  16  21
BRANCH  17  23
ATOM     23  C   UNL     1      -6.166  92.506 -18.913  1.00  0.00     0.191 C 
BRANCH  23  24
ATOM     24  O   UNL     1      -6.190  91.162 -19.312  1.00  0.00    -0.394 OA
ATOM     25  H   UNL     1      -5.839  90.603 -18.551  1.00  0.00     0.210 HD
ENDBRANCH  23  24
ENDBRANCH  17  23
BRANCH  18  26
ATOM     26  O   UNL     1      -4.204  94.424 -17.112  1.00  0.00    -0.387 OA
ATOM     27  H   UNL     1      -4.025  94.713 -18.041  1.00  0.00     0.211 HD
ENDBRANCH  18  26
ENDBRANCH  12  13
ENDBRANCH   7  12
BRANCH   4  28
ATOM     28  O   UNL     1      -7.688  88.207 -10.059  1.00  0.00    -0.365 OA
ATOM     29  H   UNL     1      -8.405  87.706 -10.515  1.00  0.00     0.214 HD
ENDBRANCH   4  28
BRANCH   8  30
ATOM     30  C   UNL     1      -8.565  92.446 -11.836  1.00  0.00     0.249 C 
BRANCH  30  31
ATOM     31  O   UNL     1      -7.812  93.368 -11.022  1.00  0.00    -0.461 OA
BRANCH  31  32
ATOM     32  C   UNL     1      -7.072  94.465 -11.485  1.00  0.00     0.338 C 
ATOM     33  O   UNL     1      -7.490  95.175 -12.455  1.00  0.00    -0.246 OA
BRANCH  32  34
ATOM     34  C   UNL     1      -5.757  94.732 -10.862  1.00  0.00     0.060 A 
ATOM     35  C   UNL     1      -4.617  94.993 -11.631  1.00  0.00     0.015 A 
ATOM     36  C   UNL     1      -5.612  94.581  -9.462  1.00  0.00     0.015 A 
ATOM     37  C   UNL     1      -3.337  94.973 -11.036  1.00  0.00     0.001 A 
ATOM     38  C   UNL     1      -4.348  94.509  -8.872  1.00  0.00     0.001 A 
ATOM     39  C   UNL     1      -3.205  94.683  -9.671  1.00  0.00     0.000 A 
ENDBRANCH  32  34
ENDBRANCH  31  32
ENDBRANCH  30  31
ENDBRANCH   8  30
TORSDOF 12
ENDMDL
MODEL 7
REMARK VINA RESULT:    -5.554      3.211      7.323
REMARK INTER + INTRA:         -10.281
REMARK INTER:                  -9.024
REMARK INTRA:                  -1.258
REMARK UNBOUND:                -1.642
REMARK SMILES C[C@@]12C[C@@]3(O)O[C@@H](O1)[C@]1(COC(=O)c4ccccc4)[C@H]3C[C@@]12O[C@H]1O[C@@H](CO)[C@H](O)[C@H](O)[C@@H]1O
REMARK SMILES IDX 1 1 2 2 3 3 4 4 20 5 21 6 22 7 9 8 7 9 8 10 6 11 23 12 24 13
REMARK SMILES IDX 33 14 25 15 31 16 26 17 29 18 34 19 32 21 27 23 28 24 30 26
REMARK SMILES IDX 5 28 10 30 11 31 12 32 13 33 14 34 15 35 19 36 16 37 18 38
REMARK SMILES IDX 17 39
REMARK H PARENT 34 20 32 22 28 25 30 27 5 29
REMARK Flexibility Score: inf
ROOT
ATOM      1  C   UNL     1      -6.406  89.726 -11.543  1.00  0.00     0.046 C 
ATOM      2  C   UNL     1      -5.895  90.759 -12.573  1.00  0.00     0.104 C 
ATOM      3  C   UNL     1      -4.867  91.656 -11.766  1.00  0.00     0.104 C 
ATOM      4  C   UNL     1      -4.356  92.702 -12.778  1.00  0.00     0.175 C 
ATOM      5  C   UNL     1      -5.576  93.373 -13.474  1.00  0.00     0.070 C 
ATOM      6  C   UNL     1      -6.955  93.114 -12.806  1.00  0.00     0.050 C 
ATOM      7  C   UNL     1      -6.926  91.685 -13.393  1.00  0.00     0.115 C 
ATOM      8  C   UNL     1      -5.916  92.251 -14.436  1.00  0.00     0.096 C 
ATOM      9  C   UNL     1      -4.759  91.282 -14.439  1.00  0.00     0.267 C 
ATOM     10  O   UNL     1      -5.135  90.170 -13.607  1.00  0.00    -0.342 OA
ATOM     11  O   UNL     1      -3.700  91.971 -13.814  1.00  0.00    -0.320 OA
ENDROOT
BRANCH   7  12
ATOM     12  O   UNL     1      -8.110  91.250 -14.095  1.00  0.00    -0.339 OA
BRANCH  12  13
ATOM     13  C   UNL     1      -9.218  90.825 -13.294  1.00  0.00     0.282 C 
ATOM     14  C   UNL     1      -9.640  89.371 -13.645  1.00  0.00     0.202 C 
ATOM     15  O   UNL     1     -10.296  91.764 -13.465  1.00  0.00    -0.341 OA
ATOM     16  C   UNL     1     -10.857  89.435 -14.576  1.00  0.00     0.179 C 
ATOM     17  C   UNL     1     -11.523  91.256 -12.937  1.00  0.00     0.178 C 
ATOM     18  C   UNL     1     -12.042  90.060 -13.786  1.00  0.00     0.177 C 
BRANCH  14  19
ATOM     19  O   UNL     1      -9.983  88.682 -12.454  1.00  0.00    -0.385 OA
ATOM     20  H   UNL     1     -10.833  88.189 -12.610  1.00  0.00     0.211 HD
ENDBRANCH  14  19
BRANCH  16  21
ATOM     21  O   UNL     1     -11.177  88.151 -15.056  1.00  0.00    -0.387 OA
ATOM     22  H   UNL     1     -10.309  87.734 -15.271  1.00  0.00     0.211 HD
ENDBRANCH  16  21
BRANCH  17  23
ATOM     23  C   UNL     1     -12.564  92.391 -12.898  1.00  0.00     0.191 C 
BRANCH  23  24
ATOM     24  O   UNL     1     -13.839  91.904 -13.222  1.00  0.00    -0.394 OA
ATOM     25  H   UNL     1     -13.751  91.310 -14.030  1.00  0.00     0.210 HD
ENDBRANCH  23  24
ENDBRANCH  17  23
BRANCH  18  26
ATOM     26  O   UNL     1     -12.647  89.110 -12.920  1.00  0.00    -0.387 OA
ATOM     27  H   UNL     1     -13.569  89.417 -12.741  1.00  0.00     0.211 HD
ENDBRANCH  18  26
ENDBRANCH  12  13
ENDBRANCH   7  12
BRANCH   4  28
ATOM     28  O   UNL     1      -3.480  93.633 -12.198  1.00  0.00    -0.365 OA
ATOM     29  H   UNL     1      -2.640  93.548 -12.708  1.00  0.00     0.214 HD
ENDBRANCH   4  28
BRANCH   8  30
ATOM     30  C   UNL     1      -6.318  92.836 -15.832  1.00  0.00     0.249 C 
BRANCH  30  31
ATOM     31  O   UNL     1      -5.228  92.599 -16.746  1.00  0.00    -0.461 OA
BRANCH  31  32
ATOM     32  C   UNL     1      -5.334  92.067 -18.039  1.00  0.00     0.338 C 
ATOM     33  O   UNL     1      -6.468  91.776 -18.537  1.00  0.00    -0.246 OA
BRANCH  32  34
ATOM     34  C   UNL     1      -4.086  91.783 -18.781  1.00  0.00     0.060 A 
ATOM     35  C   UNL     1      -4.026  91.854 -20.178  1.00  0.00     0.015 A 
ATOM     36  C   UNL     1      -2.960  91.289 -18.078  1.00  0.00     0.015 A 
ATOM     37  C   UNL     1      -2.918  91.322 -20.871  1.00  0.00     0.001 A 
ATOM     38  C   UNL     1      -1.883  90.713 -18.754  1.00  0.00     0.001 A 
ATOM     39  C   UNL     1      -1.877  90.710 -20.160  1.00  0.00     0.000 A 
ENDBRANCH  32  34
ENDBRANCH  31  32
ENDBRANCH  30  31
ENDBRANCH   8  30
TORSDOF 12
ENDMDL
MODEL 8
REMARK VINA RESULT:    -5.535      2.952      4.353
REMARK INTER + INTRA:         -10.251
REMARK INTER:                  -8.812
REMARK INTRA:                  -1.439
REMARK UNBOUND:                -1.642
REMARK SMILES C[C@@]12C[C@@]3(O)O[C@@H](O1)[C@]1(COC(=O)c4ccccc4)[C@H]3C[C@@]12O[C@H]1O[C@@H](CO)[C@H](O)[C@H](O)[C@@H]1O
REMARK SMILES IDX 1 1 2 2 3 3 4 4 20 5 21 6 22 7 9 8 7 9 8 10 6 11 23 12 24 13
REMARK SMILES IDX 33 14 25 15 31 16 26 17 29 18 34 19 32 21 27 23 28 24 30 26
REMARK SMILES IDX 5 28 10 30 11 31 12 32 13 33 14 34 15 35 19 36 16 37 18 38
REMARK SMILES IDX 17 39
REMARK H PARENT 34 20 32 22 28 25 30 27 5 29
REMARK Flexibility Score: inf
ROOT
ATOM      1  C   UNL     1      -9.254  88.999 -13.755  1.00  0.00     0.046 C 
ATOM      2  C   UNL     1      -8.608  89.339 -12.393  1.00  0.00     0.104 C 
ATOM      3  C   UNL     1      -9.760  89.104 -11.331  1.00  0.00     0.104 C 
ATOM      4  C   UNL     1      -9.134  89.452  -9.965  1.00  0.00     0.175 C 
ATOM      5  C   UNL     1      -8.454  90.848 -10.060  1.00  0.00     0.070 C 
ATOM      6  C   UNL     1      -8.819  91.688 -11.315  1.00  0.00     0.050 C 
ATOM      7  C   UNL     1      -7.902  90.766 -12.149  1.00  0.00     0.115 C 
ATOM      8  C   UNL     1      -7.200  90.425 -10.801  1.00  0.00     0.096 C 
ATOM      9  C   UNL     1      -7.128  88.919 -10.757  1.00  0.00     0.267 C 
ATOM     10  O   UNL     1      -7.586  88.435 -12.032  1.00  0.00    -0.342 OA
ATOM     11  O   UNL     1      -8.059  88.534  -9.770  1.00  0.00    -0.320 OA
ENDROOT
BRANCH   7  12
ATOM     12  O   UNL     1      -6.942  91.415 -13.011  1.00  0.00    -0.339 OA
BRANCH  12  13
ATOM     13  C   UNL     1      -6.676  90.789 -14.270  1.00  0.00     0.282 C 
ATOM     14  C   UNL     1      -5.341  89.994 -14.231  1.00  0.00     0.202 C 
ATOM     15  O   UNL     1      -6.680  91.800 -15.296  1.00  0.00    -0.341 OA
ATOM     16  C   UNL     1      -4.250  90.852 -14.883  1.00  0.00     0.179 C 
ATOM     17  C   UNL     1      -6.135  91.306 -16.521  1.00  0.00     0.178 C 
ATOM     18  C   UNL     1      -4.609  91.037 -16.385  1.00  0.00     0.177 C 
BRANCH  14  19
ATOM     19  O   UNL     1      -5.495  88.784 -14.954  1.00  0.00    -0.385 OA
ATOM     20  H   UNL     1      -6.460  88.541 -14.958  1.00  0.00     0.211 HD
ENDBRANCH  14  19
BRANCH  16  21
ATOM     21  O   UNL     1      -2.988  90.247 -14.725  1.00  0.00    -0.387 OA
ATOM     22  H   UNL     1      -2.947  89.554 -15.426  1.00  0.00     0.211 HD
ENDBRANCH  16  21
BRANCH  17  23
ATOM     23  C   UNL     1      -6.412  92.325 -17.644  1.00  0.00     0.191 C 
BRANCH  23  24
ATOM     24  O   UNL     1      -6.407  91.694 -18.896  1.00  0.00    -0.394 OA
ATOM     25  H   UNL     1      -5.464  91.401 -19.096  1.00  0.00     0.210 HD
ENDBRANCH  23  24
ENDBRANCH  17  23
BRANCH  18  26
ATOM     26  O   UNL     1      -4.275  89.885 -17.144  1.00  0.00    -0.387 OA
ATOM     27  H   UNL     1      -5.072  89.300 -17.161  1.00  0.00     0.211 HD
ENDBRANCH  18  26
ENDBRANCH  12  13
ENDBRANCH   7  12
BRANCH   4  28
ATOM     28  O   UNL     1     -10.056  89.366  -8.909  1.00  0.00    -0.365 OA
ATOM     29  H   UNL     1     -10.638  90.156  -9.012  1.00  0.00     0.214 HD
ENDBRANCH   4  28
BRANCH   8  30
ATOM     30  C   UNL     1      -5.952  91.184 -10.234  1.00  0.00     0.249 C 
BRANCH  30  31
ATOM     31  O   UNL     1      -5.055  90.207  -9.668  1.00  0.00    -0.461 OA
BRANCH  31  32
ATOM     32  C   UNL     1      -4.500  90.242  -8.380  1.00  0.00     0.338 C 
ATOM     33  O   UNL     1      -4.127  91.341  -7.858  1.00  0.00    -0.246 OA
BRANCH  32  34
ATOM     34  C   UNL     1      -4.292  88.959  -7.676  1.00  0.00     0.060 A 
ATOM     35  C   UNL     1      -3.377  88.835  -6.623  1.00  0.00     0.015 A 
ATOM     36  C   UNL     1      -4.925  87.790  -8.165  1.00  0.00     0.015 A 
ATOM     37  C   UNL     1      -3.000  87.559  -6.153  1.00  0.00     0.001 A 
ATOM     38  C   UNL     1      -4.522  86.522  -7.744  1.00  0.00     0.001 A 
ATOM     39  C   UNL     1      -3.536  86.409  -6.748  1.00  0.00     0.000 A 
ENDBRANCH  32  34
ENDBRANCH  31  32
ENDBRANCH  30  31
ENDBRANCH   8  30
TORSDOF 12
ENDMDL
MODEL 9
REMARK VINA RESULT:    -5.488      3.981      8.629
REMARK INTER + INTRA:         -10.178
REMARK INTER:                  -8.725
REMARK INTRA:                  -1.453
REMARK UNBOUND:                -1.642
REMARK SMILES C[C@@]12C[C@@]3(O)O[C@@H](O1)[C@]1(COC(=O)c4ccccc4)[C@H]3C[C@@]12O[C@H]1O[C@@H](CO)[C@H](O)[C@H](O)[C@@H]1O
REMARK SMILES IDX 1 1 2 2 3 3 4 4 20 5 21 6 22 7 9 8 7 9 8 10 6 11 23 12 24 13
REMARK SMILES IDX 33 14 25 15 31 16 26 17 29 18 34 19 32 21 27 23 28 24 30 26
REMARK SMILES IDX 5 28 10 30 11 31 12 32 13 33 14 34 15 35 19 36 16 37 18 38
REMARK SMILES IDX 17 39
REMARK H PARENT 34 20 32 22 28 25 30 27 5 29
REMARK Flexibility Score: inf
ROOT
ATOM      1  C   UNL     1      -3.755  89.646  -6.629  1.00  0.00     0.046 C 
ATOM      2  C   UNL     1      -4.658  90.396  -7.633  1.00  0.00     0.104 C 
ATOM      3  C   UNL     1      -4.582  91.914  -7.186  1.00  0.00     0.104 C 
ATOM      4  C   UNL     1      -5.490  92.676  -8.173  1.00  0.00     0.175 C 
ATOM      5  C   UNL     1      -6.873  91.967  -8.241  1.00  0.00     0.070 C 
ATOM      6  C   UNL     1      -7.146  90.921  -7.124  1.00  0.00     0.050 C 
ATOM      7  C   UNL     1      -6.190  89.952  -7.855  1.00  0.00     0.115 C 
ATOM      8  C   UNL     1      -6.474  90.804  -9.128  1.00  0.00     0.096 C 
ATOM      9  C   UNL     1      -5.117  91.116  -9.710  1.00  0.00     0.267 C 
ATOM     10  O   UNL     1      -4.147  90.374  -8.949  1.00  0.00    -0.342 OA
ATOM     11  O   UNL     1      -4.920  92.492  -9.468  1.00  0.00    -0.320 OA
ENDROOT
BRANCH   7  12
ATOM     12  O   UNL     1      -6.678  88.612  -8.085  1.00  0.00    -0.339 OA
BRANCH  12  13
ATOM     13  C   UNL     1      -5.854  87.750  -8.876  1.00  0.00     0.282 C 
ATOM     14  C   UNL     1      -6.708  86.905  -9.862  1.00  0.00     0.202 C 
ATOM     15  O   UNL     1      -5.067  86.929  -7.993  1.00  0.00    -0.341 OA
ATOM     16  C   UNL     1      -6.896  85.507  -9.260  1.00  0.00     0.179 C 
ATOM     17  C   UNL     1      -4.445  85.850  -8.694  1.00  0.00     0.178 C 
ATOM     18  C   UNL     1      -5.503  84.819  -9.182  1.00  0.00     0.177 C 
BRANCH  14  19
ATOM     19  O   UNL     1      -6.030  86.805 -11.103  1.00  0.00    -0.385 OA
ATOM     20  H   UNL     1      -6.381  87.510 -11.711  1.00  0.00     0.211 HD
ENDBRANCH  14  19
BRANCH  16  21
ATOM     21  O   UNL     1      -7.800  84.755 -10.034  1.00  0.00    -0.387 OA
ATOM     22  H   UNL     1      -7.295  83.953 -10.310  1.00  0.00     0.211 HD
ENDBRANCH  16  21
BRANCH  17  23
ATOM     23  C   UNL     1      -3.412  85.177  -7.770  1.00  0.00     0.191 C 
BRANCH  23  24
ATOM     24  O   UNL     1      -2.811  84.086  -8.414  1.00  0.00    -0.394 OA
ATOM     25  H   UNL     1      -2.352  84.425  -9.243  1.00  0.00     0.210 HD
ENDBRANCH  23  24
ENDBRANCH  17  23
BRANCH  18  26
ATOM     26  O   UNL     1      -5.103  84.314 -10.447  1.00  0.00    -0.387 OA
ATOM     27  H   UNL     1      -5.413  84.953 -11.134  1.00  0.00     0.211 HD
ENDBRANCH  18  26
ENDBRANCH  12  13
ENDBRANCH   7  12
BRANCH   4  28
ATOM     28  O   UNL     1      -5.593  94.043  -7.868  1.00  0.00    -0.365 OA
ATOM     29  H   UNL     1      -4.920  94.201  -7.164  1.00  0.00     0.214 HD
ENDBRANCH   4  28
BRANCH   8  30
ATOM     30  C   UNL     1      -7.606  90.498 -10.166  1.00  0.00     0.249 C 
BRANCH  30  31
ATOM     31  O   UNL     1      -7.078  90.736 -11.487  1.00  0.00    -0.461 OA
BRANCH  31  32
ATOM     32  C   UNL     1      -6.984  89.794 -12.521  1.00  0.00     0.338 C 
ATOM     33  O   UNL     1      -7.754  88.782 -12.558  1.00  0.00    -0.246 OA
BRANCH  32  34
ATOM     34  C   UNL     1      -5.917  89.971 -13.529  1.00  0.00     0.060 A 
ATOM     35  C   UNL     1      -4.720  90.634 -13.228  1.00  0.00     0.015 A 
ATOM     36  C   UNL     1      -6.161  89.590 -14.871  1.00  0.00     0.015 A 
ATOM     37  C   UNL     1      -3.844  91.027 -14.262  1.00  0.00     0.001 A 
ATOM     38  C   UNL     1      -5.327  90.017 -15.906  1.00  0.00     0.001 A 
ATOM     39  C   UNL     1      -4.175  90.761 -15.598  1.00  0.00     0.000 A 
ENDBRANCH  32  34
ENDBRANCH  31  32
ENDBRANCH  30  31
ENDBRANCH   8  30
TORSDOF 12
ENDMDL
