MODEL 1
REMARK VINA RESULT:    -4.674      0.000      0.000
REMARK INTER + INTRA:          -9.302
REMARK INTER:                  -8.500
REMARK INTRA:                  -0.802
REMARK UNBOUND:                -0.802
REMARK SMILES CCCCCCCCCCCCCCCC(=O)[O-]
REMARK SMILES IDX 9 1 10 2 11 3 12 4 13 5 14 6 15 7 16 8 17 9 18 10 8 11 7 12
REMARK SMILES IDX 6 13 5 14 4 15 3 16 2 17 1 18
REMARK H PARENT
REMARK Flexibility Score: inf
ROOT
ATOM      1  C   UNL     1      -9.694 -11.840   7.420  1.00  0.00     0.000 C 
ENDROOT
BRANCH   1   2
ATOM      2  C   UNL     1      -8.778 -12.923   6.821  1.00  0.00     0.000 C 
BRANCH   2   3
ATOM      3  C   UNL     1      -9.135 -13.367   5.387  1.00  0.00     0.000 C 
BRANCH   3   4
ATOM      4  C   UNL     1      -8.224 -14.458   4.794  1.00  0.00     0.000 C 
BRANCH   4   5
ATOM      5  C   UNL     1      -6.789 -14.480   5.355  1.00  0.00     0.000 C 
BRANCH   5   6
ATOM      6  C   UNL     1      -5.993 -15.745   4.968  1.00  0.00     0.006 C 
BRANCH   6   7
ATOM      7  C   UNL     1      -4.757 -15.955   5.853  1.00  0.00     0.053 C 
BRANCH   7   8
ATOM      8  C   UNL     1      -3.639 -16.550   5.057  1.00  0.00     0.041 C 
ATOM      9  O   UNL     1      -3.757 -16.700   3.812  1.00  0.00    -0.550 OA
ATOM     10  O   UNL     1      -2.446 -16.891   5.682  1.00  0.00    -0.550 OA
ENDBRANCH   7   8
ENDBRANCH   6   7
ENDBRANCH   5   6
ENDBRANCH   4   5
ENDBRANCH   3   4
ENDBRANCH   2   3
ENDBRANCH   1   2
BRANCH   1  11
ATOM     11  C   UNL     1      -9.181 -10.412   7.163  1.00  0.00     0.000 C 
BRANCH  11  12
ATOM     12  C   UNL     1     -10.101  -9.616   6.223  1.00  0.00    -0.000 C 
BRANCH  12  13
ATOM     13  C   UNL     1     -11.484 -10.265   6.057  1.00  0.00    -0.000 C 
BRANCH  13  14
ATOM     14  C   UNL     1     -12.548  -9.502   6.857  1.00  0.00    -0.000 C 
BRANCH  14  15
ATOM     15  C   UNL     1     -13.561 -10.469   7.486  1.00  0.00    -0.000 C 
BRANCH  15  16
ATOM     16  C   UNL     1     -15.012 -10.142   7.098  1.00  0.00    -0.000 C 
BRANCH  16  17
ATOM     17  C   UNL     1     -15.897  -9.840   8.315  1.00  0.00    -0.003 C 
ATOM     18  C   UNL     1     -15.075  -9.823   9.601  1.00  0.00     0.004 C 
ENDBRANCH  16  17
ENDBRANCH  15  16
ENDBRANCH  14  15
ENDBRANCH  13  14
ENDBRANCH  12  13
ENDBRANCH  11  12
ENDBRANCH   1  11
TORSDOF 14
ENDMDL
MODEL 2
REMARK VINA RESULT:    -4.582      4.750      9.711
REMARK INTER + INTRA:          -9.134
REMARK INTER:                  -8.117
REMARK INTRA:                  -1.018
REMARK UNBOUND:                -0.802
REMARK SMILES CCCCCCCCCCCCCCCC(=O)[O-]
REMARK SMILES IDX 9 1 10 2 11 3 12 4 13 5 14 6 15 7 16 8 17 9 18 10 8 11 7 12
REMARK SMILES IDX 6 13 5 14 4 15 3 16 2 17 1 18
REMARK H PARENT
REMARK Flexibility Score: inf
ROOT
ATOM      1  C   UNL     1      -9.297 -12.827   6.415  1.00  0.00     0.000 C 
ENDROOT
BRANCH   1   2
ATOM      2  C   UNL     1      -9.173 -11.649   7.399  1.00  0.00     0.000 C 
BRANCH   2   3
ATOM      3  C   UNL     1      -9.151 -10.250   6.751  1.00  0.00     0.000 C 
BRANCH   3   4
ATOM      4  C   UNL     1     -10.219  -9.270   7.272  1.00  0.00     0.000 C 
BRANCH   4   5
ATOM      5  C   UNL     1     -11.383  -9.003   6.299  1.00  0.00     0.000 C 
BRANCH   5   6
ATOM      6  C   UNL     1     -12.217 -10.260   5.971  1.00  0.00     0.006 C 
BRANCH   6   7
ATOM      7  C   UNL     1     -12.914 -10.842   7.207  1.00  0.00     0.053 C 
BRANCH   7   8
ATOM      8  C   UNL     1     -14.155 -10.068   7.522  1.00  0.00     0.041 C 
ATOM      9  O   UNL     1     -15.241 -10.351   6.951  1.00  0.00    -0.550 OA
ATOM     10  O   UNL     1     -14.123  -9.067   8.485  1.00  0.00    -0.550 OA
ENDBRANCH   7   8
ENDBRANCH   6   7
ENDBRANCH   5   6
ENDBRANCH   4   5
ENDBRANCH   3   4
ENDBRANCH   2   3
ENDBRANCH   1   2
BRANCH   1  11
ATOM     11  C   UNL     1      -7.942 -13.265   5.832  1.00  0.00     0.000 C 
BRANCH  11  12
ATOM     12  C   UNL     1      -8.053 -14.533   4.971  1.00  0.00    -0.000 C 
BRANCH  12  13
ATOM     13  C   UNL     1      -6.814 -15.437   5.083  1.00  0.00    -0.000 C 
BRANCH  13  14
ATOM     14  C   UNL     1      -6.006 -15.105   6.344  1.00  0.00    -0.000 C 
BRANCH  14  15
ATOM     15  C   UNL     1      -4.569 -15.637   6.232  1.00  0.00    -0.000 C 
BRANCH  15  16
ATOM     16  C   UNL     1      -4.349 -16.488   4.972  1.00  0.00    -0.000 C 
BRANCH  16  17
ATOM     17  C   UNL     1      -2.928 -16.352   4.407  1.00  0.00    -0.003 C 
ATOM     18  C   UNL     1      -1.990 -15.713   5.426  1.00  0.00     0.004 C 
ENDBRANCH  16  17
ENDBRANCH  15  16
ENDBRANCH  14  15
ENDBRANCH  13  14
ENDBRANCH  12  13
ENDBRANCH  11  12
ENDBRANCH   1  11
TORSDOF 14
ENDMDL
MODEL 3
REMARK VINA RESULT:    -4.469      4.830     11.081
REMARK INTER + INTRA:          -8.929
REMARK INTER:                  -8.598
REMARK INTRA:                  -0.331
REMARK UNBOUND:                -0.802
REMARK SMILES CCCCCCCCCCCCCCCC(=O)[O-]
REMARK SMILES IDX 9 1 10 2 11 3 12 4 13 5 14 6 15 7 16 8 17 9 18 10 8 11 7 12
REMARK SMILES IDX 6 13 5 14 4 15 3 16 2 17 1 18
REMARK H PARENT
REMARK Flexibility Score: inf
ROOT
ATOM      1  C   UNL     1      -7.248 -13.941   4.946  1.00  0.00     0.000 C 
ENDROOT
BRANCH   1   2
ATOM      2  C   UNL     1      -8.715 -13.816   5.397  1.00  0.00     0.000 C 
BRANCH   2   3
ATOM      3  C   UNL     1      -9.078 -12.489   6.096  1.00  0.00     0.000 C 
BRANCH   3   4
ATOM      4  C   UNL     1     -10.585 -12.189   6.191  1.00  0.00     0.000 C 
BRANCH   4   5
ATOM      5  C   UNL     1     -10.971 -10.720   5.934  1.00  0.00     0.000 C 
BRANCH   5   6
ATOM      6  C   UNL     1     -12.449 -10.404   6.247  1.00  0.00     0.006 C 
BRANCH   6   7
ATOM      7  C   UNL     1     -12.616  -9.578   7.529  1.00  0.00     0.053 C 
BRANCH   7   8
ATOM      8  C   UNL     1     -13.799 -10.056   8.309  1.00  0.00     0.041 C 
ATOM      9  O   UNL     1     -13.681 -10.339   9.531  1.00  0.00    -0.550 OA
ATOM     10  O   UNL     1     -15.045 -10.141   7.700  1.00  0.00    -0.550 OA
ENDBRANCH   7   8
ENDBRANCH   6   7
ENDBRANCH   5   6
ENDBRANCH   4   5
ENDBRANCH   3   4
ENDBRANCH   2   3
ENDBRANCH   1   2
BRANCH   1  11
ATOM     11  C   UNL     1      -6.496 -15.077   5.660  1.00  0.00     0.000 C 
BRANCH  11  12
ATOM     12  C   UNL     1      -5.583 -15.868   4.710  1.00  0.00    -0.000 C 
BRANCH  12  13
ATOM     13  C   UNL     1      -4.271 -16.310   5.378  1.00  0.00    -0.000 C 
BRANCH  13  14
ATOM     14  C   UNL     1      -3.138 -16.411   4.349  1.00  0.00    -0.000 C 
BRANCH  14  15
ATOM     15  C   UNL     1      -2.580 -17.840   4.285  1.00  0.00    -0.000 C 
BRANCH  15  16
ATOM     16  C   UNL     1      -1.924 -18.160   2.933  1.00  0.00    -0.000 C 
BRANCH  16  17
ATOM     17  C   UNL     1      -0.990 -19.376   3.001  1.00  0.00    -0.003 C 
ATOM     18  C   UNL     1      -1.549 -20.447   3.934  1.00  0.00     0.004 C 
ENDBRANCH  16  17
ENDBRANCH  15  16
ENDBRANCH  14  15
ENDBRANCH  13  14
ENDBRANCH  12  13
ENDBRANCH  11  12
ENDBRANCH   1  11
TORSDOF 14
ENDMDL
MODEL 4
REMARK VINA RESULT:    -4.442      4.250     10.210
REMARK INTER + INTRA:          -8.879
REMARK INTER:                  -7.914
REMARK INTRA:                  -0.965
REMARK UNBOUND:                -0.802
REMARK SMILES CCCCCCCCCCCCCCCC(=O)[O-]
REMARK SMILES IDX 9 1 10 2 11 3 12 4 13 5 14 6 15 7 16 8 17 9 18 10 8 11 7 12
REMARK SMILES IDX 6 13 5 14 4 15 3 16 2 17 1 18
REMARK H PARENT
REMARK Flexibility Score: inf
ROOT
ATOM      1  C   UNL     1      -5.820 -16.010   5.029  1.00  0.00     0.000 C 
ENDROOT
BRANCH   1   2
ATOM      2  C   UNL     1      -6.499 -14.877   5.819  1.00  0.00     0.000 C 
BRANCH   2   3
ATOM      3  C   UNL     1      -7.260 -13.843   4.964  1.00  0.00     0.000 C 
BRANCH   3   4
ATOM      4  C   UNL     1      -8.708 -13.565   5.407  1.00  0.00     0.000 C 
BRANCH   4   5
ATOM      5  C   UNL     1      -8.843 -12.763   6.716  1.00  0.00     0.000 C 
BRANCH   5   6
ATOM      6  C   UNL     1      -9.631 -11.445   6.556  1.00  0.00     0.006 C 
BRANCH   6   7
ATOM      7  C   UNL     1     -11.084 -11.676   6.125  1.00  0.00     0.053 C 
BRANCH   7   8
ATOM      8  C   UNL     1     -11.994 -10.704   6.807  1.00  0.00     0.041 C 
ATOM      9  O   UNL     1     -12.906 -10.127   6.158  1.00  0.00    -0.550 OA
ATOM     10  O   UNL     1     -11.867 -10.473   8.171  1.00  0.00    -0.550 OA
ENDBRANCH   7   8
ENDBRANCH   6   7
ENDBRANCH   5   6
ENDBRANCH   4   5
ENDBRANCH   3   4
ENDBRANCH   2   3
ENDBRANCH   1   2
BRANCH   1  11
ATOM     11  C   UNL     1      -6.017 -17.393   5.674  1.00  0.00     0.000 C 
BRANCH  11  12
ATOM     12  C   UNL     1      -5.512 -18.538   4.781  1.00  0.00    -0.000 C 
BRANCH  12  13
ATOM     13  C   UNL     1      -3.980 -18.664   4.789  1.00  0.00    -0.000 C 
BRANCH  13  14
ATOM     14  C   UNL     1      -3.389 -18.241   3.438  1.00  0.00    -0.000 C 
BRANCH  14  15
ATOM     15  C   UNL     1      -1.960 -17.703   3.607  1.00  0.00    -0.000 C 
BRANCH  15  16
ATOM     16  C   UNL     1      -1.707 -17.123   5.007  1.00  0.00    -0.000 C 
BRANCH  16  17
ATOM     17  C   UNL     1      -1.972 -15.613   5.078  1.00  0.00    -0.003 C 
ATOM     18  C   UNL     1      -1.877 -15.105   6.514  1.00  0.00     0.004 C 
ENDBRANCH  16  17
ENDBRANCH  15  16
ENDBRANCH  14  15
ENDBRANCH  13  14
ENDBRANCH  12  13
ENDBRANCH  11  12
ENDBRANCH   1  11
TORSDOF 14
ENDMDL
MODEL 5
REMARK VINA RESULT:    -4.387      5.940      8.809
REMARK INTER + INTRA:          -8.781
REMARK INTER:                  -6.645
REMARK INTRA:                  -2.135
REMARK UNBOUND:                -0.802
REMARK SMILES CCCCCCCCCCCCCCCC(=O)[O-]
REMARK SMILES IDX 9 1 10 2 11 3 12 4 13 5 14 6 15 7 16 8 17 9 18 10 8 11 7 12
REMARK SMILES IDX 6 13 5 14 4 15 3 16 2 17 1 18
REMARK H PARENT
REMARK Flexibility Score: inf
ROOT
ATOM      1  C   UNL     1      -1.958 -17.832   3.627  1.00  0.00     0.000 C 
ENDROOT
BRANCH   1   2
ATOM      2  C   UNL     1      -3.159 -18.790   3.725  1.00  0.00     0.000 C 
BRANCH   2   3
ATOM      3  C   UNL     1      -3.294 -19.541   5.066  1.00  0.00     0.000 C 
BRANCH   3   4
ATOM      4  C   UNL     1      -4.719 -19.595   5.646  1.00  0.00     0.000 C 
BRANCH   4   5
ATOM      5  C   UNL     1      -5.835 -19.196   4.662  1.00  0.00     0.000 C 
BRANCH   5   6
ATOM      6  C   UNL     1      -7.254 -19.283   5.265  1.00  0.00     0.006 C 
BRANCH   6   7
ATOM      7  C   UNL     1      -8.315 -18.630   4.371  1.00  0.00     0.053 C 
BRANCH   7   8
ATOM      8  C   UNL     1      -9.171 -19.673   3.727  1.00  0.00     0.041 C 
ATOM      9  O   UNL     1      -9.577 -19.519   2.544  1.00  0.00    -0.550 OA
ATOM     10  O   UNL     1      -9.480 -20.840   4.414  1.00  0.00    -0.550 OA
ENDBRANCH   7   8
ENDBRANCH   6   7
ENDBRANCH   5   6
ENDBRANCH   4   5
ENDBRANCH   3   4
ENDBRANCH   2   3
ENDBRANCH   1   2
BRANCH   1  11
ATOM     11  C   UNL     1      -2.299 -16.396   4.064  1.00  0.00     0.000 C 
BRANCH  11  12
ATOM     12  C   UNL     1      -1.575 -15.985   5.356  1.00  0.00    -0.000 C 
BRANCH  12  13
ATOM     13  C   UNL     1      -2.465 -16.116   6.602  1.00  0.00    -0.000 C 
BRANCH  13  14
ATOM     14  C   UNL     1      -3.871 -15.565   6.332  1.00  0.00    -0.000 C 
BRANCH  14  15
ATOM     15  C   UNL     1      -4.914 -16.257   7.222  1.00  0.00    -0.000 C 
BRANCH  15  16
ATOM     16  C   UNL     1      -6.349 -16.078   6.702  1.00  0.00    -0.000 C 
BRANCH  16  17
ATOM     17  C   UNL     1      -6.395 -15.543   5.264  1.00  0.00    -0.003 C 
ATOM     18  C   UNL     1      -7.180 -14.237   5.190  1.00  0.00     0.004 C 
ENDBRANCH  16  17
ENDBRANCH  15  16
ENDBRANCH  14  15
ENDBRANCH  13  14
ENDBRANCH  12  13
ENDBRANCH  11  12
ENDBRANCH   1  11
TORSDOF 14
ENDMDL
MODEL 6
REMARK VINA RESULT:    -4.367      4.697      9.173
REMARK INTER + INTRA:          -8.743
REMARK INTER:                  -7.829
REMARK INTRA:                  -0.914
REMARK UNBOUND:                -0.802
REMARK SMILES CCCCCCCCCCCCCCCC(=O)[O-]
REMARK SMILES IDX 9 1 10 2 11 3 12 4 13 5 14 6 15 7 16 8 17 9 18 10 8 11 7 12
REMARK SMILES IDX 6 13 5 14 4 15 3 16 2 17 1 18
REMARK H PARENT
REMARK Flexibility Score: inf
ROOT
ATOM      1  C   UNL     1      -6.450 -14.792   5.852  1.00  0.00     0.000 C 
ENDROOT
BRANCH   1   2
ATOM      2  C   UNL     1      -7.263 -13.711   5.115  1.00  0.00     0.000 C 
BRANCH   2   3
ATOM      3  C   UNL     1      -8.768 -14.011   4.959  1.00  0.00     0.000 C 
BRANCH   3   4
ATOM      4  C   UNL     1      -9.711 -13.010   5.653  1.00  0.00     0.000 C 
BRANCH   4   5
ATOM      5  C   UNL     1      -9.197 -12.460   6.997  1.00  0.00     0.000 C 
BRANCH   5   6
ATOM      6  C   UNL     1      -9.525 -10.969   7.223  1.00  0.00     0.006 C 
BRANCH   6   7
ATOM      7  C   UNL     1     -10.883 -10.762   7.905  1.00  0.00     0.053 C 
BRANCH   7   8
ATOM      8  C   UNL     1     -11.924 -10.390   6.897  1.00  0.00     0.041 C 
ATOM      9  O   UNL     1     -11.627  -9.648   5.923  1.00  0.00    -0.550 OA
ATOM     10  O   UNL     1     -13.211 -10.903   7.005  1.00  0.00    -0.550 OA
ENDBRANCH   7   8
ENDBRANCH   6   7
ENDBRANCH   5   6
ENDBRANCH   4   5
ENDBRANCH   3   4
ENDBRANCH   2   3
ENDBRANCH   1   2
BRANCH   1  11
ATOM     11  C   UNL     1      -6.067 -15.974   4.944  1.00  0.00     0.000 C 
BRANCH  11  12
ATOM     12  C   UNL     1      -6.861 -17.249   5.271  1.00  0.00    -0.000 C 
BRANCH  12  13
ATOM     13  C   UNL     1      -5.953 -18.445   5.603  1.00  0.00    -0.000 C 
BRANCH  13  14
ATOM     14  C   UNL     1      -6.786 -19.681   5.967  1.00  0.00    -0.000 C 
BRANCH  14  15
ATOM     15  C   UNL     1      -7.249 -20.422   4.704  1.00  0.00    -0.000 C 
BRANCH  15  16
ATOM     16  C   UNL     1      -8.759 -20.710   4.706  1.00  0.00    -0.000 C 
BRANCH  16  17
ATOM     17  C   UNL     1      -9.447 -20.268   3.407  1.00  0.00    -0.003 C 
ATOM     18  C   UNL     1      -9.424 -18.749   3.262  1.00  0.00     0.004 C 
ENDBRANCH  16  17
ENDBRANCH  15  16
ENDBRANCH  14  15
ENDBRANCH  13  14
ENDBRANCH  12  13
ENDBRANCH  11  12
ENDBRANCH   1  11
TORSDOF 14
ENDMDL
MODEL 7
REMARK VINA RESULT:    -4.332      4.112      9.654
REMARK INTER + INTRA:          -8.680
REMARK INTER:                  -7.257
REMARK INTRA:                  -1.423
REMARK UNBOUND:                -0.802
REMARK SMILES CCCCCCCCCCCCCCCC(=O)[O-]
REMARK SMILES IDX 9 1 10 2 11 3 12 4 13 5 14 6 15 7 16 8 17 9 18 10 8 11 7 12
REMARK SMILES IDX 6 13 5 14 4 15 3 16 2 17 1 18
REMARK H PARENT
REMARK Flexibility Score: inf
ROOT
ATOM      1  C   UNL     1      -4.807 -17.385   5.054  1.00  0.00     0.000 C 
ENDROOT
BRANCH   1   2
ATOM      2  C   UNL     1      -5.761 -16.565   5.941  1.00  0.00     0.000 C 
BRANCH   2   3
ATOM      3  C   UNL     1      -6.892 -15.832   5.189  1.00  0.00     0.000 C 
BRANCH   3   4
ATOM      4  C   UNL     1      -7.058 -14.343   5.544  1.00  0.00     0.000 C 
BRANCH   4   5
ATOM      5  C   UNL     1      -8.417 -13.731   5.153  1.00  0.00     0.000 C 
BRANCH   5   6
ATOM      6  C   UNL     1      -8.907 -12.638   6.126  1.00  0.00     0.006 C 
BRANCH   6   7
ATOM      7  C   UNL     1     -10.396 -12.315   5.947  1.00  0.00     0.053 C 
BRANCH   7   8
ATOM      8  C   UNL     1     -10.638 -10.849   6.118  1.00  0.00     0.041 C 
ATOM      9  O   UNL     1      -9.716 -10.098   6.533  1.00  0.00    -0.550 OA
ATOM     10  O   UNL     1     -11.868 -10.303   5.770  1.00  0.00    -0.550 OA
ENDBRANCH   7   8
ENDBRANCH   6   7
ENDBRANCH   5   6
ENDBRANCH   4   5
ENDBRANCH   3   4
ENDBRANCH   2   3
ENDBRANCH   1   2
BRANCH   1  11
ATOM     11  C   UNL     1      -3.981 -16.511   4.095  1.00  0.00     0.000 C 
BRANCH  11  12
ATOM     12  C   UNL     1      -2.564 -17.062   3.867  1.00  0.00    -0.000 C 
BRANCH  12  13
ATOM     13  C   UNL     1      -1.618 -16.771   5.043  1.00  0.00    -0.000 C 
BRANCH  13  14
ATOM     14  C   UNL     1      -1.631 -15.279   5.400  1.00  0.00    -0.000 C 
BRANCH  14  15
ATOM     15  C   UNL     1      -1.612 -15.078   6.922  1.00  0.00    -0.000 C 
BRANCH  15  16
ATOM     16  C   UNL     1      -2.992 -14.712   7.489  1.00  0.00    -0.000 C 
BRANCH  16  17
ATOM     17  C   UNL     1      -3.443 -15.662   8.607  1.00  0.00    -0.003 C 
ATOM     18  C   UNL     1      -2.671 -16.978   8.555  1.00  0.00     0.004 C 
ENDBRANCH  16  17
ENDBRANCH  15  16
ENDBRANCH  14  15
ENDBRANCH  13  14
ENDBRANCH  12  13
ENDBRANCH  11  12
ENDBRANCH   1  11
TORSDOF 14
ENDMDL
MODEL 8
REMARK VINA RESULT:    -4.292      6.445      9.358
REMARK INTER + INTRA:          -8.607
REMARK INTER:                  -6.676
REMARK INTRA:                  -1.931
REMARK UNBOUND:                -0.802
REMARK SMILES CCCCCCCCCCCCCCCC(=O)[O-]
REMARK SMILES IDX 9 1 10 2 11 3 12 4 13 5 14 6 15 7 16 8 17 9 18 10 8 11 7 12
REMARK SMILES IDX 6 13 5 14 4 15 3 16 2 17 1 18
REMARK H PARENT
REMARK Flexibility Score: inf
ROOT
ATOM      1  C   UNL     1      -3.027 -19.987   4.760  1.00  0.00     0.000 C 
ENDROOT
BRANCH   1   2
ATOM      2  C   UNL     1      -1.861 -19.023   4.475  1.00  0.00     0.000 C 
BRANCH   2   3
ATOM      3  C   UNL     1      -2.059 -18.090   3.262  1.00  0.00     0.000 C 
BRANCH   3   4
ATOM      4  C   UNL     1      -2.767 -16.757   3.569  1.00  0.00     0.000 C 
BRANCH   4   5
ATOM      5  C   UNL     1      -2.582 -16.243   5.010  1.00  0.00     0.000 C 
BRANCH   5   6
ATOM      6  C   UNL     1      -3.904 -16.121   5.798  1.00  0.00     0.006 C 
BRANCH   6   7
ATOM      7  C   UNL     1      -5.123 -15.955   4.881  1.00  0.00     0.053 C 
BRANCH   7   8
ATOM      8  C   UNL     1      -6.243 -15.288   5.615  1.00  0.00     0.041 C 
ATOM      9  O   UNL     1      -6.468 -15.571   6.821  1.00  0.00    -0.550 OA
ATOM     10  O   UNL     1      -7.007 -14.316   4.981  1.00  0.00    -0.550 OA
ENDBRANCH   7   8
ENDBRANCH   6   7
ENDBRANCH   5   6
ENDBRANCH   4   5
ENDBRANCH   3   4
ENDBRANCH   2   3
ENDBRANCH   1   2
BRANCH   1  11
ATOM     11  C   UNL     1      -3.588 -19.843   6.185  1.00  0.00     0.000 C 
BRANCH  11  12
ATOM     12  C   UNL     1      -5.111 -20.047   6.242  1.00  0.00    -0.000 C 
BRANCH  12  13
ATOM     13  C   UNL     1      -5.828 -19.510   4.993  1.00  0.00    -0.000 C 
BRANCH  13  14
ATOM     14  C   UNL     1      -7.192 -18.911   5.359  1.00  0.00    -0.000 C 
BRANCH  14  15
ATOM     15  C   UNL     1      -8.148 -18.947   4.158  1.00  0.00    -0.000 C 
BRANCH  15  16
ATOM     16  C   UNL     1      -8.468 -20.378   3.698  1.00  0.00    -0.000 C 
BRANCH  16  17
ATOM     17  C   UNL     1      -9.253 -21.176   4.748  1.00  0.00    -0.003 C 
ATOM     18  C   UNL     1      -8.541 -22.481   5.093  1.00  0.00     0.004 C 
ENDBRANCH  16  17
ENDBRANCH  15  16
ENDBRANCH  14  15
ENDBRANCH  13  14
ENDBRANCH  12  13
ENDBRANCH  11  12
ENDBRANCH   1  11
TORSDOF 14
ENDMDL
MODEL 9
REMARK VINA RESULT:    -4.291      4.332      9.712
REMARK INTER + INTRA:          -8.605
REMARK INTER:                  -6.826
REMARK INTRA:                  -1.779
REMARK UNBOUND:                -0.802
REMARK SMILES CCCCCCCCCCCCCCCC(=O)[O-]
REMARK SMILES IDX 9 1 10 2 11 3 12 4 13 5 14 6 15 7 16 8 17 9 18 10 8 11 7 12
REMARK SMILES IDX 6 13 5 14 4 15 3 16 2 17 1 18
REMARK H PARENT
REMARK Flexibility Score: inf
ROOT
ATOM      1  C   UNL     1      -2.609 -15.908   5.351  1.00  0.00     0.000 C 
ENDROOT
BRANCH   1   2
ATOM      2  C   UNL     1      -4.069 -16.022   5.826  1.00  0.00     0.000 C 
BRANCH   2   3
ATOM      3  C   UNL     1      -5.111 -16.230   4.707  1.00  0.00     0.000 C 
BRANCH   3   4
ATOM      4  C   UNL     1      -6.579 -16.049   5.137  1.00  0.00     0.000 C 
BRANCH   4   5
ATOM      5  C   UNL     1      -6.868 -14.758   5.926  1.00  0.00     0.000 C 
BRANCH   5   6
ATOM      6  C   UNL     1      -7.575 -13.667   5.093  1.00  0.00     0.006 C 
BRANCH   6   7
ATOM      7  C   UNL     1      -9.056 -13.513   5.462  1.00  0.00     0.053 C 
BRANCH   7   8
ATOM      8  C   UNL     1      -9.228 -12.454   6.505  1.00  0.00     0.041 C 
ATOM      9  O   UNL     1      -9.771 -11.356   6.209  1.00  0.00    -0.550 OA
ATOM     10  O   UNL     1      -8.836 -12.699   7.815  1.00  0.00    -0.550 OA
ENDBRANCH   7   8
ENDBRANCH   6   7
ENDBRANCH   5   6
ENDBRANCH   4   5
ENDBRANCH   3   4
ENDBRANCH   2   3
ENDBRANCH   1   2
BRANCH   1  11
ATOM     11  C   UNL     1      -2.394 -16.473   3.936  1.00  0.00     0.000 C 
BRANCH  11  12
ATOM     12  C   UNL     1      -1.717 -17.853   3.950  1.00  0.00    -0.000 C 
BRANCH  12  13
ATOM     13  C   UNL     1      -2.711 -19.004   3.725  1.00  0.00    -0.000 C 
BRANCH  13  14
ATOM     14  C   UNL     1      -2.779 -19.918   4.955  1.00  0.00    -0.000 C 
BRANCH  14  15
ATOM     15  C   UNL     1      -4.216 -20.017   5.488  1.00  0.00    -0.000 C 
BRANCH  15  16
ATOM     16  C   UNL     1      -4.359 -19.461   6.913  1.00  0.00    -0.000 C 
BRANCH  16  17
ATOM     17  C   UNL     1      -5.792 -19.014   7.233  1.00  0.00    -0.003 C 
ATOM     18  C   UNL     1      -6.784 -19.584   6.223  1.00  0.00     0.004 C 
ENDBRANCH  16  17
ENDBRANCH  15  16
ENDBRANCH  14  15
ENDBRANCH  13  14
ENDBRANCH  12  13
ENDBRANCH  11  12
ENDBRANCH   1  11
TORSDOF 14
ENDMDL
