MODEL 1
REMARK VINA RESULT:    -7.925      0.000      0.000
REMARK INTER + INTRA:         -11.761
REMARK INTER:                 -10.474
REMARK INTRA:                  -1.287
REMARK UNBOUND:                -1.287
REMARK SMILES CC(C)=CCC[C@H](C(=O)[O-])[C@H]1CC[C@@]2(C)C3=C(CC[C@@]12C)[C@@]1(C)CC[C@H](O)C(C)(C)[C@H]1CC3
REMARK SMILES IDX 6 1 7 2 8 3 9 4 10 5 11 6 12 7 20 8 13 9 14 10 19 11 21 12
REMARK SMILES IDX 15 13 16 14 18 15 17 16 33 17 22 18 32 19 31 20 24 21 23 22
REMARK SMILES IDX 28 23 25 24 26 25 29 26 30 27 27 28 5 30 4 31 2 32 1 33 3 34
REMARK H PARENT 27 29
REMARK Flexibility Score: inf
ROOT
ATOM      1  C   UNL     1      17.686  21.834   9.248  1.00  0.00     0.014 C 
ENDROOT
BRANCH   1   2
ATOM      2  C   UNL     1      19.047  21.440   9.898  1.00  0.00     0.039 C 
BRANCH   2   3
ATOM      3  C   UNL     1      20.118  22.474   9.639  1.00  0.00     0.045 C 
ATOM      4  O   UNL     1      20.496  22.707   8.462  1.00  0.00    -0.550 OA
ATOM      5  O   UNL     1      20.686  23.196  10.685  1.00  0.00    -0.550 OA
ENDBRANCH   2   3
BRANCH   2   6
ATOM      6  C   UNL     1      19.584  19.985   9.640  1.00  0.00     0.004 C 
ATOM      7  C   UNL     1      20.951  19.722  10.260  1.00  0.00     0.006 C 
ATOM      8  C   UNL     1      18.729  18.711   9.944  1.00  0.00    -0.020 C 
ATOM      9  C   UNL     1      21.147  18.209  10.231  1.00  0.00     0.012 C 
ATOM     10  C   UNL     1      19.794  17.543   9.840  1.00  0.00    -0.006 C 
ATOM     11  C   UNL     1      18.141  18.733  11.372  1.00  0.00     0.012 C 
ATOM     12  C   UNL     1      17.556  18.583   8.923  1.00  0.00     0.012 C 
ATOM     13  C   UNL     1      19.903  17.009   8.379  1.00  0.00     0.017 C 
ATOM     14  C   UNL     1      19.537  16.337  10.777  1.00  0.00    -0.064 C 
ATOM     15  C   UNL     1      17.498  17.399  11.735  1.00  0.00     0.032 C 
ATOM     16  C   UNL     1      18.438  16.221  11.574  1.00  0.00    -0.064 C 
ATOM     17  C   UNL     1      20.562  15.227  10.831  1.00  0.00     0.032 C 
ATOM     18  C   UNL     1      18.199  14.943  12.435  1.00  0.00    -0.008 C 
ATOM     19  C   UNL     1      19.844  13.913  10.632  1.00  0.00     0.009 C 
ATOM     20  C   UNL     1      18.890  13.627  11.822  1.00  0.00     0.007 C 
ATOM     21  C   UNL     1      16.664  14.730  12.632  1.00  0.00     0.014 C 
ATOM     22  C   UNL     1      18.815  15.241  13.829  1.00  0.00     0.016 C 
ATOM     23  C   UNL     1      17.932  12.403  11.523  1.00  0.00    -0.006 C 
ATOM     24  C   UNL     1      16.280  13.415  13.309  1.00  0.00     0.033 C 
ATOM     25  C   UNL     1      16.973  12.154  12.743  1.00  0.00     0.120 C 
ATOM     26  C   UNL     1      18.767  11.107  11.308  1.00  0.00     0.014 C 
ATOM     27  C   UNL     1      17.105  12.619  10.217  1.00  0.00     0.014 C 
BRANCH  25  28
ATOM     28  O   UNL     1      17.618  11.464  13.792  1.00  0.00    -0.393 OA
ATOM     29  H   UNL     1      18.491  11.901  13.953  1.00  0.00     0.210 HD
ENDBRANCH  25  28
ENDBRANCH   2   6
ENDBRANCH   1   2
BRANCH   1  30
ATOM     30  C   UNL     1      16.529  21.829  10.258  1.00  0.00     0.028 C 
BRANCH  30  31
ATOM     31  C   UNL     1      15.205  21.556   9.580  1.00  0.00    -0.028 C 
ATOM     32  C   UNL     1      14.294  20.654  10.000  1.00  0.00    -0.080 C 
ATOM     33  C   UNL     1      12.996  20.541   9.243  1.00  0.00     0.039 C 
ATOM     34  C   UNL     1      14.529  19.776  11.208  1.00  0.00     0.039 C 
ENDBRANCH  30  31
ENDBRANCH   1  30
TORSDOF 6
ENDMDL
MODEL 2
REMARK VINA RESULT:    -7.829      1.872      7.785
REMARK INTER + INTRA:         -11.633
REMARK INTER:                  -9.906
REMARK INTRA:                  -1.727
REMARK UNBOUND:                -1.287
REMARK SMILES CC(C)=CCC[C@H](C(=O)[O-])[C@H]1CC[C@@]2(C)C3=C(CC[C@@]12C)[C@@]1(C)CC[C@H](O)C(C)(C)[C@H]1CC3
REMARK SMILES IDX 6 1 7 2 8 3 9 4 10 5 11 6 12 7 20 8 13 9 14 10 19 11 21 12
REMARK SMILES IDX 15 13 16 14 18 15 17 16 33 17 22 18 32 19 31 20 24 21 23 22
REMARK SMILES IDX 28 23 25 24 26 25 29 26 30 27 27 28 5 30 4 31 2 32 1 33 3 34
REMARK H PARENT 27 29
REMARK Flexibility Score: inf
ROOT
ATOM      1  C   UNL     1      17.893  13.492  13.655  1.00  0.00     0.014 C 
ENDROOT
BRANCH   1   2
ATOM      2  C   UNL     1      17.312  14.092  12.339  1.00  0.00     0.039 C 
BRANCH   2   3
ATOM      3  C   UNL     1      16.498  13.082  11.566  1.00  0.00     0.045 C 
ATOM      4  O   UNL     1      15.356  13.391  11.136  1.00  0.00    -0.550 OA
ATOM      5  O   UNL     1      16.998  11.811  11.298  1.00  0.00    -0.550 OA
ENDBRANCH   2   3
BRANCH   2   6
ATOM      6  C   UNL     1      18.301  14.871  11.396  1.00  0.00     0.004 C 
ATOM      7  C   UNL     1      18.071  14.596   9.915  1.00  0.00     0.006 C 
ATOM      8  C   UNL     1      18.527  16.414  11.510  1.00  0.00    -0.020 C 
ATOM      9  C   UNL     1      18.842  15.673   9.157  1.00  0.00     0.012 C 
ATOM     10  C   UNL     1      19.316  16.751  10.178  1.00  0.00    -0.006 C 
ATOM     11  C   UNL     1      17.196  17.197  11.520  1.00  0.00     0.012 C 
ATOM     12  C   UNL     1      19.316  16.757  12.811  1.00  0.00     0.012 C 
ATOM     13  C   UNL     1      20.855  16.603  10.383  1.00  0.00     0.017 C 
ATOM     14  C   UNL     1      19.040  18.157   9.591  1.00  0.00    -0.064 C 
ATOM     15  C   UNL     1      17.428  18.700  11.410  1.00  0.00     0.032 C 
ATOM     16  C   UNL     1      18.254  19.088  10.200  1.00  0.00    -0.064 C 
ATOM     17  C   UNL     1      19.659  18.523   8.261  1.00  0.00     0.032 C 
ATOM     18  C   UNL     1      18.081  20.515   9.595  1.00  0.00    -0.008 C 
ATOM     19  C   UNL     1      20.360  19.852   8.419  1.00  0.00     0.009 C 
ATOM     20  C   UNL     1      19.332  20.981   8.700  1.00  0.00     0.007 C 
ATOM     21  C   UNL     1      17.804  21.535  10.746  1.00  0.00     0.014 C 
ATOM     22  C   UNL     1      16.810  20.455   8.705  1.00  0.00     0.016 C 
ATOM     23  C   UNL     1      20.045  22.327   9.131  1.00  0.00    -0.006 C 
ATOM     24  C   UNL     1      17.788  23.002  10.313  1.00  0.00     0.033 C 
ATOM     25  C   UNL     1      18.973  23.440   9.421  1.00  0.00     0.120 C 
ATOM     26  C   UNL     1      20.960  22.842   7.983  1.00  0.00     0.014 C 
ATOM     27  C   UNL     1      20.966  22.123  10.376  1.00  0.00     0.014 C 
BRANCH  25  28
ATOM     28  O   UNL     1      18.477  24.019   8.235  1.00  0.00    -0.393 OA
ATOM     29  H   UNL     1      19.026  23.687   7.481  1.00  0.00     0.210 HD
ENDBRANCH  25  28
ENDBRANCH   2   6
ENDBRANCH   1   2
BRANCH   1  30
ATOM     30  C   UNL     1      17.473  14.288  14.900  1.00  0.00     0.028 C 
BRANCH  30  31
ATOM     31  C   UNL     1      16.322  15.220  14.598  1.00  0.00    -0.028 C 
ATOM     32  C   UNL     1      16.225  16.494  15.034  1.00  0.00    -0.080 C 
ATOM     33  C   UNL     1      15.037  17.312  14.597  1.00  0.00     0.039 C 
ATOM     34  C   UNL     1      17.273  17.122  15.924  1.00  0.00     0.039 C 
ENDBRANCH  30  31
ENDBRANCH   1  30
TORSDOF 6
ENDMDL
MODEL 3
REMARK VINA RESULT:    -7.420      2.258      8.285
REMARK INTER + INTRA:         -11.094
REMARK INTER:                 -10.019
REMARK INTRA:                  -1.075
REMARK UNBOUND:                -1.287
REMARK SMILES CC(C)=CCC[C@H](C(=O)[O-])[C@H]1CC[C@@]2(C)C3=C(CC[C@@]12C)[C@@]1(C)CC[C@H](O)C(C)(C)[C@H]1CC3
REMARK SMILES IDX 6 1 7 2 8 3 9 4 10 5 11 6 12 7 20 8 13 9 14 10 19 11 21 12
REMARK SMILES IDX 15 13 16 14 18 15 17 16 33 17 22 18 32 19 31 20 24 21 23 22
REMARK SMILES IDX 28 23 25 24 26 25 29 26 30 27 27 28 5 30 4 31 2 32 1 33 3 34
REMARK H PARENT 27 29
REMARK Flexibility Score: inf
ROOT
ATOM      1  C   UNL     1      16.147  10.227  10.374  1.00  0.00     0.014 C 
ENDROOT
BRANCH   1   2
ATOM      2  C   UNL     1      17.318  11.249  10.491  1.00  0.00     0.039 C 
BRANCH   2   3
ATOM      3  C   UNL     1      18.516  10.658  11.195  1.00  0.00     0.045 C 
ATOM      4  O   UNL     1      18.358   9.747  12.049  1.00  0.00    -0.550 OA
ATOM      5  O   UNL     1      19.807  11.090  10.901  1.00  0.00    -0.550 OA
ENDBRANCH   2   3
BRANCH   2   6
ATOM      6  C   UNL     1      16.982  12.683  11.041  1.00  0.00     0.004 C 
ATOM      7  C   UNL     1      17.564  12.956  12.423  1.00  0.00     0.006 C 
ATOM      8  C   UNL     1      17.241  13.981  10.209  1.00  0.00    -0.020 C 
ATOM      9  C   UNL     1      17.460  14.463  12.638  1.00  0.00     0.012 C 
ATOM     10  C   UNL     1      17.063  15.129  11.287  1.00  0.00    -0.006 C 
ATOM     11  C   UNL     1      18.679  14.035   9.647  1.00  0.00     0.012 C 
ATOM     12  C   UNL     1      16.238  14.078   9.018  1.00  0.00     0.012 C 
ATOM     13  C   UNL     1      15.577  15.592  11.375  1.00  0.00     0.017 C 
ATOM     14  C   UNL     1      17.947  16.380  11.063  1.00  0.00    -0.064 C 
ATOM     15  C   UNL     1      18.991  15.393   9.029  1.00  0.00     0.032 C 
ATOM     16  C   UNL     1      18.758  16.549   9.981  1.00  0.00    -0.064 C 
ATOM     17  C   UNL     1      17.930  17.477  12.103  1.00  0.00     0.032 C 
ATOM     18  C   UNL     1      19.561  17.869   9.775  1.00  0.00    -0.008 C 
ATOM     19  C   UNL     1      17.682  18.791  11.399  1.00  0.00     0.009 C 
ATOM     20  C   UNL     1      18.875  19.145  10.471  1.00  0.00     0.007 C 
ATOM     21  C   UNL     1      19.776  18.112   8.247  1.00  0.00     0.014 C 
ATOM     22  C   UNL     1      20.957  17.628  10.413  1.00  0.00     0.016 C 
ATOM     23  C   UNL     1      18.537  20.367   9.524  1.00  0.00    -0.006 C 
ATOM     24  C   UNL     1      20.398  19.463   7.893  1.00  0.00     0.033 C 
ATOM     25  C   UNL     1      19.761  20.686   8.591  1.00  0.00     0.120 C 
ATOM     26  C   UNL     1      18.245  21.640  10.371  1.00  0.00     0.014 C 
ATOM     27  C   UNL     1      17.257  20.101   8.669  1.00  0.00     0.014 C 
BRANCH  25  28
ATOM     28  O   UNL     1      20.764  21.416   9.265  1.00  0.00    -0.393 OA
ATOM     29  H   UNL     1      20.382  22.292   9.522  1.00  0.00     0.210 HD
ENDBRANCH  25  28
ENDBRANCH   2   6
ENDBRANCH   1   2
BRANCH   1  30
ATOM     30  C   UNL     1      15.092  10.414  11.475  1.00  0.00     0.028 C 
BRANCH  30  31
ATOM     31  C   UNL     1      13.725   9.963  11.014  1.00  0.00    -0.028 C 
ATOM     32  C   UNL     1      12.840  10.735  10.350  1.00  0.00    -0.080 C 
ATOM     33  C   UNL     1      11.538  10.116   9.910  1.00  0.00     0.039 C 
ATOM     34  C   UNL     1      13.123  12.183  10.022  1.00  0.00     0.039 C 
ENDBRANCH  30  31
ENDBRANCH   1  30
TORSDOF 6
ENDMDL
MODEL 4
REMARK VINA RESULT:    -7.334      2.597      8.922
REMARK INTER + INTRA:         -10.980
REMARK INTER:                 -10.373
REMARK INTRA:                  -0.607
REMARK UNBOUND:                -1.287
REMARK SMILES CC(C)=CCC[C@H](C(=O)[O-])[C@H]1CC[C@@]2(C)C3=C(CC[C@@]12C)[C@@]1(C)CC[C@H](O)C(C)(C)[C@H]1CC3
REMARK SMILES IDX 6 1 7 2 8 3 9 4 10 5 11 6 12 7 20 8 13 9 14 10 19 11 21 12
REMARK SMILES IDX 15 13 16 14 18 15 17 16 33 17 22 18 32 19 31 20 24 21 23 22
REMARK SMILES IDX 28 23 25 24 26 25 29 26 30 27 27 28 5 30 4 31 2 32 1 33 3 34
REMARK H PARENT 27 29
REMARK Flexibility Score: inf
ROOT
ATOM      1  C   UNL     1      15.393   9.835  12.184  1.00  0.00     0.014 C 
ENDROOT
BRANCH   1   2
ATOM      2  C   UNL     1      16.516  10.817  11.730  1.00  0.00     0.039 C 
BRANCH   2   3
ATOM      3  C   UNL     1      17.890  10.203  11.857  1.00  0.00     0.045 C 
ATOM      4  O   UNL     1      18.069   9.215  12.615  1.00  0.00    -0.550 OA
ATOM      5  O   UNL     1      18.968  10.699  11.129  1.00  0.00    -0.550 OA
ENDBRANCH   2   3
BRANCH   2   6
ATOM      6  C   UNL     1      16.486  12.277  12.313  1.00  0.00     0.004 C 
ATOM      7  C   UNL     1      17.600  12.554  13.316  1.00  0.00     0.006 C 
ATOM      8  C   UNL     1      16.416  13.543  11.398  1.00  0.00    -0.020 C 
ATOM      9  C   UNL     1      17.644  14.068  13.496  1.00  0.00     0.012 C 
ATOM     10  C   UNL     1      16.741  14.721  12.407  1.00  0.00    -0.006 C 
ATOM     11  C   UNL     1      17.490  13.518  10.288  1.00  0.00     0.012 C 
ATOM     12  C   UNL     1      15.012  13.658  10.730  1.00  0.00     0.012 C 
ATOM     13  C   UNL     1      15.443  15.254  13.086  1.00  0.00     0.017 C 
ATOM     14  C   UNL     1      17.491  15.925  11.786  1.00  0.00    -0.064 C 
ATOM     15  C   UNL     1      17.559  14.847   9.543  1.00  0.00     0.032 C 
ATOM     16  C   UNL     1      17.782  16.033  10.460  1.00  0.00    -0.064 C 
ATOM     17  C   UNL     1      17.945  17.045  12.696  1.00  0.00     0.032 C 
ATOM     18  C   UNL     1      18.469  17.310   9.887  1.00  0.00    -0.008 C 
ATOM     19  C   UNL     1      17.468  18.352  12.107  1.00  0.00     0.009 C 
ATOM     20  C   UNL     1      18.176  18.631  10.754  1.00  0.00     0.007 C 
ATOM     21  C   UNL     1      18.034  17.508   8.399  1.00  0.00     0.014 C 
ATOM     22  C   UNL     1      19.994  17.019   9.895  1.00  0.00     0.016 C 
ATOM     23  C   UNL     1      17.514  19.845   9.986  1.00  0.00    -0.006 C 
ATOM     24  C   UNL     1      18.495  18.822   7.765  1.00  0.00     0.033 C 
ATOM     25  C   UNL     1      18.247  20.088   8.617  1.00  0.00     0.120 C 
ATOM     26  C   UNL     1      17.643  21.149  10.827  1.00  0.00     0.014 C 
ATOM     27  C   UNL     1      15.986  19.620   9.752  1.00  0.00     0.014 C 
BRANCH  25  28
ATOM     28  O   UNL     1      19.462  20.786   8.783  1.00  0.00    -0.393 OA
ATOM     29  H   UNL     1      19.945  20.765   7.919  1.00  0.00     0.210 HD
ENDBRANCH  25  28
ENDBRANCH   2   6
ENDBRANCH   1   2
BRANCH   1  30
ATOM     30  C   UNL     1      14.536   9.339  11.010  1.00  0.00     0.028 C 
BRANCH  30  31
ATOM     31  C   UNL     1      15.341   8.482  10.061  1.00  0.00    -0.028 C 
ATOM     32  C   UNL     1      14.819   7.715   9.080  1.00  0.00    -0.080 C 
ATOM     33  C   UNL     1      15.764   6.960   8.181  1.00  0.00     0.039 C 
ATOM     34  C   UNL     1      13.329   7.608   8.850  1.00  0.00     0.039 C 
ENDBRANCH  30  31
ENDBRANCH   1  30
TORSDOF 6
ENDMDL
MODEL 5
REMARK VINA RESULT:    -7.264      1.723      2.562
REMARK INTER + INTRA:         -10.886
REMARK INTER:                  -9.852
REMARK INTRA:                  -1.034
REMARK UNBOUND:                -1.287
REMARK SMILES CC(C)=CCC[C@H](C(=O)[O-])[C@H]1CC[C@@]2(C)C3=C(CC[C@@]12C)[C@@]1(C)CC[C@H](O)C(C)(C)[C@H]1CC3
REMARK SMILES IDX 6 1 7 2 8 3 9 4 10 5 11 6 12 7 20 8 13 9 14 10 19 11 21 12
REMARK SMILES IDX 15 13 16 14 18 15 17 16 33 17 22 18 32 19 31 20 24 21 23 22
REMARK SMILES IDX 28 23 25 24 26 25 29 26 30 27 27 28 5 30 4 31 2 32 1 33 3 34
REMARK H PARENT 27 29
REMARK Flexibility Score: inf
ROOT
ATOM      1  C   UNL     1      16.744  19.571   9.821  1.00  0.00     0.014 C 
ENDROOT
BRANCH   1   2
ATOM      2  C   UNL     1      18.255  19.466  10.189  1.00  0.00     0.039 C 
BRANCH   2   3
ATOM      3  C   UNL     1      19.064  20.592   9.590  1.00  0.00     0.045 C 
ATOM      4  O   UNL     1      19.663  20.423   8.497  1.00  0.00    -0.550 OA
ATOM      5  O   UNL     1      19.143  21.832  10.218  1.00  0.00    -0.550 OA
ENDBRANCH   2   3
BRANCH   2   6
ATOM      6  C   UNL     1      18.962  18.078   9.973  1.00  0.00     0.004 C 
ATOM      7  C   UNL     1      20.222  17.900  10.812  1.00  0.00     0.006 C 
ATOM      8  C   UNL     1      18.192  16.721  10.075  1.00  0.00    -0.020 C 
ATOM      9  C   UNL     1      20.562  16.414  10.760  1.00  0.00     0.012 C 
ATOM     10  C   UNL     1      19.364  15.655  10.114  1.00  0.00    -0.006 C 
ATOM     11  C   UNL     1      17.370  16.615  11.379  1.00  0.00     0.012 C 
ATOM     12  C   UNL     1      17.226  16.547   8.862  1.00  0.00     0.012 C 
ATOM     13  C   UNL     1      19.769  15.212   8.676  1.00  0.00     0.017 C 
ATOM     14  C   UNL     1      19.066  14.384  10.946  1.00  0.00    -0.064 C 
ATOM     15  C   UNL     1      16.803  15.213  11.574  1.00  0.00     0.032 C 
ATOM     16  C   UNL     1      17.864  14.131  11.535  1.00  0.00    -0.064 C 
ATOM     17  C   UNL     1      20.166  13.365  11.136  1.00  0.00     0.032 C 
ATOM     18  C   UNL     1      17.603  12.793  12.292  1.00  0.00    -0.008 C 
ATOM     19  C   UNL     1      19.620  12.006  10.765  1.00  0.00     0.009 C 
ATOM     20  C   UNL     1      18.508  11.576  11.760  1.00  0.00     0.007 C 
ATOM     21  C   UNL     1      16.083  12.439  12.211  1.00  0.00     0.014 C 
ATOM     22  C   UNL     1      17.942  13.068  13.783  1.00  0.00     0.016 C 
ATOM     23  C   UNL     1      17.735  10.292  11.253  1.00  0.00    -0.006 C 
ATOM     24  C   UNL     1      15.715  11.061  12.761  1.00  0.00     0.033 C 
ATOM     25  C   UNL     1      16.610   9.896  12.277  1.00  0.00     0.120 C 
ATOM     26  C   UNL     1      18.712   9.086  11.137  1.00  0.00     0.014 C 
ATOM     27  C   UNL     1      17.124  10.505   9.831  1.00  0.00     0.014 C 
BRANCH  25  28
ATOM     28  O   UNL     1      17.129   9.209  13.394  1.00  0.00    -0.393 OA
ATOM     29  H   UNL     1      18.025   9.580  13.591  1.00  0.00     0.210 HD
ENDBRANCH  25  28
ENDBRANCH   2   6
ENDBRANCH   1   2
BRANCH   1  30
ATOM     30  C   UNL     1      15.884  20.049  11.000  1.00  0.00     0.028 C 
BRANCH  30  31
ATOM     31  C   UNL     1      16.628  19.933  12.310  1.00  0.00    -0.028 C 
ATOM     32  C   UNL     1      16.055  19.677  13.505  1.00  0.00    -0.080 C 
ATOM     33  C   UNL     1      16.946  19.537  14.712  1.00  0.00     0.039 C 
ATOM     34  C   UNL     1      14.561  19.510  13.661  1.00  0.00     0.039 C 
ENDBRANCH  30  31
ENDBRANCH   1  30
TORSDOF 6
ENDMDL
MODEL 6
REMARK VINA RESULT:    -7.097      1.842      8.320
REMARK INTER + INTRA:         -10.666
REMARK INTER:                  -9.302
REMARK INTRA:                  -1.364
REMARK UNBOUND:                -1.287
REMARK SMILES CC(C)=CCC[C@H](C(=O)[O-])[C@H]1CC[C@@]2(C)C3=C(CC[C@@]12C)[C@@]1(C)CC[C@H](O)C(C)(C)[C@H]1CC3
REMARK SMILES IDX 6 1 7 2 8 3 9 4 10 5 11 6 12 7 20 8 13 9 14 10 19 11 21 12
REMARK SMILES IDX 15 13 16 14 18 15 17 16 33 17 22 18 32 19 31 20 24 21 23 22
REMARK SMILES IDX 28 23 25 24 26 25 29 26 30 27 27 28 5 30 4 31 2 32 1 33 3 34
REMARK H PARENT 27 29
REMARK Flexibility Score: inf
ROOT
ATOM      1  C   UNL     1      16.513  13.255  13.101  1.00  0.00     0.014 C 
ENDROOT
BRANCH   1   2
ATOM      2  C   UNL     1      16.118  14.109  11.859  1.00  0.00     0.039 C 
BRANCH   2   3
ATOM      3  C   UNL     1      15.145  13.384  10.960  1.00  0.00     0.045 C 
ATOM      4  O   UNL     1      15.287  12.153  10.742  1.00  0.00    -0.550 OA
ATOM      5  O   UNL     1      14.070  14.051  10.379  1.00  0.00    -0.550 OA
ENDBRANCH   2   3
BRANCH   2   6
ATOM      6  C   UNL     1      17.280  14.768  11.029  1.00  0.00     0.004 C 
ATOM      7  C   UNL     1      17.136  14.577   9.523  1.00  0.00     0.006 C 
ATOM      8  C   UNL     1      17.709  16.259  11.226  1.00  0.00    -0.020 C 
ATOM      9  C   UNL     1      18.109  15.556   8.875  1.00  0.00     0.012 C 
ATOM     10  C   UNL     1      18.644  16.522   9.975  1.00  0.00    -0.006 C 
ATOM     11  C   UNL     1      16.504  17.223  11.168  1.00  0.00     0.012 C 
ATOM     12  C   UNL     1      18.429  16.443  12.597  1.00  0.00     0.012 C 
ATOM     13  C   UNL     1      20.125  16.150  10.290  1.00  0.00     0.017 C 
ATOM     14  C   UNL     1      18.616  17.971   9.430  1.00  0.00    -0.064 C 
ATOM     15  C   UNL     1      16.952  18.681  11.141  1.00  0.00     0.032 C 
ATOM     16  C   UNL     1      17.920  18.985  10.016  1.00  0.00    -0.064 C 
ATOM     17  C   UNL     1      19.386  18.288   8.168  1.00  0.00     0.032 C 
ATOM     18  C   UNL     1      17.999  20.441   9.462  1.00  0.00    -0.008 C 
ATOM     19  C   UNL     1      20.251  19.498   8.436  1.00  0.00     0.009 C 
ATOM     20  C   UNL     1      19.372  20.752   8.687  1.00  0.00     0.007 C 
ATOM     21  C   UNL     1      17.773  21.453  10.631  1.00  0.00     0.014 C 
ATOM     22  C   UNL     1      16.808  20.591   8.475  1.00  0.00     0.016 C 
ATOM     23  C   UNL     1      20.227  21.967   9.229  1.00  0.00    -0.006 C 
ATOM     24  C   UNL     1      17.998  22.920  10.263  1.00  0.00     0.033 C 
ATOM     25  C   UNL     1      19.302  23.212   9.484  1.00  0.00     0.120 C 
ATOM     26  C   UNL     1      21.297  22.384   8.178  1.00  0.00     0.014 C 
ATOM     27  C   UNL     1      21.006  21.594  10.530  1.00  0.00     0.014 C 
BRANCH  25  28
ATOM     28  O   UNL     1      18.990  23.894   8.289  1.00  0.00    -0.393 OA
ATOM     29  H   UNL     1      19.756  24.480   8.064  1.00  0.00     0.210 HD
ENDBRANCH  25  28
ENDBRANCH   2   6
ENDBRANCH   1   2
BRANCH   1  30
ATOM     30  C   UNL     1      17.951  12.720  13.014  1.00  0.00     0.028 C 
BRANCH  30  31
ATOM     31  C   UNL     1      18.010  11.417  12.251  1.00  0.00    -0.028 C 
ATOM     32  C   UNL     1      18.872  11.148  11.248  1.00  0.00    -0.080 C 
ATOM     33  C   UNL     1      18.840   9.776  10.624  1.00  0.00     0.039 C 
ATOM     34  C   UNL     1      19.871  12.167  10.749  1.00  0.00     0.039 C 
ENDBRANCH  30  31
ENDBRANCH   1  30
TORSDOF 6
ENDMDL
MODEL 7
REMARK VINA RESULT:    -6.965     13.496     18.065
REMARK INTER + INTRA:         -10.491
REMARK INTER:                  -9.575
REMARK INTRA:                  -0.916
REMARK UNBOUND:                -1.287
REMARK SMILES CC(C)=CCC[C@H](C(=O)[O-])[C@H]1CC[C@@]2(C)C3=C(CC[C@@]12C)[C@@]1(C)CC[C@H](O)C(C)(C)[C@H]1CC3
REMARK SMILES IDX 6 1 7 2 8 3 9 4 10 5 11 6 12 7 20 8 13 9 14 10 19 11 21 12
REMARK SMILES IDX 15 13 16 14 18 15 17 16 33 17 22 18 32 19 31 20 24 21 23 22
REMARK SMILES IDX 28 23 25 24 26 25 29 26 30 27 27 28 5 30 4 31 2 32 1 33 3 34
REMARK H PARENT 27 29
REMARK Flexibility Score: inf
ROOT
ATOM      1  C   UNL     1       2.953  10.195  20.248  1.00  0.00     0.014 C 
ENDROOT
BRANCH   1   2
ATOM      2  C   UNL     1       3.738  10.416  21.576  1.00  0.00     0.039 C 
BRANCH   2   3
ATOM      3  C   UNL     1       3.215   9.547  22.695  1.00  0.00     0.045 C 
ATOM      4  O   UNL     1       3.891   8.564  23.096  1.00  0.00    -0.550 OA
ATOM      5  O   UNL     1       1.999   9.826  23.312  1.00  0.00    -0.550 OA
ENDBRANCH   2   3
BRANCH   2   6
ATOM      6  C   UNL     1       3.953  11.898  22.056  1.00  0.00     0.004 C 
ATOM      7  C   UNL     1       4.568  12.003  23.447  1.00  0.00     0.006 C 
ATOM      8  C   UNL     1       4.696  12.962  21.184  1.00  0.00    -0.020 C 
ATOM      9  C   UNL     1       5.032  13.449  23.599  1.00  0.00     0.012 C 
ATOM     10  C   UNL     1       4.940  14.146  22.209  1.00  0.00    -0.006 C 
ATOM     11  C   UNL     1       6.060  12.447  20.675  1.00  0.00     0.012 C 
ATOM     12  C   UNL     1       3.826  13.366  19.954  1.00  0.00     0.012 C 
ATOM     13  C   UNL     1       3.734  15.134  22.224  1.00  0.00     0.017 C 
ATOM     14  C   UNL     1       6.232  14.964  21.969  1.00  0.00    -0.064 C 
ATOM     15  C   UNL     1       6.870  13.558  20.015  1.00  0.00     0.032 C 
ATOM     16  C   UNL     1       7.069  14.763  20.912  1.00  0.00    -0.064 C 
ATOM     17  C   UNL     1       6.607  16.038  22.964  1.00  0.00     0.032 C 
ATOM     18  C   UNL     1       8.312  15.676  20.685  1.00  0.00    -0.008 C 
ATOM     19  C   UNL     1       6.883  17.312  22.200  1.00  0.00     0.009 C 
ATOM     20  C   UNL     1       8.140  17.149  21.304  1.00  0.00     0.007 C 
ATOM     21  C   UNL     1       8.632  15.743  19.157  1.00  0.00     0.014 C 
ATOM     22  C   UNL     1       9.503  14.963  21.382  1.00  0.00     0.016 C 
ATOM     23  C   UNL     1       8.303  18.359  20.298  1.00  0.00    -0.006 C 
ATOM     24  C   UNL     1       9.722  16.745  18.773  1.00  0.00     0.033 C 
ATOM     25  C   UNL     1       9.576  18.151  19.399  1.00  0.00     0.120 C 
ATOM     26  C   UNL     1       8.493  19.690  21.083  1.00  0.00     0.014 C 
ATOM     27  C   UNL     1       7.034  18.548  19.407  1.00  0.00     0.014 C 
BRANCH  25  28
ATOM     28  O   UNL     1      10.765  18.486  20.080  1.00  0.00    -0.393 OA
ATOM     29  H   UNL     1      10.916  17.806  20.783  1.00  0.00     0.210 HD
ENDBRANCH  25  28
ENDBRANCH   2   6
ENDBRANCH   1   2
BRANCH   1  30
ATOM     30  C   UNL     1       3.685   9.250  19.282  1.00  0.00     0.028 C 
BRANCH  30  31
ATOM     31  C   UNL     1       4.234   9.998  18.089  1.00  0.00    -0.028 C 
ATOM     32  C   UNL     1       3.942   9.719  16.801  1.00  0.00    -0.080 C 
ATOM     33  C   UNL     1       4.531  10.596  15.726  1.00  0.00     0.039 C 
ATOM     34  C   UNL     1       3.035   8.574  16.412  1.00  0.00     0.039 C 
ENDBRANCH  30  31
ENDBRANCH   1  30
TORSDOF 6
ENDMDL
MODEL 8
REMARK VINA RESULT:    -6.925     12.872     16.431
REMARK INTER + INTRA:         -10.438
REMARK INTER:                  -8.800
REMARK INTRA:                  -1.639
REMARK UNBOUND:                -1.287
REMARK SMILES CC(C)=CCC[C@H](C(=O)[O-])[C@H]1CC[C@@]2(C)C3=C(CC[C@@]12C)[C@@]1(C)CC[C@H](O)C(C)(C)[C@H]1CC3
REMARK SMILES IDX 6 1 7 2 8 3 9 4 10 5 11 6 12 7 20 8 13 9 14 10 19 11 21 12
REMARK SMILES IDX 15 13 16 14 18 15 17 16 33 17 22 18 32 19 31 20 24 21 23 22
REMARK SMILES IDX 28 23 25 24 26 25 29 26 30 27 27 28 5 30 4 31 2 32 1 33 3 34
REMARK H PARENT 27 29
REMARK Flexibility Score: inf
ROOT
ATOM      1  C   UNL     1       2.866  15.177  23.083  1.00  0.00     0.014 C 
ENDROOT
BRANCH   1   2
ATOM      2  C   UNL     1       4.185  15.689  23.737  1.00  0.00     0.039 C 
BRANCH   2   3
ATOM      3  C   UNL     1       3.950  16.251  25.119  1.00  0.00     0.045 C 
ATOM      4  O   UNL     1       4.500  15.718  26.117  1.00  0.00    -0.550 OA
ATOM      5  O   UNL     1       3.146  17.372  25.311  1.00  0.00    -0.550 OA
ENDBRANCH   2   3
BRANCH   2   6
ATOM      6  C   UNL     1       5.101  16.639  22.882  1.00  0.00     0.004 C 
ATOM      7  C   UNL     1       5.969  17.566  23.725  1.00  0.00     0.006 C 
ATOM      8  C   UNL     1       6.032  16.105  21.746  1.00  0.00    -0.020 C 
ATOM      9  C   UNL     1       7.023  18.137  22.780  1.00  0.00     0.012 C 
ATOM     10  C   UNL     1       6.957  17.354  21.435  1.00  0.00    -0.006 C 
ATOM     11  C   UNL     1       6.914  14.929  22.221  1.00  0.00     0.012 C 
ATOM     12  C   UNL     1       5.186  15.631  20.523  1.00  0.00     0.012 C 
ATOM     13  C   UNL     1       6.315  18.273  20.352  1.00  0.00     0.017 C 
ATOM     14  C   UNL     1       8.396  17.006  20.984  1.00  0.00    -0.064 C 
ATOM     15  C   UNL     1       7.967  14.561  21.181  1.00  0.00     0.032 C 
ATOM     16  C   UNL     1       8.835  15.734  20.772  1.00  0.00    -0.064 C 
ATOM     17  C   UNL     1       9.384  18.131  20.777  1.00  0.00     0.032 C 
ATOM     18  C   UNL     1      10.274  15.457  20.239  1.00  0.00    -0.008 C 
ATOM     19  C   UNL     1      10.015  17.960  19.414  1.00  0.00     0.009 C 
ATOM     20  C   UNL     1      10.873  16.668  19.369  1.00  0.00     0.007 C 
ATOM     21  C   UNL     1      10.277  14.124  19.422  1.00  0.00     0.014 C 
ATOM     22  C   UNL     1      11.164  15.239  21.494  1.00  0.00     0.016 C 
ATOM     23  C   UNL     1      11.327  16.319  17.894  1.00  0.00    -0.006 C 
ATOM     24  C   UNL     1      11.586  13.821  18.693  1.00  0.00     0.033 C 
ATOM     25  C   UNL     1      12.181  14.999  17.887  1.00  0.00     0.120 C 
ATOM     26  C   UNL     1      12.219  17.459  17.321  1.00  0.00     0.014 C 
ATOM     27  C   UNL     1      10.108  16.182  16.928  1.00  0.00     0.014 C 
BRANCH  25  28
ATOM     28  O   UNL     1      13.511  15.225  18.301  1.00  0.00    -0.393 OA
ATOM     29  H   UNL     1      13.630  14.799  19.186  1.00  0.00     0.210 HD
ENDBRANCH  25  28
ENDBRANCH   2   6
ENDBRANCH   1   2
BRANCH   1  30
ATOM     30  C   UNL     1       2.638  13.676  23.316  1.00  0.00     0.028 C 
BRANCH  30  31
ATOM     31  C   UNL     1       3.848  12.864  22.911  1.00  0.00    -0.028 C 
ATOM     32  C   UNL     1       4.055  12.348  21.682  1.00  0.00    -0.080 C 
ATOM     33  C   UNL     1       5.342  11.607  21.423  1.00  0.00     0.039 C 
ATOM     34  C   UNL     1       3.051  12.505  20.563  1.00  0.00     0.039 C 
ENDBRANCH  30  31
ENDBRANCH   1  30
TORSDOF 6
ENDMDL
MODEL 9
REMARK VINA RESULT:    -6.859     15.525     20.416
REMARK INTER + INTRA:         -10.352
REMARK INTER:                  -8.857
REMARK INTRA:                  -1.495
REMARK UNBOUND:                -1.287
REMARK SMILES CC(C)=CCC[C@H](C(=O)[O-])[C@H]1CC[C@@]2(C)C3=C(CC[C@@]12C)[C@@]1(C)CC[C@H](O)C(C)(C)[C@H]1CC3
REMARK SMILES IDX 6 1 7 2 8 3 9 4 10 5 11 6 12 7 20 8 13 9 14 10 19 11 21 12
REMARK SMILES IDX 15 13 16 14 18 15 17 16 33 17 22 18 32 19 31 20 24 21 23 22
REMARK SMILES IDX 28 23 25 24 26 25 29 26 30 27 27 28 5 30 4 31 2 32 1 33 3 34
REMARK H PARENT 27 29
REMARK Flexibility Score: inf
ROOT
ATOM      1  C   UNL     1       4.664   7.339  23.861  1.00  0.00     0.014 C 
ENDROOT
BRANCH   1   2
ATOM      2  C   UNL     1       3.976   8.687  24.235  1.00  0.00     0.039 C 
BRANCH   2   3
ATOM      3  C   UNL     1       2.792   8.483  25.149  1.00  0.00     0.045 C 
ATOM      4  O   UNL     1       2.610   9.258  26.124  1.00  0.00    -0.550 OA
ATOM      5  O   UNL     1       1.876   7.460  24.921  1.00  0.00    -0.550 OA
ENDBRANCH   2   3
BRANCH   2   6
ATOM      6  C   UNL     1       3.630   9.677  23.064  1.00  0.00     0.004 C 
ATOM      7  C   UNL     1       2.204  10.212  23.121  1.00  0.00     0.006 C 
ATOM      8  C   UNL     1       4.530  10.908  22.714  1.00  0.00    -0.020 C 
ATOM      9  C   UNL     1       2.155  11.397  22.161  1.00  0.00     0.012 C 
ATOM     10  C   UNL     1       3.612  11.743  21.729  1.00  0.00    -0.006 C 
ATOM     11  C   UNL     1       4.848  11.767  23.957  1.00  0.00     0.012 C 
ATOM     12  C   UNL     1       5.873  10.440  22.074  1.00  0.00     0.012 C 
ATOM     13  C   UNL     1       3.815  11.291  20.251  1.00  0.00     0.017 C 
ATOM     14  C   UNL     1       3.806  13.277  21.796  1.00  0.00    -0.064 C 
ATOM     15  C   UNL     1       5.535  13.074  23.576  1.00  0.00     0.032 C 
ATOM     16  C   UNL     1       4.750  13.887  22.566  1.00  0.00    -0.064 C 
ATOM     17  C   UNL     1       2.894  14.162  20.976  1.00  0.00     0.032 C 
ATOM     18  C   UNL     1       4.947  15.433  22.526  1.00  0.00    -0.008 C 
ATOM     19  C   UNL     1       3.753  15.119  20.183  1.00  0.00     0.009 C 
ATOM     20  C   UNL     1       4.501  16.094  21.131  1.00  0.00     0.007 C 
ATOM     21  C   UNL     1       6.436  15.774  22.858  1.00  0.00     0.014 C 
ATOM     22  C   UNL     1       4.068  16.009  23.670  1.00  0.00     0.016 C 
ATOM     23  C   UNL     1       5.604  16.927  20.361  1.00  0.00    -0.006 C 
ATOM     24  C   UNL     1       6.811  17.246  22.682  1.00  0.00     0.033 C 
ATOM     25  C   UNL     1       6.348  17.891  21.355  1.00  0.00     0.120 C 
ATOM     26  C   UNL     1       4.944  17.806  19.259  1.00  0.00     0.014 C 
ATOM     27  C   UNL     1       6.629  16.000  19.634  1.00  0.00     0.014 C 
BRANCH  25  28
ATOM     28  O   UNL     1       5.592  19.049  21.636  1.00  0.00    -0.393 OA
ATOM     29  H   UNL     1       6.074  19.566  22.329  1.00  0.00     0.210 HD
ENDBRANCH  25  28
ENDBRANCH   2   6
ENDBRANCH   1   2
BRANCH   1  30
ATOM     30  C   UNL     1       5.891   7.042  24.735  1.00  0.00     0.028 C 
BRANCH  30  31
ATOM     31  C   UNL     1       7.116   7.775  24.236  1.00  0.00    -0.028 C 
ATOM     32  C   UNL     1       7.664   8.856  24.829  1.00  0.00    -0.080 C 
ATOM     33  C   UNL     1       8.922   9.438  24.235  1.00  0.00     0.039 C 
ATOM     34  C   UNL     1       7.070   9.481  26.070  1.00  0.00     0.039 C 
ENDBRANCH  30  31
ENDBRANCH   1  30
TORSDOF 6
ENDMDL
