MODEL 1
REMARK VINA RESULT:    -5.724      0.000      0.000
REMARK INTER + INTRA:          -7.246
REMARK INTER:                  -7.063
REMARK INTRA:                  -0.184
REMARK UNBOUND:                -0.184
REMARK SMILES O=C1c2c(O)cc(O)cc2O[C@H](c2cc(O)c(O)c(O)c2)[C@H]1O
REMARK SMILES IDX 12 1 22 2 2 3 1 4 3 5 4 6 6 7 7 8 9 9 10 10 11 11 13 12
REMARK SMILES IDX 14 13 15 14 21 15 17 16 19 17 16 18 18 20 20 22 23 24 5 26
REMARK SMILES IDX 8 28
REMARK H PARENT 16 19 18 21 20 23 23 25 5 27 8 29
REMARK Flexibility Score: inf
ROOT
ATOM      1  C   UNL     1      45.992  14.978  -4.169  1.00  0.00     0.240 C 
ATOM      2  C   UNL     1      46.863  14.277  -3.109  1.00  0.00     0.231 C 
ATOM      3  C   UNL     1      48.173  13.889  -3.750  1.00  0.00     0.202 C 
ATOM      4  O   UNL     1      48.592  12.699  -3.664  1.00  0.00    -0.291 OA
ATOM      5  C   UNL     1      48.874  14.886  -4.591  1.00  0.00     0.105 A 
ATOM      6  C   UNL     1      50.264  14.846  -4.887  1.00  0.00     0.133 A 
ATOM      7  C   UNL     1      50.815  15.800  -5.750  1.00  0.00     0.093 A 
ATOM      8  C   UNL     1      50.029  16.831  -6.273  1.00  0.00     0.123 A 
ATOM      9  C   UNL     1      48.671  16.906  -5.939  1.00  0.00     0.093 A 
ATOM     10  C   UNL     1      48.094  15.940  -5.113  1.00  0.00     0.138 A 
ATOM     11  O   UNL     1      46.725  16.031  -4.809  1.00  0.00    -0.481 OA
ENDROOT
BRANCH   1  12
ATOM     12  C   UNL     1      44.713  15.514  -3.559  1.00  0.00     0.003 A 
ATOM     13  C   UNL     1      43.583  14.691  -3.399  1.00  0.00     0.058 A 
ATOM     14  C   UNL     1      42.398  15.209  -2.849  1.00  0.00     0.161 A 
ATOM     15  C   UNL     1      44.632  16.864  -3.187  1.00  0.00     0.058 A 
ATOM     16  C   UNL     1      42.329  16.562  -2.481  1.00  0.00     0.200 A 
ATOM     17  C   UNL     1      43.447  17.392  -2.660  1.00  0.00     0.161 A 
BRANCH  14  18
ATOM     18  O   UNL     1      41.296  14.377  -2.663  1.00  0.00    -0.504 OA
ATOM     19  H   UNL     1      41.025  13.686  -3.355  1.00  0.00     0.293 HD
ENDBRANCH  14  18
BRANCH  16  20
ATOM     20  O   UNL     1      41.158  17.090  -1.927  1.00  0.00    -0.502 OA
ATOM     21  H   UNL     1      40.277  16.592  -1.956  1.00  0.00     0.293 HD
ENDBRANCH  16  20
BRANCH  17  22
ATOM     22  O   UNL     1      43.403  18.748  -2.334  1.00  0.00    -0.504 OA
ATOM     23  H   UNL     1      43.021  19.443  -2.964  1.00  0.00     0.293 HD
ENDBRANCH  17  22
ENDBRANCH   1  12
BRANCH   2  24
ATOM     24  O   UNL     1      46.194  13.145  -2.617  1.00  0.00    -0.381 OA
ATOM     25  H   UNL     1      46.583  12.942  -1.726  1.00  0.00     0.211 HD
ENDBRANCH   2  24
BRANCH   6  26
ATOM     26  O   UNL     1      51.129  13.908  -4.319  1.00  0.00    -0.507 OA
ATOM     27  H   UNL     1      51.652  13.234  -4.859  1.00  0.00     0.293 HD
ENDBRANCH   6  26
BRANCH   8  28
ATOM     28  O   UNL     1      50.604  17.772  -7.121  1.00  0.00    -0.508 OA
ATOM     29  H   UNL     1      51.423  18.302  -6.845  1.00  0.00     0.293 HD
ENDBRANCH   8  28
TORSDOF 7
ENDMDL
MODEL 2
REMARK VINA RESULT:    -5.615      0.161      1.760
REMARK INTER + INTRA:          -7.111
REMARK INTER:                  -6.942
REMARK INTRA:                  -0.169
REMARK UNBOUND:                -0.184
REMARK SMILES O=C1c2c(O)cc(O)cc2O[C@H](c2cc(O)c(O)c(O)c2)[C@H]1O
REMARK SMILES IDX 12 1 22 2 2 3 1 4 3 5 4 6 6 7 7 8 9 9 10 10 11 11 13 12
REMARK SMILES IDX 14 13 15 14 21 15 17 16 19 17 16 18 18 20 20 22 23 24 5 26
REMARK SMILES IDX 8 28
REMARK H PARENT 16 19 18 21 20 23 23 25 5 27 8 29
REMARK Flexibility Score: inf
ROOT
ATOM      1  C   UNL     1      45.975  14.919  -4.277  1.00  0.00     0.240 C 
ATOM      2  C   UNL     1      46.822  14.231  -3.189  1.00  0.00     0.231 C 
ATOM      3  C   UNL     1      48.151  13.848  -3.791  1.00  0.00     0.202 C 
ATOM      4  O   UNL     1      48.576  12.661  -3.685  1.00  0.00    -0.291 OA
ATOM      5  C   UNL     1      48.868  14.844  -4.620  1.00  0.00     0.105 A 
ATOM      6  C   UNL     1      50.265  14.812  -4.877  1.00  0.00     0.133 A 
ATOM      7  C   UNL     1      50.832  15.764  -5.733  1.00  0.00     0.093 A 
ATOM      8  C   UNL     1      50.054  16.786  -6.284  1.00  0.00     0.123 A 
ATOM      9  C   UNL     1      48.687  16.853  -5.988  1.00  0.00     0.093 A 
ATOM     10  C   UNL     1      48.094  15.889  -5.171  1.00  0.00     0.138 A 
ATOM     11  O   UNL     1      46.717  15.971  -4.904  1.00  0.00    -0.481 OA
ENDROOT
BRANCH   1  12
ATOM     12  C   UNL     1      44.675  15.449  -3.706  1.00  0.00     0.003 A 
ATOM     13  C   UNL     1      44.575  16.768  -3.228  1.00  0.00     0.058 A 
ATOM     14  C   UNL     1      43.368  17.238  -2.684  1.00  0.00     0.161 A 
ATOM     15  C   UNL     1      43.561  14.602  -3.608  1.00  0.00     0.058 A 
ATOM     16  C   UNL     1      42.260  16.380  -2.590  1.00  0.00     0.200 A 
ATOM     17  C   UNL     1      42.363  15.056  -3.045  1.00  0.00     0.161 A 
BRANCH  14  18
ATOM     18  O   UNL     1      43.270  18.557  -2.244  1.00  0.00    -0.504 OA
ATOM     19  H   UNL     1      44.065  19.050  -1.853  1.00  0.00     0.293 HD
ENDBRANCH  14  18
BRANCH  16  20
ATOM     20  O   UNL     1      41.051  16.835  -2.055  1.00  0.00    -0.502 OA
ATOM     21  H   UNL     1      40.269  16.215  -1.887  1.00  0.00     0.293 HD
ENDBRANCH  16  20
BRANCH  17  22
ATOM     22  O   UNL     1      41.292  14.168  -2.939  1.00  0.00    -0.504 OA
ATOM     23  H   UNL     1      41.308  13.249  -3.366  1.00  0.00     0.293 HD
ENDBRANCH  17  22
ENDBRANCH   1  12
BRANCH   2  24
ATOM     24  O   UNL     1      46.147  13.098  -2.707  1.00  0.00    -0.381 OA
ATOM     25  H   UNL     1      45.260  13.077  -3.152  1.00  0.00     0.211 HD
ENDBRANCH   2  24
BRANCH   6  26
ATOM     26  O   UNL     1      51.121  13.885  -4.279  1.00  0.00    -0.507 OA
ATOM     27  H   UNL     1      52.090  14.076  -4.067  1.00  0.00     0.293 HD
ENDBRANCH   6  26
BRANCH   8  28
ATOM     28  O   UNL     1      50.645  17.725  -7.123  1.00  0.00    -0.508 OA
ATOM     29  H   UNL     1      50.092  18.285  -7.762  1.00  0.00     0.293 HD
ENDBRANCH   8  28
TORSDOF 7
ENDMDL
MODEL 3
REMARK VINA RESULT:    -5.598      2.619      3.990
REMARK INTER + INTRA:          -7.091
REMARK INTER:                  -6.720
REMARK INTRA:                  -0.371
REMARK UNBOUND:                -0.184
REMARK SMILES O=C1c2c(O)cc(O)cc2O[C@H](c2cc(O)c(O)c(O)c2)[C@H]1O
REMARK SMILES IDX 12 1 22 2 2 3 1 4 3 5 4 6 6 7 7 8 9 9 10 10 11 11 13 12
REMARK SMILES IDX 14 13 15 14 21 15 17 16 19 17 16 18 18 20 20 22 23 24 5 26
REMARK SMILES IDX 8 28
REMARK H PARENT 16 19 18 21 20 23 23 25 5 27 8 29
REMARK Flexibility Score: inf
ROOT
ATOM      1  C   UNL     1      45.616  15.447  -3.712  1.00  0.00     0.240 C 
ATOM      2  C   UNL     1      45.321  14.596  -4.962  1.00  0.00     0.231 C 
ATOM      3  C   UNL     1      46.545  13.771  -5.275  1.00  0.00     0.202 C 
ATOM      4  O   UNL     1      47.041  13.791  -6.439  1.00  0.00    -0.291 OA
ATOM      5  C   UNL     1      47.225  13.061  -4.168  1.00  0.00     0.105 A 
ATOM      6  C   UNL     1      48.077  11.938  -4.344  1.00  0.00     0.133 A 
ATOM      7  C   UNL     1      48.726  11.383  -3.235  1.00  0.00     0.093 A 
ATOM      8  C   UNL     1      48.495  11.877  -1.948  1.00  0.00     0.123 A 
ATOM      9  C   UNL     1      47.613  12.949  -1.765  1.00  0.00     0.093 A 
ATOM     10  C   UNL     1      46.988  13.543  -2.863  1.00  0.00     0.138 A 
ATOM     11  O   UNL     1      46.121  14.628  -2.651  1.00  0.00    -0.481 OA
ENDROOT
BRANCH   1  12
ATOM     12  C   UNL     1      44.382  16.203  -3.262  1.00  0.00     0.003 A 
ATOM     13  C   UNL     1      44.282  17.597  -3.426  1.00  0.00     0.058 A 
ATOM     14  C   UNL     1      43.138  18.284  -2.985  1.00  0.00     0.161 A 
ATOM     15  C   UNL     1      43.337  15.514  -2.628  1.00  0.00     0.058 A 
ATOM     16  C   UNL     1      42.099  17.584  -2.352  1.00  0.00     0.200 A 
ATOM     17  C   UNL     1      42.206  16.197  -2.165  1.00  0.00     0.161 A 
BRANCH  14  18
ATOM     18  O   UNL     1      43.034  19.660  -3.184  1.00  0.00    -0.504 OA
ATOM     19  H   UNL     1      43.229  20.323  -2.442  1.00  0.00     0.293 HD
ENDBRANCH  14  18
BRANCH  16  20
ATOM     20  O   UNL     1      40.954  18.255  -1.913  1.00  0.00    -0.502 OA
ATOM     21  H   UNL     1      40.975  19.224  -1.623  1.00  0.00     0.293 HD
ENDBRANCH  16  20
BRANCH  17  22
ATOM     22  O   UNL     1      41.206  15.474  -1.512  1.00  0.00    -0.504 OA
ATOM     23  H   UNL     1      41.332  15.099  -0.580  1.00  0.00     0.293 HD
ENDBRANCH  17  22
ENDBRANCH   1  12
BRANCH   2  24
ATOM     24  O   UNL     1      44.993  15.433  -6.041  1.00  0.00    -0.381 OA
ATOM     25  H   UNL     1      44.642  14.850  -6.764  1.00  0.00     0.211 HD
ENDBRANCH   2  24
BRANCH   6  26
ATOM     26  O   UNL     1      48.273  11.325  -5.584  1.00  0.00    -0.507 OA
ATOM     27  H   UNL     1      47.962  10.389  -5.798  1.00  0.00     0.293 HD
ENDBRANCH   6  26
BRANCH   8  28
ATOM     28  O   UNL     1      49.146  11.301  -0.862  1.00  0.00    -0.508 OA
ATOM     29  H   UNL     1      49.768  10.508  -0.978  1.00  0.00     0.293 HD
ENDBRANCH   8  28
TORSDOF 7
ENDMDL
MODEL 4
REMARK VINA RESULT:    -5.492      1.501      2.012
REMARK INTER + INTRA:          -6.960
REMARK INTER:                  -7.158
REMARK INTRA:                   0.199
REMARK UNBOUND:                -0.184
REMARK SMILES O=C1c2c(O)cc(O)cc2O[C@H](c2cc(O)c(O)c(O)c2)[C@H]1O
REMARK SMILES IDX 12 1 22 2 2 3 1 4 3 5 4 6 6 7 7 8 9 9 10 10 11 11 13 12
REMARK SMILES IDX 14 13 15 14 21 15 17 16 19 17 16 18 18 20 20 22 23 24 5 26
REMARK SMILES IDX 8 28
REMARK H PARENT 16 19 18 21 20 23 23 25 5 27 8 29
REMARK Flexibility Score: inf
ROOT
ATOM      1  C   UNL     1      45.652  15.590  -4.308  1.00  0.00     0.240 C 
ATOM      2  C   UNL     1      45.772  14.514  -3.211  1.00  0.00     0.231 C 
ATOM      3  C   UNL     1      46.881  13.566  -3.595  1.00  0.00     0.202 C 
ATOM      4  O   UNL     1      46.669  12.319  -3.618  1.00  0.00    -0.291 OA
ATOM      5  C   UNL     1      48.163  14.130  -4.075  1.00  0.00     0.105 A 
ATOM      6  C   UNL     1      49.402  13.433  -4.051  1.00  0.00     0.133 A 
ATOM      7  C   UNL     1      50.544  14.034  -4.594  1.00  0.00     0.093 A 
ATOM      8  C   UNL     1      50.496  15.337  -5.100  1.00  0.00     0.123 A 
ATOM      9  C   UNL     1      49.290  16.046  -5.074  1.00  0.00     0.093 A 
ATOM     10  C   UNL     1      48.130  15.450  -4.575  1.00  0.00     0.138 A 
ATOM     11  O   UNL     1      46.930  16.180  -4.578  1.00  0.00    -0.481 OA
ENDROOT
BRANCH   1  12
ATOM     12  C   UNL     1      44.645  16.654  -3.922  1.00  0.00     0.003 A 
ATOM     13  C   UNL     1      43.844  16.516  -2.774  1.00  0.00     0.058 A 
ATOM     14  C   UNL     1      42.901  17.504  -2.441  1.00  0.00     0.161 A 
ATOM     15  C   UNL     1      44.470  17.777  -4.744  1.00  0.00     0.058 A 
ATOM     16  C   UNL     1      42.735  18.623  -3.272  1.00  0.00     0.200 A 
ATOM     17  C   UNL     1      43.515  18.753  -4.432  1.00  0.00     0.161 A 
BRANCH  14  18
ATOM     18  O   UNL     1      42.137  17.373  -1.282  1.00  0.00    -0.504 OA
ATOM     19  H   UNL     1      42.369  16.697  -0.563  1.00  0.00     0.293 HD
ENDBRANCH  14  18
BRANCH  16  20
ATOM     20  O   UNL     1      41.804  19.615  -2.950  1.00  0.00    -0.502 OA
ATOM     21  H   UNL     1      40.838  19.399  -2.740  1.00  0.00     0.293 HD
ENDBRANCH  16  20
BRANCH  17  22
ATOM     22  O   UNL     1      43.355  19.836  -5.296  1.00  0.00    -0.504 OA
ATOM     23  H   UNL     1      43.728  20.755  -5.086  1.00  0.00     0.293 HD
ENDBRANCH  17  22
ENDBRANCH   1  12
BRANCH   2  24
ATOM     24  O   UNL     1      44.553  13.829  -3.082  1.00  0.00    -0.381 OA
ATOM     25  H   UNL     1      44.628  13.253  -2.277  1.00  0.00     0.211 HD
ENDBRANCH   2  24
BRANCH   6  26
ATOM     26  O   UNL     1      49.547  12.172  -3.468  1.00  0.00    -0.507 OA
ATOM     27  H   UNL     1      49.875  12.029  -2.524  1.00  0.00     0.293 HD
ENDBRANCH   6  26
BRANCH   8  28
ATOM     28  O   UNL     1      51.648  15.914  -5.624  1.00  0.00    -0.508 OA
ATOM     29  H   UNL     1      51.790  15.995  -6.625  1.00  0.00     0.293 HD
ENDBRANCH   8  28
TORSDOF 7
ENDMDL
MODEL 5
REMARK VINA RESULT:    -5.459      1.457      2.338
REMARK INTER + INTRA:          -6.919
REMARK INTER:                  -7.172
REMARK INTRA:                   0.254
REMARK UNBOUND:                -0.184
REMARK SMILES O=C1c2c(O)cc(O)cc2O[C@H](c2cc(O)c(O)c(O)c2)[C@H]1O
REMARK SMILES IDX 12 1 22 2 2 3 1 4 3 5 4 6 6 7 7 8 9 9 10 10 11 11 13 12
REMARK SMILES IDX 14 13 15 14 21 15 17 16 19 17 16 18 18 20 20 22 23 24 5 26
REMARK SMILES IDX 8 28
REMARK H PARENT 16 19 18 21 20 23 23 25 5 27 8 29
REMARK Flexibility Score: inf
ROOT
ATOM      1  C   UNL     1      45.583  15.639  -4.355  1.00  0.00     0.240 C 
ATOM      2  C   UNL     1      45.742  14.590  -3.237  1.00  0.00     0.231 C 
ATOM      3  C   UNL     1      46.874  13.665  -3.610  1.00  0.00     0.202 C 
ATOM      4  O   UNL     1      46.696  12.413  -3.604  1.00  0.00    -0.291 OA
ATOM      5  C   UNL     1      48.136  14.254  -4.113  1.00  0.00     0.105 A 
ATOM      6  C   UNL     1      49.394  13.593  -4.085  1.00  0.00     0.133 A 
ATOM      7  C   UNL     1      50.514  14.213  -4.651  1.00  0.00     0.093 A 
ATOM      8  C   UNL     1      50.425  15.502  -5.184  1.00  0.00     0.123 A 
ATOM      9  C   UNL     1      49.200  16.179  -5.164  1.00  0.00     0.093 A 
ATOM     10  C   UNL     1      48.062  15.561  -4.641  1.00  0.00     0.138 A 
ATOM     11  O   UNL     1      46.842  16.258  -4.650  1.00  0.00    -0.481 OA
ENDROOT
BRANCH   1  12
ATOM     12  C   UNL     1      44.550  16.682  -3.984  1.00  0.00     0.003 A 
ATOM     13  C   UNL     1      44.394  17.856  -4.743  1.00  0.00     0.058 A 
ATOM     14  C   UNL     1      43.443  18.822  -4.374  1.00  0.00     0.161 A 
ATOM     15  C   UNL     1      43.761  16.503  -2.837  1.00  0.00     0.058 A 
ATOM     16  C   UNL     1      42.661  18.632  -3.223  1.00  0.00     0.200 A 
ATOM     17  C   UNL     1      42.830  17.473  -2.449  1.00  0.00     0.161 A 
BRANCH  14  18
ATOM     18  O   UNL     1      43.274  19.965  -5.153  1.00  0.00    -0.504 OA
ATOM     19  H   UNL     1      43.073  20.869  -4.739  1.00  0.00     0.293 HD
ENDBRANCH  14  18
BRANCH  16  20
ATOM     20  O   UNL     1      41.708  19.583  -2.846  1.00  0.00    -0.502 OA
ATOM     21  H   UNL     1      41.351  20.274  -3.494  1.00  0.00     0.293 HD
ENDBRANCH  16  20
BRANCH  17  22
ATOM     22  O   UNL     1      42.091  17.266  -1.284  1.00  0.00    -0.504 OA
ATOM     23  H   UNL     1      42.309  17.739  -0.414  1.00  0.00     0.293 HD
ENDBRANCH  17  22
ENDBRANCH   1  12
BRANCH   2  24
ATOM     24  O   UNL     1      44.544  13.875  -3.082  1.00  0.00    -0.381 OA
ATOM     25  H   UNL     1      43.819  14.438  -3.462  1.00  0.00     0.211 HD
ENDBRANCH   2  24
BRANCH   6  26
ATOM     26  O   UNL     1      49.579  12.349  -3.477  1.00  0.00    -0.507 OA
ATOM     27  H   UNL     1      50.277  11.683  -3.772  1.00  0.00     0.293 HD
ENDBRANCH   6  26
BRANCH   8  28
ATOM     28  O   UNL     1      51.556  16.099  -5.732  1.00  0.00    -0.508 OA
ATOM     29  H   UNL     1      52.125  15.622  -6.423  1.00  0.00     0.293 HD
ENDBRANCH   8  28
TORSDOF 7
ENDMDL
MODEL 6
REMARK VINA RESULT:    -5.181      1.190      6.901
REMARK INTER + INTRA:          -6.576
REMARK INTER:                  -6.490
REMARK INTRA:                  -0.086
REMARK UNBOUND:                -0.184
REMARK SMILES O=C1c2c(O)cc(O)cc2O[C@H](c2cc(O)c(O)c(O)c2)[C@H]1O
REMARK SMILES IDX 12 1 22 2 2 3 1 4 3 5 4 6 6 7 7 8 9 9 10 10 11 11 13 12
REMARK SMILES IDX 14 13 15 14 21 15 17 16 19 17 16 18 18 20 20 22 23 24 5 26
REMARK SMILES IDX 8 28
REMARK H PARENT 16 19 18 21 20 23 23 25 5 27 8 29
REMARK Flexibility Score: inf
ROOT
ATOM      1  C   UNL     1      47.850  14.804  -4.147  1.00  0.00     0.240 C 
ATOM      2  C   UNL     1      47.136  13.637  -4.856  1.00  0.00     0.231 C 
ATOM      3  C   UNL     1      45.867  13.326  -4.102  1.00  0.00     0.202 C 
ATOM      4  O   UNL     1      45.625  12.142  -3.730  1.00  0.00    -0.291 OA
ATOM      5  C   UNL     1      44.994  14.449  -3.689  1.00  0.00     0.105 A 
ATOM      6  C   UNL     1      43.612  14.317  -3.385  1.00  0.00     0.133 A 
ATOM      7  C   UNL     1      42.893  15.431  -2.937  1.00  0.00     0.093 A 
ATOM      8  C   UNL     1      43.500  16.687  -2.849  1.00  0.00     0.123 A 
ATOM      9  C   UNL     1      44.847  16.832  -3.201  1.00  0.00     0.093 A 
ATOM     10  C   UNL     1      45.593  15.725  -3.610  1.00  0.00     0.138 A 
ATOM     11  O   UNL     1      46.948  15.897  -3.941  1.00  0.00    -0.481 OA
ENDROOT
BRANCH   1  12
ATOM     12  C   UNL     1      49.067  15.256  -4.927  1.00  0.00     0.003 A 
ATOM     13  C   UNL     1      50.261  14.512  -4.910  1.00  0.00     0.058 A 
ATOM     14  C   UNL     1      51.386  14.956  -5.625  1.00  0.00     0.161 A 
ATOM     15  C   UNL     1      49.025  16.461  -5.645  1.00  0.00     0.058 A 
ATOM     16  C   UNL     1      51.332  16.163  -6.339  1.00  0.00     0.200 A 
ATOM     17  C   UNL     1      50.150  16.921  -6.339  1.00  0.00     0.161 A 
BRANCH  14  18
ATOM     18  O   UNL     1      52.553  14.193  -5.629  1.00  0.00    -0.504 OA
ATOM     19  H   UNL     1      53.281  14.333  -6.322  1.00  0.00     0.293 HD
ENDBRANCH  14  18
BRANCH  16  20
ATOM     20  O   UNL     1      52.443  16.615  -7.059  1.00  0.00    -0.502 OA
ATOM     21  H   UNL     1      52.518  17.568  -7.391  1.00  0.00     0.293 HD
ENDBRANCH  16  20
BRANCH  17  22
ATOM     22  O   UNL     1      50.071  18.140  -7.013  1.00  0.00    -0.504 OA
ATOM     23  H   UNL     1      50.896  18.660  -7.289  1.00  0.00     0.293 HD
ENDBRANCH  17  22
ENDBRANCH   1  12
BRANCH   2  24
ATOM     24  O   UNL     1      47.981  12.515  -4.894  1.00  0.00    -0.381 OA
ATOM     25  H   UNL     1      47.855  12.088  -5.782  1.00  0.00     0.211 HD
ENDBRANCH   2  24
BRANCH   6  26
ATOM     26  O   UNL     1      42.915  13.118  -3.549  1.00  0.00    -0.507 OA
ATOM     27  H   UNL     1      42.036  12.917  -3.094  1.00  0.00     0.293 HD
ENDBRANCH   6  26
BRANCH   8  28
ATOM     28  O   UNL     1      42.760  17.780  -2.410  1.00  0.00    -0.508 OA
ATOM     29  H   UNL     1      41.821  17.670  -2.043  1.00  0.00     0.293 HD
ENDBRANCH   8  28
TORSDOF 7
ENDMDL
MODEL 7
REMARK VINA RESULT:    -5.069      2.189      6.809
REMARK INTER + INTRA:          -6.437
REMARK INTER:                  -6.367
REMARK INTRA:                  -0.071
REMARK UNBOUND:                -0.184
REMARK SMILES O=C1c2c(O)cc(O)cc2O[C@H](c2cc(O)c(O)c(O)c2)[C@H]1O
REMARK SMILES IDX 12 1 22 2 2 3 1 4 3 5 4 6 6 7 7 8 9 9 10 10 11 11 13 12
REMARK SMILES IDX 14 13 15 14 21 15 17 16 19 17 16 18 18 20 20 22 23 24 5 26
REMARK SMILES IDX 8 28
REMARK H PARENT 16 19 18 21 20 23 23 25 5 27 8 29
REMARK Flexibility Score: inf
ROOT
ATOM      1  C   UNL     1      46.054  14.789  -4.228  1.00  0.00     0.240 C 
ATOM      2  C   UNL     1      46.765  16.122  -4.532  1.00  0.00     0.231 C 
ATOM      3  C   UNL     1      45.724  17.130  -4.954  1.00  0.00     0.202 C 
ATOM      4  O   UNL     1      45.868  17.776  -6.033  1.00  0.00    -0.291 OA
ATOM      5  C   UNL     1      44.479  17.240  -4.160  1.00  0.00     0.105 A 
ATOM      6  C   UNL     1      43.638  18.385  -4.148  1.00  0.00     0.133 A 
ATOM      7  C   UNL     1      42.445  18.359  -3.415  1.00  0.00     0.093 A 
ATOM      8  C   UNL     1      42.105  17.246  -2.641  1.00  0.00     0.123 A 
ATOM      9  C   UNL     1      42.959  16.138  -2.607  1.00  0.00     0.093 A 
ATOM     10  C   UNL     1      44.132  16.127  -3.364  1.00  0.00     0.138 A 
ATOM     11  O   UNL     1      44.962  14.994  -3.323  1.00  0.00    -0.481 OA
ENDROOT
BRANCH   1  12
ATOM     12  C   UNL     1      47.024  13.767  -3.670  1.00  0.00     0.003 A 
ATOM     13  C   UNL     1      47.956  13.120  -4.501  1.00  0.00     0.058 A 
ATOM     14  C   UNL     1      48.836  12.161  -3.970  1.00  0.00     0.161 A 
ATOM     15  C   UNL     1      46.967  13.423  -2.311  1.00  0.00     0.058 A 
ATOM     16  C   UNL     1      48.768  11.824  -2.609  1.00  0.00     0.200 A 
ATOM     17  C   UNL     1      47.823  12.451  -1.782  1.00  0.00     0.161 A 
BRANCH  14  18
ATOM     18  O   UNL     1      49.779  11.550  -4.796  1.00  0.00    -0.504 OA
ATOM     19  H   UNL     1      49.886  10.542  -4.830  1.00  0.00     0.293 HD
ENDBRANCH  14  18
BRANCH  16  20
ATOM     20  O   UNL     1      49.641  10.875  -2.067  1.00  0.00    -0.502 OA
ATOM     21  H   UNL     1      50.634  11.046  -1.976  1.00  0.00     0.293 HD
ENDBRANCH  16  20
BRANCH  17  22
ATOM     22  O   UNL     1      47.708  12.119  -0.431  1.00  0.00    -0.504 OA
ATOM     23  H   UNL     1      47.658  11.158  -0.114  1.00  0.00     0.293 HD
ENDBRANCH  17  22
ENDBRANCH   1  12
BRANCH   2  24
ATOM     24  O   UNL     1      47.716  15.933  -5.547  1.00  0.00    -0.381 OA
ATOM     25  H   UNL     1      47.216  15.720  -6.378  1.00  0.00     0.211 HD
ENDBRANCH   2  24
BRANCH   6  26
ATOM     26  O   UNL     1      43.965  19.569  -4.812  1.00  0.00    -0.507 OA
ATOM     27  H   UNL     1      44.519  20.306  -4.399  1.00  0.00     0.293 HD
ENDBRANCH   6  26
BRANCH   8  28
ATOM     28  O   UNL     1      40.919  17.250  -1.914  1.00  0.00    -0.508 OA
ATOM     29  H   UNL     1      40.309  16.440  -1.892  1.00  0.00     0.293 HD
ENDBRANCH   8  28
TORSDOF 7
ENDMDL
MODEL 8
REMARK VINA RESULT:    -4.997      1.772      7.483
REMARK INTER + INTRA:          -6.349
REMARK INTER:                  -6.649
REMARK INTRA:                   0.300
REMARK UNBOUND:                -0.184
REMARK SMILES O=C1c2c(O)cc(O)cc2O[C@H](c2cc(O)c(O)c(O)c2)[C@H]1O
REMARK SMILES IDX 12 1 22 2 2 3 1 4 3 5 4 6 6 7 7 8 9 9 10 10 11 11 13 12
REMARK SMILES IDX 14 13 15 14 21 15 17 16 19 17 16 18 18 20 20 22 23 24 5 26
REMARK SMILES IDX 8 28
REMARK H PARENT 16 19 18 21 20 23 23 25 5 27 8 29
REMARK Flexibility Score: inf
ROOT
ATOM      1  C   UNL     1      46.215  16.150  -5.395  1.00  0.00     0.240 C 
ATOM      2  C   UNL     1      46.069  17.651  -5.714  1.00  0.00     0.231 C 
ATOM      3  C   UNL     1      44.603  18.004  -5.682  1.00  0.00     0.202 C 
ATOM      4  O   UNL     1      44.075  18.605  -6.662  1.00  0.00    -0.291 OA
ATOM      5  C   UNL     1      43.778  17.510  -4.556  1.00  0.00     0.105 A 
ATOM      6  C   UNL     1      42.547  18.092  -4.152  1.00  0.00     0.133 A 
ATOM      7  C   UNL     1      41.810  17.504  -3.117  1.00  0.00     0.093 A 
ATOM      8  C   UNL     1      42.303  16.390  -2.431  1.00  0.00     0.123 A 
ATOM      9  C   UNL     1      43.542  15.847  -2.790  1.00  0.00     0.093 A 
ATOM     10  C   UNL     1      44.273  16.394  -3.847  1.00  0.00     0.138 A 
ATOM     11  O   UNL     1      45.505  15.818  -4.196  1.00  0.00    -0.481 OA
ENDROOT
BRANCH   1  12
ATOM     12  C   UNL     1      47.673  15.755  -5.280  1.00  0.00     0.003 A 
ATOM     13  C   UNL     1      48.680  16.486  -5.936  1.00  0.00     0.058 A 
ATOM     14  C   UNL     1      50.026  16.094  -5.833  1.00  0.00     0.161 A 
ATOM     15  C   UNL     1      48.028  14.614  -4.544  1.00  0.00     0.058 A 
ATOM     16  C   UNL     1      50.368  14.950  -5.095  1.00  0.00     0.200 A 
ATOM     17  C   UNL     1      49.364  14.204  -4.458  1.00  0.00     0.161 A 
BRANCH  14  18
ATOM     18  O   UNL     1      51.019  16.845  -6.459  1.00  0.00    -0.504 OA
ATOM     19  H   UNL     1      50.988  17.050  -7.452  1.00  0.00     0.293 HD
ENDBRANCH  14  18
BRANCH  16  20
ATOM     20  O   UNL     1      51.704  14.551  -4.980  1.00  0.00    -0.502 OA
ATOM     21  H   UNL     1      52.194  14.088  -5.734  1.00  0.00     0.293 HD
ENDBRANCH  16  20
BRANCH  17  22
ATOM     22  O   UNL     1      49.666  13.045  -3.741  1.00  0.00    -0.504 OA
ATOM     23  H   UNL     1      50.542  12.929  -3.246  1.00  0.00     0.293 HD
ENDBRANCH  17  22
ENDBRANCH   1  12
BRANCH   2  24
ATOM     24  O   UNL     1      46.622  17.925  -6.976  1.00  0.00    -0.381 OA
ATOM     25  H   UNL     1      47.538  17.543  -6.980  1.00  0.00     0.211 HD
ENDBRANCH   2  24
BRANCH   6  26
ATOM     26  O   UNL     1      42.043  19.265  -4.721  1.00  0.00    -0.507 OA
ATOM     27  H   UNL     1      41.280  19.793  -4.325  1.00  0.00     0.293 HD
ENDBRANCH   6  26
BRANCH   8  28
ATOM     28  O   UNL     1      41.556  15.832  -1.399  1.00  0.00    -0.508 OA
ATOM     29  H   UNL     1      42.001  15.374  -0.611  1.00  0.00     0.293 HD
ENDBRANCH   8  28
TORSDOF 7
ENDMDL
MODEL 9
REMARK VINA RESULT:    -4.873      1.823      6.852
REMARK INTER + INTRA:          -6.195
REMARK INTER:                  -5.930
REMARK INTRA:                  -0.266
REMARK UNBOUND:                -0.184
REMARK SMILES O=C1c2c(O)cc(O)cc2O[C@H](c2cc(O)c(O)c(O)c2)[C@H]1O
REMARK SMILES IDX 12 1 22 2 2 3 1 4 3 5 4 6 6 7 7 8 9 9 10 10 11 11 13 12
REMARK SMILES IDX 14 13 15 14 21 15 17 16 19 17 16 18 18 20 20 22 23 24 5 26
REMARK SMILES IDX 8 28
REMARK H PARENT 16 19 18 21 20 23 23 25 5 27 8 29
REMARK Flexibility Score: inf
ROOT
ATOM      1  C   UNL     1      44.829  15.100  -2.958  1.00  0.00     0.240 C 
ATOM      2  C   UNL     1      43.799  14.447  -3.901  1.00  0.00     0.231 C 
ATOM      3  C   UNL     1      42.451  15.072  -3.638  1.00  0.00     0.202 C 
ATOM      4  O   UNL     1      41.448  14.337  -3.404  1.00  0.00    -0.291 OA
ATOM      5  C   UNL     1      42.362  16.545  -3.521  1.00  0.00     0.105 A 
ATOM      6  C   UNL     1      41.168  17.291  -3.714  1.00  0.00     0.133 A 
ATOM      7  C   UNL     1      41.177  18.676  -3.511  1.00  0.00     0.093 A 
ATOM      8  C   UNL     1      42.361  19.344  -3.185  1.00  0.00     0.123 A 
ATOM      9  C   UNL     1      43.551  18.619  -3.049  1.00  0.00     0.093 A 
ATOM     10  C   UNL     1      43.554  17.231  -3.206  1.00  0.00     0.138 A 
ATOM     11  O   UNL     1      44.760  16.528  -3.047  1.00  0.00    -0.481 OA
ENDROOT
BRANCH   1  12
ATOM     12  C   UNL     1      46.232  14.614  -3.260  1.00  0.00     0.003 A 
ATOM     13  C   UNL     1      46.780  13.508  -2.586  1.00  0.00     0.058 A 
ATOM     14  C   UNL     1      48.090  13.082  -2.865  1.00  0.00     0.161 A 
ATOM     15  C   UNL     1      47.020  15.302  -4.195  1.00  0.00     0.058 A 
ATOM     16  C   UNL     1      48.869  13.779  -3.802  1.00  0.00     0.200 A 
ATOM     17  C   UNL     1      48.334  14.898  -4.460  1.00  0.00     0.161 A 
BRANCH  14  18
ATOM     18  O   UNL     1      48.611  11.964  -2.216  1.00  0.00    -0.504 OA
ATOM     19  H   UNL     1      49.191  12.049  -1.388  1.00  0.00     0.293 HD
ENDBRANCH  14  18
BRANCH  16  20
ATOM     20  O   UNL     1      50.173  13.364  -4.093  1.00  0.00    -0.502 OA
ATOM     21  H   UNL     1      50.978  13.944  -3.898  1.00  0.00     0.293 HD
ENDBRANCH  16  20
BRANCH  17  22
ATOM     22  O   UNL     1      49.091  15.632  -5.374  1.00  0.00    -0.504 OA
ATOM     23  H   UNL     1      48.927  16.617  -5.544  1.00  0.00     0.293 HD
ENDBRANCH  17  22
ENDBRANCH   1  12
BRANCH   2  24
ATOM     24  O   UNL     1      43.760  13.062  -3.677  1.00  0.00    -0.381 OA
ATOM     25  H   UNL     1      43.363  12.647  -4.487  1.00  0.00     0.211 HD
ENDBRANCH   2  24
BRANCH   6  26
ATOM     26  O   UNL     1      39.973  16.706  -4.140  1.00  0.00    -0.507 OA
ATOM     27  H   UNL     1      39.365  16.175  -3.534  1.00  0.00     0.293 HD
ENDBRANCH   6  26
BRANCH   8  28
ATOM     28  O   UNL     1      42.345  20.722  -2.999  1.00  0.00    -0.508 OA
ATOM     29  H   UNL     1      41.489  21.258  -3.093  1.00  0.00     0.293 HD
ENDBRANCH   8  28
TORSDOF 7
ENDMDL
