MODEL 1
REMARK VINA RESULT:    -6.277      0.000      0.000
REMARK INTER + INTRA:          -9.769
REMARK INTER:                  -8.295
REMARK INTRA:                  -1.474
REMARK UNBOUND:                -1.474
REMARK SMILES CC[C@@H](C=C[C@H](C)[C@H]1CC[C@@H]2[C@@H]3CC=C4C[C@@H](O)CC[C@@]4(C)[C@@H]3CC[C@]21C)C(C)C
REMARK SMILES IDX 6 1 7 2 5 3 4 4 3 5 2 6 1 7 28 8 29 9 30 10 8 11 9 12 26 13
REMARK SMILES IDX 10 14 11 15 25 16 27 17 12 18 24 19 23 20 13 21 21 22 14 23
REMARK SMILES IDX 15 24 20 25 22 26 16 27 19 28 17 29 18 30
REMARK H PARENT 18 31
REMARK Flexibility Score: inf
ROOT
ATOM      1  C   UNL     1     137.204 133.317 136.441  1.00  0.00     0.012 C 
ATOM      2  C   UNL     1     138.029 134.158 135.442  1.00  0.00     0.012 C 
ENDROOT
BRANCH   1   3
ATOM      3  C   UNL     1     136.337 132.300 135.721  1.00  0.00    -0.028 C 
ATOM      4  C   UNL     1     136.250 131.007 136.077  1.00  0.00    -0.027 C 
BRANCH   4   5
ATOM      5  C   UNL     1     135.373 130.028 135.322  1.00  0.00     0.014 C 
BRANCH   5   6
ATOM      6  C   UNL     1     134.817 130.704 134.042  1.00  0.00     0.004 C 
ATOM      7  C   UNL     1     135.207 130.014 132.732  1.00  0.00     0.004 C 
ENDBRANCH   5   6
BRANCH   5   8
ATOM      8  C   UNL     1     134.287 129.420 136.271  1.00  0.00    -0.011 C 
ATOM      9  C   UNL     1     134.653 129.668 137.749  1.00  0.00     0.008 C 
ATOM     10  C   UNL     1     134.094 127.908 136.052  1.00  0.00     0.008 C 
ENDBRANCH   5   8
ENDBRANCH   4   5
ENDBRANCH   1   3
BRANCH   1  11
ATOM     11  C   UNL     1     137.992 132.634 137.618  1.00  0.00     0.002 C 
ATOM     12  C   UNL     1     139.520 132.945 137.659  1.00  0.00     0.005 C 
ATOM     13  C   UNL     1     137.502 132.914 139.086  1.00  0.00    -0.026 C 
ATOM     14  C   UNL     1     139.813 133.692 138.974  1.00  0.00     0.005 C 
ATOM     15  C   UNL     1     138.437 134.074 139.483  1.00  0.00    -0.001 C 
ATOM     16  C   UNL     1     136.038 133.378 139.308  1.00  0.00     0.007 C 
ATOM     17  C   UNL     1     137.719 131.581 139.883  1.00  0.00     0.012 C 
ATOM     18  C   UNL     1     138.274 134.677 140.899  1.00  0.00     0.000 C 
ATOM     19  C   UNL     1     135.817 133.935 140.743  1.00  0.00     0.005 C 
ATOM     20  C   UNL     1     136.791 135.105 141.097  1.00  0.00     0.003 C 
ATOM     21  C   UNL     1     138.791 133.809 142.058  1.00  0.00     0.031 C 
ATOM     22  C   UNL     1     136.559 135.809 142.503  1.00  0.00    -0.008 C 
ATOM     23  C   UNL     1     138.454 134.388 143.397  1.00  0.00    -0.027 C 
ATOM     24  C   UNL     1     137.402 135.198 143.631  1.00  0.00    -0.065 C 
ATOM     25  C   UNL     1     136.991 137.309 142.398  1.00  0.00     0.014 C 
ATOM     26  C   UNL     1     135.054 135.757 142.885  1.00  0.00     0.016 C 
ATOM     27  C   UNL     1     137.311 135.860 144.990  1.00  0.00     0.063 C 
ATOM     28  C   UNL     1     136.975 138.073 143.743  1.00  0.00     0.033 C 
ATOM     29  C   UNL     1     137.725 137.340 144.880  1.00  0.00     0.118 C 
BRANCH  29  30
ATOM     30  O   UNL     1     139.122 137.474 144.737  1.00  0.00    -0.393 OA
ATOM     31  H   UNL     1     139.396 136.988 143.918  1.00  0.00     0.210 HD
ENDBRANCH  29  30
ENDBRANCH   1  11
TORSDOF 6
ENDMDL
MODEL 2
REMARK VINA RESULT:    -6.219      3.398      9.254
REMARK INTER + INTRA:          -9.693
REMARK INTER:                  -8.629
REMARK INTRA:                  -1.064
REMARK UNBOUND:                -1.474
REMARK SMILES CC[C@@H](C=C[C@H](C)[C@H]1CC[C@@H]2[C@@H]3CC=C4C[C@@H](O)CC[C@@]4(C)[C@@H]3CC[C@]21C)C(C)C
REMARK SMILES IDX 6 1 7 2 5 3 4 4 3 5 2 6 1 7 28 8 29 9 30 10 8 11 9 12 26 13
REMARK SMILES IDX 10 14 11 15 25 16 27 17 12 18 24 19 23 20 13 21 21 22 14 23
REMARK SMILES IDX 15 24 20 25 22 26 16 27 19 28 17 29 18 30
REMARK H PARENT 18 31
REMARK Flexibility Score: inf
ROOT
ATOM      1  C   UNL     1     137.061 134.370 140.114  1.00  0.00     0.012 C 
ATOM      2  C   UNL     1     135.873 134.014 141.034  1.00  0.00     0.012 C 
ENDROOT
BRANCH   1   3
ATOM      3  C   UNL     1     137.744 135.648 140.567  1.00  0.00    -0.028 C 
ATOM      4  C   UNL     1     138.180 135.859 141.820  1.00  0.00    -0.027 C 
BRANCH   4   5
ATOM      5  C   UNL     1     138.853 137.155 142.226  1.00  0.00     0.014 C 
BRANCH   5   6
ATOM      6  C   UNL     1     140.371 137.073 141.924  1.00  0.00     0.004 C 
ATOM      7  C   UNL     1     141.178 138.299 142.358  1.00  0.00     0.004 C 
ENDBRANCH   5   6
BRANCH   5   8
ATOM      8  C   UNL     1     138.493 137.520 143.704  1.00  0.00    -0.011 C 
ATOM      9  C   UNL     1     138.776 136.331 144.644  1.00  0.00     0.008 C 
ATOM     10  C   UNL     1     137.022 137.944 143.865  1.00  0.00     0.008 C 
ENDBRANCH   5   8
ENDBRANCH   4   5
ENDBRANCH   1   3
BRANCH   1  11
ATOM     11  C   UNL     1     138.123 133.241 139.854  1.00  0.00     0.002 C 
ATOM     12  C   UNL     1     137.730 131.827 140.385  1.00  0.00     0.005 C 
ATOM     13  C   UNL     1     138.569 132.984 138.368  1.00  0.00    -0.026 C 
ATOM     14  C   UNL     1     137.623 130.883 139.173  1.00  0.00     0.005 C 
ATOM     15  C   UNL     1     137.629 131.824 137.984  1.00  0.00    -0.001 C 
ATOM     16  C   UNL     1     138.383 134.119 137.327  1.00  0.00     0.007 C 
ATOM     17  C   UNL     1     140.093 132.616 138.423  1.00  0.00     0.012 C 
ATOM     18  C   UNL     1     137.735 131.257 136.547  1.00  0.00     0.000 C 
ATOM     19  C   UNL     1     138.544 133.602 135.869  1.00  0.00     0.005 C 
ATOM     20  C   UNL     1     137.572 132.425 135.532  1.00  0.00     0.003 C 
ATOM     21  C   UNL     1     138.978 130.400 136.257  1.00  0.00     0.031 C 
ATOM     22  C   UNL     1     137.590 131.911 134.028  1.00  0.00    -0.008 C 
ATOM     23  C   UNL     1     139.087 130.026 134.812  1.00  0.00    -0.027 C 
ATOM     24  C   UNL     1     138.561 130.744 133.800  1.00  0.00    -0.065 C 
ATOM     25  C   UNL     1     136.167 131.373 133.659  1.00  0.00     0.014 C 
ATOM     26  C   UNL     1     137.937 133.080 133.067  1.00  0.00     0.016 C 
ATOM     27  C   UNL     1     138.583 130.132 132.415  1.00  0.00     0.063 C 
ATOM     28  C   UNL     1     136.085 130.687 132.274  1.00  0.00     0.033 C 
ATOM     29  C   UNL     1     137.178 129.615 132.049  1.00  0.00     0.118 C 
BRANCH  29  30
ATOM     30  O   UNL     1     136.872 128.424 132.739  1.00  0.00    -0.393 OA
ATOM     31  H   UNL     1     135.960 128.513 133.118  1.00  0.00     0.210 HD
ENDBRANCH  29  30
ENDBRANCH   1  11
TORSDOF 6
ENDMDL
MODEL 3
REMARK VINA RESULT:    -6.150      9.228     13.414
REMARK INTER + INTRA:          -9.602
REMARK INTER:                  -8.118
REMARK INTRA:                  -1.484
REMARK UNBOUND:                -1.474
REMARK SMILES CC[C@@H](C=C[C@H](C)[C@H]1CC[C@@H]2[C@@H]3CC=C4C[C@@H](O)CC[C@@]4(C)[C@@H]3CC[C@]21C)C(C)C
REMARK SMILES IDX 6 1 7 2 5 3 4 4 3 5 2 6 1 7 28 8 29 9 30 10 8 11 9 12 26 13
REMARK SMILES IDX 10 14 11 15 25 16 27 17 12 18 24 19 23 20 13 21 21 22 14 23
REMARK SMILES IDX 15 24 20 25 22 26 16 27 19 28 17 29 18 30
REMARK H PARENT 18 31
REMARK Flexibility Score: inf
ROOT
ATOM      1  C   UNL     1     130.696 125.258 145.295  1.00  0.00     0.012 C 
ATOM      2  C   UNL     1     131.500 126.178 146.241  1.00  0.00     0.012 C 
ENDROOT
BRANCH   1   3
ATOM      3  C   UNL     1     130.303 123.966 145.986  1.00  0.00    -0.028 C 
ATOM      4  C   UNL     1     129.157 123.306 145.743  1.00  0.00    -0.027 C 
BRANCH   4   5
ATOM      5  C   UNL     1     128.806 122.020 146.464  1.00  0.00     0.014 C 
BRANCH   5   6
ATOM      6  C   UNL     1     130.051 121.488 147.219  1.00  0.00     0.004 C 
ATOM      7  C   UNL     1     129.777 120.999 148.643  1.00  0.00     0.004 C 
ENDBRANCH   5   6
BRANCH   5   8
ATOM      8  C   UNL     1     128.148 121.000 145.477  1.00  0.00    -0.011 C 
ATOM      9  C   UNL     1     128.124 121.566 144.043  1.00  0.00     0.008 C 
ATOM     10  C   UNL     1     126.712 120.626 145.889  1.00  0.00     0.008 C 
ENDBRANCH   5   8
ENDBRANCH   4   5
ENDBRANCH   1   3
BRANCH   1  11
ATOM     11  C   UNL     1     129.456 125.894 144.568  1.00  0.00     0.002 C 
ATOM     12  C   UNL     1     129.321 127.441 144.720  1.00  0.00     0.005 C 
ATOM     13  C   UNL     1     129.306 125.644 143.022  1.00  0.00    -0.026 C 
ATOM     14  C   UNL     1     129.440 128.064 143.316  1.00  0.00     0.005 C 
ATOM     15  C   UNL     1     129.958 126.923 142.462  1.00  0.00    -0.001 C 
ATOM     16  C   UNL     1     130.023 124.421 142.392  1.00  0.00     0.007 C 
ATOM     17  C   UNL     1     127.768 125.504 142.746  1.00  0.00     0.012 C 
ATOM     18  C   UNL     1     130.031 127.079 140.923  1.00  0.00     0.000 C 
ATOM     19  C   UNL     1     130.064 124.509 140.840  1.00  0.00     0.005 C 
ATOM     20  C   UNL     1     130.731 125.825 140.323  1.00  0.00     0.003 C 
ATOM     21  C   UNL     1     128.702 127.399 140.220  1.00  0.00     0.031 C 
ATOM     22  C   UNL     1     130.916 125.945 138.749  1.00  0.00    -0.008 C 
ATOM     23  C   UNL     1     128.827 127.375 138.729  1.00  0.00    -0.027 C 
ATOM     24  C   UNL     1     129.743 126.651 138.055  1.00  0.00    -0.065 C 
ATOM     25  C   UNL     1     132.184 126.811 138.451  1.00  0.00     0.014 C 
ATOM     26  C   UNL     1     131.125 124.537 138.126  1.00  0.00     0.016 C 
ATOM     27  C   UNL     1     129.870 126.888 136.564  1.00  0.00     0.063 C 
ATOM     28  C   UNL     1     132.390 127.149 136.955  1.00  0.00     0.033 C 
ATOM     29  C   UNL     1     131.128 127.730 136.274  1.00  0.00     0.118 C 
BRANCH  29  30
ATOM     30  O   UNL     1     130.935 129.081 136.628  1.00  0.00    -0.393 OA
ATOM     31  H   UNL     1     131.766 129.409 137.058  1.00  0.00     0.210 HD
ENDBRANCH  29  30
ENDBRANCH   1  11
TORSDOF 6
ENDMDL
MODEL 4
REMARK VINA RESULT:    -5.880      1.842      2.719
REMARK INTER + INTRA:          -9.244
REMARK INTER:                  -7.873
REMARK INTRA:                  -1.372
REMARK UNBOUND:                -1.474
REMARK SMILES CC[C@@H](C=C[C@H](C)[C@H]1CC[C@@H]2[C@@H]3CC=C4C[C@@H](O)CC[C@@]4(C)[C@@H]3CC[C@]21C)C(C)C
REMARK SMILES IDX 6 1 7 2 5 3 4 4 3 5 2 6 1 7 28 8 29 9 30 10 8 11 9 12 26 13
REMARK SMILES IDX 10 14 11 15 25 16 27 17 12 18 24 19 23 20 13 21 21 22 14 23
REMARK SMILES IDX 15 24 20 25 22 26 16 27 19 28 17 29 18 30
REMARK H PARENT 18 31
REMARK Flexibility Score: inf
ROOT
ATOM      1  C   UNL     1     136.216 131.142 138.233  1.00  0.00     0.012 C 
ATOM      2  C   UNL     1     136.884 131.552 136.902  1.00  0.00     0.012 C 
ENDROOT
BRANCH   1   3
ATOM      3  C   UNL     1     135.232 130.005 138.027  1.00  0.00    -0.028 C 
ATOM      4  C   UNL     1     134.699 129.286 139.029  1.00  0.00    -0.027 C 
BRANCH   4   5
ATOM      5  C   UNL     1     133.723 128.155 138.772  1.00  0.00     0.014 C 
BRANCH   5   6
ATOM      6  C   UNL     1     132.826 128.506 137.557  1.00  0.00     0.004 C 
ATOM      7  C   UNL     1     133.007 127.594 136.341  1.00  0.00     0.004 C 
ENDBRANCH   5   6
BRANCH   5   8
ATOM      8  C   UNL     1     132.946 127.792 140.081  1.00  0.00    -0.011 C 
ATOM      9  C   UNL     1     131.470 127.476 139.770  1.00  0.00     0.008 C 
ATOM     10  C   UNL     1     133.005 128.918 141.131  1.00  0.00     0.008 C 
ENDBRANCH   5   8
ENDBRANCH   4   5
ENDBRANCH   1   3
BRANCH   1  11
ATOM     11  C   UNL     1     137.170 130.831 139.443  1.00  0.00     0.002 C 
ATOM     12  C   UNL     1     138.688 131.059 139.163  1.00  0.00     0.005 C 
ATOM     13  C   UNL     1     136.908 131.591 140.795  1.00  0.00    -0.026 C 
ATOM     14  C   UNL     1     139.179 132.171 140.110  1.00  0.00     0.005 C 
ATOM     15  C   UNL     1     137.896 132.767 140.657  1.00  0.00    -0.001 C 
ATOM     16  C   UNL     1     135.496 132.177 141.060  1.00  0.00     0.007 C 
ATOM     17  C   UNL     1     137.239 130.574 141.942  1.00  0.00     0.012 C 
ATOM     18  C   UNL     1     137.951 133.799 141.810  1.00  0.00     0.000 C 
ATOM     19  C   UNL     1     135.496 133.175 142.252  1.00  0.00     0.005 C 
ATOM     20  C   UNL     1     136.516 134.345 142.066  1.00  0.00     0.003 C 
ATOM     21  C   UNL     1     138.634 133.322 143.101  1.00  0.00     0.031 C 
ATOM     22  C   UNL     1     136.502 135.472 143.186  1.00  0.00    -0.008 C 
ATOM     23  C   UNL     1     138.505 134.315 144.214  1.00  0.00    -0.027 C 
ATOM     24  C   UNL     1     137.503 135.212 144.319  1.00  0.00    -0.065 C 
ATOM     25  C   UNL     1     136.918 136.835 142.540  1.00  0.00     0.014 C 
ATOM     26  C   UNL     1     135.071 135.624 143.773  1.00  0.00     0.016 C 
ATOM     27  C   UNL     1     137.620 136.277 145.389  1.00  0.00     0.063 C 
ATOM     28  C   UNL     1     137.108 137.989 143.553  1.00  0.00     0.033 C 
ATOM     29  C   UNL     1     138.018 137.620 144.748  1.00  0.00     0.118 C 
BRANCH  29  30
ATOM     30  O   UNL     1     139.378 137.629 144.373  1.00  0.00    -0.393 OA
ATOM     31  H   UNL     1     139.452 138.078 143.492  1.00  0.00     0.210 HD
ENDBRANCH  29  30
ENDBRANCH   1  11
TORSDOF 6
ENDMDL
MODEL 5
REMARK VINA RESULT:    -5.827      4.116      5.711
REMARK INTER + INTRA:          -9.174
REMARK INTER:                  -7.800
REMARK INTRA:                  -1.374
REMARK UNBOUND:                -1.474
REMARK SMILES CC[C@@H](C=C[C@H](C)[C@H]1CC[C@@H]2[C@@H]3CC=C4C[C@@H](O)CC[C@@]4(C)[C@@H]3CC[C@]21C)C(C)C
REMARK SMILES IDX 6 1 7 2 5 3 4 4 3 5 2 6 1 7 28 8 29 9 30 10 8 11 9 12 26 13
REMARK SMILES IDX 10 14 11 15 25 16 27 17 12 18 24 19 23 20 13 21 21 22 14 23
REMARK SMILES IDX 15 24 20 25 22 26 16 27 19 28 17 29 18 30
REMARK H PARENT 18 31
REMARK Flexibility Score: inf
ROOT
ATOM      1  C   UNL     1     134.716 129.564 141.460  1.00  0.00     0.012 C 
ATOM      2  C   UNL     1     135.745 128.622 140.798  1.00  0.00     0.012 C 
ENDROOT
BRANCH   1   3
ATOM      3  C   UNL     1     133.301 129.043 141.287  1.00  0.00    -0.028 C 
ATOM      4  C   UNL     1     132.403 128.970 142.285  1.00  0.00    -0.027 C 
BRANCH   4   5
ATOM      5  C   UNL     1     131.002 128.437 142.063  1.00  0.00     0.014 C 
BRANCH   5   6
ATOM      6  C   UNL     1     130.288 128.259 143.428  1.00  0.00     0.004 C 
ATOM      7  C   UNL     1     131.208 128.342 144.648  1.00  0.00     0.004 C 
ENDBRANCH   5   6
BRANCH   5   8
ATOM      8  C   UNL     1     131.040 127.154 141.167  1.00  0.00    -0.011 C 
ATOM      9  C   UNL     1     130.323 127.404 139.825  1.00  0.00     0.008 C 
ATOM     10  C   UNL     1     130.398 125.936 141.856  1.00  0.00     0.008 C 
ENDBRANCH   5   8
ENDBRANCH   4   5
ENDBRANCH   1   3
BRANCH   1  11
ATOM     11  C   UNL     1     134.976 129.963 142.958  1.00  0.00     0.002 C 
ATOM     12  C   UNL     1     136.277 129.371 143.584  1.00  0.00     0.005 C 
ATOM     13  C   UNL     1     135.044 131.495 143.307  1.00  0.00    -0.026 C 
ATOM     14  C   UNL     1     137.198 130.549 143.957  1.00  0.00     0.005 C 
ATOM     15  C   UNL     1     136.566 131.733 143.253  1.00  0.00    -0.001 C 
ATOM     16  C   UNL     1     134.363 132.508 142.348  1.00  0.00     0.007 C 
ATOM     17  C   UNL     1     134.394 131.652 144.726  1.00  0.00     0.012 C 
ATOM     18  C   UNL     1     137.080 133.166 143.534  1.00  0.00     0.000 C 
ATOM     19  C   UNL     1     134.807 133.970 142.639  1.00  0.00     0.005 C 
ATOM     20  C   UNL     1     136.358 134.158 142.576  1.00  0.00     0.003 C 
ATOM     21  C   UNL     1     137.019 133.622 145.001  1.00  0.00     0.031 C 
ATOM     22  C   UNL     1     136.891 135.645 142.749  1.00  0.00    -0.008 C 
ATOM     23  C   UNL     1     137.381 135.065 145.165  1.00  0.00    -0.027 C 
ATOM     24  C   UNL     1     137.233 135.999 144.203  1.00  0.00    -0.065 C 
ATOM     25  C   UNL     1     138.218 135.806 141.937  1.00  0.00     0.014 C 
ATOM     26  C   UNL     1     135.849 136.655 142.193  1.00  0.00     0.016 C 
ATOM     27  C   UNL     1     137.830 137.368 144.453  1.00  0.00     0.063 C 
ATOM     28  C   UNL     1     138.937 137.160 142.151  1.00  0.00     0.033 C 
ATOM     29  C   UNL     1     139.129 137.528 143.641  1.00  0.00     0.118 C 
BRANCH  29  30
ATOM     30  O   UNL     1     140.188 136.793 144.214  1.00  0.00    -0.393 OA
ATOM     31  H   UNL     1     139.906 136.502 145.119  1.00  0.00     0.210 HD
ENDBRANCH  29  30
ENDBRANCH   1  11
TORSDOF 6
ENDMDL
MODEL 6
REMARK VINA RESULT:    -5.761      6.586     12.527
REMARK INTER + INTRA:          -9.087
REMARK INTER:                  -7.978
REMARK INTRA:                  -1.110
REMARK UNBOUND:                -1.474
REMARK SMILES CC[C@@H](C=C[C@H](C)[C@H]1CC[C@@H]2[C@@H]3CC=C4C[C@@H](O)CC[C@@]4(C)[C@@H]3CC[C@]21C)C(C)C
REMARK SMILES IDX 6 1 7 2 5 3 4 4 3 5 2 6 1 7 28 8 29 9 30 10 8 11 9 12 26 13
REMARK SMILES IDX 10 14 11 15 25 16 27 17 12 18 24 19 23 20 13 21 21 22 14 23
REMARK SMILES IDX 15 24 20 25 22 26 16 27 19 28 17 29 18 30
REMARK H PARENT 18 31
REMARK Flexibility Score: inf
ROOT
ATOM      1  C   UNL     1     133.704 128.346 137.021  1.00  0.00     0.012 C 
ATOM      2  C   UNL     1     134.766 128.802 135.996  1.00  0.00     0.012 C 
ENDROOT
BRANCH   1   3
ATOM      3  C   UNL     1     133.743 129.204 138.273  1.00  0.00    -0.028 C 
ATOM      4  C   UNL     1     133.950 128.715 139.508  1.00  0.00    -0.027 C 
BRANCH   4   5
ATOM      5  C   UNL     1     133.976 129.613 140.729  1.00  0.00     0.014 C 
BRANCH   5   6
ATOM      6  C   UNL     1     135.442 129.856 141.168  1.00  0.00     0.004 C 
ATOM      7  C   UNL     1     136.272 128.585 141.365  1.00  0.00     0.004 C 
ENDBRANCH   5   6
BRANCH   5   8
ATOM      8  C   UNL     1     133.039 129.045 141.846  1.00  0.00    -0.011 C 
ATOM      9  C   UNL     1     131.894 128.215 141.230  1.00  0.00     0.008 C 
ATOM     10  C   UNL     1     132.433 130.155 142.726  1.00  0.00     0.008 C 
ENDBRANCH   5   8
ENDBRANCH   4   5
ENDBRANCH   1   3
BRANCH   1  11
ATOM     11  C   UNL     1     132.228 128.201 136.500  1.00  0.00     0.002 C 
ATOM     12  C   UNL     1     132.078 128.132 134.949  1.00  0.00     0.005 C 
ATOM     13  C   UNL     1     131.384 126.981 137.024  1.00  0.00    -0.026 C 
ATOM     14  C   UNL     1     131.479 126.757 134.595  1.00  0.00     0.005 C 
ATOM     15  C   UNL     1     131.609 125.968 135.883  1.00  0.00    -0.001 C 
ATOM     16  C   UNL     1     131.800 126.304 138.357  1.00  0.00     0.007 C 
ATOM     17  C   UNL     1     129.911 127.498 137.176  1.00  0.00     0.012 C 
ATOM     18  C   UNL     1     130.937 124.579 136.012  1.00  0.00     0.000 C 
ATOM     19  C   UNL     1     131.098 124.931 138.554  1.00  0.00     0.005 C 
ATOM     20  C   UNL     1     131.353 123.943 137.370  1.00  0.00     0.003 C 
ATOM     21  C   UNL     1     129.416 124.550 135.794  1.00  0.00     0.031 C 
ATOM     22  C   UNL     1     130.766 122.476 137.542  1.00  0.00    -0.008 C 
ATOM     23  C   UNL     1     128.824 123.208 136.092  1.00  0.00    -0.027 C 
ATOM     24  C   UNL     1     129.360 122.314 136.948  1.00  0.00    -0.065 C 
ATOM     25  C   UNL     1     131.683 121.468 136.775  1.00  0.00     0.014 C 
ATOM     26  C   UNL     1     130.750 122.079 139.044  1.00  0.00     0.016 C 
ATOM     27  C   UNL     1     128.754 120.927 136.989  1.00  0.00     0.063 C 
ATOM     28  C   UNL     1     131.136 120.022 136.719  1.00  0.00     0.033 C 
ATOM     29  C   UNL     1     129.666 119.935 136.243  1.00  0.00     0.118 C 
BRANCH  29  30
ATOM     30  O   UNL     1     129.573 120.101 134.846  1.00  0.00    -0.393 OA
ATOM     31  H   UNL     1     130.431 119.811 134.443  1.00  0.00     0.210 HD
ENDBRANCH  29  30
ENDBRANCH   1  11
TORSDOF 6
ENDMDL
MODEL 7
REMARK VINA RESULT:    -5.750      9.662     13.572
REMARK INTER + INTRA:          -9.073
REMARK INTER:                  -7.362
REMARK INTRA:                  -1.711
REMARK UNBOUND:                -1.474
REMARK SMILES CC[C@@H](C=C[C@H](C)[C@H]1CC[C@@H]2[C@@H]3CC=C4C[C@@H](O)CC[C@@]4(C)[C@@H]3CC[C@]21C)C(C)C
REMARK SMILES IDX 6 1 7 2 5 3 4 4 3 5 2 6 1 7 28 8 29 9 30 10 8 11 9 12 26 13
REMARK SMILES IDX 10 14 11 15 25 16 27 17 12 18 24 19 23 20 13 21 21 22 14 23
REMARK SMILES IDX 15 24 20 25 22 26 16 27 19 28 17 29 18 30
REMARK H PARENT 18 31
REMARK Flexibility Score: inf
ROOT
ATOM      1  C   UNL     1     130.630 120.168 139.875  1.00  0.00     0.012 C 
ATOM      2  C   UNL     1     132.149 119.913 139.994  1.00  0.00     0.012 C 
ENDROOT
BRANCH   1   3
ATOM      3  C   UNL     1     130.212 121.386 140.676  1.00  0.00    -0.028 C 
ATOM      4  C   UNL     1     130.966 122.491 140.806  1.00  0.00    -0.027 C 
BRANCH   4   5
ATOM      5  C   UNL     1     130.506 123.682 141.623  1.00  0.00     0.014 C 
BRANCH   5   6
ATOM      6  C   UNL     1     129.250 123.298 142.447  1.00  0.00     0.004 C 
ATOM      7  C   UNL     1     129.246 123.813 143.888  1.00  0.00     0.004 C 
ENDBRANCH   5   6
BRANCH   5   8
ATOM      8  C   UNL     1     130.334 124.940 140.708  1.00  0.00    -0.011 C 
ATOM      9  C   UNL     1     130.714 126.226 141.470  1.00  0.00     0.008 C 
ATOM     10  C   UNL     1     128.898 125.085 140.170  1.00  0.00     0.008 C 
ENDBRANCH   5   8
ENDBRANCH   4   5
ENDBRANCH   1   3
BRANCH   1  11
ATOM     11  C   UNL     1     130.031 120.231 138.423  1.00  0.00     0.002 C 
ATOM     12  C   UNL     1     128.484 120.423 138.354  1.00  0.00     0.005 C 
ATOM     13  C   UNL     1     130.599 121.323 137.443  1.00  0.00    -0.026 C 
ATOM     14  C   UNL     1     128.208 121.767 137.653  1.00  0.00     0.005 C 
ATOM     15  C   UNL     1     129.563 122.447 137.637  1.00  0.00    -0.001 C 
ATOM     16  C   UNL     1     132.007 121.912 137.721  1.00  0.00     0.007 C 
ATOM     17  C   UNL     1     130.614 120.669 136.018  1.00  0.00     0.012 C 
ATOM     18  C   UNL     1     129.764 123.756 136.836  1.00  0.00     0.000 C 
ATOM     19  C   UNL     1     132.273 123.197 136.886  1.00  0.00     0.005 C 
ATOM     20  C   UNL     1     131.193 124.304 137.116  1.00  0.00     0.003 C 
ATOM     21  C   UNL     1     129.453 123.674 135.333  1.00  0.00     0.031 C 
ATOM     22  C   UNL     1     131.449 125.693 136.388  1.00  0.00    -0.008 C 
ATOM     23  C   UNL     1     129.824 124.928 134.605  1.00  0.00    -0.027 C 
ATOM     24  C   UNL     1     130.783 125.786 135.009  1.00  0.00    -0.065 C 
ATOM     25  C   UNL     1     130.828 126.841 137.251  1.00  0.00     0.014 C 
ATOM     26  C   UNL     1     132.975 125.953 136.252  1.00  0.00     0.016 C 
ATOM     27  C   UNL     1     130.901 127.106 134.277  1.00  0.00     0.063 C 
ATOM     28  C   UNL     1     130.858 128.234 136.578  1.00  0.00     0.033 C 
ATOM     29  C   UNL     1     130.299 128.235 135.135  1.00  0.00     0.118 C 
BRANCH  29  30
ATOM     30  O   UNL     1     128.889 128.185 135.136  1.00  0.00    -0.393 OA
ATOM     31  H   UNL     1     128.574 128.382 136.055  1.00  0.00     0.210 HD
ENDBRANCH  29  30
ENDBRANCH   1  11
TORSDOF 6
ENDMDL
MODEL 8
REMARK VINA RESULT:    -5.748      3.092      5.738
REMARK INTER + INTRA:          -9.070
REMARK INTER:                  -7.031
REMARK INTRA:                  -2.039
REMARK UNBOUND:                -1.474
REMARK SMILES CC[C@@H](C=C[C@H](C)[C@H]1CC[C@@H]2[C@@H]3CC=C4C[C@@H](O)CC[C@@]4(C)[C@@H]3CC[C@]21C)C(C)C
REMARK SMILES IDX 6 1 7 2 5 3 4 4 3 5 2 6 1 7 28 8 29 9 30 10 8 11 9 12 26 13
REMARK SMILES IDX 10 14 11 15 25 16 27 17 12 18 24 19 23 20 13 21 21 22 14 23
REMARK SMILES IDX 15 24 20 25 22 26 16 27 19 28 17 29 18 30
REMARK H PARENT 18 31
REMARK Flexibility Score: inf
ROOT
ATOM      1  C   UNL     1     134.584 129.347 143.133  1.00  0.00     0.012 C 
ATOM      2  C   UNL     1     133.568 129.378 141.970  1.00  0.00     0.012 C 
ENDROOT
BRANCH   1   3
ATOM      3  C   UNL     1     136.004 129.518 142.628  1.00  0.00    -0.028 C 
ATOM      4  C   UNL     1     136.314 130.023 141.422  1.00  0.00    -0.027 C 
BRANCH   4   5
ATOM      5  C   UNL     1     137.750 130.169 140.961  1.00  0.00     0.014 C 
BRANCH   5   6
ATOM      6  C   UNL     1     138.690 130.239 142.192  1.00  0.00     0.004 C 
ATOM      7  C   UNL     1     139.023 131.656 142.665  1.00  0.00     0.004 C 
ENDBRANCH   5   6
BRANCH   5   8
ATOM      8  C   UNL     1     137.886 131.364 139.960  1.00  0.00    -0.011 C 
ATOM      9  C   UNL     1     136.526 132.063 139.757  1.00  0.00     0.008 C 
ATOM     10  C   UNL     1     138.430 130.924 138.588  1.00  0.00     0.008 C 
ENDBRANCH   5   8
ENDBRANCH   4   5
ENDBRANCH   1   3
BRANCH   1  11
ATOM     11  C   UNL     1     134.310 130.313 144.343  1.00  0.00     0.002 C 
ATOM     12  C   UNL     1     135.233 130.099 145.583  1.00  0.00     0.005 C 
ATOM     13  C   UNL     1     134.379 131.861 144.074  1.00  0.00    -0.026 C 
ATOM     14  C   UNL     1     136.051 131.388 145.788  1.00  0.00     0.005 C 
ATOM     15  C   UNL     1     135.829 132.161 144.503  1.00  0.00    -0.001 C 
ATOM     16  C   UNL     1     134.190 132.375 142.622  1.00  0.00     0.007 C 
ATOM     17  C   UNL     1     133.270 132.514 144.971  1.00  0.00     0.012 C 
ATOM     18  C   UNL     1     136.328 133.622 144.381  1.00  0.00     0.000 C 
ATOM     19  C   UNL     1     134.623 133.860 142.471  1.00  0.00     0.005 C 
ATOM     20  C   UNL     1     136.099 134.112 142.921  1.00  0.00     0.003 C 
ATOM     21  C   UNL     1     135.773 134.606 145.422  1.00  0.00     0.031 C 
ATOM     22  C   UNL     1     136.659 135.581 142.694  1.00  0.00    -0.008 C 
ATOM     23  C   UNL     1     136.175 136.020 145.140  1.00  0.00    -0.027 C 
ATOM     24  C   UNL     1     136.474 136.495 143.914  1.00  0.00    -0.065 C 
ATOM     25  C   UNL     1     138.201 135.502 142.439  1.00  0.00     0.014 C 
ATOM     26  C   UNL     1     135.988 136.224 141.449  1.00  0.00     0.016 C 
ATOM     27  C   UNL     1     137.055 137.890 143.820  1.00  0.00     0.063 C 
ATOM     28  C   UNL     1     138.907 136.878 142.367  1.00  0.00     0.033 C 
ATOM     29  C   UNL     1     138.571 137.808 143.556  1.00  0.00     0.118 C 
BRANCH  29  30
ATOM     30  O   UNL     1     139.275 137.426 144.717  1.00  0.00    -0.393 OA
ATOM     31  H   UNL     1     139.703 136.548 144.542  1.00  0.00     0.210 HD
ENDBRANCH  29  30
ENDBRANCH   1  11
TORSDOF 6
ENDMDL
MODEL 9
REMARK VINA RESULT:    -5.697      3.430      4.886
REMARK INTER + INTRA:          -9.003
REMARK INTER:                  -7.700
REMARK INTRA:                  -1.303
REMARK UNBOUND:                -1.474
REMARK SMILES CC[C@@H](C=C[C@H](C)[C@H]1CC[C@@H]2[C@@H]3CC=C4C[C@@H](O)CC[C@@]4(C)[C@@H]3CC[C@]21C)C(C)C
REMARK SMILES IDX 6 1 7 2 5 3 4 4 3 5 2 6 1 7 28 8 29 9 30 10 8 11 9 12 26 13
REMARK SMILES IDX 10 14 11 15 25 16 27 17 12 18 24 19 23 20 13 21 21 22 14 23
REMARK SMILES IDX 15 24 20 25 22 26 16 27 19 28 17 29 18 30
REMARK H PARENT 18 31
REMARK Flexibility Score: inf
ROOT
ATOM      1  C   UNL     1     134.633 129.929 140.200  1.00  0.00     0.012 C 
ATOM      2  C   UNL     1     135.185 129.900 138.758  1.00  0.00     0.012 C 
ENDROOT
BRANCH   1   3
ATOM      3  C   UNL     1     133.510 128.925 140.380  1.00  0.00    -0.028 C 
ATOM      4  C   UNL     1     132.709 128.884 141.459  1.00  0.00    -0.027 C 
BRANCH   4   5
ATOM      5  C   UNL     1     131.602 127.857 141.594  1.00  0.00     0.014 C 
BRANCH   5   6
ATOM      6  C   UNL     1     131.205 127.329 140.192  1.00  0.00     0.004 C 
ATOM      7  C   UNL     1     131.137 125.804 140.077  1.00  0.00     0.004 C 
ENDBRANCH   5   6
BRANCH   5   8
ATOM      8  C   UNL     1     130.419 128.435 142.441  1.00  0.00    -0.011 C 
ATOM      9  C   UNL     1     130.882 129.651 143.268  1.00  0.00     0.008 C 
ATOM     10  C   UNL     1     129.809 127.388 143.390  1.00  0.00     0.008 C 
ENDBRANCH   5   8
ENDBRANCH   4   5
ENDBRANCH   1   3
BRANCH   1  11
ATOM     11  C   UNL     1     135.680 129.799 141.365  1.00  0.00     0.002 C 
ATOM     12  C   UNL     1     137.168 129.694 140.909  1.00  0.00     0.005 C 
ATOM     13  C   UNL     1     135.693 130.921 142.467  1.00  0.00    -0.026 C 
ATOM     14  C   UNL     1     137.917 130.921 141.463  1.00  0.00     0.005 C 
ATOM     15  C   UNL     1     136.804 131.841 141.924  1.00  0.00    -0.001 C 
ATOM     16  C   UNL     1     134.415 131.778 142.673  1.00  0.00     0.007 C 
ATOM     17  C   UNL     1     136.024 130.204 143.822  1.00  0.00     0.012 C 
ATOM     18  C   UNL     1     137.139 133.118 142.733  1.00  0.00     0.000 C 
ATOM     19  C   UNL     1     134.698 133.042 143.534  1.00  0.00     0.005 C 
ATOM     20  C   UNL     1     135.834 133.939 142.944  1.00  0.00     0.003 C 
ATOM     21  C   UNL     1     137.908 132.896 144.045  1.00  0.00     0.031 C 
ATOM     22  C   UNL     1     136.109 135.309 143.700  1.00  0.00    -0.008 C 
ATOM     23  C   UNL     1     138.052 134.155 144.842  1.00  0.00    -0.027 C 
ATOM     24  C   UNL     1     137.200 135.198 144.774  1.00  0.00    -0.065 C 
ATOM     25  C   UNL     1     136.621 136.365 142.666  1.00  0.00     0.014 C 
ATOM     26  C   UNL     1     134.796 135.842 144.338  1.00  0.00     0.016 C 
ATOM     27  C   UNL     1     137.591 136.474 145.489  1.00  0.00     0.063 C 
ATOM     28  C   UNL     1     137.088 137.700 143.295  1.00  0.00     0.033 C 
ATOM     29  C   UNL     1     138.082 137.517 144.466  1.00  0.00     0.118 C 
BRANCH  29  30
ATOM     30  O   UNL     1     139.373 137.204 143.993  1.00  0.00    -0.393 OA
ATOM     31  H   UNL     1     139.278 136.604 143.210  1.00  0.00     0.210 HD
ENDBRANCH  29  30
ENDBRANCH   1  11
TORSDOF 6
ENDMDL
