MODEL 1
REMARK VINA RESULT:    -6.085      0.000      0.000
REMARK INTER + INTRA:         -10.325
REMARK INTER:                  -9.464
REMARK INTRA:                  -0.860
REMARK UNBOUND:                -0.860
REMARK SMILES COc1cc(CNC(=O)CCCCC=CC(C)C)ccc1O
REMARK SMILES IDX 11 1 12 2 13 3 14 4 15 5 16 6 17 7 18 8 10 9 8 10 9 11 7 12
REMARK SMILES IDX 6 14 5 15 4 16 19 17 3 18 20 19 21 20 2 21 1 22 22 23
REMARK H PARENT 7 13 22 24
REMARK Flexibility Score: inf
ROOT
ATOM      1  C   UNL     1      10.523   8.260 -16.871  1.00  0.00     0.010 C 
ENDROOT
BRANCH   1   2
ATOM      2  C   UNL     1      10.735   8.628 -15.394  1.00  0.00     0.005 C 
BRANCH   2   3
ATOM      3  C   UNL     1       9.590   8.132 -14.498  1.00  0.00     0.027 C 
BRANCH   3   4
ATOM      4  C   UNL     1       8.577   7.349 -15.288  1.00  0.00    -0.031 C 
ATOM      5  C   UNL     1       8.128   6.154 -14.872  1.00  0.00    -0.028 C 
BRANCH   5   6
ATOM      6  C   UNL     1       7.122   5.368 -15.681  1.00  0.00     0.005 C 
ATOM      7  C   UNL     1       7.161   5.802 -17.150  1.00  0.00     0.012 C 
ATOM      8  C   UNL     1       7.395   3.866 -15.561  1.00  0.00     0.012 C 
ENDBRANCH   5   6
ENDBRANCH   3   4
ENDBRANCH   2   3
ENDBRANCH   1   2
BRANCH   1   9
ATOM      9  C   UNL     1      10.937   9.390 -17.822  1.00  0.00     0.100 C 
BRANCH   9  10
ATOM     10  C   UNL     1       9.722  10.018 -18.434  1.00  0.00     0.220 C 
ATOM     11  O   UNL     1       8.576   9.661 -18.048  1.00  0.00    -0.275 OA
ATOM     12  N   UNL     1       9.868  11.055 -19.415  1.00  0.00    -0.352 N 
ATOM     13  H   UNL     1      10.828  11.307 -19.740  1.00  0.00     0.163 HD
BRANCH  12  14
ATOM     14  C   UNL     1       8.763  11.931 -19.795  1.00  0.00     0.151 C 
BRANCH  14  15
ATOM     15  C   UNL     1       9.184  13.367 -19.646  1.00  0.00    -0.025 A 
ATOM     16  C   UNL     1       8.912  14.297 -20.662  1.00  0.00     0.056 A 
ATOM     17  C   UNL     1       9.779  13.803 -18.454  1.00  0.00     0.009 A 
ATOM     18  C   UNL     1       9.251  15.655 -20.502  1.00  0.00     0.160 A 
ATOM     19  C   UNL     1      10.121  15.146 -18.290  1.00  0.00     0.050 A 
ATOM     20  C   UNL     1       9.862  16.073 -19.304  1.00  0.00     0.157 A 
BRANCH  18  21
ATOM     21  O   UNL     1       8.995  16.609 -21.499  1.00  0.00    -0.493 OA
ATOM     22  C   UNL     1       9.308  16.438 -22.879  1.00  0.00     0.278 C 
ENDBRANCH  18  21
BRANCH  20  23
ATOM     23  O   UNL     1      10.213  17.408 -19.103  1.00  0.00    -0.504 OA
ATOM     24  H   UNL     1      11.045  17.816 -19.513  1.00  0.00     0.293 HD
ENDBRANCH  20  23
ENDBRANCH  14  15
ENDBRANCH  12  14
ENDBRANCH   9  10
ENDBRANCH   1   9
TORSDOF 10
ENDMDL
MODEL 2
REMARK VINA RESULT:    -6.055      2.815      9.282
REMARK INTER + INTRA:         -10.278
REMARK INTER:                  -9.646
REMARK INTRA:                  -0.632
REMARK UNBOUND:                -0.860
REMARK SMILES COc1cc(CNC(=O)CCCCC=CC(C)C)ccc1O
REMARK SMILES IDX 11 1 12 2 13 3 14 4 15 5 16 6 17 7 18 8 10 9 8 10 9 11 7 12
REMARK SMILES IDX 6 14 5 15 4 16 19 17 3 18 20 19 21 20 2 21 1 22 22 23
REMARK H PARENT 7 13 22 24
REMARK Flexibility Score: inf
ROOT
ATOM      1  C   UNL     1       9.628  14.611 -18.210  1.00  0.00     0.010 C 
ENDROOT
BRANCH   1   2
ATOM      2  C   UNL     1      10.285  15.760 -18.990  1.00  0.00     0.005 C 
BRANCH   2   3
ATOM      3  C   UNL     1       9.296  16.891 -19.308  1.00  0.00     0.027 C 
BRANCH   3   4
ATOM      4  C   UNL     1       8.794  16.798 -20.724  1.00  0.00    -0.031 C 
ATOM      5  C   UNL     1       9.494  16.166 -21.680  1.00  0.00    -0.028 C 
BRANCH   5   6
ATOM      6  C   UNL     1       8.989  16.093 -23.102  1.00  0.00     0.005 C 
ATOM      7  C   UNL     1       8.181  17.347 -23.449  1.00  0.00     0.012 C 
ATOM      8  C   UNL     1      10.159  15.925 -24.078  1.00  0.00     0.012 C 
ENDBRANCH   5   6
ENDBRANCH   3   4
ENDBRANCH   2   3
ENDBRANCH   1   2
BRANCH   1   9
ATOM      9  C   UNL     1      10.383  14.271 -16.919  1.00  0.00     0.100 C 
BRANCH   9  10
ATOM     10  C   UNL     1       9.413  13.915 -15.834  1.00  0.00     0.220 C 
ATOM     11  O   UNL     1       8.408  14.649 -15.633  1.00  0.00    -0.275 OA
ATOM     12  N   UNL     1       9.603  12.718 -15.067  1.00  0.00    -0.352 N 
ATOM     13  H   UNL     1      10.462  12.147 -15.232  1.00  0.00     0.163 HD
BRANCH  12  14
ATOM     14  C   UNL     1       8.543  12.140 -14.246  1.00  0.00     0.151 C 
BRANCH  14  15
ATOM     15  C   UNL     1       8.594  10.639 -14.340  1.00  0.00    -0.025 A 
ATOM     16  C   UNL     1       9.429  10.014 -15.280  1.00  0.00     0.056 A 
ATOM     17  C   UNL     1       7.868   9.855 -13.434  1.00  0.00     0.009 A 
ATOM     18  C   UNL     1       9.526   8.609 -15.332  1.00  0.00     0.160 A 
ATOM     19  C   UNL     1       7.955   8.463 -13.482  1.00  0.00     0.050 A 
ATOM     20  C   UNL     1       8.778   7.836 -14.424  1.00  0.00     0.157 A 
BRANCH  18  21
ATOM     21  O   UNL     1      10.349   7.954 -16.260  1.00  0.00    -0.493 OA
ATOM     22  C   UNL     1      11.366   8.591 -17.029  1.00  0.00     0.278 C 
ENDBRANCH  18  21
BRANCH  20  23
ATOM     23  O   UNL     1       8.845   6.443 -14.439  1.00  0.00    -0.504 OA
ATOM     24  H   UNL     1       8.014   5.863 -14.446  1.00  0.00     0.293 HD
ENDBRANCH  20  23
ENDBRANCH  14  15
ENDBRANCH  12  14
ENDBRANCH   9  10
ENDBRANCH   1   9
TORSDOF 10
ENDMDL
MODEL 3
REMARK VINA RESULT:    -5.944      2.692      4.007
REMARK INTER + INTRA:         -10.105
REMARK INTER:                  -8.817
REMARK INTRA:                  -1.288
REMARK UNBOUND:                -0.860
REMARK SMILES COc1cc(CNC(=O)CCCCC=CC(C)C)ccc1O
REMARK SMILES IDX 11 1 12 2 13 3 14 4 15 5 16 6 17 7 18 8 10 9 8 10 9 11 7 12
REMARK SMILES IDX 6 14 5 15 4 16 19 17 3 18 20 19 21 20 2 21 1 22 22 23
REMARK H PARENT 7 13 22 24
REMARK Flexibility Score: inf
ROOT
ATOM      1  C   UNL     1       7.022  10.305 -13.512  1.00  0.00     0.010 C 
ENDROOT
BRANCH   1   2
ATOM      2  C   UNL     1       6.884   9.294 -12.363  1.00  0.00     0.005 C 
BRANCH   2   3
ATOM      3  C   UNL     1       7.458   7.916 -12.726  1.00  0.00     0.027 C 
BRANCH   3   4
ATOM      4  C   UNL     1       7.978   7.894 -14.138  1.00  0.00    -0.031 C 
ATOM      5  C   UNL     1       9.288   7.772 -14.406  1.00  0.00    -0.028 C 
BRANCH   5   6
ATOM      6  C   UNL     1       9.802   7.769 -15.827  1.00  0.00     0.005 C 
ATOM      7  C   UNL     1       8.702   8.219 -16.794  1.00  0.00     0.012 C 
ATOM      8  C   UNL     1      11.030   8.675 -15.955  1.00  0.00     0.012 C 
ENDBRANCH   5   6
ENDBRANCH   3   4
ENDBRANCH   2   3
ENDBRANCH   1   2
BRANCH   1   9
ATOM      9  C   UNL     1       7.936  11.484 -13.150  1.00  0.00     0.100 C 
BRANCH   9  10
ATOM     10  C   UNL     1       8.134  12.366 -14.344  1.00  0.00     0.220 C 
ATOM     11  O   UNL     1       7.163  13.032 -14.794  1.00  0.00    -0.275 OA
ATOM     12  N   UNL     1       9.436  12.491 -14.935  1.00  0.00    -0.352 N 
ATOM     13  H   UNL     1      10.214  11.902 -14.562  1.00  0.00     0.163 HD
BRANCH  12  14
ATOM     14  C   UNL     1       9.773  13.566 -15.863  1.00  0.00     0.151 C 
BRANCH  14  15
ATOM     15  C   UNL     1       9.643  13.071 -17.277  1.00  0.00    -0.025 A 
ATOM     16  C   UNL     1       9.357  13.967 -18.320  1.00  0.00     0.056 A 
ATOM     17  C   UNL     1       9.886  11.724 -17.573  1.00  0.00     0.009 A 
ATOM     18  C   UNL     1       9.294  13.518 -19.654  1.00  0.00     0.160 A 
ATOM     19  C   UNL     1       9.822  11.271 -18.892  1.00  0.00     0.050 A 
ATOM     20  C   UNL     1       9.527  12.158 -19.932  1.00  0.00     0.157 A 
BRANCH  18  21
ATOM     21  O   UNL     1       9.009  14.387 -20.719  1.00  0.00    -0.493 OA
ATOM     22  C   UNL     1       8.269  15.599 -20.596  1.00  0.00     0.278 C 
ENDBRANCH  18  21
BRANCH  20  23
ATOM     23  O   UNL     1       9.476  11.671 -21.238  1.00  0.00    -0.504 OA
ATOM     24  H   UNL     1       9.564  12.279 -22.045  1.00  0.00     0.293 HD
ENDBRANCH  20  23
ENDBRANCH  14  15
ENDBRANCH  12  14
ENDBRANCH   9  10
ENDBRANCH   1   9
TORSDOF 10
ENDMDL
MODEL 4
REMARK VINA RESULT:    -5.914      3.184      9.746
REMARK INTER + INTRA:         -10.058
REMARK INTER:                  -9.432
REMARK INTRA:                  -0.626
REMARK UNBOUND:                -0.860
REMARK SMILES COc1cc(CNC(=O)CCCCC=CC(C)C)ccc1O
REMARK SMILES IDX 11 1 12 2 13 3 14 4 15 5 16 6 17 7 18 8 10 9 8 10 9 11 7 12
REMARK SMILES IDX 6 14 5 15 4 16 19 17 3 18 20 19 21 20 2 21 1 22 22 23
REMARK H PARENT 7 13 22 24
REMARK Flexibility Score: inf
ROOT
ATOM      1  C   UNL     1      10.145  14.961 -18.049  1.00  0.00     0.010 C 
ENDROOT
BRANCH   1   2
ATOM      2  C   UNL     1       9.996  16.070 -19.102  1.00  0.00     0.005 C 
BRANCH   2   3
ATOM      3  C   UNL     1       8.579  16.126 -19.694  1.00  0.00     0.027 C 
BRANCH   3   4
ATOM      4  C   UNL     1       8.610  16.503 -21.151  1.00  0.00    -0.031 C 
ATOM      5  C   UNL     1       8.800  15.586 -22.113  1.00  0.00    -0.028 C 
BRANCH   5   6
ATOM      6  C   UNL     1       8.846  15.977 -23.572  1.00  0.00     0.005 C 
ATOM      7  C   UNL     1       8.392  17.429 -23.751  1.00  0.00     0.012 C 
ATOM      8  C   UNL     1      10.258  15.786 -24.134  1.00  0.00     0.012 C 
ENDBRANCH   5   6
ENDBRANCH   3   4
ENDBRANCH   2   3
ENDBRANCH   1   2
BRANCH   1   9
ATOM      9  C   UNL     1       8.806  14.582 -17.402  1.00  0.00     0.100 C 
BRANCH   9  10
ATOM     10  C   UNL     1       9.040  13.976 -16.052  1.00  0.00     0.220 C 
ATOM     11  O   UNL     1       9.850  14.523 -15.257  1.00  0.00    -0.275 OA
ATOM     12  N   UNL     1       8.305  12.810 -15.653  1.00  0.00    -0.352 N 
ATOM     13  H   UNL     1       7.665  12.359 -16.345  1.00  0.00     0.163 HD
BRANCH  12  14
ATOM     14  C   UNL     1       8.228  12.375 -14.261  1.00  0.00     0.151 C 
BRANCH  14  15
ATOM     15  C   UNL     1       8.395  10.882 -14.191  1.00  0.00    -0.025 A 
ATOM     16  C   UNL     1       7.619  10.121 -13.302  1.00  0.00     0.056 A 
ATOM     17  C   UNL     1       9.272  10.232 -15.070  1.00  0.00     0.009 A 
ATOM     18  C   UNL     1       7.729   8.716 -13.274  1.00  0.00     0.160 A 
ATOM     19  C   UNL     1       9.389   8.842 -15.046  1.00  0.00     0.050 A 
ATOM     20  C   UNL     1       8.625   8.081 -14.154  1.00  0.00     0.157 A 
BRANCH  18  21
ATOM     21  O   UNL     1       6.969   7.928 -12.397  1.00  0.00    -0.493 OA
ATOM     22  C   UNL     1       7.153   7.884 -10.984  1.00  0.00     0.278 C 
ENDBRANCH  18  21
BRANCH  20  23
ATOM     23  O   UNL     1       8.765   6.693 -14.162  1.00  0.00    -0.504 OA
ATOM     24  H   UNL     1       7.968   6.071 -14.230  1.00  0.00     0.293 HD
ENDBRANCH  20  23
ENDBRANCH  14  15
ENDBRANCH  12  14
ENDBRANCH   9  10
ENDBRANCH   1   9
TORSDOF 10
ENDMDL
MODEL 5
REMARK VINA RESULT:    -5.910      1.848      2.950
REMARK INTER + INTRA:         -10.053
REMARK INTER:                  -9.351
REMARK INTRA:                  -0.702
REMARK UNBOUND:                -0.860
REMARK SMILES COc1cc(CNC(=O)CCCCC=CC(C)C)ccc1O
REMARK SMILES IDX 11 1 12 2 13 3 14 4 15 5 16 6 17 7 18 8 10 9 8 10 9 11 7 12
REMARK SMILES IDX 6 14 5 15 4 16 19 17 3 18 20 19 21 20 2 21 1 22 22 23
REMARK H PARENT 7 13 22 24
REMARK Flexibility Score: inf
ROOT
ATOM      1  C   UNL     1      11.165   8.913 -17.040  1.00  0.00     0.010 C 
ENDROOT
BRANCH   1   2
ATOM      2  C   UNL     1      10.875   8.631 -15.558  1.00  0.00     0.005 C 
BRANCH   2   3
ATOM      3  C   UNL     1       9.624   7.761 -15.362  1.00  0.00     0.027 C 
BRANCH   3   4
ATOM      4  C   UNL     1       8.626   8.434 -14.459  1.00  0.00    -0.031 C 
ATOM      5  C   UNL     1       7.912   7.741 -13.557  1.00  0.00    -0.028 C 
BRANCH   5   6
ATOM      6  C   UNL     1       6.901   8.424 -12.666  1.00  0.00     0.005 C 
ATOM      7  C   UNL     1       6.924   7.810 -11.262  1.00  0.00     0.012 C 
ATOM      8  C   UNL     1       7.177   9.929 -12.595  1.00  0.00     0.012 C 
ENDBRANCH   5   6
ENDBRANCH   3   4
ENDBRANCH   2   3
ENDBRANCH   1   2
BRANCH   1   9
ATOM      9  C   UNL     1       9.888   8.948 -17.891  1.00  0.00     0.100 C 
BRANCH   9  10
ATOM     10  C   UNL     1       9.326  10.337 -17.919  1.00  0.00     0.220 C 
ATOM     11  O   UNL     1       8.103  10.517 -17.676  1.00  0.00    -0.275 OA
ATOM     12  N   UNL     1      10.190  11.454 -18.170  1.00  0.00    -0.352 N 
ATOM     13  H   UNL     1      11.192  11.272 -18.401  1.00  0.00     0.163 HD
BRANCH  12  14
ATOM     14  C   UNL     1       9.792  12.829 -17.881  1.00  0.00     0.151 C 
BRANCH  14  15
ATOM     15  C   UNL     1       9.328  13.496 -19.147  1.00  0.00    -0.025 A 
ATOM     16  C   UNL     1       9.029  14.868 -19.159  1.00  0.00     0.056 A 
ATOM     17  C   UNL     1       9.268  12.767 -20.342  1.00  0.00     0.009 A 
ATOM     18  C   UNL     1       8.652  15.510 -20.356  1.00  0.00     0.160 A 
ATOM     19  C   UNL     1       8.892  13.395 -21.530  1.00  0.00     0.050 A 
ATOM     20  C   UNL     1       8.583  14.759 -21.544  1.00  0.00     0.157 A 
BRANCH  18  21
ATOM     21  O   UNL     1       8.346  16.878 -20.401  1.00  0.00    -0.493 OA
ATOM     22  C   UNL     1       8.404  17.757 -19.280  1.00  0.00     0.278 C 
ENDBRANCH  18  21
BRANCH  20  23
ATOM     23  O   UNL     1       8.216  15.354 -22.751  1.00  0.00    -0.504 OA
ATOM     24  H   UNL     1       8.517  14.988 -23.647  1.00  0.00     0.293 HD
ENDBRANCH  20  23
ENDBRANCH  14  15
ENDBRANCH  12  14
ENDBRANCH   9  10
ENDBRANCH   1   9
TORSDOF 10
ENDMDL
MODEL 6
REMARK VINA RESULT:    -5.907      2.979      9.233
REMARK INTER + INTRA:         -10.048
REMARK INTER:                  -9.405
REMARK INTRA:                  -0.643
REMARK UNBOUND:                -0.860
REMARK SMILES COc1cc(CNC(=O)CCCCC=CC(C)C)ccc1O
REMARK SMILES IDX 11 1 12 2 13 3 14 4 15 5 16 6 17 7 18 8 10 9 8 10 9 11 7 12
REMARK SMILES IDX 6 14 5 15 4 16 19 17 3 18 20 19 21 20 2 21 1 22 22 23
REMARK H PARENT 7 13 22 24
REMARK Flexibility Score: inf
ROOT
ATOM      1  C   UNL     1      10.625  15.419 -18.170  1.00  0.00     0.010 C 
ENDROOT
BRANCH   1   2
ATOM      2  C   UNL     1       9.878  16.452 -19.027  1.00  0.00     0.005 C 
BRANCH   2   3
ATOM      3  C   UNL     1       8.754  15.818 -19.861  1.00  0.00     0.027 C 
BRANCH   3   4
ATOM      4  C   UNL     1       8.795  16.295 -21.287  1.00  0.00    -0.031 C 
ATOM      5  C   UNL     1       8.777  15.437 -22.320  1.00  0.00    -0.028 C 
BRANCH   5   6
ATOM      6  C   UNL     1       8.835  15.926 -23.748  1.00  0.00     0.005 C 
ATOM      7  C   UNL     1       8.400  17.393 -23.829  1.00  0.00     0.012 C 
ATOM      8  C   UNL     1      10.247  15.756 -24.316  1.00  0.00     0.012 C 
ENDBRANCH   5   6
ENDBRANCH   3   4
ENDBRANCH   2   3
ENDBRANCH   1   2
BRANCH   1   9
ATOM      9  C   UNL     1       9.880  14.080 -18.085  1.00  0.00     0.100 C 
BRANCH   9  10
ATOM     10  C   UNL     1      10.090  13.460 -16.737  1.00  0.00     0.220 C 
ATOM     11  O   UNL     1      11.255  13.151 -16.369  1.00  0.00    -0.275 OA
ATOM     12  N   UNL     1       8.975  13.270 -15.854  1.00  0.00    -0.352 N 
ATOM     13  H   UNL     1       8.017  13.503 -16.199  1.00  0.00     0.163 HD
BRANCH  12  14
ATOM     14  C   UNL     1       9.144  12.996 -14.430  1.00  0.00     0.151 C 
BRANCH  14  15
ATOM     15  C   UNL     1       8.513  11.674 -14.092  1.00  0.00    -0.025 A 
ATOM     16  C   UNL     1       8.752  10.546 -14.894  1.00  0.00     0.056 A 
ATOM     17  C   UNL     1       7.744  11.540 -12.928  1.00  0.00     0.009 A 
ATOM     18  C   UNL     1       8.211   9.292 -14.548  1.00  0.00     0.160 A 
ATOM     19  C   UNL     1       7.202  10.302 -12.581  1.00  0.00     0.050 A 
ATOM     20  C   UNL     1       7.430   9.179 -13.383  1.00  0.00     0.157 A 
BRANCH  18  21
ATOM     21  O   UNL     1       8.431   8.146 -15.330  1.00  0.00    -0.493 OA
ATOM     22  C   UNL     1       8.751   8.164 -16.718  1.00  0.00     0.278 C 
ENDBRANCH  18  21
BRANCH  20  23
ATOM     23  O   UNL     1       6.876   7.956 -13.003  1.00  0.00    -0.504 OA
ATOM     24  H   UNL     1       6.684   7.220 -13.672  1.00  0.00     0.293 HD
ENDBRANCH  20  23
ENDBRANCH  14  15
ENDBRANCH  12  14
ENDBRANCH   9  10
ENDBRANCH   1   9
TORSDOF 10
ENDMDL
MODEL 7
REMARK VINA RESULT:    -5.850      2.605      9.237
REMARK INTER + INTRA:          -9.959
REMARK INTER:                  -9.169
REMARK INTRA:                  -0.790
REMARK UNBOUND:                -0.860
REMARK SMILES COc1cc(CNC(=O)CCCCC=CC(C)C)ccc1O
REMARK SMILES IDX 11 1 12 2 13 3 14 4 15 5 16 6 17 7 18 8 10 9 8 10 9 11 7 12
REMARK SMILES IDX 6 14 5 15 4 16 19 17 3 18 20 19 21 20 2 21 1 22 22 23
REMARK H PARENT 7 13 22 24
REMARK Flexibility Score: inf
ROOT
ATOM      1  C   UNL     1       9.756  14.651 -18.008  1.00  0.00     0.010 C 
ENDROOT
BRANCH   1   2
ATOM      2  C   UNL     1       9.619  15.015 -19.495  1.00  0.00     0.005 C 
BRANCH   2   3
ATOM      3  C   UNL     1       8.800  13.976 -20.277  1.00  0.00     0.027 C 
BRANCH   3   4
ATOM      4  C   UNL     1       8.523  14.442 -21.681  1.00  0.00    -0.031 C 
ATOM      5  C   UNL     1       9.193  15.468 -22.229  1.00  0.00    -0.028 C 
BRANCH   5   6
ATOM      6  C   UNL     1       8.896  15.939 -23.633  1.00  0.00     0.005 C 
ATOM      7  C   UNL     1       8.328  17.362 -23.612  1.00  0.00     0.012 C 
ATOM      8  C   UNL     1      10.159  15.882 -24.497  1.00  0.00     0.012 C 
ENDBRANCH   5   6
ENDBRANCH   3   4
ENDBRANCH   2   3
ENDBRANCH   1   2
BRANCH   1   9
ATOM      9  C   UNL     1       9.026  13.349 -17.653  1.00  0.00     0.100 C 
BRANCH   9  10
ATOM     10  C   UNL     1       9.930  12.450 -16.867  1.00  0.00     0.220 C 
ATOM     11  O   UNL     1      10.054  12.624 -15.625  1.00  0.00    -0.275 OA
ATOM     12  N   UNL     1      10.607  11.366 -17.520  1.00  0.00    -0.352 N 
ATOM     13  H   UNL     1      10.512  11.266 -18.555  1.00  0.00     0.163 HD
BRANCH  12  14
ATOM     14  C   UNL     1      11.218  10.268 -16.778  1.00  0.00     0.151 C 
BRANCH  14  15
ATOM     15  C   UNL     1      10.233   9.139 -16.645  1.00  0.00    -0.025 A 
ATOM     16  C   UNL     1       9.862   8.665 -15.377  1.00  0.00     0.056 A 
ATOM     17  C   UNL     1       9.619   8.606 -17.787  1.00  0.00     0.009 A 
ATOM     18  C   UNL     1       8.894   7.648 -15.246  1.00  0.00     0.160 A 
ATOM     19  C   UNL     1       8.664   7.597 -17.665  1.00  0.00     0.050 A 
ATOM     20  C   UNL     1       8.298   7.115 -16.404  1.00  0.00     0.157 A 
BRANCH  18  21
ATOM     21  O   UNL     1       8.503   7.152 -13.993  1.00  0.00    -0.493 OA
ATOM     22  C   UNL     1       7.783   7.900 -13.016  1.00  0.00     0.278 C 
ENDBRANCH  18  21
BRANCH  20  23
ATOM     23  O   UNL     1       7.336   6.109 -16.320  1.00  0.00    -0.504 OA
ATOM     24  H   UNL     1       6.635   5.970 -17.039  1.00  0.00     0.293 HD
ENDBRANCH  20  23
ENDBRANCH  14  15
ENDBRANCH  12  14
ENDBRANCH   9  10
ENDBRANCH   1   9
TORSDOF 10
ENDMDL
MODEL 8
REMARK VINA RESULT:    -5.842      2.630      9.161
REMARK INTER + INTRA:          -9.947
REMARK INTER:                  -9.224
REMARK INTRA:                  -0.723
REMARK UNBOUND:                -0.860
REMARK SMILES COc1cc(CNC(=O)CCCCC=CC(C)C)ccc1O
REMARK SMILES IDX 11 1 12 2 13 3 14 4 15 5 16 6 17 7 18 8 10 9 8 10 9 11 7 12
REMARK SMILES IDX 6 14 5 15 4 16 19 17 3 18 20 19 21 20 2 21 1 22 22 23
REMARK H PARENT 7 13 22 24
REMARK Flexibility Score: inf
ROOT
ATOM      1  C   UNL     1       8.664  12.245 -18.588  1.00  0.00     0.010 C 
ENDROOT
BRANCH   1   2
ATOM      2  C   UNL     1       8.841  12.709 -20.042  1.00  0.00     0.005 C 
BRANCH   2   3
ATOM      3  C   UNL     1       8.815  14.240 -20.174  1.00  0.00     0.027 C 
BRANCH   3   4
ATOM      4  C   UNL     1       8.517  14.662 -21.587  1.00  0.00    -0.031 C 
ATOM      5  C   UNL     1       9.314  15.514 -22.252  1.00  0.00    -0.028 C 
BRANCH   5   6
ATOM      6  C   UNL     1       8.997  15.945 -23.665  1.00  0.00     0.005 C 
ATOM      7  C   UNL     1       8.427  17.367 -23.676  1.00  0.00     0.012 C 
ATOM      8  C   UNL     1      10.249  15.865 -24.544  1.00  0.00     0.012 C 
ENDBRANCH   5   6
ENDBRANCH   3   4
ENDBRANCH   2   3
ENDBRANCH   1   2
BRANCH   1   9
ATOM      9  C   UNL     1       9.767  12.777 -17.664  1.00  0.00     0.100 C 
BRANCH   9  10
ATOM     10  C   UNL     1      10.646  11.651 -17.212  1.00  0.00     0.220 C 
ATOM     11  O   UNL     1      11.351  11.791 -16.176  1.00  0.00    -0.275 OA
ATOM     12  N   UNL     1      10.642  10.407 -17.925  1.00  0.00    -0.352 N 
ATOM     13  H   UNL     1      10.073  10.331 -18.798  1.00  0.00     0.163 HD
BRANCH  12  14
ATOM     14  C   UNL     1      11.198   9.181 -17.360  1.00  0.00     0.151 C 
BRANCH  14  15
ATOM     15  C   UNL     1      10.119   8.425 -16.635  1.00  0.00    -0.025 A 
ATOM     16  C   UNL     1       9.071   7.822 -17.349  1.00  0.00     0.056 A 
ATOM     17  C   UNL     1      10.196   8.251 -15.247  1.00  0.00     0.009 A 
ATOM     18  C   UNL     1       8.091   7.062 -16.680  1.00  0.00     0.160 A 
ATOM     19  C   UNL     1       9.227   7.504 -14.577  1.00  0.00     0.050 A 
ATOM     20  C   UNL     1       8.176   6.910 -15.283  1.00  0.00     0.157 A 
BRANCH  18  21
ATOM     21  O   UNL     1       7.031   6.448 -17.365  1.00  0.00    -0.493 OA
ATOM     22  C   UNL     1       7.118   5.189 -18.027  1.00  0.00     0.278 C 
ENDBRANCH  18  21
BRANCH  20  23
ATOM     23  O   UNL     1       7.228   6.165 -14.582  1.00  0.00    -0.504 OA
ATOM     24  H   UNL     1       6.896   6.441 -13.664  1.00  0.00     0.293 HD
ENDBRANCH  20  23
ENDBRANCH  14  15
ENDBRANCH  12  14
ENDBRANCH   9  10
ENDBRANCH   1   9
TORSDOF 10
ENDMDL
MODEL 9
REMARK VINA RESULT:    -5.783      1.611      2.914
REMARK INTER + INTRA:          -9.856
REMARK INTER:                  -8.656
REMARK INTRA:                  -1.199
REMARK UNBOUND:                -0.860
REMARK SMILES COc1cc(CNC(=O)CCCCC=CC(C)C)ccc1O
REMARK SMILES IDX 11 1 12 2 13 3 14 4 15 5 16 6 17 7 18 8 10 9 8 10 9 11 7 12
REMARK SMILES IDX 6 14 5 15 4 16 19 17 3 18 20 19 21 20 2 21 1 22 22 23
REMARK H PARENT 7 13 22 24
REMARK Flexibility Score: inf
ROOT
ATOM      1  C   UNL     1      10.549   8.250 -16.857  1.00  0.00     0.010 C 
ENDROOT
BRANCH   1   2
ATOM      2  C   UNL     1      10.676   8.326 -15.328  1.00  0.00     0.005 C 
BRANCH   2   3
ATOM      3  C   UNL     1       9.421   7.805 -14.611  1.00  0.00     0.027 C 
BRANCH   3   4
ATOM      4  C   UNL     1       8.411   8.902 -14.408  1.00  0.00    -0.031 C 
ATOM      5  C   UNL     1       8.749  10.198 -14.500  1.00  0.00    -0.028 C 
BRANCH   5   6
ATOM      6  C   UNL     1       7.732  11.292 -14.277  1.00  0.00     0.005 C 
ATOM      7  C   UNL     1       7.990  12.001 -12.944  1.00  0.00     0.012 C 
ATOM      8  C   UNL     1       7.765  12.298 -15.432  1.00  0.00     0.012 C 
ENDBRANCH   5   6
ENDBRANCH   3   4
ENDBRANCH   2   3
ENDBRANCH   1   2
BRANCH   1   9
ATOM      9  C   UNL     1      10.926   9.570 -17.544  1.00  0.00     0.100 C 
BRANCH   9  10
ATOM     10  C   UNL     1       9.729  10.152 -18.232  1.00  0.00     0.220 C 
ATOM     11  O   UNL     1       8.582   9.696 -17.976  1.00  0.00    -0.275 OA
ATOM     12  N   UNL     1       9.888  11.254 -19.135  1.00  0.00    -0.352 N 
ATOM     13  H   UNL     1      10.853  11.589 -19.354  1.00  0.00     0.163 HD
BRANCH  12  14
ATOM     14  C   UNL     1       8.762  12.077 -19.570  1.00  0.00     0.151 C 
BRANCH  14  15
ATOM     15  C   UNL     1       9.125  13.531 -19.450  1.00  0.00    -0.025 A 
ATOM     16  C   UNL     1       8.885  14.413 -20.516  1.00  0.00     0.056 A 
ATOM     17  C   UNL     1       9.630  14.031 -18.242  1.00  0.00     0.009 A 
ATOM     18  C   UNL     1       9.168  15.788 -20.387  1.00  0.00     0.160 A 
ATOM     19  C   UNL     1       9.916  15.390 -18.108  1.00  0.00     0.050 A 
ATOM     20  C   UNL     1       9.689  16.270 -19.171  1.00  0.00     0.157 A 
BRANCH  18  21
ATOM     21  O   UNL     1       8.942  16.695 -21.434  1.00  0.00    -0.493 OA
ATOM     22  C   UNL     1       9.091  16.386 -22.817  1.00  0.00     0.278 C 
ENDBRANCH  18  21
BRANCH  20  23
ATOM     23  O   UNL     1       9.981  17.623 -19.000  1.00  0.00    -0.504 OA
ATOM     24  H   UNL     1      10.905  17.947 -18.737  1.00  0.00     0.293 HD
ENDBRANCH  20  23
ENDBRANCH  14  15
ENDBRANCH  12  14
ENDBRANCH   9  10
ENDBRANCH   1   9
TORSDOF 10
ENDMDL
