MODEL 1
REMARK VINA RESULT:    -3.262      0.000      0.000
REMARK INTER + INTRA:          -7.382
REMARK INTER:                  -5.931
REMARK INTRA:                  -1.451
REMARK UNBOUND:                -1.451
REMARK SMILES CCCCCCCCCCCCCCCC(=O)[O-]
REMARK SMILES IDX 9 1 10 2 11 3 12 4 13 5 14 6 15 7 16 8 17 9 18 10 8 11 7 12
REMARK SMILES IDX 6 13 5 14 4 15 3 16 2 17 1 18
REMARK H PARENT
REMARK Flexibility Score: inf
ROOT
ATOM      1  C   UNL     1      -3.453   7.965  -5.516  1.00  0.00     0.000 C 
ENDROOT
BRANCH   1   2
ATOM      2  C   UNL     1      -3.037   7.378  -6.875  1.00  0.00     0.000 C 
BRANCH   2   3
ATOM      3  C   UNL     1      -1.887   8.163  -7.530  1.00  0.00     0.000 C 
BRANCH   3   4
ATOM      4  C   UNL     1      -2.264   9.620  -7.855  1.00  0.00     0.000 C 
BRANCH   4   5
ATOM      5  C   UNL     1      -1.334  10.687  -7.248  1.00  0.00     0.000 C 
BRANCH   5   6
ATOM      6  C   UNL     1      -0.391  10.121  -6.176  1.00  0.00     0.006 C 
BRANCH   6   7
ATOM      7  C   UNL     1       1.067  10.182  -6.642  1.00  0.00     0.053 C 
BRANCH   7   8
ATOM      8  C   UNL     1       1.995  10.097  -5.472  1.00  0.00     0.041 C 
ATOM      9  O   UNL     1       2.703   9.071  -5.297  1.00  0.00    -0.550 OA
ATOM     10  O   UNL     1       2.042  11.132  -4.545  1.00  0.00    -0.550 OA
ENDBRANCH   7   8
ENDBRANCH   6   7
ENDBRANCH   5   6
ENDBRANCH   4   5
ENDBRANCH   3   4
ENDBRANCH   2   3
ENDBRANCH   1   2
BRANCH   1  11
ATOM     11  C   UNL     1      -4.889   8.521  -5.528  1.00  0.00     0.000 C 
BRANCH  11  12
ATOM     12  C   UNL     1      -4.969   9.960  -4.994  1.00  0.00    -0.000 C 
BRANCH  12  13
ATOM     13  C   UNL     1      -3.644  10.435  -4.371  1.00  0.00    -0.000 C 
BRANCH  13  14
ATOM     14  C   UNL     1      -3.851  11.281  -3.103  1.00  0.00    -0.000 C 
BRANCH  14  15
ATOM     15  C   UNL     1      -2.942  12.521  -2.982  1.00  0.00    -0.000 C 
BRANCH  15  16
ATOM     16  C   UNL     1      -3.028  13.266  -1.639  1.00  0.00    -0.000 C 
BRANCH  16  17
ATOM     17  C   UNL     1      -3.674  12.423  -0.530  1.00  0.00    -0.003 C 
ATOM     18  C   UNL     1      -4.915  13.112   0.033  1.00  0.00     0.004 C 
ENDBRANCH  16  17
ENDBRANCH  15  16
ENDBRANCH  14  15
ENDBRANCH  13  14
ENDBRANCH  12  13
ENDBRANCH  11  12
ENDBRANCH   1  11
TORSDOF 14
ENDMDL
MODEL 2
REMARK VINA RESULT:    -3.251      3.505      6.733
REMARK INTER + INTRA:          -7.364
REMARK INTER:                  -5.414
REMARK INTRA:                  -1.950
REMARK UNBOUND:                -1.451
REMARK SMILES CCCCCCCCCCCCCCCC(=O)[O-]
REMARK SMILES IDX 9 1 10 2 11 3 12 4 13 5 14 6 15 7 16 8 17 9 18 10 8 11 7 12
REMARK SMILES IDX 6 13 5 14 4 15 3 16 2 17 1 18
REMARK H PARENT
REMARK Flexibility Score: inf
ROOT
ATOM      1  C   UNL     1      -4.946   9.570  -4.637  1.00  0.00     0.000 C 
ENDROOT
BRANCH   1   2
ATOM      2  C   UNL     1      -3.584   9.902  -4.006  1.00  0.00     0.000 C 
BRANCH   2   3
ATOM      3  C   UNL     1      -3.495  11.362  -3.526  1.00  0.00     0.000 C 
BRANCH   3   4
ATOM      4  C   UNL     1      -4.584  12.262  -4.140  1.00  0.00     0.000 C 
BRANCH   4   5
ATOM      5  C   UNL     1      -5.264  13.229  -3.154  1.00  0.00     0.000 C 
BRANCH   5   6
ATOM      6  C   UNL     1      -4.903  12.945  -1.689  1.00  0.00     0.006 C 
BRANCH   6   7
ATOM      7  C   UNL     1      -5.897  13.619  -0.739  1.00  0.00     0.053 C 
BRANCH   7   8
ATOM      8  C   UNL     1      -5.320  13.722   0.637  1.00  0.00     0.041 C 
ATOM      9  O   UNL     1      -4.089  13.932   0.794  1.00  0.00    -0.550 OA
ATOM     10  O   UNL     1      -6.134  13.538   1.748  1.00  0.00    -0.550 OA
ENDBRANCH   7   8
ENDBRANCH   6   7
ENDBRANCH   5   6
ENDBRANCH   4   5
ENDBRANCH   3   4
ENDBRANCH   2   3
ENDBRANCH   1   2
BRANCH   1  11
ATOM     11  C   UNL     1      -4.897   8.309  -5.519  1.00  0.00     0.000 C 
BRANCH  11  12
ATOM     12  C   UNL     1      -5.306   8.590  -6.973  1.00  0.00    -0.000 C 
BRANCH  12  13
ATOM     13  C   UNL     1      -5.584  10.081  -7.232  1.00  0.00    -0.000 C 
BRANCH  13  14
ATOM     14  C   UNL     1      -4.571  10.718  -8.199  1.00  0.00    -0.000 C 
BRANCH  14  15
ATOM     15  C   UNL     1      -3.214  11.101  -7.574  1.00  0.00    -0.000 C 
BRANCH  15  16
ATOM     16  C   UNL     1      -2.023  10.232  -8.014  1.00  0.00    -0.000 C 
BRANCH  16  17
ATOM     17  C   UNL     1      -1.429   9.409  -6.861  1.00  0.00    -0.003 C 
ATOM     18  C   UNL     1      -0.605  10.290  -5.925  1.00  0.00     0.004 C 
ENDBRANCH  16  17
ENDBRANCH  15  16
ENDBRANCH  14  15
ENDBRANCH  13  14
ENDBRANCH  12  13
ENDBRANCH  11  12
ENDBRANCH   1  11
TORSDOF 14
ENDMDL
MODEL 3
REMARK VINA RESULT:    -3.215      7.216     11.042
REMARK INTER + INTRA:          -7.298
REMARK INTER:                  -5.261
REMARK INTRA:                  -2.037
REMARK UNBOUND:                -1.451
REMARK SMILES CCCCCCCCCCCCCCCC(=O)[O-]
REMARK SMILES IDX 9 1 10 2 11 3 12 4 13 5 14 6 15 7 16 8 17 9 18 10 8 11 7 12
REMARK SMILES IDX 6 13 5 14 4 15 3 16 2 17 1 18
REMARK H PARENT
REMARK Flexibility Score: inf
ROOT
ATOM      1  C   UNL     1       6.288   9.726  -0.245  1.00  0.00     0.000 C 
ENDROOT
BRANCH   1   2
ATOM      2  C   UNL     1       6.174  10.621  -1.490  1.00  0.00     0.000 C 
BRANCH   2   3
ATOM      3  C   UNL     1       7.128  10.187  -2.618  1.00  0.00     0.000 C 
BRANCH   3   4
ATOM      4  C   UNL     1       7.283   8.658  -2.717  1.00  0.00     0.000 C 
BRANCH   4   5
ATOM      5  C   UNL     1       6.935   8.053  -4.090  1.00  0.00     0.000 C 
BRANCH   5   6
ATOM      6  C   UNL     1       5.424   8.019  -4.364  1.00  0.00     0.006 C 
BRANCH   6   7
ATOM      7  C   UNL     1       5.104   8.614  -5.739  1.00  0.00     0.053 C 
BRANCH   7   8
ATOM      8  C   UNL     1       3.653   8.440  -6.061  1.00  0.00     0.041 C 
ATOM      9  O   UNL     1       2.779   9.067  -5.406  1.00  0.00    -0.550 OA
ATOM     10  O   UNL     1       3.263   7.547  -7.052  1.00  0.00    -0.550 OA
ENDBRANCH   7   8
ENDBRANCH   6   7
ENDBRANCH   5   6
ENDBRANCH   4   5
ENDBRANCH   3   4
ENDBRANCH   2   3
ENDBRANCH   1   2
BRANCH   1  11
ATOM     11  C   UNL     1       6.685  10.517   1.015  1.00  0.00     0.000 C 
BRANCH  11  12
ATOM     12  C   UNL     1       7.041   9.602   2.198  1.00  0.00    -0.000 C 
BRANCH  12  13
ATOM     13  C   UNL     1       6.986   8.109   1.829  1.00  0.00    -0.000 C 
BRANCH  13  14
ATOM     14  C   UNL     1       8.377   7.453   1.784  1.00  0.00    -0.000 C 
BRANCH  14  15
ATOM     15  C   UNL     1       8.813   6.927   0.402  1.00  0.00    -0.000 C 
BRANCH  15  16
ATOM     16  C   UNL     1       9.895   7.763  -0.304  1.00  0.00    -0.000 C 
BRANCH  16  17
ATOM     17  C   UNL     1      10.275   9.029   0.478  1.00  0.00    -0.003 C 
ATOM     18  C   UNL     1      10.147  10.274  -0.395  1.00  0.00     0.004 C 
ENDBRANCH  16  17
ENDBRANCH  15  16
ENDBRANCH  14  15
ENDBRANCH  13  14
ENDBRANCH  12  13
ENDBRANCH  11  12
ENDBRANCH   1  11
TORSDOF 14
ENDMDL
MODEL 4
REMARK VINA RESULT:    -3.162      3.408      6.321
REMARK INTER + INTRA:          -7.201
REMARK INTER:                  -5.335
REMARK INTRA:                  -1.866
REMARK UNBOUND:                -1.451
REMARK SMILES CCCCCCCCCCCCCCCC(=O)[O-]
REMARK SMILES IDX 9 1 10 2 11 3 12 4 13 5 14 6 15 7 16 8 17 9 18 10 8 11 7 12
REMARK SMILES IDX 6 13 5 14 4 15 3 16 2 17 1 18
REMARK H PARENT
REMARK Flexibility Score: inf
ROOT
ATOM      1  C   UNL     1      -6.452  10.664  -6.785  1.00  0.00     0.000 C 
ENDROOT
BRANCH   1   2
ATOM      2  C   UNL     1      -5.908  11.985  -6.216  1.00  0.00     0.000 C 
BRANCH   2   3
ATOM      3  C   UNL     1      -6.843  12.604  -5.163  1.00  0.00     0.000 C 
BRANCH   3   4
ATOM      4  C   UNL     1      -6.082  13.308  -4.024  1.00  0.00     0.000 C 
BRANCH   4   5
ATOM      5  C   UNL     1      -6.969  14.041  -3.001  1.00  0.00     0.000 C 
BRANCH   5   6
ATOM      6  C   UNL     1      -6.380  14.033  -1.582  1.00  0.00     0.006 C 
BRANCH   6   7
ATOM      7  C   UNL     1      -4.922  13.562  -1.598  1.00  0.00     0.053 C 
BRANCH   7   8
ATOM      8  C   UNL     1      -4.575  12.892  -0.306  1.00  0.00     0.041 C 
ATOM      9  O   UNL     1      -3.625  12.067  -0.255  1.00  0.00    -0.550 OA
ATOM     10  O   UNL     1      -5.332  13.141   0.832  1.00  0.00    -0.550 OA
ENDBRANCH   7   8
ENDBRANCH   6   7
ENDBRANCH   5   6
ENDBRANCH   4   5
ENDBRANCH   3   4
ENDBRANCH   2   3
ENDBRANCH   1   2
BRANCH   1  11
ATOM     11  C   UNL     1      -6.807   9.649  -5.682  1.00  0.00     0.000 C 
BRANCH  11  12
ATOM     12  C   UNL     1      -5.568   9.134  -4.934  1.00  0.00    -0.000 C 
BRANCH  12  13
ATOM     13  C   UNL     1      -4.822   8.035  -5.711  1.00  0.00    -0.000 C 
BRANCH  13  14
ATOM     14  C   UNL     1      -3.292   8.177  -5.624  1.00  0.00    -0.000 C 
BRANCH  14  15
ATOM     15  C   UNL     1      -2.653   9.092  -6.688  1.00  0.00    -0.000 C 
BRANCH  15  16
ATOM     16  C   UNL     1      -2.483  10.563  -6.267  1.00  0.00    -0.000 C 
BRANCH  16  17
ATOM     17  C   UNL     1      -1.915  10.714  -4.848  1.00  0.00    -0.003 C 
ATOM     18  C   UNL     1      -2.863  11.514  -3.959  1.00  0.00     0.004 C 
ENDBRANCH  16  17
ENDBRANCH  15  16
ENDBRANCH  14  15
ENDBRANCH  13  14
ENDBRANCH  12  13
ENDBRANCH  11  12
ENDBRANCH   1  11
TORSDOF 14
ENDMDL
MODEL 5
REMARK VINA RESULT:    -3.161      9.956     13.147
REMARK INTER + INTRA:          -7.199
REMARK INTER:                  -5.517
REMARK INTRA:                  -1.682
REMARK UNBOUND:                -1.451
REMARK SMILES CCCCCCCCCCCCCCCC(=O)[O-]
REMARK SMILES IDX 9 1 10 2 11 3 12 4 13 5 14 6 15 7 16 8 17 9 18 10 8 11 7 12
REMARK SMILES IDX 6 13 5 14 4 15 3 16 2 17 1 18
REMARK H PARENT
REMARK Flexibility Score: inf
ROOT
ATOM      1  C   UNL     1       7.796   9.452   2.440  1.00  0.00     0.000 C 
ENDROOT
BRANCH   1   2
ATOM      2  C   UNL     1       8.659   8.182   2.520  1.00  0.00     0.000 C 
BRANCH   2   3
ATOM      3  C   UNL     1      10.004   8.335   1.787  1.00  0.00     0.000 C 
BRANCH   3   4
ATOM      4  C   UNL     1      10.065   7.537   0.472  1.00  0.00     0.000 C 
BRANCH   4   5
ATOM      5  C   UNL     1       9.215   6.253   0.447  1.00  0.00     0.000 C 
BRANCH   5   6
ATOM      6  C   UNL     1      10.045   4.990   0.172  1.00  0.00     0.006 C 
BRANCH   6   7
ATOM      7  C   UNL     1      10.225   4.165   1.450  1.00  0.00     0.053 C 
BRANCH   7   8
ATOM      8  C   UNL     1       9.602   2.814   1.294  1.00  0.00     0.041 C 
ATOM      9  O   UNL     1       9.281   2.392   0.153  1.00  0.00    -0.550 OA
ATOM     10  O   UNL     1       9.329   2.040   2.416  1.00  0.00    -0.550 OA
ENDBRANCH   7   8
ENDBRANCH   6   7
ENDBRANCH   5   6
ENDBRANCH   4   5
ENDBRANCH   3   4
ENDBRANCH   2   3
ENDBRANCH   1   2
BRANCH   1  11
ATOM     11  C   UNL     1       6.453   9.209   1.727  1.00  0.00     0.000 C 
BRANCH  11  12
ATOM     12  C   UNL     1       6.610   9.078   0.204  1.00  0.00    -0.000 C 
BRANCH  12  13
ATOM     13  C   UNL     1       7.531  10.157  -0.391  1.00  0.00    -0.000 C 
BRANCH  13  14
ATOM     14  C   UNL     1       7.943   9.856  -1.843  1.00  0.00    -0.000 C 
BRANCH  14  15
ATOM     15  C   UNL     1       7.422   8.521  -2.413  1.00  0.00    -0.000 C 
BRANCH  15  16
ATOM     16  C   UNL     1       6.298   8.650  -3.456  1.00  0.00    -0.000 C 
BRANCH  16  17
ATOM     17  C   UNL     1       6.649   7.984  -4.795  1.00  0.00    -0.003 C 
ATOM     18  C   UNL     1       7.956   7.201  -4.694  1.00  0.00     0.004 C 
ENDBRANCH  16  17
ENDBRANCH  15  16
ENDBRANCH  14  15
ENDBRANCH  13  14
ENDBRANCH  12  13
ENDBRANCH  11  12
ENDBRANCH   1  11
TORSDOF 14
ENDMDL
MODEL 6
REMARK VINA RESULT:    -3.136      2.830      5.358
REMARK INTER + INTRA:          -7.153
REMARK INTER:                  -4.782
REMARK INTRA:                  -2.371
REMARK UNBOUND:                -1.451
REMARK SMILES CCCCCCCCCCCCCCCC(=O)[O-]
REMARK SMILES IDX 9 1 10 2 11 3 12 4 13 5 14 6 15 7 16 8 17 9 18 10 8 11 7 12
REMARK SMILES IDX 6 13 5 14 4 15 3 16 2 17 1 18
REMARK H PARENT
REMARK Flexibility Score: inf
ROOT
ATOM      1  C   UNL     1      -2.255   9.465  -7.077  1.00  0.00     0.000 C 
ENDROOT
BRANCH   1   2
ATOM      2  C   UNL     1      -0.877   9.906  -6.555  1.00  0.00     0.000 C 
BRANCH   2   3
ATOM      3  C   UNL     1      -0.980  10.900  -5.385  1.00  0.00     0.000 C 
BRANCH   3   4
ATOM      4  C   UNL     1      -2.298  10.769  -4.600  1.00  0.00     0.000 C 
BRANCH   4   5
ATOM      5  C   UNL     1      -2.669  11.989  -3.737  1.00  0.00     0.000 C 
BRANCH   5   6
ATOM      6  C   UNL     1      -4.060  11.870  -3.096  1.00  0.00     0.006 C 
BRANCH   6   7
ATOM      7  C   UNL     1      -4.381  13.108  -2.253  1.00  0.00     0.053 C 
BRANCH   7   8
ATOM      8  C   UNL     1      -3.432  13.218  -1.102  1.00  0.00     0.041 C 
ATOM      9  O   UNL     1      -2.680  14.222  -0.995  1.00  0.00    -0.550 OA
ATOM     10  O   UNL     1      -3.344  12.189  -0.172  1.00  0.00    -0.550 OA
ENDBRANCH   7   8
ENDBRANCH   6   7
ENDBRANCH   5   6
ENDBRANCH   4   5
ENDBRANCH   3   4
ENDBRANCH   2   3
ENDBRANCH   1   2
BRANCH   1  11
ATOM     11  C   UNL     1      -2.500   7.956  -6.896  1.00  0.00     0.000 C 
BRANCH  11  12
ATOM     12  C   UNL     1      -3.504   7.651  -5.773  1.00  0.00    -0.000 C 
BRANCH  12  13
ATOM     13  C   UNL     1      -4.928   8.127  -6.108  1.00  0.00    -0.000 C 
BRANCH  13  14
ATOM     14  C   UNL     1      -5.504   9.081  -5.047  1.00  0.00    -0.000 C 
BRANCH  14  15
ATOM     15  C   UNL     1      -6.264  10.303  -5.601  1.00  0.00    -0.000 C 
BRANCH  15  16
ATOM     16  C   UNL     1      -5.622  10.969  -6.831  1.00  0.00    -0.000 C 
BRANCH  16  17
ATOM     17  C   UNL     1      -5.166  12.410  -6.557  1.00  0.00    -0.003 C 
ATOM     18  C   UNL     1      -3.929  12.761  -7.380  1.00  0.00     0.004 C 
ENDBRANCH  16  17
ENDBRANCH  15  16
ENDBRANCH  14  15
ENDBRANCH  13  14
ENDBRANCH  12  13
ENDBRANCH  11  12
ENDBRANCH   1  11
TORSDOF 14
ENDMDL
MODEL 7
REMARK VINA RESULT:    -3.128      3.842      7.237
REMARK INTER + INTRA:          -7.139
REMARK INTER:                  -5.559
REMARK INTRA:                  -1.581
REMARK UNBOUND:                -1.451
REMARK SMILES CCCCCCCCCCCCCCCC(=O)[O-]
REMARK SMILES IDX 9 1 10 2 11 3 12 4 13 5 14 6 15 7 16 8 17 9 18 10 8 11 7 12
REMARK SMILES IDX 6 13 5 14 4 15 3 16 2 17 1 18
REMARK H PARENT
REMARK Flexibility Score: inf
ROOT
ATOM      1  C   UNL     1      -3.245  11.376  -3.966  1.00  0.00     0.000 C 
ENDROOT
BRANCH   1   2
ATOM      2  C   UNL     1      -3.726  12.181  -5.185  1.00  0.00     0.000 C 
BRANCH   2   3
ATOM      3  C   UNL     1      -4.872  13.148  -4.838  1.00  0.00     0.000 C 
BRANCH   3   4
ATOM      4  C   UNL     1      -5.432  12.931  -3.420  1.00  0.00     0.000 C 
BRANCH   4   5
ATOM      5  C   UNL     1      -6.415  14.011  -2.933  1.00  0.00     0.000 C 
BRANCH   5   6
ATOM      6  C   UNL     1      -6.380  14.213  -1.411  1.00  0.00     0.006 C 
BRANCH   6   7
ATOM      7  C   UNL     1      -5.334  13.300  -0.763  1.00  0.00     0.053 C 
BRANCH   7   8
ATOM      8  C   UNL     1      -5.144  13.662   0.676  1.00  0.00     0.041 C 
ATOM      9  O   UNL     1      -6.033  13.383   1.523  1.00  0.00    -0.550 OA
ATOM     10  O   UNL     1      -4.006  14.353   1.075  1.00  0.00    -0.550 OA
ENDBRANCH   7   8
ENDBRANCH   6   7
ENDBRANCH   5   6
ENDBRANCH   4   5
ENDBRANCH   3   4
ENDBRANCH   2   3
ENDBRANCH   1   2
BRANCH   1  11
ATOM     11  C   UNL     1      -3.477   9.863  -4.130  1.00  0.00     0.000 C 
BRANCH  11  12
ATOM     12  C   UNL     1      -4.828   9.541  -4.788  1.00  0.00    -0.000 C 
BRANCH  12  13
ATOM     13  C   UNL     1      -4.792   8.238  -5.606  1.00  0.00    -0.000 C 
BRANCH  13  14
ATOM     14  C   UNL     1      -3.391   7.604  -5.656  1.00  0.00    -0.000 C 
BRANCH  14  15
ATOM     15  C   UNL     1      -2.711   7.618  -7.040  1.00  0.00    -0.000 C 
BRANCH  15  16
ATOM     16  C   UNL     1      -3.346   8.567  -8.071  1.00  0.00    -0.000 C 
BRANCH  16  17
ATOM     17  C   UNL     1      -2.694   9.958  -8.081  1.00  0.00    -0.003 C 
ATOM     18  C   UNL     1      -3.656  11.012  -8.624  1.00  0.00     0.004 C 
ENDBRANCH  16  17
ENDBRANCH  15  16
ENDBRANCH  14  15
ENDBRANCH  13  14
ENDBRANCH  12  13
ENDBRANCH  11  12
ENDBRANCH   1  11
TORSDOF 14
ENDMDL
MODEL 8
REMARK VINA RESULT:    -3.118      8.210     11.956
REMARK INTER + INTRA:          -7.121
REMARK INTER:                  -5.343
REMARK INTRA:                  -1.778
REMARK UNBOUND:                -1.451
REMARK SMILES CCCCCCCCCCCCCCCC(=O)[O-]
REMARK SMILES IDX 9 1 10 2 11 3 12 4 13 5 14 6 15 7 16 8 17 9 18 10 8 11 7 12
REMARK SMILES IDX 6 13 5 14 4 15 3 16 2 17 1 18
REMARK H PARENT
REMARK Flexibility Score: inf
ROOT
ATOM      1  C   UNL     1       6.926  11.696   0.982  1.00  0.00     0.000 C 
ENDROOT
BRANCH   1   2
ATOM      2  C   UNL     1       8.318  11.107   1.265  1.00  0.00     0.000 C 
BRANCH   2   3
ATOM      3  C   UNL     1       8.332  10.196   2.505  1.00  0.00     0.000 C 
BRANCH   3   4
ATOM      4  C   UNL     1       7.072   9.317   2.619  1.00  0.00     0.000 C 
BRANCH   4   5
ATOM      5  C   UNL     1       7.089   8.037   1.763  1.00  0.00     0.000 C 
BRANCH   5   6
ATOM      6  C   UNL     1       8.462   7.349   1.739  1.00  0.00     0.006 C 
BRANCH   6   7
ATOM      7  C   UNL     1       8.902   7.055   0.301  1.00  0.00     0.053 C 
BRANCH   7   8
ATOM      8  C   UNL     1       9.566   5.717   0.220  1.00  0.00     0.041 C 
ATOM      9  O   UNL     1       9.168   4.767   0.943  1.00  0.00    -0.550 OA
ATOM     10  O   UNL     1      10.657   5.533  -0.620  1.00  0.00    -0.550 OA
ENDBRANCH   7   8
ENDBRANCH   6   7
ENDBRANCH   5   6
ENDBRANCH   4   5
ENDBRANCH   3   4
ENDBRANCH   2   3
ENDBRANCH   1   2
BRANCH   1  11
ATOM     11  C   UNL     1       6.412  11.344  -0.426  1.00  0.00     0.000 C 
BRANCH  11  12
ATOM     12  C   UNL     1       7.355  10.392  -1.178  1.00  0.00    -0.000 C 
BRANCH  12  13
ATOM     13  C   UNL     1       6.612   9.205  -1.816  1.00  0.00    -0.000 C 
BRANCH  13  14
ATOM     14  C   UNL     1       7.445   8.489  -2.894  1.00  0.00    -0.000 C 
BRANCH  14  15
ATOM     15  C   UNL     1       6.682   8.131  -4.186  1.00  0.00    -0.000 C 
BRANCH  15  16
ATOM     16  C   UNL     1       6.264   9.331  -5.052  1.00  0.00    -0.000 C 
BRANCH  16  17
ATOM     17  C   UNL     1       4.742   9.433  -5.235  1.00  0.00    -0.003 C 
ATOM     18  C   UNL     1       4.074   8.073  -5.047  1.00  0.00     0.004 C 
ENDBRANCH  16  17
ENDBRANCH  15  16
ENDBRANCH  14  15
ENDBRANCH  13  14
ENDBRANCH  12  13
ENDBRANCH  11  12
ENDBRANCH   1  11
TORSDOF 14
ENDMDL
MODEL 9
REMARK VINA RESULT:    -3.109      9.284     12.396
REMARK INTER + INTRA:          -7.105
REMARK INTER:                  -4.741
REMARK INTRA:                  -2.364
REMARK UNBOUND:                -1.451
REMARK SMILES CCCCCCCCCCCCCCCC(=O)[O-]
REMARK SMILES IDX 9 1 10 2 11 3 12 4 13 5 14 6 15 7 16 8 17 9 18 10 8 11 7 12
REMARK SMILES IDX 6 13 5 14 4 15 3 16 2 17 1 18
REMARK H PARENT
REMARK Flexibility Score: inf
ROOT
ATOM      1  C   UNL     1       9.284  11.626   0.618  1.00  0.00     0.000 C 
ENDROOT
BRANCH   1   2
ATOM      2  C   UNL     1       7.981  12.091  -0.054  1.00  0.00     0.000 C 
BRANCH   2   3
ATOM      3  C   UNL     1       6.730  11.703   0.754  1.00  0.00     0.000 C 
BRANCH   3   4
ATOM      4  C   UNL     1       6.981  10.535   1.725  1.00  0.00     0.000 C 
BRANCH   4   5
ATOM      5  C   UNL     1       6.326   9.200   1.324  1.00  0.00     0.000 C 
BRANCH   5   6
ATOM      6  C   UNL     1       6.915   7.995   2.072  1.00  0.00     0.006 C 
BRANCH   6   7
ATOM      7  C   UNL     1       8.425   8.159   2.271  1.00  0.00     0.053 C 
BRANCH   7   8
ATOM      8  C   UNL     1       9.142   6.899   1.901  1.00  0.00     0.041 C 
ATOM      9  O   UNL     1      10.337   6.722   2.254  1.00  0.00    -0.550 OA
ATOM     10  O   UNL     1       8.505   5.940   1.122  1.00  0.00    -0.550 OA
ENDBRANCH   7   8
ENDBRANCH   6   7
ENDBRANCH   5   6
ENDBRANCH   4   5
ENDBRANCH   3   4
ENDBRANCH   2   3
ENDBRANCH   1   2
BRANCH   1  11
ATOM     11  C   UNL     1      10.042  10.583  -0.224  1.00  0.00     0.000 C 
BRANCH  11  12
ATOM     12  C   UNL     1       9.249  10.135  -1.462  1.00  0.00    -0.000 C 
BRANCH  12  13
ATOM     13  C   UNL     1       8.895   8.638  -1.427  1.00  0.00    -0.000 C 
BRANCH  13  14
ATOM     14  C   UNL     1       7.493   8.343  -1.991  1.00  0.00    -0.000 C 
BRANCH  14  15
ATOM     15  C   UNL     1       6.666   9.584  -2.382  1.00  0.00    -0.000 C 
BRANCH  15  16
ATOM     16  C   UNL     1       6.063   9.548  -3.797  1.00  0.00    -0.000 C 
BRANCH  16  17
ATOM     17  C   UNL     1       6.212   8.177  -4.473  1.00  0.00    -0.003 C 
ATOM     18  C   UNL     1       6.171   8.306  -5.994  1.00  0.00     0.004 C 
ENDBRANCH  16  17
ENDBRANCH  15  16
ENDBRANCH  14  15
ENDBRANCH  13  14
ENDBRANCH  12  13
ENDBRANCH  11  12
ENDBRANCH   1  11
TORSDOF 14
ENDMDL
