MODEL 1
REMARK VINA RESULT:    -3.282      0.000      0.000
REMARK INTER + INTRA:          -8.927
REMARK INTER:                  -5.968
REMARK INTRA:                  -2.959
REMARK UNBOUND:                -2.959
REMARK SMILES CCCCCC=CCC=CCCCCCCCC(=O)[O-]
REMARK SMILES IDX 11 1 12 2 13 3 14 4 15 5 16 6 17 7 18 8 19 9 20 10 10 11
REMARK SMILES IDX 9 12 8 13 7 14 6 15 5 16 4 17 3 18 2 19 1 20
REMARK H PARENT
REMARK Flexibility Score: inf
ROOT
ATOM      1  C   UNL     1      57.526  29.882  51.392  1.00  0.00     0.027 C 
ENDROOT
BRANCH   1   2
ATOM      2  C   UNL     1      57.906  29.439  49.971  1.00  0.00     0.004 C 
BRANCH   2   3
ATOM      3  C   UNL     1      59.419  29.536  49.718  1.00  0.00     0.000 C 
BRANCH   3   4
ATOM      4  C   UNL     1      60.009  28.241  49.132  1.00  0.00     0.000 C 
BRANCH   4   5
ATOM      5  C   UNL     1      59.291  26.968  49.626  1.00  0.00     0.000 C 
BRANCH   5   6
ATOM      6  C   UNL     1      60.244  26.015  50.371  1.00  0.00     0.006 C 
BRANCH   6   7
ATOM      7  C   UNL     1      59.648  24.612  50.537  1.00  0.00     0.053 C 
BRANCH   7   8
ATOM      8  C   UNL     1      59.441  24.266  51.981  1.00  0.00     0.041 C 
ATOM      9  O   UNL     1      58.623  23.366  52.307  1.00  0.00    -0.550 OA
ATOM     10  O   UNL     1      60.128  24.961  52.968  1.00  0.00    -0.550 OA
ENDBRANCH   7   8
ENDBRANCH   6   7
ENDBRANCH   5   6
ENDBRANCH   4   5
ENDBRANCH   3   4
ENDBRANCH   2   3
ENDBRANCH   1   2
BRANCH   1  11
ATOM     11  C   UNL     1      58.277  29.099  52.441  1.00  0.00    -0.031 C 
ATOM     12  C   UNL     1      57.779  28.042  53.110  1.00  0.00    -0.027 C 
BRANCH  12  13
ATOM     13  C   UNL     1      56.364  27.538  52.988  1.00  0.00     0.054 C 
BRANCH  13  14
ATOM     14  C   UNL     1      56.368  26.136  52.432  1.00  0.00    -0.027 C 
ATOM     15  C   UNL     1      56.066  25.799  51.163  1.00  0.00    -0.031 C 
BRANCH  15  16
ATOM     16  C   UNL     1      55.663  26.765  50.075  1.00  0.00     0.027 C 
BRANCH  16  17
ATOM     17  C   UNL     1      54.202  26.589  49.629  1.00  0.00     0.004 C 
BRANCH  17  18
ATOM     18  C   UNL     1      53.329  27.843  49.815  1.00  0.00     0.000 C 
BRANCH  18  19
ATOM     19  C   UNL     1      54.126  29.096  50.239  1.00  0.00    -0.003 C 
ATOM     20  C   UNL     1      53.353  29.977  51.219  1.00  0.00     0.004 C 
ENDBRANCH  18  19
ENDBRANCH  17  18
ENDBRANCH  16  17
ENDBRANCH  15  16
ENDBRANCH  13  14
ENDBRANCH  12  13
ENDBRANCH   1  11
TORSDOF 14
ENDMDL
MODEL 2
REMARK VINA RESULT:    -3.211      2.538      4.609
REMARK INTER + INTRA:          -8.798
REMARK INTER:                  -6.039
REMARK INTRA:                  -2.759
REMARK UNBOUND:                -2.959
REMARK SMILES CCCCCC=CCC=CCCCCCCCC(=O)[O-]
REMARK SMILES IDX 11 1 12 2 13 3 14 4 15 5 16 6 17 7 18 8 19 9 20 10 10 11
REMARK SMILES IDX 9 12 8 13 7 14 6 15 5 16 4 17 3 18 2 19 1 20
REMARK H PARENT
REMARK Flexibility Score: inf
ROOT
ATOM      1  C   UNL     1      55.536  29.445  51.996  1.00  0.00     0.027 C 
ENDROOT
BRANCH   1   2
ATOM      2  C   UNL     1      57.022  29.603  51.640  1.00  0.00     0.004 C 
BRANCH   2   3
ATOM      3  C   UNL     1      57.283  29.405  50.138  1.00  0.00     0.000 C 
BRANCH   3   4
ATOM      4  C   UNL     1      58.753  29.642  49.753  1.00  0.00     0.000 C 
BRANCH   4   5
ATOM      5  C   UNL     1      59.418  28.411  49.103  1.00  0.00     0.000 C 
BRANCH   5   6
ATOM      6  C   UNL     1      60.896  28.266  49.511  1.00  0.00     0.006 C 
BRANCH   6   7
ATOM      7  C   UNL     1      61.173  28.850  50.903  1.00  0.00     0.053 C 
BRANCH   7   8
ATOM      8  C   UNL     1      62.461  29.617  50.935  1.00  0.00     0.041 C 
ATOM      9  O   UNL     1      63.261  29.555  49.965  1.00  0.00    -0.550 OA
ATOM     10  O   UNL     1      62.792  30.373  52.052  1.00  0.00    -0.550 OA
ENDBRANCH   7   8
ENDBRANCH   6   7
ENDBRANCH   5   6
ENDBRANCH   4   5
ENDBRANCH   3   4
ENDBRANCH   2   3
ENDBRANCH   1   2
BRANCH   1  11
ATOM     11  C   UNL     1      54.640  29.947  50.892  1.00  0.00    -0.031 C 
ATOM     12  C   UNL     1      53.663  29.224  50.310  1.00  0.00    -0.027 C 
BRANCH  12  13
ATOM     13  C   UNL     1      53.380  27.773  50.600  1.00  0.00     0.054 C 
BRANCH  13  14
ATOM     14  C   UNL     1      53.985  26.909  49.523  1.00  0.00    -0.027 C 
ATOM     15  C   UNL     1      55.083  26.142  49.662  1.00  0.00    -0.031 C 
BRANCH  15  16
ATOM     16  C   UNL     1      55.908  26.017  50.921  1.00  0.00     0.027 C 
BRANCH  16  17
ATOM     17  C   UNL     1      57.416  25.904  50.639  1.00  0.00     0.004 C 
BRANCH  17  18
ATOM     18  C   UNL     1      58.308  26.124  51.875  1.00  0.00     0.000 C 
BRANCH  18  19
ATOM     19  C   UNL     1      59.704  25.476  51.756  1.00  0.00    -0.003 C 
ATOM     20  C   UNL     1      59.913  24.783  50.411  1.00  0.00     0.004 C 
ENDBRANCH  18  19
ENDBRANCH  17  18
ENDBRANCH  16  17
ENDBRANCH  15  16
ENDBRANCH  13  14
ENDBRANCH  12  13
ENDBRANCH   1  11
TORSDOF 14
ENDMDL
MODEL 3
REMARK VINA RESULT:    -3.201      2.123      4.795
REMARK INTER + INTRA:          -8.780
REMARK INTER:                  -5.930
REMARK INTRA:                  -2.849
REMARK UNBOUND:                -2.959
REMARK SMILES CCCCCC=CCC=CCCCCCCCC(=O)[O-]
REMARK SMILES IDX 11 1 12 2 13 3 14 4 15 5 16 6 17 7 18 8 19 9 20 10 10 11
REMARK SMILES IDX 9 12 8 13 7 14 6 15 5 16 4 17 3 18 2 19 1 20
REMARK H PARENT
REMARK Flexibility Score: inf
ROOT
ATOM      1  C   UNL     1      59.253  27.436  49.434  1.00  0.00     0.027 C 
ENDROOT
BRANCH   1   2
ATOM      2  C   UNL     1      59.078  28.962  49.476  1.00  0.00     0.004 C 
BRANCH   2   3
ATOM      3  C   UNL     1      57.817  29.380  50.251  1.00  0.00     0.000 C 
BRANCH   3   4
ATOM      4  C   UNL     1      56.710  28.313  50.203  1.00  0.00     0.000 C 
BRANCH   4   5
ATOM      5  C   UNL     1      55.321  28.860  50.593  1.00  0.00     0.000 C 
BRANCH   5   6
ATOM      6  C   UNL     1      54.177  27.998  50.028  1.00  0.00     0.006 C 
BRANCH   6   7
ATOM      7  C   UNL     1      54.660  26.608  49.594  1.00  0.00     0.053 C 
BRANCH   7   8
ATOM      8  C   UNL     1      53.937  25.518  50.329  1.00  0.00     0.041 C 
ATOM      9  O   UNL     1      53.203  24.709  49.703  1.00  0.00    -0.550 OA
ATOM     10  O   UNL     1      54.050  25.417  51.710  1.00  0.00    -0.550 OA
ENDBRANCH   7   8
ENDBRANCH   6   7
ENDBRANCH   5   6
ENDBRANCH   4   5
ENDBRANCH   3   4
ENDBRANCH   2   3
ENDBRANCH   1   2
BRANCH   1  11
ATOM     11  C   UNL     1      60.632  27.019  49.881  1.00  0.00    -0.031 C 
ATOM     12  C   UNL     1      60.989  25.756  50.185  1.00  0.00    -0.027 C 
BRANCH  12  13
ATOM     13  C   UNL     1      60.046  24.583  50.222  1.00  0.00     0.054 C 
BRANCH  13  14
ATOM     14  C   UNL     1      59.896  24.092  51.640  1.00  0.00    -0.027 C 
ATOM     15  C   UNL     1      58.856  24.356  52.452  1.00  0.00    -0.031 C 
BRANCH  15  16
ATOM     16  C   UNL     1      57.655  25.197  52.089  1.00  0.00     0.027 C 
BRANCH  16  17
ATOM     17  C   UNL     1      57.489  26.426  52.999  1.00  0.00     0.004 C 
BRANCH  17  18
ATOM     18  C   UNL     1      58.772  27.259  53.177  1.00  0.00     0.000 C 
BRANCH  18  19
ATOM     19  C   UNL     1      58.542  28.604  53.899  1.00  0.00    -0.003 C 
ATOM     20  C   UNL     1      57.079  29.041  53.869  1.00  0.00     0.004 C 
ENDBRANCH  18  19
ENDBRANCH  17  18
ENDBRANCH  16  17
ENDBRANCH  15  16
ENDBRANCH  13  14
ENDBRANCH  12  13
ENDBRANCH   1  11
TORSDOF 14
ENDMDL
MODEL 4
REMARK VINA RESULT:    -3.179      1.185      2.370
REMARK INTER + INTRA:          -8.740
REMARK INTER:                  -6.149
REMARK INTRA:                  -2.591
REMARK UNBOUND:                -2.959
REMARK SMILES CCCCCC=CCC=CCCCCCCCC(=O)[O-]
REMARK SMILES IDX 11 1 12 2 13 3 14 4 15 5 16 6 17 7 18 8 19 9 20 10 10 11
REMARK SMILES IDX 9 12 8 13 7 14 6 15 5 16 4 17 3 18 2 19 1 20
REMARK H PARENT
REMARK Flexibility Score: inf
ROOT
ATOM      1  C   UNL     1      58.267  28.942  52.908  1.00  0.00     0.027 C 
ENDROOT
BRANCH   1   2
ATOM      2  C   UNL     1      58.343  29.891  51.702  1.00  0.00     0.004 C 
BRANCH   2   3
ATOM      3  C   UNL     1      57.760  29.258  50.429  1.00  0.00     0.000 C 
BRANCH   3   4
ATOM      4  C   UNL     1      58.715  29.352  49.227  1.00  0.00     0.000 C 
BRANCH   4   5
ATOM      5  C   UNL     1      59.924  28.401  49.333  1.00  0.00     0.000 C 
BRANCH   5   6
ATOM      6  C   UNL     1      59.496  26.925  49.425  1.00  0.00     0.006 C 
BRANCH   6   7
ATOM      7  C   UNL     1      60.396  26.118  50.370  1.00  0.00     0.053 C 
BRANCH   7   8
ATOM      8  C   UNL     1      59.910  24.709  50.530  1.00  0.00     0.041 C 
ATOM      9  O   UNL     1      60.380  23.790  49.809  1.00  0.00    -0.550 OA
ATOM     10  O   UNL     1      58.913  24.417  51.452  1.00  0.00    -0.550 OA
ENDBRANCH   7   8
ENDBRANCH   6   7
ENDBRANCH   5   6
ENDBRANCH   4   5
ENDBRANCH   3   4
ENDBRANCH   2   3
ENDBRANCH   1   2
BRANCH   1  11
ATOM     11  C   UNL     1      57.673  27.607  52.533  1.00  0.00    -0.031 C 
ATOM     12  C   UNL     1      56.472  27.160  52.947  1.00  0.00    -0.027 C 
BRANCH  12  13
ATOM     13  C   UNL     1      55.580  27.877  53.926  1.00  0.00     0.054 C 
BRANCH  13  14
ATOM     14  C   UNL     1      54.134  27.655  53.558  1.00  0.00    -0.027 C 
ATOM     15  C   UNL     1      53.487  28.255  52.541  1.00  0.00    -0.031 C 
BRANCH  15  16
ATOM     16  C   UNL     1      54.093  29.262  51.592  1.00  0.00     0.027 C 
BRANCH  16  17
ATOM     17  C   UNL     1      54.298  28.700  50.175  1.00  0.00     0.004 C 
BRANCH  17  18
ATOM     18  C   UNL     1      53.334  27.558  49.802  1.00  0.00     0.000 C 
BRANCH  18  19
ATOM     19  C   UNL     1      54.046  26.231  49.467  1.00  0.00    -0.003 C 
ATOM     20  C   UNL     1      55.545  26.282  49.756  1.00  0.00     0.004 C 
ENDBRANCH  18  19
ENDBRANCH  17  18
ENDBRANCH  16  17
ENDBRANCH  15  16
ENDBRANCH  13  14
ENDBRANCH  12  13
ENDBRANCH   1  11
TORSDOF 14
ENDMDL
MODEL 5
REMARK VINA RESULT:    -3.145      2.550      5.723
REMARK INTER + INTRA:          -8.678
REMARK INTER:                  -5.628
REMARK INTRA:                  -3.050
REMARK UNBOUND:                -2.959
REMARK SMILES CCCCCC=CCC=CCCCCCCCC(=O)[O-]
REMARK SMILES IDX 11 1 12 2 13 3 14 4 15 5 16 6 17 7 18 8 19 9 20 10 10 11
REMARK SMILES IDX 9 12 8 13 7 14 6 15 5 16 4 17 3 18 2 19 1 20
REMARK H PARENT
REMARK Flexibility Score: inf
ROOT
ATOM      1  C   UNL     1      57.874  25.640  51.141  1.00  0.00     0.027 C 
ENDROOT
BRANCH   1   2
ATOM      2  C   UNL     1      56.747  25.782  52.174  1.00  0.00     0.004 C 
BRANCH   2   3
ATOM      3  C   UNL     1      55.369  25.940  51.511  1.00  0.00     0.000 C 
BRANCH   3   4
ATOM      4  C   UNL     1      55.460  26.457  50.066  1.00  0.00     0.000 C 
BRANCH   4   5
ATOM      5  C   UNL     1      54.084  26.764  49.440  1.00  0.00     0.000 C 
BRANCH   5   6
ATOM      6  C   UNL     1      53.358  27.912  50.167  1.00  0.00     0.006 C 
BRANCH   6   7
ATOM      7  C   UNL     1      54.264  29.134  50.368  1.00  0.00     0.053 C 
BRANCH   7   8
ATOM      8  C   UNL     1      54.301  29.566  51.804  1.00  0.00     0.041 C 
ATOM      9  O   UNL     1      54.953  30.588  52.142  1.00  0.00    -0.550 OA
ATOM     10  O   UNL     1      53.641  28.819  52.771  1.00  0.00    -0.550 OA
ENDBRANCH   7   8
ENDBRANCH   6   7
ENDBRANCH   5   6
ENDBRANCH   4   5
ENDBRANCH   3   4
ENDBRANCH   2   3
ENDBRANCH   1   2
BRANCH   1  11
ATOM     11  C   UNL     1      59.200  25.343  51.797  1.00  0.00    -0.031 C 
ATOM     12  C   UNL     1      60.400  25.674  51.282  1.00  0.00    -0.027 C 
BRANCH  12  13
ATOM     13  C   UNL     1      60.610  26.302  49.929  1.00  0.00     0.054 C 
BRANCH  13  14
ATOM     14  C   UNL     1      61.088  27.723  50.093  1.00  0.00    -0.027 C 
ATOM     15  C   UNL     1      60.400  28.824  49.738  1.00  0.00    -0.031 C 
BRANCH  15  16
ATOM     16  C   UNL     1      59.029  28.831  49.104  1.00  0.00     0.027 C 
BRANCH  16  17
ATOM     17  C   UNL     1      57.912  29.189  50.100  1.00  0.00     0.004 C 
BRANCH  17  18
ATOM     18  C   UNL     1      58.404  29.908  51.369  1.00  0.00     0.000 C 
BRANCH  18  19
ATOM     19  C   UNL     1      58.133  29.123  52.671  1.00  0.00    -0.003 C 
ATOM     20  C   UNL     1      59.419  28.683  53.368  1.00  0.00     0.004 C 
ENDBRANCH  18  19
ENDBRANCH  17  18
ENDBRANCH  16  17
ENDBRANCH  15  16
ENDBRANCH  13  14
ENDBRANCH  12  13
ENDBRANCH   1  11
TORSDOF 14
ENDMDL
MODEL 6
REMARK VINA RESULT:    -3.135      9.868     11.754
REMARK INTER + INTRA:          -8.659
REMARK INTER:                  -5.634
REMARK INTRA:                  -3.025
REMARK UNBOUND:                -2.959
REMARK SMILES CCCCCC=CCC=CCCCCCCCC(=O)[O-]
REMARK SMILES IDX 11 1 12 2 13 3 14 4 15 5 16 6 17 7 18 8 19 9 20 10 10 11
REMARK SMILES IDX 9 12 8 13 7 14 6 15 5 16 4 17 3 18 2 19 1 20
REMARK H PARENT
REMARK Flexibility Score: inf
ROOT
ATOM      1  C   UNL     1      63.471  35.454  60.290  1.00  0.00     0.027 C 
ENDROOT
BRANCH   1   2
ATOM      2  C   UNL     1      63.972  34.024  60.545  1.00  0.00     0.004 C 
BRANCH   2   3
ATOM      3  C   UNL     1      64.622  33.406  59.296  1.00  0.00     0.000 C 
BRANCH   3   4
ATOM      4  C   UNL     1      64.742  31.876  59.383  1.00  0.00     0.000 C 
BRANCH   4   5
ATOM      5  C   UNL     1      64.379  31.315  60.774  1.00  0.00     0.000 C 
BRANCH   5   6
ATOM      6  C   UNL     1      64.281  29.778  60.773  1.00  0.00     0.006 C 
BRANCH   6   7
ATOM      7  C   UNL     1      63.099  29.274  59.934  1.00  0.00     0.053 C 
BRANCH   7   8
ATOM      8  C   UNL     1      62.477  28.049  60.535  1.00  0.00     0.041 C 
ATOM      9  O   UNL     1      62.171  28.026  61.756  1.00  0.00    -0.550 OA
ATOM     10  O   UNL     1      62.265  26.921  59.752  1.00  0.00    -0.550 OA
ENDBRANCH   7   8
ENDBRANCH   6   7
ENDBRANCH   5   6
ENDBRANCH   4   5
ENDBRANCH   3   4
ENDBRANCH   2   3
ENDBRANCH   1   2
BRANCH   1  11
ATOM     11  C   UNL     1      62.241  35.769  61.105  1.00  0.00    -0.031 C 
ATOM     12  C   UNL     1      61.065  36.177  60.591  1.00  0.00    -0.027 C 
BRANCH  12  13
ATOM     13  C   UNL     1      60.824  36.477  59.134  1.00  0.00     0.054 C 
BRANCH  13  14
ATOM     14  C   UNL     1      59.727  35.588  58.604  1.00  0.00    -0.027 C 
ATOM     15  C   UNL     1      59.904  34.365  58.070  1.00  0.00    -0.031 C 
BRANCH  15  16
ATOM     16  C   UNL     1      61.234  33.669  57.900  1.00  0.00     0.027 C 
BRANCH  16  17
ATOM     17  C   UNL     1      61.177  32.174  58.257  1.00  0.00     0.004 C 
BRANCH  17  18
ATOM     18  C   UNL     1      60.283  31.848  59.467  1.00  0.00     0.000 C 
BRANCH  18  19
ATOM     19  C   UNL     1      60.906  32.244  60.823  1.00  0.00    -0.003 C 
ATOM     20  C   UNL     1      60.636  31.211  61.915  1.00  0.00     0.004 C 
ENDBRANCH  18  19
ENDBRANCH  17  18
ENDBRANCH  16  17
ENDBRANCH  15  16
ENDBRANCH  13  14
ENDBRANCH  12  13
ENDBRANCH   1  11
TORSDOF 14
ENDMDL
MODEL 7
REMARK VINA RESULT:    -3.123      2.994      6.081
REMARK INTER + INTRA:          -8.637
REMARK INTER:                  -5.655
REMARK INTRA:                  -2.982
REMARK UNBOUND:                -2.959
REMARK SMILES CCCCCC=CCC=CCCCCCCCC(=O)[O-]
REMARK SMILES IDX 11 1 12 2 13 3 14 4 15 5 16 6 17 7 18 8 19 9 20 10 10 11
REMARK SMILES IDX 9 12 8 13 7 14 6 15 5 16 4 17 3 18 2 19 1 20
REMARK H PARENT
REMARK Flexibility Score: inf
ROOT
ATOM      1  C   UNL     1      55.821  26.432  52.436  1.00  0.00     0.027 C 
ENDROOT
BRANCH   1   2
ATOM      2  C   UNL     1      55.652  26.102  50.945  1.00  0.00     0.004 C 
BRANCH   2   3
ATOM      3  C   UNL     1      55.399  27.359  50.098  1.00  0.00     0.000 C 
BRANCH   3   4
ATOM      4  C   UNL     1      53.908  27.583  49.795  1.00  0.00     0.000 C 
BRANCH   4   5
ATOM      5  C   UNL     1      53.414  28.995  50.172  1.00  0.00     0.000 C 
BRANCH   5   6
ATOM      6  C   UNL     1      54.480  29.797  50.941  1.00  0.00     0.006 C 
BRANCH   6   7
ATOM      7  C   UNL     1      54.144  29.925  52.433  1.00  0.00     0.053 C 
BRANCH   7   8
ATOM      8  C   UNL     1      54.486  31.285  52.963  1.00  0.00     0.041 C 
ATOM      9  O   UNL     1      54.068  32.318  52.376  1.00  0.00    -0.550 OA
ATOM     10  O   UNL     1      55.295  31.412  54.085  1.00  0.00    -0.550 OA
ENDBRANCH   7   8
ENDBRANCH   6   7
ENDBRANCH   5   6
ENDBRANCH   4   5
ENDBRANCH   3   4
ENDBRANCH   2   3
ENDBRANCH   1   2
BRANCH   1  11
ATOM     11  C   UNL     1      57.268  26.390  52.858  1.00  0.00    -0.031 C 
ATOM     12  C   UNL     1      58.028  27.476  53.099  1.00  0.00    -0.027 C 
BRANCH  12  13
ATOM     13  C   UNL     1      57.580  28.899  52.892  1.00  0.00     0.054 C 
BRANCH  13  14
ATOM     14  C   UNL     1      58.750  29.743  52.451  1.00  0.00    -0.027 C 
ATOM     15  C   UNL     1      59.071  30.026  51.174  1.00  0.00    -0.031 C 
BRANCH  15  16
ATOM     16  C   UNL     1      58.320  29.543  49.956  1.00  0.00     0.027 C 
BRANCH  16  17
ATOM     17  C   UNL     1      59.144  28.573  49.092  1.00  0.00     0.004 C 
BRANCH  17  18
ATOM     18  C   UNL     1      59.078  27.104  49.553  1.00  0.00     0.000 C 
BRANCH  18  19
ATOM     19  C   UNL     1      60.340  26.633  50.305  1.00  0.00    -0.003 C 
ATOM     20  C   UNL     1      61.605  27.347  49.830  1.00  0.00     0.004 C 
ENDBRANCH  18  19
ENDBRANCH  17  18
ENDBRANCH  16  17
ENDBRANCH  15  16
ENDBRANCH  13  14
ENDBRANCH  12  13
ENDBRANCH   1  11
TORSDOF 14
ENDMDL
MODEL 8
REMARK VINA RESULT:    -3.119     10.517     12.850
REMARK INTER + INTRA:          -8.630
REMARK INTER:                  -6.222
REMARK INTRA:                  -2.408
REMARK UNBOUND:                -2.959
REMARK SMILES CCCCCC=CCC=CCCCCCCCC(=O)[O-]
REMARK SMILES IDX 11 1 12 2 13 3 14 4 15 5 16 6 17 7 18 8 19 9 20 10 10 11
REMARK SMILES IDX 9 12 8 13 7 14 6 15 5 16 4 17 3 18 2 19 1 20
REMARK H PARENT
REMARK Flexibility Score: inf
ROOT
ATOM      1  C   UNL     1      61.029  34.938  59.572  1.00  0.00     0.027 C 
ENDROOT
BRANCH   1   2
ATOM      2  C   UNL     1      61.100  33.563  60.254  1.00  0.00     0.004 C 
BRANCH   2   3
ATOM      3  C   UNL     1      60.538  32.444  59.362  1.00  0.00     0.000 C 
BRANCH   3   4
ATOM      4  C   UNL     1      60.546  31.071  60.055  1.00  0.00     0.000 C 
BRANCH   4   5
ATOM      5  C   UNL     1      60.727  31.162  61.585  1.00  0.00     0.000 C 
BRANCH   5   6
ATOM      6  C   UNL     1      61.799  30.185  62.102  1.00  0.00     0.006 C 
BRANCH   6   7
ATOM      7  C   UNL     1      62.790  29.778  61.003  1.00  0.00     0.053 C 
BRANCH   7   8
ATOM      8  C   UNL     1      63.001  28.293  60.972  1.00  0.00     0.041 C 
ATOM      9  O   UNL     1      63.899  27.796  60.243  1.00  0.00    -0.550 OA
ATOM     10  O   UNL     1      62.184  27.458  61.724  1.00  0.00    -0.550 OA
ENDBRANCH   7   8
ENDBRANCH   6   7
ENDBRANCH   5   6
ENDBRANCH   4   5
ENDBRANCH   3   4
ENDBRANCH   2   3
ENDBRANCH   1   2
BRANCH   1  11
ATOM     11  C   UNL     1      60.723  36.037  60.559  1.00  0.00    -0.031 C 
ATOM     12  C   UNL     1      61.622  36.933  61.011  1.00  0.00    -0.027 C 
BRANCH  12  13
ATOM     13  C   UNL     1      63.092  36.916  60.678  1.00  0.00     0.054 C 
BRANCH  13  14
ATOM     14  C   UNL     1      63.824  36.016  61.641  1.00  0.00    -0.027 C 
ATOM     15  C   UNL     1      64.497  34.899  61.308  1.00  0.00    -0.031 C 
BRANCH  15  16
ATOM     16  C   UNL     1      64.632  34.345  59.909  1.00  0.00     0.027 C 
BRANCH  16  17
ATOM     17  C   UNL     1      64.498  32.814  59.856  1.00  0.00     0.004 C 
BRANCH  17  18
ATOM     18  C   UNL     1      64.149  32.258  58.463  1.00  0.00     0.000 C 
BRANCH  18  19
ATOM     19  C   UNL     1      64.826  30.907  58.148  1.00  0.00    -0.003 C 
ATOM     20  C   UNL     1      65.958  30.579  59.119  1.00  0.00     0.004 C 
ENDBRANCH  18  19
ENDBRANCH  17  18
ENDBRANCH  16  17
ENDBRANCH  15  16
ENDBRANCH  13  14
ENDBRANCH  12  13
ENDBRANCH   1  11
TORSDOF 14
ENDMDL
MODEL 9
REMARK VINA RESULT:    -3.110      2.688      4.551
REMARK INTER + INTRA:          -8.614
REMARK INTER:                  -5.559
REMARK INTRA:                  -3.055
REMARK UNBOUND:                -2.959
REMARK SMILES CCCCCC=CCC=CCCCCCCCC(=O)[O-]
REMARK SMILES IDX 11 1 12 2 13 3 14 4 15 5 16 6 17 7 18 8 19 9 20 10 10 11
REMARK SMILES IDX 9 12 8 13 7 14 6 15 5 16 4 17 3 18 2 19 1 20
REMARK H PARENT
REMARK Flexibility Score: inf
ROOT
ATOM      1  C   UNL     1      58.248  26.099  49.865  1.00  0.00     0.027 C 
ENDROOT
BRANCH   1   2
ATOM      2  C   UNL     1      58.103  25.670  51.334  1.00  0.00     0.004 C 
BRANCH   2   3
ATOM      3  C   UNL     1      59.308  26.104  52.185  1.00  0.00     0.000 C 
BRANCH   3   4
ATOM      4  C   UNL     1      58.918  27.066  53.320  1.00  0.00     0.000 C 
BRANCH   4   5
ATOM      5  C   UNL     1      59.928  28.216  53.517  1.00  0.00     0.000 C 
BRANCH   5   6
ATOM      6  C   UNL     1      61.232  27.984  52.733  1.00  0.00     0.006 C 
BRANCH   6   7
ATOM      7  C   UNL     1      62.189  29.180  52.835  1.00  0.00     0.053 C 
BRANCH   7   8
ATOM      8  C   UNL     1      61.841  30.252  51.847  1.00  0.00     0.041 C 
ATOM      9  O   UNL     1      62.231  30.165  50.653  1.00  0.00    -0.550 OA
ATOM     10  O   UNL     1      61.114  31.364  52.253  1.00  0.00    -0.550 OA
ENDBRANCH   7   8
ENDBRANCH   6   7
ENDBRANCH   5   6
ENDBRANCH   4   5
ENDBRANCH   3   4
ENDBRANCH   2   3
ENDBRANCH   1   2
BRANCH   1  11
ATOM     11  C   UNL     1      59.627  26.638  49.573  1.00  0.00    -0.031 C 
ATOM     12  C   UNL     1      59.901  27.924  49.285  1.00  0.00    -0.027 C 
BRANCH  12  13
ATOM     13  C   UNL     1      58.865  29.005  49.112  1.00  0.00     0.054 C 
BRANCH  13  14
ATOM     14  C   UNL     1      58.585  29.661  50.441  1.00  0.00    -0.027 C 
ATOM     15  C   UNL     1      57.405  29.640  51.090  1.00  0.00    -0.031 C 
BRANCH  15  16
ATOM     16  C   UNL     1      56.150  28.959  50.598  1.00  0.00     0.027 C 
BRANCH  16  17
ATOM     17  C   UNL     1      55.469  28.105  51.681  1.00  0.00     0.004 C 
BRANCH  17  18
ATOM     18  C   UNL     1      54.074  27.583  51.289  1.00  0.00     0.000 C 
BRANCH  18  19
ATOM     19  C   UNL     1      53.899  27.360  49.772  1.00  0.00    -0.003 C 
ATOM     20  C   UNL     1      54.353  25.970  49.329  1.00  0.00     0.004 C 
ENDBRANCH  18  19
ENDBRANCH  17  18
ENDBRANCH  16  17
ENDBRANCH  15  16
ENDBRANCH  13  14
ENDBRANCH  12  13
ENDBRANCH   1  11
TORSDOF 14
ENDMDL
