MODEL 1
REMARK VINA RESULT:    -5.697      0.000      0.000
REMARK INTER + INTRA:          -9.819
REMARK INTER:                  -9.027
REMARK INTRA:                  -0.792
REMARK UNBOUND:                -0.792
REMARK SMILES CCCCCCCCCCCC(=O)[O-]
REMARK SMILES IDX 7 1 8 2 9 3 10 4 11 5 12 6 13 7 14 8 6 9 5 10 4 11 3 12 2 13
REMARK SMILES IDX 1 14
REMARK H PARENT
REMARK Flexibility Score: inf
ROOT
ATOM      1  C   UNL     1      53.486  49.636   4.473  1.00  0.00     0.000 C 
ENDROOT
BRANCH   1   2
ATOM      2  C   UNL     1      54.441  50.829   4.282  1.00  0.00     0.000 C 
BRANCH   2   3
ATOM      3  C   UNL     1      53.812  52.169   4.703  1.00  0.00     0.000 C 
BRANCH   3   4
ATOM      4  C   UNL     1      54.624  52.882   5.797  1.00  0.00     0.006 C 
BRANCH   4   5
ATOM      5  C   UNL     1      55.225  51.907   6.819  1.00  0.00     0.053 C 
BRANCH   5   6
ATOM      6  C   UNL     1      54.228  51.598   7.891  1.00  0.00     0.041 C 
ATOM      7  O   UNL     1      53.681  52.531   8.537  1.00  0.00    -0.550 OA
ATOM      8  O   UNL     1      53.867  50.281   8.146  1.00  0.00    -0.550 OA
ENDBRANCH   5   6
ENDBRANCH   4   5
ENDBRANCH   3   4
ENDBRANCH   2   3
ENDBRANCH   1   2
BRANCH   1   9
ATOM      9  C   UNL     1      51.985  49.989   4.437  1.00  0.00     0.000 C 
BRANCH   9  10
ATOM     10  C   UNL     1      51.092  48.986   3.679  1.00  0.00    -0.000 C 
BRANCH  10  11
ATOM     11  C   UNL     1      49.925  49.614   2.896  1.00  0.00    -0.000 C 
BRANCH  11  12
ATOM     12  C   UNL     1      48.933  50.362   3.803  1.00  0.00    -0.000 C 
BRANCH  12  13
ATOM     13  C   UNL     1      48.567  51.750   3.255  1.00  0.00    -0.003 C 
ATOM     14  C   UNL     1      49.175  52.890   4.071  1.00  0.00     0.004 C 
ENDBRANCH  12  13
ENDBRANCH  11  12
ENDBRANCH  10  11
ENDBRANCH   9  10
ENDBRANCH   1   9
TORSDOF 10
ENDMDL
MODEL 2
REMARK VINA RESULT:    -5.684      2.266      3.754
REMARK INTER + INTRA:          -9.799
REMARK INTER:                  -8.434
REMARK INTRA:                  -1.365
REMARK UNBOUND:                -0.792
REMARK SMILES CCCCCCCCCCCC(=O)[O-]
REMARK SMILES IDX 7 1 8 2 9 3 10 4 11 5 12 6 13 7 14 8 6 9 5 10 4 11 3 12 2 13
REMARK SMILES IDX 1 14
REMARK H PARENT
REMARK Flexibility Score: inf
ROOT
ATOM      1  C   UNL     1      50.531  52.835   5.034  1.00  0.00     0.000 C 
ENDROOT
BRANCH   1   2
ATOM      2  C   UNL     1      50.852  52.066   6.329  1.00  0.00     0.000 C 
BRANCH   2   3
ATOM      3  C   UNL     1      52.245  51.412   6.303  1.00  0.00     0.000 C 
BRANCH   3   4
ATOM      4  C   UNL     1      52.933  51.545   4.935  1.00  0.00     0.006 C 
BRANCH   4   5
ATOM      5  C   UNL     1      53.842  50.352   4.610  1.00  0.00     0.053 C 
BRANCH   5   6
ATOM      6  C   UNL     1      55.154  50.829   4.074  1.00  0.00     0.041 C 
ATOM      7  O   UNL     1      55.891  50.049   3.414  1.00  0.00    -0.550 OA
ATOM      8  O   UNL     1      55.543  52.150   4.261  1.00  0.00    -0.550 OA
ENDBRANCH   5   6
ENDBRANCH   4   5
ENDBRANCH   3   4
ENDBRANCH   2   3
ENDBRANCH   1   2
BRANCH   1   9
ATOM      9  C   UNL     1      49.094  52.652   4.505  1.00  0.00     0.000 C 
BRANCH   9  10
ATOM     10  C   UNL     1      48.984  52.005   3.110  1.00  0.00    -0.000 C 
BRANCH  10  11
ATOM     11  C   UNL     1      48.568  50.523   3.108  1.00  0.00    -0.000 C 
BRANCH  11  12
ATOM     12  C   UNL     1      49.611  49.612   2.437  1.00  0.00    -0.000 C 
BRANCH  12  13
ATOM     13  C   UNL     1      50.535  48.927   3.456  1.00  0.00    -0.003 C 
ATOM     14  C   UNL     1      49.908  48.815   4.846  1.00  0.00     0.004 C 
ENDBRANCH  12  13
ENDBRANCH  11  12
ENDBRANCH  10  11
ENDBRANCH   9  10
ENDBRANCH   1   9
TORSDOF 10
ENDMDL
MODEL 3
REMARK VINA RESULT:    -5.632      1.095      2.058
REMARK INTER + INTRA:          -9.716
REMARK INTER:                  -8.827
REMARK INTRA:                  -0.889
REMARK UNBOUND:                -0.792
REMARK SMILES CCCCCCCCCCCC(=O)[O-]
REMARK SMILES IDX 7 1 8 2 9 3 10 4 11 5 12 6 13 7 14 8 6 9 5 10 4 11 3 12 2 13
REMARK SMILES IDX 1 14
REMARK H PARENT
REMARK Flexibility Score: inf
ROOT
ATOM      1  C   UNL     1      51.402  48.969   3.802  1.00  0.00     0.000 C 
ENDROOT
BRANCH   1   2
ATOM      2  C   UNL     1      52.266  50.068   4.446  1.00  0.00     0.000 C 
BRANCH   2   3
ATOM      3  C   UNL     1      53.775  49.797   4.307  1.00  0.00     0.000 C 
BRANCH   3   4
ATOM      4  C   UNL     1      54.613  51.085   4.366  1.00  0.00     0.006 C 
BRANCH   4   5
ATOM      5  C   UNL     1      53.839  52.267   4.963  1.00  0.00     0.053 C 
BRANCH   5   6
ATOM      6  C   UNL     1      54.041  52.326   6.445  1.00  0.00     0.041 C 
ATOM      7  O   UNL     1      55.195  52.489   6.921  1.00  0.00    -0.550 OA
ATOM      8  O   UNL     1      52.948  52.250   7.299  1.00  0.00    -0.550 OA
ENDBRANCH   5   6
ENDBRANCH   4   5
ENDBRANCH   3   4
ENDBRANCH   2   3
ENDBRANCH   1   2
BRANCH   1   9
ATOM      9  C   UNL     1      49.918  48.974   4.222  1.00  0.00     0.000 C 
BRANCH   9  10
ATOM     10  C   UNL     1      48.913  49.233   3.081  1.00  0.00    -0.000 C 
BRANCH  10  11
ATOM     11  C   UNL     1      48.626  50.717   2.788  1.00  0.00    -0.000 C 
BRANCH  11  12
ATOM     12  C   UNL     1      48.335  51.530   4.061  1.00  0.00    -0.000 C 
BRANCH  12  13
ATOM     13  C   UNL     1      48.969  52.929   4.022  1.00  0.00    -0.003 C 
ATOM     14  C   UNL     1      50.224  53.037   4.887  1.00  0.00     0.004 C 
ENDBRANCH  12  13
ENDBRANCH  11  12
ENDBRANCH  10  11
ENDBRANCH   9  10
ENDBRANCH   1   9
TORSDOF 10
ENDMDL
MODEL 4
REMARK VINA RESULT:    -5.610      3.702      6.375
REMARK INTER + INTRA:          -9.683
REMARK INTER:                  -8.653
REMARK INTRA:                  -1.029
REMARK UNBOUND:                -0.792
REMARK SMILES CCCCCCCCCCCC(=O)[O-]
REMARK SMILES IDX 7 1 8 2 9 3 10 4 11 5 12 6 13 7 14 8 6 9 5 10 4 11 3 12 2 13
REMARK SMILES IDX 1 14
REMARK H PARENT
REMARK Flexibility Score: inf
ROOT
ATOM      1  C   UNL     1      50.525  52.186   5.350  1.00  0.00     0.000 C 
ENDROOT
BRANCH   1   2
ATOM      2  C   UNL     1      49.824  51.204   4.392  1.00  0.00     0.000 C 
BRANCH   2   3
ATOM      3  C   UNL     1      50.092  49.731   4.750  1.00  0.00     0.000 C 
BRANCH   3   4
ATOM      4  C   UNL     1      50.361  48.864   3.509  1.00  0.00     0.006 C 
BRANCH   4   5
ATOM      5  C   UNL     1      49.383  49.150   2.363  1.00  0.00     0.053 C 
BRANCH   5   6
ATOM      6  C   UNL     1      48.122  48.365   2.547  1.00  0.00     0.041 C 
ATOM      7  O   UNL     1      48.039  47.186   2.112  1.00  0.00    -0.550 OA
ATOM      8  O   UNL     1      47.054  48.919   3.243  1.00  0.00    -0.550 OA
ENDBRANCH   5   6
ENDBRANCH   4   5
ENDBRANCH   3   4
ENDBRANCH   2   3
ENDBRANCH   1   2
BRANCH   1   9
ATOM      9  C   UNL     1      52.064  52.199   5.262  1.00  0.00     0.000 C 
BRANCH   9  10
ATOM     10  C   UNL     1      52.791  51.365   6.336  1.00  0.00    -0.000 C 
BRANCH  10  11
ATOM     11  C   UNL     1      53.558  50.141   5.805  1.00  0.00    -0.000 C 
BRANCH  11  12
ATOM     12  C   UNL     1      53.738  50.167   4.277  1.00  0.00    -0.000 C 
BRANCH  12  13
ATOM     13  C   UNL     1      55.216  50.197   3.860  1.00  0.00    -0.003 C 
ATOM     14  C   UNL     1      55.878  51.551   4.114  1.00  0.00     0.004 C 
ENDBRANCH  12  13
ENDBRANCH  11  12
ENDBRANCH  10  11
ENDBRANCH   9  10
ENDBRANCH   1   9
TORSDOF 10
ENDMDL
MODEL 5
REMARK VINA RESULT:    -5.607      2.408      3.852
REMARK INTER + INTRA:          -9.678
REMARK INTER:                  -8.585
REMARK INTRA:                  -1.092
REMARK UNBOUND:                -0.792
REMARK SMILES CCCCCCCCCCCC(=O)[O-]
REMARK SMILES IDX 7 1 8 2 9 3 10 4 11 5 12 6 13 7 14 8 6 9 5 10 4 11 3 12 2 13
REMARK SMILES IDX 1 14
REMARK H PARENT
REMARK Flexibility Score: inf
ROOT
ATOM      1  C   UNL     1      50.036  50.073   6.378  1.00  0.00     0.000 C 
ENDROOT
BRANCH   1   2
ATOM      2  C   UNL     1      51.001  51.173   6.856  1.00  0.00     0.000 C 
BRANCH   2   3
ATOM      3  C   UNL     1      52.464  50.891   6.469  1.00  0.00     0.000 C 
BRANCH   3   4
ATOM      4  C   UNL     1      52.730  51.108   4.971  1.00  0.00     0.006 C 
BRANCH   4   5
ATOM      5  C   UNL     1      53.703  50.076   4.386  1.00  0.00     0.053 C 
BRANCH   5   6
ATOM      6  C   UNL     1      55.015  50.721   4.068  1.00  0.00     0.041 C 
ATOM      7  O   UNL     1      55.907  50.077   3.455  1.00  0.00    -0.550 OA
ATOM      8  O   UNL     1      55.237  52.051   4.406  1.00  0.00    -0.550 OA
ENDBRANCH   5   6
ENDBRANCH   4   5
ENDBRANCH   3   4
ENDBRANCH   2   3
ENDBRANCH   1   2
BRANCH   1   9
ATOM      9  C   UNL     1      48.580  50.532   6.157  1.00  0.00     0.000 C 
BRANCH   9  10
ATOM     10  C   UNL     1      48.155  50.683   4.683  1.00  0.00    -0.000 C 
BRANCH  10  11
ATOM     11  C   UNL     1      49.307  50.935   3.693  1.00  0.00    -0.000 C 
BRANCH  11  12
ATOM     12  C   UNL     1      49.534  49.757   2.730  1.00  0.00    -0.000 C 
BRANCH  12  13
ATOM     13  C   UNL     1      50.555  48.744   3.271  1.00  0.00    -0.003 C 
ATOM     14  C   UNL     1      49.931  47.385   3.588  1.00  0.00     0.004 C 
ENDBRANCH  12  13
ENDBRANCH  11  12
ENDBRANCH  10  11
ENDBRANCH   9  10
ENDBRANCH   1   9
TORSDOF 10
ENDMDL
MODEL 6
REMARK VINA RESULT:    -5.595      2.762      5.680
REMARK INTER + INTRA:          -9.659
REMARK INTER:                  -8.525
REMARK INTRA:                  -1.134
REMARK UNBOUND:                -0.792
REMARK SMILES CCCCCCCCCCCC(=O)[O-]
REMARK SMILES IDX 7 1 8 2 9 3 10 4 11 5 12 6 13 7 14 8 6 9 5 10 4 11 3 12 2 13
REMARK SMILES IDX 1 14
REMARK H PARENT
REMARK Flexibility Score: inf
ROOT
ATOM      1  C   UNL     1      50.657  52.846   5.008  1.00  0.00     0.000 C 
ENDROOT
BRANCH   1   2
ATOM      2  C   UNL     1      49.206  52.958   4.504  1.00  0.00     0.000 C 
BRANCH   2   3
ATOM      3  C   UNL     1      49.000  52.294   3.131  1.00  0.00     0.000 C 
BRANCH   3   4
ATOM      4  C   UNL     1      48.476  50.853   3.246  1.00  0.00     0.006 C 
BRANCH   4   5
ATOM      5  C   UNL     1      49.510  49.811   2.802  1.00  0.00     0.053 C 
BRANCH   5   6
ATOM      6  C   UNL     1      49.741  48.810   3.890  1.00  0.00     0.041 C 
ATOM      7  O   UNL     1      50.513  47.834   3.702  1.00  0.00    -0.550 OA
ATOM      8  O   UNL     1      49.140  48.983   5.131  1.00  0.00    -0.550 OA
ENDBRANCH   5   6
ENDBRANCH   4   5
ENDBRANCH   3   4
ENDBRANCH   2   3
ENDBRANCH   1   2
BRANCH   1   9
ATOM      9  C   UNL     1      50.850  51.955   6.251  1.00  0.00     0.000 C 
BRANCH   9  10
ATOM     10  C   UNL     1      51.944  50.876   6.123  1.00  0.00    -0.000 C 
BRANCH  10  11
ATOM     11  C   UNL     1      52.671  50.841   4.766  1.00  0.00    -0.000 C 
BRANCH  11  12
ATOM     12  C   UNL     1      53.768  49.763   4.705  1.00  0.00    -0.000 C 
BRANCH  12  13
ATOM     13  C   UNL     1      54.995  50.219   3.901  1.00  0.00    -0.003 C 
ATOM     14  C   UNL     1      55.484  51.611   4.302  1.00  0.00     0.004 C 
ENDBRANCH  12  13
ENDBRANCH  11  12
ENDBRANCH  10  11
ENDBRANCH   9  10
ENDBRANCH   1   9
TORSDOF 10
ENDMDL
MODEL 7
REMARK VINA RESULT:    -5.541      2.198      3.266
REMARK INTER + INTRA:          -9.572
REMARK INTER:                  -8.611
REMARK INTRA:                  -0.961
REMARK UNBOUND:                -0.792
REMARK SMILES CCCCCCCCCCCC(=O)[O-]
REMARK SMILES IDX 7 1 8 2 9 3 10 4 11 5 12 6 13 7 14 8 6 9 5 10 4 11 3 12 2 13
REMARK SMILES IDX 1 14
REMARK H PARENT
REMARK Flexibility Score: inf
ROOT
ATOM      1  C   UNL     1      51.660  50.669   6.775  1.00  0.00     0.000 C 
ENDROOT
BRANCH   1   2
ATOM      2  C   UNL     1      53.117  50.665   7.273  1.00  0.00     0.000 C 
BRANCH   2   3
ATOM      3  C   UNL     1      53.721  52.078   7.359  1.00  0.00     0.000 C 
BRANCH   3   4
ATOM      4  C   UNL     1      54.914  52.267   6.407  1.00  0.00     0.006 C 
BRANCH   4   5
ATOM      5  C   UNL     1      54.494  52.299   4.932  1.00  0.00     0.053 C 
BRANCH   5   6
ATOM      6  C   UNL     1      55.063  51.122   4.204  1.00  0.00     0.041 C 
ATOM      7  O   UNL     1      56.260  51.136   3.813  1.00  0.00    -0.550 OA
ATOM      8  O   UNL     1      54.284  49.990   3.998  1.00  0.00    -0.550 OA
ENDBRANCH   5   6
ENDBRANCH   4   5
ENDBRANCH   3   4
ENDBRANCH   2   3
ENDBRANCH   1   2
BRANCH   1   9
ATOM      9  C   UNL     1      51.103  52.057   6.396  1.00  0.00     0.000 C 
BRANCH   9  10
ATOM     10  C   UNL     1      50.428  52.138   5.012  1.00  0.00    -0.000 C 
BRANCH  10  11
ATOM     11  C   UNL     1      49.480  50.972   4.678  1.00  0.00    -0.000 C 
BRANCH  11  12
ATOM     12  C   UNL     1      49.276  50.785   3.165  1.00  0.00    -0.000 C 
BRANCH  12  13
ATOM     13  C   UNL     1      49.792  49.426   2.666  1.00  0.00    -0.003 C 
ATOM     14  C   UNL     1      50.848  48.817   3.589  1.00  0.00     0.004 C 
ENDBRANCH  12  13
ENDBRANCH  11  12
ENDBRANCH  10  11
ENDBRANCH   9  10
ENDBRANCH   1   9
TORSDOF 10
ENDMDL
MODEL 8
REMARK VINA RESULT:    -5.515      3.014      5.663
REMARK INTER + INTRA:          -9.531
REMARK INTER:                  -8.417
REMARK INTRA:                  -1.114
REMARK UNBOUND:                -0.792
REMARK SMILES CCCCCCCCCCCC(=O)[O-]
REMARK SMILES IDX 7 1 8 2 9 3 10 4 11 5 12 6 13 7 14 8 6 9 5 10 4 11 3 12 2 13
REMARK SMILES IDX 1 14
REMARK H PARENT
REMARK Flexibility Score: inf
ROOT
ATOM      1  C   UNL     1      53.192  50.905   7.284  1.00  0.00     0.000 C 
ENDROOT
BRANCH   1   2
ATOM      2  C   UNL     1      51.678  50.822   7.018  1.00  0.00     0.000 C 
BRANCH   2   3
ATOM      3  C   UNL     1      51.124  52.085   6.334  1.00  0.00     0.000 C 
BRANCH   3   4
ATOM      4  C   UNL     1      50.382  51.768   5.025  1.00  0.00     0.006 C 
BRANCH   4   5
ATOM      5  C   UNL     1      50.119  50.268   4.843  1.00  0.00     0.053 C 
BRANCH   5   6
ATOM      6  C   UNL     1      49.770  49.971   3.418  1.00  0.00     0.041 C 
ATOM      7  O   UNL     1      50.309  49.002   2.822  1.00  0.00    -0.550 OA
ATOM      8  O   UNL     1      48.812  50.736   2.763  1.00  0.00    -0.550 OA
ENDBRANCH   5   6
ENDBRANCH   4   5
ENDBRANCH   3   4
ENDBRANCH   2   3
ENDBRANCH   1   2
BRANCH   1   9
ATOM      9  C   UNL     1      53.742  52.329   7.500  1.00  0.00     0.000 C 
BRANCH   9  10
ATOM     10  C   UNL     1      54.715  52.830   6.415  1.00  0.00    -0.000 C 
BRANCH  10  11
ATOM     11  C   UNL     1      54.407  52.345   4.987  1.00  0.00    -0.000 C 
BRANCH  11  12
ATOM     12  C   UNL     1      55.593  51.610   4.338  1.00  0.00    -0.000 C 
BRANCH  12  13
ATOM     13  C   UNL     1      55.201  50.228   3.792  1.00  0.00    -0.003 C 
ATOM     14  C   UNL     1      53.748  49.861   4.094  1.00  0.00     0.004 C 
ENDBRANCH  12  13
ENDBRANCH  11  12
ENDBRANCH  10  11
ENDBRANCH   9  10
ENDBRANCH   1   9
TORSDOF 10
ENDMDL
MODEL 9
REMARK VINA RESULT:    -5.484      1.141      2.306
REMARK INTER + INTRA:          -9.483
REMARK INTER:                  -8.247
REMARK INTRA:                  -1.236
REMARK UNBOUND:                -0.792
REMARK SMILES CCCCCCCCCCCC(=O)[O-]
REMARK SMILES IDX 7 1 8 2 9 3 10 4 11 5 12 6 13 7 14 8 6 9 5 10 4 11 3 12 2 13
REMARK SMILES IDX 1 14
REMARK H PARENT
REMARK Flexibility Score: inf
ROOT
ATOM      1  C   UNL     1      51.561  50.494   5.990  1.00  0.00     0.000 C 
ENDROOT
BRANCH   1   2
ATOM      2  C   UNL     1      52.191  50.283   4.602  1.00  0.00     0.000 C 
BRANCH   2   3
ATOM      3  C   UNL     1      53.718  50.480   4.605  1.00  0.00     0.000 C 
BRANCH   3   4
ATOM      4  C   UNL     1      54.125  51.928   4.922  1.00  0.00     0.006 C 
BRANCH   4   5
ATOM      5  C   UNL     1      55.113  52.023   6.091  1.00  0.00     0.053 C 
BRANCH   5   6
ATOM      6  C   UNL     1      54.376  52.082   7.392  1.00  0.00     0.041 C 
ATOM      7  O   UNL     1      53.736  53.118   7.712  1.00  0.00    -0.550 OA
ATOM      8  O   UNL     1      54.355  50.973   8.230  1.00  0.00    -0.550 OA
ENDBRANCH   5   6
ENDBRANCH   4   5
ENDBRANCH   3   4
ENDBRANCH   2   3
ENDBRANCH   1   2
BRANCH   1   9
ATOM      9  C   UNL     1      50.719  51.778   6.138  1.00  0.00     0.000 C 
BRANCH   9  10
ATOM     10  C   UNL     1      50.475  52.558   4.831  1.00  0.00    -0.000 C 
BRANCH  10  11
ATOM     11  C   UNL     1      49.037  52.484   4.285  1.00  0.00    -0.000 C 
BRANCH  11  12
ATOM     12  C   UNL     1      48.907  51.544   3.074  1.00  0.00    -0.000 C 
BRANCH  12  13
ATOM     13  C   UNL     1      48.638  50.088   3.486  1.00  0.00    -0.003 C 
ATOM     14  C   UNL     1      49.361  49.076   2.597  1.00  0.00     0.004 C 
ENDBRANCH  12  13
ENDBRANCH  11  12
ENDBRANCH  10  11
ENDBRANCH   9  10
ENDBRANCH   1   9
TORSDOF 10
ENDMDL
