MODEL 1
REMARK VINA RESULT:    -4.949      0.000      0.000
REMARK INTER + INTRA:         -15.268
REMARK INTER:                 -11.314
REMARK INTRA:                  -3.954
REMARK UNBOUND:                -3.954
REMARK SMILES CCCCCCCCCCCCCCCCCCCCCCCC(=O)[O-]
REMARK SMILES IDX 13 1 14 2 15 3 16 4 17 5 18 6 19 7 20 8 21 9 22 10 23 11
REMARK SMILES IDX 24 12 25 13 26 14 12 15 11 16 10 17 9 18 8 19 7 20 6 21 5 22
REMARK SMILES IDX 4 23 3 24 2 25 1 26
REMARK H PARENT
REMARK Flexibility Score: inf
ROOT
ATOM      1  C   UNL     1      13.927 -30.410  23.202  1.00  0.00     0.000 C 
ENDROOT
BRANCH   1   2
ATOM      2  C   UNL     1      14.291 -29.871  21.811  1.00  0.00     0.000 C 
BRANCH   2   3
ATOM      3  C   UNL     1      15.732 -29.334  21.790  1.00  0.00     0.000 C 
BRANCH   3   4
ATOM      4  C   UNL     1      16.771 -30.422  22.103  1.00  0.00     0.000 C 
BRANCH   4   5
ATOM      5  C   UNL     1      17.560 -30.857  20.856  1.00  0.00     0.000 C 
BRANCH   5   6
ATOM      6  C   UNL     1      18.413 -32.112  21.102  1.00  0.00     0.000 C 
BRANCH   6   7
ATOM      7  C   UNL     1      19.924 -31.823  21.059  1.00  0.00     0.000 C 
BRANCH   7   8
ATOM      8  C   UNL     1      20.462 -31.264  22.387  1.00  0.00     0.000 C 
BRANCH   8   9
ATOM      9  C   UNL     1      21.135 -29.882  22.250  1.00  0.00     0.000 C 
BRANCH   9  10
ATOM     10  C   UNL     1      20.884 -29.247  20.870  1.00  0.00     0.006 C 
BRANCH  10  11
ATOM     11  C   UNL     1      19.876 -28.093  20.938  1.00  0.00     0.053 C 
BRANCH  11  12
ATOM     12  C   UNL     1      20.553 -26.780  21.182  1.00  0.00     0.041 C 
ATOM     13  O   UNL     1      19.877 -25.768  21.505  1.00  0.00    -0.550 OA
ATOM     14  O   UNL     1      21.930 -26.665  21.020  1.00  0.00    -0.550 OA
ENDBRANCH  11  12
ENDBRANCH  10  11
ENDBRANCH   9  10
ENDBRANCH   8   9
ENDBRANCH   7   8
ENDBRANCH   6   7
ENDBRANCH   5   6
ENDBRANCH   4   5
ENDBRANCH   3   4
ENDBRANCH   2   3
ENDBRANCH   1   2
BRANCH   1  15
ATOM     15  C   UNL     1      13.519 -31.895  23.184  1.00  0.00     0.000 C 
BRANCH  15  16
ATOM     16  C   UNL     1      14.525 -32.858  23.842  1.00  0.00     0.000 C 
BRANCH  16  17
ATOM     17  C   UNL     1      15.141 -33.853  22.843  1.00  0.00     0.000 C 
BRANCH  17  18
ATOM     18  C   UNL     1      14.836 -33.491  21.381  1.00  0.00    -0.000 C 
BRANCH  18  19
ATOM     19  C   UNL     1      15.027 -34.681  20.423  1.00  0.00    -0.000 C 
BRANCH  19  20
ATOM     20  C   UNL     1      16.092 -34.415  19.345  1.00  0.00    -0.000 C 
BRANCH  20  21
ATOM     21  C   UNL     1      17.289 -35.389  19.344  1.00  0.00    -0.000 C 
BRANCH  21  22
ATOM     22  C   UNL     1      17.023 -36.755  20.002  1.00  0.00    -0.000 C 
BRANCH  22  23
ATOM     23  C   UNL     1      17.883 -36.992  21.255  1.00  0.00    -0.000 C 
BRANCH  23  24
ATOM     24  C   UNL     1      18.349 -35.682  21.909  1.00  0.00    -0.000 C 
BRANCH  24  25
ATOM     25  C   UNL     1      18.346 -35.752  23.444  1.00  0.00    -0.003 C 
ATOM     26  C   UNL     1      18.604 -34.378  24.055  1.00  0.00     0.004 C 
ENDBRANCH  24  25
ENDBRANCH  23  24
ENDBRANCH  22  23
ENDBRANCH  21  22
ENDBRANCH  20  21
ENDBRANCH  19  20
ENDBRANCH  18  19
ENDBRANCH  17  18
ENDBRANCH  16  17
ENDBRANCH  15  16
ENDBRANCH   1  15
TORSDOF 22
ENDMDL
MODEL 2
REMARK VINA RESULT:    -4.943      1.145      2.710
REMARK INTER + INTRA:         -15.255
REMARK INTER:                 -11.411
REMARK INTRA:                  -3.844
REMARK UNBOUND:                -3.954
REMARK SMILES CCCCCCCCCCCCCCCCCCCCCCCC(=O)[O-]
REMARK SMILES IDX 13 1 14 2 15 3 16 4 17 5 18 6 19 7 20 8 21 9 22 10 23 11
REMARK SMILES IDX 24 12 25 13 26 14 12 15 11 16 10 17 9 18 8 19 7 20 6 21 5 22
REMARK SMILES IDX 4 23 3 24 2 25 1 26
REMARK H PARENT
REMARK Flexibility Score: inf
ROOT
ATOM      1  C   UNL     1      14.146 -32.590  23.596  1.00  0.00     0.000 C 
ENDROOT
BRANCH   1   2
ATOM      2  C   UNL     1      13.389 -31.522  22.794  1.00  0.00     0.000 C 
BRANCH   2   3
ATOM      3  C   UNL     1      13.356 -30.185  23.553  1.00  0.00     0.000 C 
BRANCH   3   4
ATOM      4  C   UNL     1      14.239 -29.112  22.896  1.00  0.00     0.000 C 
BRANCH   4   5
ATOM      5  C   UNL     1      14.994 -29.644  21.666  1.00  0.00     0.000 C 
BRANCH   5   6
ATOM      6  C   UNL     1      16.497 -29.833  21.928  1.00  0.00     0.000 C 
BRANCH   6   7
ATOM      7  C   UNL     1      17.115 -30.951  21.070  1.00  0.00     0.000 C 
BRANCH   7   8
ATOM      8  C   UNL     1      18.084 -31.845  21.864  1.00  0.00     0.000 C 
BRANCH   8   9
ATOM      9  C   UNL     1      19.222 -32.439  21.008  1.00  0.00     0.000 C 
BRANCH   9  10
ATOM     10  C   UNL     1      20.600 -31.881  21.405  1.00  0.00     0.006 C 
BRANCH  10  11
ATOM     11  C   UNL     1      20.968 -30.623  20.608  1.00  0.00     0.053 C 
BRANCH  11  12
ATOM     12  C   UNL     1      20.960 -29.399  21.470  1.00  0.00     0.041 C 
ATOM     13  O   UNL     1      21.571 -29.394  22.571  1.00  0.00    -0.550 OA
ATOM     14  O   UNL     1      20.247 -28.272  21.074  1.00  0.00    -0.550 OA
ENDBRANCH  11  12
ENDBRANCH  10  11
ENDBRANCH   9  10
ENDBRANCH   8   9
ENDBRANCH   7   8
ENDBRANCH   6   7
ENDBRANCH   5   6
ENDBRANCH   4   5
ENDBRANCH   3   4
ENDBRANCH   2   3
ENDBRANCH   1   2
BRANCH   1  15
ATOM     15  C   UNL     1      14.980 -33.531  22.707  1.00  0.00     0.000 C 
BRANCH  15  16
ATOM     16  C   UNL     1      14.602 -33.528  21.214  1.00  0.00     0.000 C 
BRANCH  16  17
ATOM     17  C   UNL     1      15.175 -34.733  20.450  1.00  0.00     0.000 C 
BRANCH  17  18
ATOM     18  C   UNL     1      16.178 -34.322  19.359  1.00  0.00    -0.000 C 
BRANCH  18  19
ATOM     19  C   UNL     1      17.408 -35.245  19.306  1.00  0.00    -0.000 C 
BRANCH  19  20
ATOM     20  C   UNL     1      17.095 -36.684  19.755  1.00  0.00    -0.000 C 
BRANCH  20  21
ATOM     21  C   UNL     1      17.853 -37.162  21.011  1.00  0.00    -0.000 C 
BRANCH  21  22
ATOM     22  C   UNL     1      18.630 -36.068  21.766  1.00  0.00    -0.000 C 
BRANCH  22  23
ATOM     23  C   UNL     1      18.376 -36.096  23.283  1.00  0.00    -0.000 C 
BRANCH  23  24
ATOM     24  C   UNL     1      18.518 -34.710  23.931  1.00  0.00    -0.000 C 
BRANCH  24  25
ATOM     25  C   UNL     1      17.987 -34.672  25.373  1.00  0.00    -0.003 C 
ATOM     26  C   UNL     1      16.651 -35.401  25.484  1.00  0.00     0.004 C 
ENDBRANCH  24  25
ENDBRANCH  23  24
ENDBRANCH  22  23
ENDBRANCH  21  22
ENDBRANCH  20  21
ENDBRANCH  19  20
ENDBRANCH  18  19
ENDBRANCH  17  18
ENDBRANCH  16  17
ENDBRANCH  15  16
ENDBRANCH   1  15
TORSDOF 22
ENDMDL
MODEL 3
REMARK VINA RESULT:    -4.848      1.568      4.298
REMARK INTER + INTRA:         -15.038
REMARK INTER:                 -11.783
REMARK INTRA:                  -3.254
REMARK UNBOUND:                -3.954
REMARK SMILES CCCCCCCCCCCCCCCCCCCCCCCC(=O)[O-]
REMARK SMILES IDX 13 1 14 2 15 3 16 4 17 5 18 6 19 7 20 8 21 9 22 10 23 11
REMARK SMILES IDX 24 12 25 13 26 14 12 15 11 16 10 17 9 18 8 19 7 20 6 21 5 22
REMARK SMILES IDX 4 23 3 24 2 25 1 26
REMARK H PARENT
REMARK Flexibility Score: inf
ROOT
ATOM      1  C   UNL     1      15.765 -34.890  20.458  1.00  0.00     0.000 C 
ENDROOT
BRANCH   1   2
ATOM      2  C   UNL     1      16.764 -35.318  19.373  1.00  0.00     0.000 C 
BRANCH   2   3
ATOM      3  C   UNL     1      17.972 -34.367  19.334  1.00  0.00     0.000 C 
BRANCH   3   4
ATOM      4  C   UNL     1      18.317 -33.795  20.718  1.00  0.00     0.000 C 
BRANCH   4   5
ATOM      5  C   UNL     1      18.758 -32.322  20.652  1.00  0.00     0.000 C 
BRANCH   5   6
ATOM      6  C   UNL     1      20.119 -32.079  21.323  1.00  0.00     0.000 C 
BRANCH   6   7
ATOM      7  C   UNL     1      20.169 -30.757  22.109  1.00  0.00     0.000 C 
BRANCH   7   8
ATOM      8  C   UNL     1      19.803 -29.537  21.246  1.00  0.00     0.000 C 
BRANCH   8   9
ATOM      9  C   UNL     1      21.028 -28.743  20.745  1.00  0.00     0.000 C 
BRANCH   9  10
ATOM     10  C   UNL     1      21.033 -27.294  21.262  1.00  0.00     0.006 C 
BRANCH  10  11
ATOM     11  C   UNL     1      22.455 -26.761  21.480  1.00  0.00     0.053 C 
BRANCH  11  12
ATOM     12  C   UNL     1      23.009 -26.136  20.237  1.00  0.00     0.041 C 
ATOM     13  O   UNL     1      23.566 -26.849  19.362  1.00  0.00    -0.550 OA
ATOM     14  O   UNL     1      22.942 -24.758  20.061  1.00  0.00    -0.550 OA
ENDBRANCH  11  12
ENDBRANCH  10  11
ENDBRANCH   9  10
ENDBRANCH   8   9
ENDBRANCH   7   8
ENDBRANCH   6   7
ENDBRANCH   5   6
ENDBRANCH   4   5
ENDBRANCH   3   4
ENDBRANCH   2   3
ENDBRANCH   1   2
BRANCH   1  15
ATOM     15  C   UNL     1      14.638 -33.990  19.918  1.00  0.00     0.000 C 
BRANCH  15  16
ATOM     16  C   UNL     1      14.110 -32.936  20.909  1.00  0.00     0.000 C 
BRANCH  16  17
ATOM     17  C   UNL     1      13.104 -31.964  20.268  1.00  0.00     0.000 C 
BRANCH  17  18
ATOM     18  C   UNL     1      12.384 -31.087  21.305  1.00  0.00    -0.000 C 
BRANCH  18  19
ATOM     19  C   UNL     1      13.171 -30.958  22.622  1.00  0.00    -0.000 C 
BRANCH  19  20
ATOM     20  C   UNL     1      13.759 -29.550  22.830  1.00  0.00    -0.000 C 
BRANCH  20  21
ATOM     21  C   UNL     1      15.079 -29.270  22.083  1.00  0.00    -0.000 C 
BRANCH  21  22
ATOM     22  C   UNL     1      16.120 -30.402  22.141  1.00  0.00    -0.000 C 
BRANCH  22  23
ATOM     23  C   UNL     1      16.708 -30.600  23.549  1.00  0.00    -0.000 C 
BRANCH  23  24
ATOM     24  C   UNL     1      17.179 -32.042  23.795  1.00  0.00    -0.000 C 
BRANCH  24  25
ATOM     25  C   UNL     1      16.013 -33.037  23.899  1.00  0.00    -0.003 C 
ATOM     26  C   UNL     1      16.522 -34.458  24.120  1.00  0.00     0.004 C 
ENDBRANCH  24  25
ENDBRANCH  23  24
ENDBRANCH  22  23
ENDBRANCH  21  22
ENDBRANCH  20  21
ENDBRANCH  19  20
ENDBRANCH  18  19
ENDBRANCH  17  18
ENDBRANCH  16  17
ENDBRANCH  15  16
ENDBRANCH   1  15
TORSDOF 22
ENDMDL
MODEL 4
REMARK VINA RESULT:    -4.804      1.315      2.839
REMARK INTER + INTRA:         -14.937
REMARK INTER:                 -11.679
REMARK INTRA:                  -3.258
REMARK UNBOUND:                -3.954
REMARK SMILES CCCCCCCCCCCCCCCCCCCCCCCC(=O)[O-]
REMARK SMILES IDX 13 1 14 2 15 3 16 4 17 5 18 6 19 7 20 8 21 9 22 10 23 11
REMARK SMILES IDX 24 12 25 13 26 14 12 15 11 16 10 17 9 18 8 19 7 20 6 21 5 22
REMARK SMILES IDX 4 23 3 24 2 25 1 26
REMARK H PARENT
REMARK Flexibility Score: inf
ROOT
ATOM      1  C   UNL     1      16.434 -29.551  21.792  1.00  0.00     0.000 C 
ENDROOT
BRANCH   1   2
ATOM      2  C   UNL     1      16.660 -30.470  23.002  1.00  0.00     0.000 C 
BRANCH   2   3
ATOM      3  C   UNL     1      17.769 -31.494  22.714  1.00  0.00     0.000 C 
BRANCH   3   4
ATOM      4  C   UNL     1      18.005 -31.702  21.209  1.00  0.00     0.000 C 
BRANCH   4   5
ATOM      5  C   UNL     1      19.444 -32.145  20.895  1.00  0.00     0.000 C 
BRANCH   5   6
ATOM      6  C   UNL     1      20.498 -31.304  21.633  1.00  0.00     0.000 C 
BRANCH   6   7
ATOM      7  C   UNL     1      20.980 -30.096  20.810  1.00  0.00     0.000 C 
BRANCH   7   8
ATOM      8  C   UNL     1      20.630 -28.750  21.467  1.00  0.00     0.000 C 
BRANCH   8   9
ATOM      9  C   UNL     1      19.837 -27.799  20.546  1.00  0.00     0.000 C 
BRANCH   9  10
ATOM     10  C   UNL     1      20.365 -26.355  20.606  1.00  0.00     0.006 C 
BRANCH  10  11
ATOM     11  C   UNL     1      21.758 -26.274  21.243  1.00  0.00     0.053 C 
BRANCH  11  12
ATOM     12  C   UNL     1      22.817 -25.986  20.224  1.00  0.00     0.041 C 
ATOM     13  O   UNL     1      23.228 -24.809  20.050  1.00  0.00    -0.550 OA
ATOM     14  O   UNL     1      23.327 -27.015  19.439  1.00  0.00    -0.550 OA
ENDBRANCH  11  12
ENDBRANCH  10  11
ENDBRANCH   9  10
ENDBRANCH   8   9
ENDBRANCH   7   8
ENDBRANCH   6   7
ENDBRANCH   5   6
ENDBRANCH   4   5
ENDBRANCH   3   4
ENDBRANCH   2   3
ENDBRANCH   1   2
BRANCH   1  15
ATOM     15  C   UNL     1      14.975 -29.078  21.659  1.00  0.00     0.000 C 
BRANCH  15  16
ATOM     16  C   UNL     1      14.220 -28.901  22.990  1.00  0.00     0.000 C 
BRANCH  16  17
ATOM     17  C   UNL     1      13.103 -29.940  23.187  1.00  0.00     0.000 C 
BRANCH  17  18
ATOM     18  C   UNL     1      12.921 -30.854  21.964  1.00  0.00    -0.000 C 
BRANCH  18  19
ATOM     19  C   UNL     1      13.600 -32.224  22.141  1.00  0.00    -0.000 C 
BRANCH  19  20
ATOM     20  C   UNL     1      14.080 -32.828  20.809  1.00  0.00    -0.000 C 
BRANCH  20  21
ATOM     21  C   UNL     1      15.081 -33.996  20.938  1.00  0.00    -0.000 C 
BRANCH  21  22
ATOM     22  C   UNL     1      15.588 -34.575  19.605  1.00  0.00    -0.000 C 
BRANCH  22  23
ATOM     23  C   UNL     1      16.498 -35.801  19.794  1.00  0.00    -0.000 C 
BRANCH  23  24
ATOM     24  C   UNL     1      17.773 -35.474  20.588  1.00  0.00    -0.000 C 
BRANCH  24  25
ATOM     25  C   UNL     1      17.811 -36.167  21.959  1.00  0.00    -0.003 C 
ATOM     26  C   UNL     1      18.296 -35.210  23.043  1.00  0.00     0.004 C 
ENDBRANCH  24  25
ENDBRANCH  23  24
ENDBRANCH  22  23
ENDBRANCH  21  22
ENDBRANCH  20  21
ENDBRANCH  19  20
ENDBRANCH  18  19
ENDBRANCH  17  18
ENDBRANCH  16  17
ENDBRANCH  15  16
ENDBRANCH   1  15
TORSDOF 22
ENDMDL
MODEL 5
REMARK VINA RESULT:    -4.779      1.286      2.211
REMARK INTER + INTRA:         -14.879
REMARK INTER:                 -11.546
REMARK INTRA:                  -3.333
REMARK UNBOUND:                -3.954
REMARK SMILES CCCCCCCCCCCCCCCCCCCCCCCC(=O)[O-]
REMARK SMILES IDX 13 1 14 2 15 3 16 4 17 5 18 6 19 7 20 8 21 9 22 10 23 11
REMARK SMILES IDX 24 12 25 13 26 14 12 15 11 16 10 17 9 18 8 19 7 20 6 21 5 22
REMARK SMILES IDX 4 23 3 24 2 25 1 26
REMARK H PARENT
REMARK Flexibility Score: inf
ROOT
ATOM      1  C   UNL     1      16.751 -30.656  23.079  1.00  0.00     0.000 C 
ENDROOT
BRANCH   1   2
ATOM      2  C   UNL     1      16.902 -30.132  21.643  1.00  0.00     0.000 C 
BRANCH   2   3
ATOM      3  C   UNL     1      17.967 -30.931  20.876  1.00  0.00     0.000 C 
BRANCH   3   4
ATOM      4  C   UNL     1      18.512 -32.118  21.686  1.00  0.00     0.000 C 
BRANCH   4   5
ATOM      5  C   UNL     1      20.029 -32.020  21.925  1.00  0.00     0.000 C 
BRANCH   5   6
ATOM      6  C   UNL     1      20.715 -31.022  20.978  1.00  0.00     0.000 C 
BRANCH   6   7
ATOM      7  C   UNL     1      21.126 -29.717  21.682  1.00  0.00     0.000 C 
BRANCH   7   8
ATOM      8  C   UNL     1      21.118 -28.502  20.738  1.00  0.00     0.000 C 
BRANCH   8   9
ATOM      9  C   UNL     1      20.004 -27.482  21.051  1.00  0.00     0.000 C 
BRANCH   9  10
ATOM     10  C   UNL     1      20.281 -26.106  20.418  1.00  0.00     0.006 C 
BRANCH  10  11
ATOM     11  C   UNL     1      21.750 -25.941  20.010  1.00  0.00     0.053 C 
BRANCH  11  12
ATOM     12  C   UNL     1      22.446 -24.917  20.852  1.00  0.00     0.041 C 
ATOM     13  O   UNL     1      21.986 -24.604  21.982  1.00  0.00    -0.550 OA
ATOM     14  O   UNL     1      23.587 -24.280  20.374  1.00  0.00    -0.550 OA
ENDBRANCH  11  12
ENDBRANCH  10  11
ENDBRANCH   9  10
ENDBRANCH   8   9
ENDBRANCH   7   8
ENDBRANCH   6   7
ENDBRANCH   5   6
ENDBRANCH   4   5
ENDBRANCH   3   4
ENDBRANCH   2   3
ENDBRANCH   1   2
BRANCH   1  15
ATOM     15  C   UNL     1      15.401 -31.353  23.327  1.00  0.00     0.000 C 
BRANCH  15  16
ATOM     16  C   UNL     1      15.495 -32.836  23.733  1.00  0.00     0.000 C 
BRANCH  16  17
ATOM     17  C   UNL     1      14.938 -33.787  22.660  1.00  0.00     0.000 C 
BRANCH  17  18
ATOM     18  C   UNL     1      14.588 -33.062  21.350  1.00  0.00    -0.000 C 
BRANCH  18  19
ATOM     19  C   UNL     1      14.706 -33.977  20.117  1.00  0.00    -0.000 C 
BRANCH  19  20
ATOM     20  C   UNL     1      16.134 -34.514  19.907  1.00  0.00    -0.000 C 
BRANCH  20  21
ATOM     21  C   UNL     1      16.244 -36.042  19.730  1.00  0.00    -0.000 C 
BRANCH  21  22
ATOM     22  C   UNL     1      17.325 -36.726  20.587  1.00  0.00    -0.000 C 
BRANCH  22  23
ATOM     23  C   UNL     1      18.092 -35.737  21.482  1.00  0.00    -0.000 C 
BRANCH  23  24
ATOM     24  C   UNL     1      18.227 -36.232  22.930  1.00  0.00    -0.000 C 
BRANCH  24  25
ATOM     25  C   UNL     1      18.314 -35.082  23.945  1.00  0.00    -0.003 C 
ATOM     26  C   UNL     1      17.702 -35.483  25.283  1.00  0.00     0.004 C 
ENDBRANCH  24  25
ENDBRANCH  23  24
ENDBRANCH  22  23
ENDBRANCH  21  22
ENDBRANCH  20  21
ENDBRANCH  19  20
ENDBRANCH  18  19
ENDBRANCH  17  18
ENDBRANCH  16  17
ENDBRANCH  15  16
ENDBRANCH   1  15
TORSDOF 22
ENDMDL
MODEL 6
REMARK VINA RESULT:    -4.776      1.344      4.184
REMARK INTER + INTRA:         -14.874
REMARK INTER:                 -11.715
REMARK INTRA:                  -3.159
REMARK UNBOUND:                -3.954
REMARK SMILES CCCCCCCCCCCCCCCCCCCCCCCC(=O)[O-]
REMARK SMILES IDX 13 1 14 2 15 3 16 4 17 5 18 6 19 7 20 8 21 9 22 10 23 11
REMARK SMILES IDX 24 12 25 13 26 14 12 15 11 16 10 17 9 18 8 19 7 20 6 21 5 22
REMARK SMILES IDX 4 23 3 24 2 25 1 26
REMARK H PARENT
REMARK Flexibility Score: inf
ROOT
ATOM      1  C   UNL     1      17.612 -33.743  24.334  1.00  0.00     0.000 C 
ENDROOT
BRANCH   1   2
ATOM      2  C   UNL     1      16.872 -32.439  24.005  1.00  0.00     0.000 C 
BRANCH   2   3
ATOM      3  C   UNL     1      17.766 -31.490  23.189  1.00  0.00     0.000 C 
BRANCH   3   4
ATOM      4  C   UNL     1      17.448 -31.527  21.686  1.00  0.00     0.000 C 
BRANCH   4   5
ATOM      5  C   UNL     1      18.658 -31.959  20.840  1.00  0.00     0.000 C 
BRANCH   5   6
ATOM      6  C   UNL     1      19.995 -31.767  21.575  1.00  0.00     0.000 C 
BRANCH   6   7
ATOM      7  C   UNL     1      20.949 -30.813  20.836  1.00  0.00     0.000 C 
BRANCH   7   8
ATOM      8  C   UNL     1      20.960 -29.396  21.436  1.00  0.00     0.000 C 
BRANCH   8   9
ATOM      9  C   UNL     1      19.735 -28.546  21.038  1.00  0.00     0.000 C 
BRANCH   9  10
ATOM     10  C   UNL     1      20.137 -27.153  20.520  1.00  0.00     0.006 C 
BRANCH  10  11
ATOM     11  C   UNL     1      21.216 -26.500  21.394  1.00  0.00     0.053 C 
BRANCH  11  12
ATOM     12  C   UNL     1      22.456 -26.199  20.610  1.00  0.00     0.041 C 
ATOM     13  O   UNL     1      23.545 -26.757  20.907  1.00  0.00    -0.550 OA
ATOM     14  O   UNL     1      22.417 -25.275  19.570  1.00  0.00    -0.550 OA
ENDBRANCH  11  12
ENDBRANCH  10  11
ENDBRANCH   9  10
ENDBRANCH   8   9
ENDBRANCH   7   8
ENDBRANCH   6   7
ENDBRANCH   5   6
ENDBRANCH   4   5
ENDBRANCH   3   4
ENDBRANCH   2   3
ENDBRANCH   1   2
BRANCH   1  15
ATOM     15  C   UNL     1      17.135 -34.937  23.486  1.00  0.00     0.000 C 
BRANCH  15  16
ATOM     16  C   UNL     1      17.988 -35.238  22.240  1.00  0.00     0.000 C 
BRANCH  16  17
ATOM     17  C   UNL     1      17.270 -36.149  21.230  1.00  0.00     0.000 C 
BRANCH  17  18
ATOM     18  C   UNL     1      17.393 -35.643  19.783  1.00  0.00    -0.000 C 
BRANCH  18  19
ATOM     19  C   UNL     1      16.445 -34.468  19.483  1.00  0.00    -0.000 C 
BRANCH  19  20
ATOM     20  C   UNL     1      15.045 -34.661  20.093  1.00  0.00    -0.000 C 
BRANCH  20  21
ATOM     21  C   UNL     1      14.232 -33.366  20.300  1.00  0.00    -0.000 C 
BRANCH  21  22
ATOM     22  C   UNL     1      14.184 -32.844  21.747  1.00  0.00    -0.000 C 
BRANCH  22  23
ATOM     23  C   UNL     1      13.484 -31.480  21.868  1.00  0.00    -0.000 C 
BRANCH  23  24
ATOM     24  C   UNL     1      13.527 -30.918  23.297  1.00  0.00    -0.000 C 
BRANCH  24  25
ATOM     25  C   UNL     1      13.509 -29.381  23.331  1.00  0.00    -0.003 C 
ATOM     26  C   UNL     1      12.158 -28.859  23.810  1.00  0.00     0.004 C 
ENDBRANCH  24  25
ENDBRANCH  23  24
ENDBRANCH  22  23
ENDBRANCH  21  22
ENDBRANCH  20  21
ENDBRANCH  19  20
ENDBRANCH  18  19
ENDBRANCH  17  18
ENDBRANCH  16  17
ENDBRANCH  15  16
ENDBRANCH   1  15
TORSDOF 22
ENDMDL
MODEL 7
REMARK VINA RESULT:    -4.772      2.895      6.395
REMARK INTER + INTRA:         -14.863
REMARK INTER:                 -10.832
REMARK INTRA:                  -4.031
REMARK UNBOUND:                -3.954
REMARK SMILES CCCCCCCCCCCCCCCCCCCCCCCC(=O)[O-]
REMARK SMILES IDX 13 1 14 2 15 3 16 4 17 5 18 6 19 7 20 8 21 9 22 10 23 11
REMARK SMILES IDX 24 12 25 13 26 14 12 15 11 16 10 17 9 18 8 19 7 20 6 21 5 22
REMARK SMILES IDX 4 23 3 24 2 25 1 26
REMARK H PARENT
REMARK Flexibility Score: inf
ROOT
ATOM      1  C   UNL     1      13.494 -29.271  22.838  1.00  0.00     0.000 C 
ENDROOT
BRANCH   1   2
ATOM      2  C   UNL     1      13.357 -30.415  23.853  1.00  0.00     0.000 C 
BRANCH   2   3
ATOM      3  C   UNL     1      13.355 -31.780  23.146  1.00  0.00     0.000 C 
BRANCH   3   4
ATOM      4  C   UNL     1      14.251 -32.811  23.851  1.00  0.00     0.000 C 
BRANCH   4   5
ATOM      5  C   UNL     1      15.060 -33.663  22.858  1.00  0.00     0.000 C 
BRANCH   5   6
ATOM      6  C   UNL     1      14.626 -33.446  21.399  1.00  0.00     0.000 C 
BRANCH   6   7
ATOM      7  C   UNL     1      15.769 -33.680  20.396  1.00  0.00     0.000 C 
BRANCH   7   8
ATOM      8  C   UNL     1      15.988 -35.169  20.079  1.00  0.00     0.000 C 
BRANCH   8   9
ATOM      9  C   UNL     1      17.443 -35.639  20.291  1.00  0.00     0.000 C 
BRANCH   9  10
ATOM     10  C   UNL     1      17.665 -36.231  21.694  1.00  0.00     0.006 C 
BRANCH  10  11
ATOM     11  C   UNL     1      18.880 -35.612  22.398  1.00  0.00     0.053 C 
BRANCH  11  12
ATOM     12  C   UNL     1      18.645 -35.450  23.868  1.00  0.00     0.041 C 
ATOM     13  O   UNL     1      17.531 -35.754  24.370  1.00  0.00    -0.550 OA
ATOM     14  O   UNL     1      19.647 -34.929  24.680  1.00  0.00    -0.550 OA
ENDBRANCH  11  12
ENDBRANCH  10  11
ENDBRANCH   9  10
ENDBRANCH   8   9
ENDBRANCH   7   8
ENDBRANCH   6   7
ENDBRANCH   5   6
ENDBRANCH   4   5
ENDBRANCH   3   4
ENDBRANCH   2   3
ENDBRANCH   1   2
BRANCH   1  15
ATOM     15  C   UNL     1      14.392 -29.634  21.640  1.00  0.00     0.000 C 
BRANCH  15  16
ATOM     16  C   UNL     1      15.873 -29.239  21.789  1.00  0.00     0.000 C 
BRANCH  16  17
ATOM     17  C   UNL     1      16.826 -30.442  21.685  1.00  0.00     0.000 C 
BRANCH  17  18
ATOM     18  C   UNL     1      17.335 -30.916  23.056  1.00  0.00    -0.000 C 
BRANCH  18  19
ATOM     19  C   UNL     1      18.504 -31.911  22.943  1.00  0.00    -0.000 C 
BRANCH  19  20
ATOM     20  C   UNL     1      19.048 -32.032  21.508  1.00  0.00    -0.000 C 
BRANCH  20  21
ATOM     21  C   UNL     1      20.569 -31.819  21.358  1.00  0.00    -0.000 C 
BRANCH  21  22
ATOM     22  C   UNL     1      20.982 -30.523  20.637  1.00  0.00    -0.000 C 
BRANCH  22  23
ATOM     23  C   UNL     1      20.708 -29.261  21.473  1.00  0.00    -0.000 C 
BRANCH  23  24
ATOM     24  C   UNL     1      19.648 -28.348  20.836  1.00  0.00    -0.000 C 
BRANCH  24  25
ATOM     25  C   UNL     1      20.156 -26.915  20.615  1.00  0.00    -0.003 C 
ATOM     26  C   UNL     1      21.479 -26.684  21.340  1.00  0.00     0.004 C 
ENDBRANCH  24  25
ENDBRANCH  23  24
ENDBRANCH  22  23
ENDBRANCH  21  22
ENDBRANCH  20  21
ENDBRANCH  19  20
ENDBRANCH  18  19
ENDBRANCH  17  18
ENDBRANCH  16  17
ENDBRANCH  15  16
ENDBRANCH   1  15
TORSDOF 22
ENDMDL
MODEL 8
REMARK VINA RESULT:    -4.758      3.052      6.704
REMARK INTER + INTRA:         -14.831
REMARK INTER:                 -10.494
REMARK INTRA:                  -4.337
REMARK UNBOUND:                -3.954
REMARK SMILES CCCCCCCCCCCCCCCCCCCCCCCC(=O)[O-]
REMARK SMILES IDX 13 1 14 2 15 3 16 4 17 5 18 6 19 7 20 8 21 9 22 10 23 11
REMARK SMILES IDX 24 12 25 13 26 14 12 15 11 16 10 17 9 18 8 19 7 20 6 21 5 22
REMARK SMILES IDX 4 23 3 24 2 25 1 26
REMARK H PARENT
REMARK Flexibility Score: inf
ROOT
ATOM      1  C   UNL     1      17.051 -33.422  24.650  1.00  0.00     0.000 C 
ENDROOT
BRANCH   1   2
ATOM      2  C   UNL     1      15.745 -33.272  23.855  1.00  0.00     0.000 C 
BRANCH   2   3
ATOM      3  C   UNL     1      15.660 -34.321  22.735  1.00  0.00     0.000 C 
BRANCH   3   4
ATOM      4  C   UNL     1      14.960 -33.784  21.476  1.00  0.00     0.000 C 
BRANCH   4   5
ATOM      5  C   UNL     1      15.019 -34.778  20.302  1.00  0.00     0.000 C 
BRANCH   5   6
ATOM      6  C   UNL     1      16.062 -34.384  19.244  1.00  0.00     0.000 C 
BRANCH   6   7
ATOM      7  C   UNL     1      17.383 -35.159  19.391  1.00  0.00     0.000 C 
BRANCH   7   8
ATOM      8  C   UNL     1      17.167 -36.662  19.642  1.00  0.00     0.000 C 
BRANCH   8   9
ATOM      9  C   UNL     1      17.733 -37.152  20.992  1.00  0.00     0.000 C 
BRANCH   9  10
ATOM     10  C   UNL     1      18.421 -36.022  21.778  1.00  0.00     0.006 C 
BRANCH  10  11
ATOM     11  C   UNL     1      18.754 -36.437  23.217  1.00  0.00     0.053 C 
BRANCH  11  12
ATOM     12  C   UNL     1      20.026 -35.808  23.694  1.00  0.00     0.041 C 
ATOM     13  O   UNL     1      20.289 -35.761  24.925  1.00  0.00    -0.550 OA
ATOM     14  O   UNL     1      20.908 -35.239  22.781  1.00  0.00    -0.550 OA
ENDBRANCH  11  12
ENDBRANCH  10  11
ENDBRANCH   9  10
ENDBRANCH   8   9
ENDBRANCH   7   8
ENDBRANCH   6   7
ENDBRANCH   5   6
ENDBRANCH   4   5
ENDBRANCH   3   4
ENDBRANCH   2   3
ENDBRANCH   1   2
BRANCH   1  15
ATOM     15  C   UNL     1      17.884 -32.128  24.689  1.00  0.00     0.000 C 
BRANCH  15  16
ATOM     16  C   UNL     1      19.284 -32.231  24.053  1.00  0.00     0.000 C 
BRANCH  16  17
ATOM     17  C   UNL     1      19.369 -31.540  22.682  1.00  0.00     0.000 C 
BRANCH  17  18
ATOM     18  C   UNL     1      18.559 -32.269  21.598  1.00  0.00    -0.000 C 
BRANCH  18  19
ATOM     19  C   UNL     1      17.625 -31.325  20.820  1.00  0.00    -0.000 C 
BRANCH  19  20
ATOM     20  C   UNL     1      16.946 -30.279  21.722  1.00  0.00    -0.000 C 
BRANCH  20  21
ATOM     21  C   UNL     1      15.404 -30.267  21.672  1.00  0.00    -0.000 C 
BRANCH  21  22
ATOM     22  C   UNL     1      14.721 -29.344  22.698  1.00  0.00    -0.000 C 
BRANCH  22  23
ATOM     23  C   UNL     1      13.596 -30.047  23.477  1.00  0.00    -0.000 C 
BRANCH  23  24
ATOM     24  C   UNL     1      12.822 -31.057  22.614  1.00  0.00    -0.000 C 
BRANCH  24  25
ATOM     25  C   UNL     1      11.612 -30.428  21.907  1.00  0.00    -0.003 C 
ATOM     26  C   UNL     1      11.060 -29.252  22.707  1.00  0.00     0.004 C 
ENDBRANCH  24  25
ENDBRANCH  23  24
ENDBRANCH  22  23
ENDBRANCH  21  22
ENDBRANCH  20  21
ENDBRANCH  19  20
ENDBRANCH  18  19
ENDBRANCH  17  18
ENDBRANCH  16  17
ENDBRANCH  15  16
ENDBRANCH   1  15
TORSDOF 22
ENDMDL
MODEL 9
REMARK VINA RESULT:    -4.730      2.836      5.513
REMARK INTER + INTRA:         -14.769
REMARK INTER:                 -10.899
REMARK INTRA:                  -3.870
REMARK UNBOUND:                -3.954
REMARK SMILES CCCCCCCCCCCCCCCCCCCCCCCC(=O)[O-]
REMARK SMILES IDX 13 1 14 2 15 3 16 4 17 5 18 6 19 7 20 8 21 9 22 10 23 11
REMARK SMILES IDX 24 12 25 13 26 14 12 15 11 16 10 17 9 18 8 19 7 20 6 21 5 22
REMARK SMILES IDX 4 23 3 24 2 25 1 26
REMARK H PARENT
REMARK Flexibility Score: inf
ROOT
ATOM      1  C   UNL     1      18.284 -33.328  20.823  1.00  0.00     0.000 C 
ENDROOT
BRANCH   1   2
ATOM      2  C   UNL     1      19.024 -31.983  20.862  1.00  0.00     0.000 C 
BRANCH   2   3
ATOM      3  C   UNL     1      18.552 -31.131  22.051  1.00  0.00     0.000 C 
BRANCH   3   4
ATOM      4  C   UNL     1      19.114 -31.626  23.393  1.00  0.00     0.000 C 
BRANCH   4   5
ATOM      5  C   UNL     1      18.009 -31.894  24.430  1.00  0.00     0.000 C 
BRANCH   5   6
ATOM      6  C   UNL     1      16.605 -31.928  23.805  1.00  0.00     0.000 C 
BRANCH   6   7
ATOM      7  C   UNL     1      16.003 -33.344  23.769  1.00  0.00     0.000 C 
BRANCH   7   8
ATOM      8  C   UNL     1      14.993 -33.533  22.624  1.00  0.00     0.000 C 
BRANCH   8   9
ATOM      9  C   UNL     1      14.880 -32.310  21.690  1.00  0.00     0.000 C 
BRANCH   9  10
ATOM     10  C   UNL     1      13.476 -31.681  21.722  1.00  0.00     0.006 C 
BRANCH  10  11
ATOM     11  C   UNL     1      13.059 -31.269  23.140  1.00  0.00     0.053 C 
BRANCH  11  12
ATOM     12  C   UNL     1      13.112 -29.784  23.323  1.00  0.00     0.041 C 
ATOM     13  O   UNL     1      12.305 -29.210  24.100  1.00  0.00    -0.550 OA
ATOM     14  O   UNL     1      14.033 -29.026  22.606  1.00  0.00    -0.550 OA
ENDBRANCH  11  12
ENDBRANCH  10  11
ENDBRANCH   9  10
ENDBRANCH   8   9
ENDBRANCH   7   8
ENDBRANCH   6   7
ENDBRANCH   5   6
ENDBRANCH   4   5
ENDBRANCH   3   4
ENDBRANCH   2   3
ENDBRANCH   1   2
BRANCH   1  15
ATOM     15  C   UNL     1      18.033 -33.837  19.392  1.00  0.00     0.000 C 
BRANCH  15  16
ATOM     16  C   UNL     1      16.589 -34.285  19.099  1.00  0.00     0.000 C 
BRANCH  16  17
ATOM     17  C   UNL     1      16.253 -35.655  19.712  1.00  0.00     0.000 C 
BRANCH  17  18
ATOM     18  C   UNL     1      17.354 -36.700  19.470  1.00  0.00    -0.000 C 
BRANCH  18  19
ATOM     19  C   UNL     1      17.784 -37.419  20.761  1.00  0.00    -0.000 C 
BRANCH  19  20
ATOM     20  C   UNL     1      17.702 -36.514  22.003  1.00  0.00    -0.000 C 
BRANCH  20  21
ATOM     21  C   UNL     1      18.890 -36.628  22.981  1.00  0.00    -0.000 C 
BRANCH  21  22
ATOM     22  C   UNL     1      19.255 -35.330  23.724  1.00  0.00    -0.000 C 
BRANCH  22  23
ATOM     23  C   UNL     1      18.959 -35.402  25.232  1.00  0.00    -0.000 C 
BRANCH  23  24
ATOM     24  C   UNL     1      17.656 -36.155  25.543  1.00  0.00    -0.000 C 
BRANCH  24  25
ATOM     25  C   UNL     1      17.807 -37.143  26.710  1.00  0.00    -0.003 C 
ATOM     26  C   UNL     1      16.497 -37.878  26.980  1.00  0.00     0.004 C 
ENDBRANCH  24  25
ENDBRANCH  23  24
ENDBRANCH  22  23
ENDBRANCH  21  22
ENDBRANCH  20  21
ENDBRANCH  19  20
ENDBRANCH  18  19
ENDBRANCH  17  18
ENDBRANCH  16  17
ENDBRANCH  15  16
ENDBRANCH   1  15
TORSDOF 22
ENDMDL
