MODEL 1
REMARK VINA RESULT:    -3.132      0.000      0.000
REMARK INTER + INTRA:          -3.412
REMARK INTER:                  -3.315
REMARK INTRA:                  -0.096
REMARK UNBOUND:                -0.096
REMARK SMILES C=C(C)[C@H]1CC=C(C)C(=O)C1
REMARK SMILES IDX 8 1 7 2 6 3 5 4 4 5 11 6 9 7 10 8 2 9 1 10 3 11
REMARK H PARENT
REMARK Flexibility Score: inf
ROOT
ATOM      1  C   UNL     1     -10.329 -21.692  19.957  1.00  0.00     0.048 C 
ATOM      2  C   UNL     1     -10.225 -21.883  21.445  1.00  0.00    -0.012 C 
ATOM      3  C   UNL     1     -11.125 -21.305  22.258  1.00  0.00    -0.019 C 
ATOM      4  C   UNL     1     -11.055 -21.448  23.755  1.00  0.00     0.036 C 
ATOM      5  C   UNL     1     -10.480 -22.819  24.156  1.00  0.00     0.025 C 
ATOM      6  C   UNL     1      -9.110 -23.040  23.485  1.00  0.00     0.089 C 
ATOM      7  C   UNL     1      -9.204 -22.806  22.002  1.00  0.00     0.158 C 
ATOM      8  O   UNL     1      -8.382 -23.378  21.237  1.00  0.00    -0.295 OA
ENDROOT
BRANCH   5   9
ATOM      9  C   UNL     1     -10.394 -22.974  25.668  1.00  0.00    -0.077 C 
ATOM     10  C   UNL     1     -10.863 -22.026  26.497  1.00  0.00     0.008 C 
ATOM     11  C   UNL     1      -9.776 -24.212  26.267  1.00  0.00     0.039 C 
ENDBRANCH   5   9
TORSDOF 1
ENDMDL
MODEL 2
REMARK VINA RESULT:    -2.934     13.502     15.296
REMARK INTER + INTRA:          -3.202
REMARK INTER:                  -3.105
REMARK INTRA:                  -0.097
REMARK UNBOUND:                -0.096
REMARK SMILES C=C(C)[C@H]1CC=C(C)C(=O)C1
REMARK SMILES IDX 8 1 7 2 6 3 5 4 4 5 11 6 9 7 10 8 2 9 1 10 3 11
REMARK H PARENT
REMARK Flexibility Score: inf
ROOT
ATOM      1  C   UNL     1      -9.582 -17.935   6.877  1.00  0.00     0.048 C 
ATOM      2  C   UNL     1      -9.863 -19.263   7.523  1.00  0.00    -0.012 C 
ATOM      3  C   UNL     1     -10.791 -20.080   6.996  1.00  0.00    -0.019 C 
ATOM      4  C   UNL     1     -11.125 -21.412   7.613  1.00  0.00     0.036 C 
ATOM      5  C   UNL     1      -9.887 -22.042   8.279  1.00  0.00     0.025 C 
ATOM      6  C   UNL     1      -9.274 -21.063   9.299  1.00  0.00     0.089 C 
ATOM      7  C   UNL     1      -9.032 -19.721   8.665  1.00  0.00     0.158 C 
ATOM      8  O   UNL     1      -8.137 -18.970   9.138  1.00  0.00    -0.295 OA
ENDROOT
BRANCH   5   9
ATOM      9  C   UNL     1     -10.212 -23.385   8.917  1.00  0.00    -0.077 C 
ATOM     10  C   UNL     1     -10.079 -23.583  10.240  1.00  0.00     0.008 C 
ATOM     11  C   UNL     1     -10.697 -24.529   8.064  1.00  0.00     0.039 C 
ENDBRANCH   5   9
TORSDOF 1
ENDMDL
MODEL 3
REMARK VINA RESULT:    -2.734      1.512      2.593
REMARK INTER + INTRA:          -2.990
REMARK INTER:                  -2.892
REMARK INTRA:                  -0.098
REMARK UNBOUND:                -0.096
REMARK SMILES C=C(C)[C@H]1CC=C(C)C(=O)C1
REMARK SMILES IDX 8 1 7 2 6 3 5 4 4 5 11 6 9 7 10 8 2 9 1 10 3 11
REMARK H PARENT
REMARK Flexibility Score: inf
ROOT
ATOM      1  C   UNL     1      -7.253 -24.610  20.987  1.00  0.00     0.048 C 
ATOM      2  C   UNL     1      -8.148 -24.251  22.141  1.00  0.00    -0.012 C 
ATOM      3  C   UNL     1      -8.177 -25.034  23.233  1.00  0.00    -0.019 C 
ATOM      4  C   UNL     1      -9.068 -24.731  24.408  1.00  0.00     0.036 C 
ATOM      5  C   UNL     1      -9.252 -23.212  24.589  1.00  0.00     0.025 C 
ATOM      6  C   UNL     1      -9.772 -22.579  23.285  1.00  0.00     0.089 C 
ATOM      7  C   UNL     1      -8.902 -22.973  22.123  1.00  0.00     0.158 C 
ATOM      8  O   UNL     1      -8.848 -22.219  21.113  1.00  0.00    -0.295 OA
ENDROOT
BRANCH   5   9
ATOM      9  C   UNL     1     -10.160 -22.891  25.769  1.00  0.00    -0.077 C 
ATOM     10  C   UNL     1     -10.982 -21.828  25.751  1.00  0.00     0.008 C 
ATOM     11  C   UNL     1     -10.152 -23.775  26.990  1.00  0.00     0.039 C 
ENDBRANCH   5   9
TORSDOF 1
ENDMDL
MODEL 4
REMARK VINA RESULT:    -2.460      1.691      2.609
REMARK INTER + INTRA:          -2.701
REMARK INTER:                  -2.609
REMARK INTRA:                  -0.092
REMARK UNBOUND:                -0.096
REMARK SMILES C=C(C)[C@H]1CC=C(C)C(=O)C1
REMARK SMILES IDX 8 1 7 2 6 3 5 4 4 5 11 6 9 7 10 8 2 9 1 10 3 11
REMARK H PARENT
REMARK Flexibility Score: inf
ROOT
ATOM      1  C   UNL     1      -9.834 -21.509  19.881  1.00  0.00     0.048 C 
ATOM      2  C   UNL     1      -9.737 -22.351  21.124  1.00  0.00    -0.012 C 
ATOM      3  C   UNL     1      -8.951 -23.441  21.133  1.00  0.00    -0.019 C 
ATOM      4  C   UNL     1      -8.832 -24.329  22.343  1.00  0.00     0.036 C 
ATOM      5  C   UNL     1      -8.973 -23.516  23.644  1.00  0.00     0.025 C 
ATOM      6  C   UNL     1     -10.291 -22.718  23.634  1.00  0.00     0.089 C 
ATOM      7  C   UNL     1     -10.409 -21.909  22.371  1.00  0.00     0.158 C 
ATOM      8  O   UNL     1     -11.118 -20.866  22.374  1.00  0.00    -0.295 OA
ENDROOT
BRANCH   5   9
ATOM      9  C   UNL     1      -8.865 -24.403  24.877  1.00  0.00    -0.077 C 
ATOM     10  C   UNL     1      -7.729 -25.059  25.170  1.00  0.00     0.008 C 
ATOM     11  C   UNL     1     -10.045 -24.558  25.801  1.00  0.00     0.039 C 
ENDBRANCH   5   9
TORSDOF 1
ENDMDL
MODEL 5
REMARK VINA RESULT:    -2.402      1.601      4.385
REMARK INTER + INTRA:          -2.639
REMARK INTER:                  -2.543
REMARK INTRA:                  -0.096
REMARK UNBOUND:                -0.096
REMARK SMILES C=C(C)[C@H]1CC=C(C)C(=O)C1
REMARK SMILES IDX 8 1 7 2 6 3 5 4 4 5 11 6 9 7 10 8 2 9 1 10 3 11
REMARK H PARENT
REMARK Flexibility Score: inf
ROOT
ATOM      1  C   UNL     1      -8.540 -22.624  25.525  1.00  0.00     0.048 C 
ATOM      2  C   UNL     1      -9.234 -22.733  24.195  1.00  0.00    -0.012 C 
ATOM      3  C   UNL     1     -10.104 -21.782  23.815  1.00  0.00    -0.019 C 
ATOM      4  C   UNL     1     -10.841 -21.851  22.504  1.00  0.00     0.036 C 
ATOM      5  C   UNL     1      -9.984 -22.537  21.422  1.00  0.00     0.025 C 
ATOM      6  C   UNL     1      -9.524 -23.925  21.906  1.00  0.00     0.089 C 
ATOM      7  C   UNL     1      -8.867 -23.822  23.256  1.00  0.00     0.158 C 
ATOM      8  O   UNL     1      -8.024 -24.695  23.597  1.00  0.00    -0.295 OA
ENDROOT
BRANCH   5   9
ATOM      9  C   UNL     1     -10.721 -22.623  20.092  1.00  0.00    -0.077 C 
ATOM     10  C   UNL     1     -11.125 -23.804  19.591  1.00  0.00     0.008 C 
ATOM     11  C   UNL     1     -11.014 -21.370  19.308  1.00  0.00     0.039 C 
ENDBRANCH   5   9
TORSDOF 1
ENDMDL
MODEL 6
REMARK VINA RESULT:    -2.241     20.343     21.470
REMARK INTER + INTRA:          -2.469
REMARK INTER:                  -2.373
REMARK INTRA:                  -0.095
REMARK UNBOUND:                -0.096
REMARK SMILES C=C(C)[C@H]1CC=C(C)C(=O)C1
REMARK SMILES IDX 8 1 7 2 6 3 5 4 4 5 11 6 9 7 10 8 2 9 1 10 3 11
REMARK H PARENT
REMARK Flexibility Score: inf
ROOT
ATOM      1  C   UNL     1       3.570 -23.651   6.947  1.00  0.00     0.048 C 
ATOM      2  C   UNL     1       4.669 -24.026   7.902  1.00  0.00    -0.012 C 
ATOM      3  C   UNL     1       5.946 -23.738   7.599  1.00  0.00    -0.019 C 
ATOM      4  C   UNL     1       7.086 -24.108   8.510  1.00  0.00     0.036 C 
ATOM      5  C   UNL     1       6.654 -24.059   9.988  1.00  0.00     0.025 C 
ATOM      6  C   UNL     1       5.417 -24.948  10.212  1.00  0.00     0.089 C 
ATOM      7  C   UNL     1       4.332 -24.602   9.228  1.00  0.00     0.158 C 
ATOM      8  O   UNL     1       3.131 -24.840   9.529  1.00  0.00    -0.295 OA
ENDROOT
BRANCH   5   9
ATOM      9  C   UNL     1       7.796 -24.441  10.921  1.00  0.00    -0.077 C 
ATOM     10  C   UNL     1       8.874 -25.107  10.472  1.00  0.00     0.008 C 
ATOM     11  C   UNL     1       7.733 -24.072  12.381  1.00  0.00     0.039 C 
ENDBRANCH   5   9
TORSDOF 1
ENDMDL
