MODEL 1
REMARK VINA RESULT:    -2.075      0.000      0.000
REMARK INTER + INTRA:          -2.075
REMARK INTER:                  -2.075
REMARK INTRA:                   0.000
REMARK UNBOUND:                 0.000
REMARK SMILES CC(=O)[O-]
REMARK SMILES IDX 1 1 2 2 3 3 4 4
REMARK H PARENT
REMARK Flexibility Score: inf
ROOT
ATOM      1  C   UNL     1       2.575   8.183 403.540  1.00  0.00     0.063 C 
ATOM      2  C   UNL     1       3.688   7.436 402.888  1.00  0.00     0.038 C 
ATOM      3  O   UNL     1       3.618   6.186 402.755  1.00  0.00    -0.550 OA
ATOM      4  O   UNL     1       4.780   8.124 402.375  1.00  0.00    -0.550 OA
ENDROOT
TORSDOF 0
ENDMDL
MODEL 2
REMARK VINA RESULT:    -1.989      1.407      1.784
REMARK INTER + INTRA:          -1.989
REMARK INTER:                  -1.989
REMARK INTRA:                   0.000
REMARK UNBOUND:                 0.000
REMARK SMILES CC(=O)[O-]
REMARK SMILES IDX 1 1 2 2 3 3 4 4
REMARK H PARENT
REMARK Flexibility Score: inf
ROOT
ATOM      1  C   UNL     1       5.105   8.200 402.449  1.00  0.00     0.063 C 
ATOM      2  C   UNL     1       3.787   7.646 402.872  1.00  0.00     0.038 C 
ATOM      3  O   UNL     1       3.585   6.404 402.846  1.00  0.00    -0.550 OA
ATOM      4  O   UNL     1       2.796   8.495 403.349  1.00  0.00    -0.550 OA
ENDROOT
TORSDOF 0
ENDMDL
MODEL 3
REMARK VINA RESULT:    -1.931      2.054      2.300
REMARK INTER + INTRA:          -1.931
REMARK INTER:                  -1.931
REMARK INTRA:                   0.000
REMARK UNBOUND:                 0.000
REMARK SMILES CC(=O)[O-]
REMARK SMILES IDX 1 1 2 2 3 3 4 4
REMARK H PARENT
REMARK Flexibility Score: inf
ROOT
ATOM      1  C   UNL     1       4.023   7.862 402.784  1.00  0.00     0.063 C 
ATOM      2  C   UNL     1       2.923   8.288 403.696  1.00  0.00     0.038 C 
ATOM      3  O   UNL     1       1.737   7.932 403.466  1.00  0.00    -0.550 OA
ATOM      4  O   UNL     1       3.210   9.034 404.832  1.00  0.00    -0.550 OA
ENDROOT
TORSDOF 0
ENDMDL
MODEL 4
REMARK VINA RESULT:    -1.929      6.514      7.165
REMARK INTER + INTRA:          -1.929
REMARK INTER:                  -1.929
REMARK INTRA:                   0.000
REMARK UNBOUND:                 0.000
REMARK SMILES CC(=O)[O-]
REMARK SMILES IDX 1 1 2 2 3 3 4 4
REMARK H PARENT
REMARK Flexibility Score: inf
ROOT
ATOM      1  C   UNL     1       3.945  -0.174 400.048  1.00  0.00     0.063 C 
ATOM      2  C   UNL     1       3.611   1.015 400.883  1.00  0.00     0.038 C 
ATOM      3  O   UNL     1       3.325   2.112 400.335  1.00  0.00    -0.550 OA
ATOM      4  O   UNL     1       3.562   0.902 402.266  1.00  0.00    -0.550 OA
ENDROOT
TORSDOF 0
ENDMDL
MODEL 5
REMARK VINA RESULT:    -1.908      6.002      6.591
REMARK INTER + INTRA:          -1.908
REMARK INTER:                  -1.908
REMARK INTRA:                   0.000
REMARK UNBOUND:                 0.000
REMARK SMILES CC(=O)[O-]
REMARK SMILES IDX 1 1 2 2 3 3 4 4
REMARK H PARENT
REMARK Flexibility Score: inf
ROOT
ATOM      1  C   UNL     1       3.732   2.604 401.000  1.00  0.00     0.063 C 
ATOM      2  C   UNL     1       3.615   1.225 401.554  1.00  0.00     0.038 C 
ATOM      3  O   UNL     1       3.484   1.050 402.793  1.00  0.00    -0.550 OA
ATOM      4  O   UNL     1       3.594   0.132 400.698  1.00  0.00    -0.550 OA
ENDROOT
TORSDOF 0
ENDMDL
MODEL 6
REMARK VINA RESULT:    -1.905      5.749      6.381
REMARK INTER + INTRA:          -1.905
REMARK INTER:                  -1.905
REMARK INTRA:                   0.000
REMARK UNBOUND:                 0.000
REMARK SMILES CC(=O)[O-]
REMARK SMILES IDX 1 1 2 2 3 3 4 4
REMARK H PARENT
REMARK Flexibility Score: inf
ROOT
ATOM      1  C   UNL     1       3.709   0.454 400.328  1.00  0.00     0.063 C 
ATOM      2  C   UNL     1       3.617   1.578 401.303  1.00  0.00     0.038 C 
ATOM      3  O   UNL     1       3.622   1.344 402.540  1.00  0.00    -0.550 OA
ATOM      4  O   UNL     1       3.579   2.890 400.850  1.00  0.00    -0.550 OA
ENDROOT
TORSDOF 0
ENDMDL
MODEL 7
REMARK VINA RESULT:    -1.833      5.559      6.224
REMARK INTER + INTRA:          -1.833
REMARK INTER:                  -1.833
REMARK INTRA:                   0.000
REMARK UNBOUND:                 0.000
REMARK SMILES CC(=O)[O-]
REMARK SMILES IDX 1 1 2 2 3 3 4 4
REMARK H PARENT
REMARK Flexibility Score: inf
ROOT
ATOM      1  C   UNL     1       4.074   1.466 402.601  1.00  0.00     0.063 C 
ATOM      2  C   UNL     1       3.644   1.839 401.223  1.00  0.00     0.038 C 
ATOM      3  O   UNL     1       3.576   3.050 400.888  1.00  0.00    -0.550 OA
ATOM      4  O   UNL     1       3.371   0.849 400.288  1.00  0.00    -0.550 OA
ENDROOT
TORSDOF 0
ENDMDL
MODEL 8
REMARK VINA RESULT:    -1.736      7.783      8.295
REMARK INTER + INTRA:          -1.736
REMARK INTER:                  -1.736
REMARK INTRA:                   0.000
REMARK UNBOUND:                 0.000
REMARK SMILES CC(=O)[O-]
REMARK SMILES IDX 1 1 2 2 3 3 4 4
REMARK H PARENT
REMARK Flexibility Score: inf
ROOT
ATOM      1  C   UNL     1       5.624   0.305 399.894  1.00  0.00     0.063 C 
ATOM      2  C   UNL     1       4.208  -0.132 400.054  1.00  0.00     0.038 C 
ATOM      3  O   UNL     1       3.898  -1.342 399.894  1.00  0.00    -0.550 OA
ATOM      4  O   UNL     1       3.235   0.784 400.433  1.00  0.00    -0.550 OA
ENDROOT
TORSDOF 0
ENDMDL
MODEL 9
REMARK VINA RESULT:    -1.699      8.927      9.362
REMARK INTER + INTRA:          -1.699
REMARK INTER:                  -1.699
REMARK INTRA:                   0.000
REMARK UNBOUND:                 0.000
REMARK SMILES CC(=O)[O-]
REMARK SMILES IDX 1 1 2 2 3 3 4 4
REMARK H PARENT
REMARK Flexibility Score: inf
ROOT
ATOM      1  C   UNL     1       3.580  -2.868 400.686  1.00  0.00     0.063 C 
ATOM      2  C   UNL     1       3.924  -1.421 400.789  1.00  0.00     0.038 C 
ATOM      3  O   UNL     1       4.262  -0.928 401.897  1.00  0.00    -0.550 OA
ATOM      4  O   UNL     1       3.925  -0.624 399.651  1.00  0.00    -0.550 OA
ENDROOT
TORSDOF 0
ENDMDL
