MODEL 1
REMARK VINA RESULT:    -5.617      0.000      0.000
REMARK INTER + INTRA:          -6.117
REMARK INTER:                  -5.945
REMARK INTRA:                  -0.172
REMARK UNBOUND:                -0.172
REMARK SMILES CC1=C[C@H]2C(=C(C)CC[C@@H]2C(C)C)CC1
REMARK SMILES IDX 1 1 2 2 3 3 4 4 10 5 9 6 8 7 6 8 5 9 14 10 15 11 7 12 11 13
REMARK SMILES IDX 12 14 13 15
REMARK H PARENT
REMARK Flexibility Score: inf
ROOT
ATOM      1  C   UNL     1     139.032 134.091 138.887  1.00  0.00     0.039 C 
ATOM      2  C   UNL     1     138.690 133.541 137.528  1.00  0.00    -0.076 C 
ATOM      3  C   UNL     1     139.377 133.981 136.449  1.00  0.00    -0.020 C 
ATOM      4  C   UNL     1     139.149 133.471 135.029  1.00  0.00     0.041 C 
ATOM      5  C   UNL     1     139.179 134.638 133.997  1.00  0.00     0.003 C 
ATOM      6  C   UNL     1     138.716 134.094 132.631  1.00  0.00     0.009 C 
ATOM      7  C   UNL     1     137.278 133.593 132.715  1.00  0.00     0.031 C 
ATOM      8  C   UNL     1     137.051 132.638 133.865  1.00  0.00    -0.073 C 
ATOM      9  C   UNL     1     137.877 132.625 134.951  1.00  0.00    -0.064 C 
ATOM     10  C   UNL     1     137.649 131.718 136.141  1.00  0.00     0.036 C 
ATOM     11  C   UNL     1     137.531 132.580 137.394  1.00  0.00     0.035 C 
ATOM     12  C   UNL     1     135.798 131.795 133.807  1.00  0.00     0.039 C 
ENDROOT
BRANCH   5  13
ATOM     13  C   UNL     1     140.588 135.360 133.961  1.00  0.00    -0.013 C 
ATOM     14  C   UNL     1     141.223 135.532 132.568  1.00  0.00     0.007 C 
ATOM     15  C   UNL     1     140.510 136.740 134.641  1.00  0.00     0.007 C 
ENDBRANCH   5  13
TORSDOF 1
ENDMDL
MODEL 2
REMARK VINA RESULT:    -5.592      3.987      5.640
REMARK INTER + INTRA:          -6.091
REMARK INTER:                  -5.929
REMARK INTRA:                  -0.162
REMARK UNBOUND:                -0.172
REMARK SMILES CC1=C[C@H]2C(=C(C)CC[C@@H]2C(C)C)CC1
REMARK SMILES IDX 1 1 2 2 3 3 4 4 10 5 9 6 8 7 6 8 5 9 14 10 15 11 7 12 11 13
REMARK SMILES IDX 12 14 13 15
REMARK H PARENT
REMARK Flexibility Score: inf
ROOT
ATOM      1  C   UNL     1     138.498 139.028 139.052  1.00  0.00     0.039 C 
ATOM      2  C   UNL     1     139.059 138.696 137.695  1.00  0.00    -0.076 C 
ATOM      3  C   UNL     1     138.602 139.367 136.613  1.00  0.00    -0.020 C 
ATOM      4  C   UNL     1     139.120 139.148 135.195  1.00  0.00     0.041 C 
ATOM      5  C   UNL     1     137.954 139.142 134.161  1.00  0.00     0.003 C 
ATOM      6  C   UNL     1     138.513 138.689 132.797  1.00  0.00     0.009 C 
ATOM      7  C   UNL     1     139.054 137.266 132.888  1.00  0.00     0.031 C 
ATOM      8  C   UNL     1     140.013 137.070 134.040  1.00  0.00    -0.073 C 
ATOM      9  C   UNL     1     140.001 137.900 135.122  1.00  0.00    -0.064 C 
ATOM     10  C   UNL     1     140.913 137.702 136.314  1.00  0.00     0.036 C 
ATOM     11  C   UNL     1     140.052 137.564 137.567  1.00  0.00     0.035 C 
ATOM     12  C   UNL     1     140.891 135.841 133.988  1.00  0.00     0.039 C 
ENDROOT
BRANCH   5  13
ATOM     13  C   UNL     1     137.192 140.529 134.119  1.00  0.00    -0.013 C 
ATOM     14  C   UNL     1     136.987 141.145 132.721  1.00  0.00     0.007 C 
ATOM     15  C   UNL     1     135.824 140.420 134.815  1.00  0.00     0.007 C 
ENDBRANCH   5  13
TORSDOF 1
ENDMDL
MODEL 3
REMARK VINA RESULT:    -5.567      6.501      7.911
REMARK INTER + INTRA:          -6.064
REMARK INTER:                  -5.863
REMARK INTRA:                  -0.201
REMARK UNBOUND:                -0.172
REMARK SMILES CC1=C[C@H]2C(=C(C)CC[C@@H]2C(C)C)CC1
REMARK SMILES IDX 1 1 2 2 3 3 4 4 10 5 9 6 8 7 6 8 5 9 14 10 15 11 7 12 11 13
REMARK SMILES IDX 12 14 13 15
REMARK H PARENT
REMARK Flexibility Score: inf
ROOT
ATOM      1  C   UNL     1     133.517 138.468 138.933  1.00  0.00     0.039 C 
ATOM      2  C   UNL     1     133.896 139.040 137.594  1.00  0.00    -0.076 C 
ATOM      3  C   UNL     1     133.261 138.595 136.486  1.00  0.00    -0.020 C 
ATOM      4  C   UNL     1     133.530 139.125 135.080  1.00  0.00     0.041 C 
ATOM      5  C   UNL     1     133.567 137.968 134.037  1.00  0.00     0.003 C 
ATOM      6  C   UNL     1     134.067 138.537 132.694  1.00  0.00     0.009 C 
ATOM      7  C   UNL     1     135.489 139.071 132.838  1.00  0.00     0.031 C 
ATOM      8  C   UNL     1     135.650 140.020 134.004  1.00  0.00    -0.073 C 
ATOM      9  C   UNL     1     134.783 140.002 135.058  1.00  0.00    -0.064 C 
ATOM     10  C   UNL     1     134.944 140.902 136.265  1.00  0.00     0.036 C 
ATOM     11  C   UNL     1     135.037 140.030 137.513  1.00  0.00     0.035 C 
ATOM     12  C   UNL     1     136.883 140.893 134.002  1.00  0.00     0.039 C 
ENDROOT
BRANCH   5  13
ATOM     13  C   UNL     1     132.179 137.213 133.941  1.00  0.00    -0.013 C 
ATOM     14  C   UNL     1     131.559 137.115 132.533  1.00  0.00     0.007 C 
ATOM     15  C   UNL     1     132.288 135.795 134.531  1.00  0.00     0.007 C 
ENDBRANCH   5  13
TORSDOF 1
ENDMDL
MODEL 4
REMARK VINA RESULT:    -5.555      3.985      5.604
REMARK INTER + INTRA:          -6.051
REMARK INTER:                  -5.868
REMARK INTRA:                  -0.183
REMARK UNBOUND:                -0.172
REMARK SMILES CC1=C[C@H]2C(=C(C)CC[C@@H]2C(C)C)CC1
REMARK SMILES IDX 1 1 2 2 3 3 4 4 10 5 9 6 8 7 6 8 5 9 14 10 15 11 7 12 11 13
REMARK SMILES IDX 12 14 13 15
REMARK H PARENT
REMARK Flexibility Score: inf
ROOT
ATOM      1  C   UNL     1     134.112 133.723 138.873  1.00  0.00     0.039 C 
ATOM      2  C   UNL     1     133.557 134.033 137.508  1.00  0.00    -0.076 C 
ATOM      3  C   UNL     1     134.011 133.339 136.441  1.00  0.00    -0.020 C 
ATOM      4  C   UNL     1     133.498 133.535 135.017  1.00  0.00     0.041 C 
ATOM      5  C   UNL     1     134.667 133.513 133.986  1.00  0.00     0.003 C 
ATOM      6  C   UNL     1     134.115 133.944 132.613  1.00  0.00     0.009 C 
ATOM      7  C   UNL     1     133.586 135.373 132.675  1.00  0.00     0.031 C 
ATOM      8  C   UNL     1     132.625 135.599 133.821  1.00  0.00    -0.073 C 
ATOM      9  C   UNL     1     132.628 134.789 134.919  1.00  0.00    -0.064 C 
ATOM     10  C   UNL     1     131.715 135.016 136.105  1.00  0.00     0.036 C 
ATOM     11  C   UNL     1     132.573 135.171 137.357  1.00  0.00     0.035 C 
ATOM     12  C   UNL     1     131.758 136.833 133.744  1.00  0.00     0.039 C 
ENDROOT
BRANCH   5  13
ATOM     13  C   UNL     1     135.417 132.119 133.972  1.00  0.00    -0.013 C 
ATOM     14  C   UNL     1     135.578 131.452 132.592  1.00  0.00     0.007 C 
ATOM     15  C   UNL     1     136.806 132.241 134.625  1.00  0.00     0.007 C 
ENDBRANCH   5  13
TORSDOF 1
ENDMDL
MODEL 5
REMARK VINA RESULT:    -5.256      1.600      2.434
REMARK INTER + INTRA:          -5.735
REMARK INTER:                  -5.473
REMARK INTRA:                  -0.262
REMARK UNBOUND:                -0.172
REMARK SMILES CC1=C[C@H]2C(=C(C)CC[C@@H]2C(C)C)CC1
REMARK SMILES IDX 1 1 2 2 3 3 4 4 10 5 9 6 8 7 6 8 5 9 14 10 15 11 7 12 11 13
REMARK SMILES IDX 12 14 13 15
REMARK H PARENT
REMARK Flexibility Score: inf
ROOT
ATOM      1  C   UNL     1     137.388 132.957 139.274  1.00  0.00     0.039 C 
ATOM      2  C   UNL     1     137.932 133.160 137.885  1.00  0.00    -0.076 C 
ATOM      3  C   UNL     1     138.632 134.284 137.612  1.00  0.00    -0.020 C 
ATOM      4  C   UNL     1     139.264 134.584 136.256  1.00  0.00     0.041 C 
ATOM      5  C   UNL     1     139.063 136.077 135.855  1.00  0.00     0.003 C 
ATOM      6  C   UNL     1     139.515 136.255 134.392  1.00  0.00     0.009 C 
ATOM      7  C   UNL     1     138.652 135.409 133.461  1.00  0.00     0.031 C 
ATOM      8  C   UNL     1     138.547 133.966 133.899  1.00  0.00    -0.073 C 
ATOM      9  C   UNL     1     138.772 133.600 135.194  1.00  0.00    -0.064 C 
ATOM     10  C   UNL     1     138.626 132.173 135.678  1.00  0.00     0.036 C 
ATOM     11  C   UNL     1     137.606 132.145 136.813  1.00  0.00     0.035 C 
ATOM     12  C   UNL     1     138.059 132.977 132.865  1.00  0.00     0.039 C 
ENDROOT
BRANCH   5  13
ATOM     13  C   UNL     1     139.768 137.064 136.873  1.00  0.00    -0.013 C 
ATOM     14  C   UNL     1     140.978 137.846 136.327  1.00  0.00     0.007 C 
ATOM     15  C   UNL     1     138.753 138.066 137.451  1.00  0.00     0.007 C 
ENDBRANCH   5  13
TORSDOF 1
ENDMDL
MODEL 6
REMARK VINA RESULT:    -5.254      4.738      6.273
REMARK INTER + INTRA:          -5.733
REMARK INTER:                  -5.479
REMARK INTRA:                  -0.254
REMARK UNBOUND:                -0.172
REMARK SMILES CC1=C[C@H]2C(=C(C)CC[C@@H]2C(C)C)CC1
REMARK SMILES IDX 1 1 2 2 3 3 4 4 10 5 9 6 8 7 6 8 5 9 14 10 15 11 7 12 11 13
REMARK SMILES IDX 12 14 13 15
REMARK H PARENT
REMARK Flexibility Score: inf
ROOT
ATOM      1  C   UNL     1     139.744 137.394 139.235  1.00  0.00     0.039 C 
ATOM      2  C   UNL     1     139.518 137.927 137.845  1.00  0.00    -0.076 C 
ATOM      3  C   UNL     1     138.396 138.637 137.589  1.00  0.00    -0.020 C 
ATOM      4  C   UNL     1     138.075 139.261 136.233  1.00  0.00     0.041 C 
ATOM      5  C   UNL     1     136.572 139.073 135.866  1.00  0.00     0.003 C 
ATOM      6  C   UNL     1     136.368 139.513 134.402  1.00  0.00     0.009 C 
ATOM      7  C   UNL     1     137.184 138.632 133.462  1.00  0.00     0.031 C 
ATOM      8  C   UNL     1     138.635 138.514 133.871  1.00  0.00    -0.073 C 
ATOM      9  C   UNL     1     139.031 138.747 135.156  1.00  0.00    -0.064 C 
ATOM     10  C   UNL     1     140.466 138.589 135.610  1.00  0.00     0.036 C 
ATOM     11  C   UNL     1     140.506 137.580 136.755  1.00  0.00     0.035 C 
ATOM     12  C   UNL     1     139.596 138.006 132.821  1.00  0.00     0.039 C 
ENDROOT
BRANCH   5  13
ATOM     13  C   UNL     1     135.615 139.799 136.897  1.00  0.00    -0.013 C 
ATOM     14  C   UNL     1     134.760 140.949 136.332  1.00  0.00     0.007 C 
ATOM     15  C   UNL     1     134.683 138.783 137.583  1.00  0.00     0.007 C 
ENDBRANCH   5  13
TORSDOF 1
ENDMDL
MODEL 7
REMARK VINA RESULT:    -5.252      3.447      4.892
REMARK INTER + INTRA:          -5.731
REMARK INTER:                  -5.472
REMARK INTRA:                  -0.259
REMARK UNBOUND:                -0.172
REMARK SMILES CC1=C[C@H]2C(=C(C)CC[C@@H]2C(C)C)CC1
REMARK SMILES IDX 1 1 2 2 3 3 4 4 10 5 9 6 8 7 6 8 5 9 14 10 15 11 7 12 11 13
REMARK SMILES IDX 12 14 13 15
REMARK H PARENT
REMARK Flexibility Score: inf
ROOT
ATOM      1  C   UNL     1     132.931 135.255 139.237  1.00  0.00     0.039 C 
ATOM      2  C   UNL     1     133.154 134.709 137.852  1.00  0.00    -0.076 C 
ATOM      3  C   UNL     1     134.271 133.989 137.602  1.00  0.00    -0.020 C 
ATOM      4  C   UNL     1     134.588 133.352 136.252  1.00  0.00     0.041 C 
ATOM      5  C   UNL     1     136.093 133.526 135.884  1.00  0.00     0.003 C 
ATOM      6  C   UNL     1     136.294 133.072 134.424  1.00  0.00     0.009 C 
ATOM      7  C   UNL     1     135.485 133.951 133.476  1.00  0.00     0.031 C 
ATOM      8  C   UNL     1     134.034 134.082 133.883  1.00  0.00    -0.073 C 
ATOM      9  C   UNL     1     133.636 133.863 135.170  1.00  0.00    -0.064 C 
ATOM     10  C   UNL     1     132.202 134.035 135.622  1.00  0.00     0.036 C 
ATOM     11  C   UNL     1     132.168 135.054 136.758  1.00  0.00     0.035 C 
ATOM     12  C   UNL     1     133.078 134.589 132.828  1.00  0.00     0.039 C 
ENDROOT
BRANCH   5  13
ATOM     13  C   UNL     1     137.044 132.802 136.922  1.00  0.00    -0.013 C 
ATOM     14  C   UNL     1     137.855 131.610 136.378  1.00  0.00     0.007 C 
ATOM     15  C   UNL     1     138.016 133.809 137.563  1.00  0.00     0.007 C 
ENDBRANCH   5  13
TORSDOF 1
ENDMDL
MODEL 8
REMARK VINA RESULT:    -5.178      1.874      4.208
REMARK INTER + INTRA:          -5.652
REMARK INTER:                  -5.389
REMARK INTRA:                  -0.263
REMARK UNBOUND:                -0.172
REMARK SMILES CC1=C[C@H]2C(=C(C)CC[C@@H]2C(C)C)CC1
REMARK SMILES IDX 1 1 2 2 3 3 4 4 10 5 9 6 8 7 6 8 5 9 14 10 15 11 7 12 11 13
REMARK SMILES IDX 12 14 13 15
REMARK H PARENT
REMARK Flexibility Score: inf
ROOT
ATOM      1  C   UNL     1     138.252 132.003 135.977  1.00  0.00     0.039 C 
ATOM      2  C   UNL     1     138.429 133.456 136.332  1.00  0.00    -0.076 C 
ATOM      3  C   UNL     1     138.756 134.334 135.357  1.00  0.00    -0.020 C 
ATOM      4  C   UNL     1     138.924 135.834 135.585  1.00  0.00     0.041 C 
ATOM      5  C   UNL     1     140.156 136.390 134.808  1.00  0.00     0.003 C 
ATOM      6  C   UNL     1     140.404 137.842 135.261  1.00  0.00     0.009 C 
ATOM      7  C   UNL     1     140.740 137.888 136.748  1.00  0.00     0.031 C 
ATOM      8  C   UNL     1     139.742 137.140 137.603  1.00  0.00    -0.073 C 
ATOM      9  C   UNL     1     138.952 136.159 137.079  1.00  0.00    -0.064 C 
ATOM     10  C   UNL     1     137.979 135.357 137.917  1.00  0.00     0.036 C 
ATOM     11  C   UNL     1     138.324 133.877 137.780  1.00  0.00     0.035 C 
ATOM     12  C   UNL     1     139.755 137.446 139.083  1.00  0.00     0.039 C 
ENDROOT
BRANCH   5  13
ATOM     13  C   UNL     1     139.995 136.220 133.243  1.00  0.00    -0.013 C 
ATOM     14  C   UNL     1     139.717 137.511 132.448  1.00  0.00     0.007 C 
ATOM     15  C   UNL     1     141.230 135.526 132.640  1.00  0.00     0.007 C 
ENDBRANCH   5  13
TORSDOF 1
ENDMDL
MODEL 9
REMARK VINA RESULT:    -5.157      2.623      4.963
REMARK INTER + INTRA:          -5.630
REMARK INTER:                  -5.367
REMARK INTRA:                  -0.263
REMARK UNBOUND:                -0.172
REMARK SMILES CC1=C[C@H]2C(=C(C)CC[C@@H]2C(C)C)CC1
REMARK SMILES IDX 1 1 2 2 3 3 4 4 10 5 9 6 8 7 6 8 5 9 14 10 15 11 7 12 11 13
REMARK SMILES IDX 12 14 13 15
REMARK H PARENT
REMARK Flexibility Score: inf
ROOT
ATOM      1  C   UNL     1     131.909 134.490 136.196  1.00  0.00     0.039 C 
ATOM      2  C   UNL     1     133.370 134.295 136.505  1.00  0.00    -0.076 C 
ATOM      3  C   UNL     1     134.215 133.970 135.500  1.00  0.00    -0.020 C 
ATOM      4  C   UNL     1     135.719 133.785 135.681  1.00  0.00     0.041 C 
ATOM      5  C   UNL     1     136.239 132.555 134.876  1.00  0.00     0.003 C 
ATOM      6  C   UNL     1     137.702 132.289 135.281  1.00  0.00     0.009 C 
ATOM      7  C   UNL     1     137.789 131.937 136.763  1.00  0.00     0.031 C 
ATOM      8  C   UNL     1     137.078 132.934 137.650  1.00  0.00    -0.073 C 
ATOM      9  C   UNL     1     136.089 133.739 137.164  1.00  0.00    -0.064 C 
ATOM     10  C   UNL     1     135.323 134.711 138.035  1.00  0.00     0.036 C 
ATOM     11  C   UNL     1     133.836 134.381 137.940  1.00  0.00     0.035 C 
ATOM     12  C   UNL     1     137.428 132.902 139.120  1.00  0.00     0.039 C 
ENDROOT
BRANCH   5  13
ATOM     13  C   UNL     1     136.023 132.734 133.317  1.00  0.00    -0.013 C 
ATOM     14  C   UNL     1     137.236 133.253 132.523  1.00  0.00     0.007 C 
ATOM     15  C   UNL     1     135.542 131.417 132.680  1.00  0.00     0.007 C 
ENDBRANCH   5  13
TORSDOF 1
ENDMDL
