MODEL 1
REMARK VINA RESULT:    -4.929      0.000      0.000
REMARK INTER + INTRA:          -9.760
REMARK INTER:                  -8.676
REMARK INTRA:                  -1.084
REMARK UNBOUND:                -1.084
REMARK SMILES CCCCCCCCCCCCCCC(=O)[O-]
REMARK SMILES IDX 9 1 10 2 11 3 12 4 13 5 14 6 15 7 16 8 17 9 8 10 7 11 6 12
REMARK SMILES IDX 5 13 4 14 3 15 2 16 1 17
REMARK H PARENT
REMARK Flexibility Score: inf
ROOT
ATOM      1  C   UNL     1      19.340  27.629  32.588  1.00  0.00     0.000 C 
ENDROOT
BRANCH   1   2
ATOM      2  C   UNL     1      19.364  27.834  31.064  1.00  0.00     0.000 C 
BRANCH   2   3
ATOM      3  C   UNL     1      18.060  28.456  30.532  1.00  0.00     0.000 C 
BRANCH   3   4
ATOM      4  C   UNL     1      18.298  29.735  29.712  1.00  0.00     0.000 C 
BRANCH   4   5
ATOM      5  C   UNL     1      18.356  29.538  28.183  1.00  0.00     0.006 C 
BRANCH   5   6
ATOM      6  C   UNL     1      17.579  28.309  27.679  1.00  0.00     0.053 C 
BRANCH   6   7
ATOM      7  C   UNL     1      18.461  27.322  26.974  1.00  0.00     0.041 C 
ATOM      8  O   UNL     1      18.459  26.111  27.318  1.00  0.00    -0.550 OA
ATOM      9  O   UNL     1      19.256  27.731  25.910  1.00  0.00    -0.550 OA
ENDBRANCH   6   7
ENDBRANCH   5   6
ENDBRANCH   4   5
ENDBRANCH   3   4
ENDBRANCH   2   3
ENDBRANCH   1   2
BRANCH   1  10
ATOM     10  C   UNL     1      18.999  28.921  33.352  1.00  0.00     0.000 C 
BRANCH  10  11
ATOM     11  C   UNL     1      18.205  28.649  34.640  1.00  0.00    -0.000 C 
BRANCH  11  12
ATOM     12  C   UNL     1      17.015  29.609  34.817  1.00  0.00    -0.000 C 
BRANCH  12  13
ATOM     13  C   UNL     1      16.706  30.418  33.545  1.00  0.00    -0.000 C 
BRANCH  13  14
ATOM     14  C   UNL     1      16.914  31.938  33.675  1.00  0.00    -0.000 C 
BRANCH  14  15
ATOM     15  C   UNL     1      16.337  32.511  34.978  1.00  0.00    -0.000 C 
BRANCH  15  16
ATOM     16  C   UNL     1      15.885  33.963  34.786  1.00  0.00    -0.003 C 
ATOM     17  C   UNL     1      15.434  34.215  33.350  1.00  0.00     0.004 C 
ENDBRANCH  15  16
ENDBRANCH  14  15
ENDBRANCH  13  14
ENDBRANCH  12  13
ENDBRANCH  11  12
ENDBRANCH  10  11
ENDBRANCH   1  10
TORSDOF 13
ENDMDL
MODEL 2
REMARK VINA RESULT:    -4.925      3.476      7.381
REMARK INTER + INTRA:          -9.752
REMARK INTER:                  -8.298
REMARK INTRA:                  -1.454
REMARK UNBOUND:                -1.084
REMARK SMILES CCCCCCCCCCCCCCC(=O)[O-]
REMARK SMILES IDX 9 1 10 2 11 3 12 4 13 5 14 6 15 7 16 8 17 9 8 10 7 11 6 12
REMARK SMILES IDX 5 13 4 14 3 15 2 16 1 17
REMARK H PARENT
REMARK Flexibility Score: inf
ROOT
ATOM      1  C   UNL     1      17.875  28.805  31.238  1.00  0.00     0.000 C 
ENDROOT
BRANCH   1   2
ATOM      2  C   UNL     1      19.081  27.977  31.713  1.00  0.00     0.000 C 
BRANCH   2   3
ATOM      3  C   UNL     1      19.710  28.538  33.001  1.00  0.00     0.000 C 
BRANCH   3   4
ATOM      4  C   UNL     1      19.137  27.896  34.276  1.00  0.00     0.000 C 
BRANCH   4   5
ATOM      5  C   UNL     1      18.444  28.869  35.251  1.00  0.00     0.006 C 
BRANCH   5   6
ATOM      6  C   UNL     1      17.112  29.439  34.730  1.00  0.00     0.053 C 
BRANCH   6   7
ATOM      7  C   UNL     1      17.063  30.936  34.797  1.00  0.00     0.041 C 
ATOM      8  O   UNL     1      17.543  31.542  35.791  1.00  0.00    -0.550 OA
ATOM      9  O   UNL     1      16.525  31.665  33.745  1.00  0.00    -0.550 OA
ENDBRANCH   6   7
ENDBRANCH   5   6
ENDBRANCH   4   5
ENDBRANCH   3   4
ENDBRANCH   2   3
ENDBRANCH   1   2
BRANCH   1  10
ATOM     10  C   UNL     1      18.284  30.181  30.685  1.00  0.00     0.000 C 
BRANCH  10  11
ATOM     11  C   UNL     1      19.171  30.071  29.435  1.00  0.00    -0.000 C 
BRANCH  11  12
ATOM     12  C   UNL     1      18.353  29.965  28.135  1.00  0.00    -0.000 C 
BRANCH  12  13
ATOM     13  C   UNL     1      18.708  28.717  27.307  1.00  0.00    -0.000 C 
BRANCH  13  14
ATOM     14  C   UNL     1      17.627  27.620  27.290  1.00  0.00    -0.000 C 
BRANCH  14  15
ATOM     15  C   UNL     1      17.746  26.645  28.472  1.00  0.00    -0.000 C 
BRANCH  15  16
ATOM     16  C   UNL     1      19.083  25.897  28.432  1.00  0.00    -0.003 C 
ATOM     17  C   UNL     1      18.898  24.462  27.946  1.00  0.00     0.004 C 
ENDBRANCH  15  16
ENDBRANCH  14  15
ENDBRANCH  13  14
ENDBRANCH  12  13
ENDBRANCH  11  12
ENDBRANCH  10  11
ENDBRANCH   1  10
TORSDOF 13
ENDMDL
MODEL 3
REMARK VINA RESULT:    -4.906      3.207      6.982
REMARK INTER + INTRA:          -9.719
REMARK INTER:                  -8.174
REMARK INTRA:                  -1.545
REMARK UNBOUND:                -1.084
REMARK SMILES CCCCCCCCCCCCCCC(=O)[O-]
REMARK SMILES IDX 9 1 10 2 11 3 12 4 13 5 14 6 15 7 16 8 17 9 8 10 7 11 6 12
REMARK SMILES IDX 5 13 4 14 3 15 2 16 1 17
REMARK H PARENT
REMARK Flexibility Score: inf
ROOT
ATOM      1  C   UNL     1      19.613  28.418  32.520  1.00  0.00     0.000 C 
ENDROOT
BRANCH   1   2
ATOM      2  C   UNL     1      19.449  27.422  33.680  1.00  0.00     0.000 C 
BRANCH   2   3
ATOM      3  C   UNL     1      19.152  28.120  35.020  1.00  0.00     0.000 C 
BRANCH   3   4
ATOM      4  C   UNL     1      18.571  29.533  34.842  1.00  0.00     0.000 C 
BRANCH   4   5
ATOM      5  C   UNL     1      17.034  29.607  34.742  1.00  0.00     0.006 C 
BRANCH   5   6
ATOM      6  C   UNL     1      16.521  30.346  33.493  1.00  0.00     0.053 C 
BRANCH   6   7
ATOM      7  C   UNL     1      16.864  31.805  33.507  1.00  0.00     0.041 C 
ATOM      8  O   UNL     1      16.467  32.541  34.449  1.00  0.00    -0.550 OA
ATOM      9  O   UNL     1      17.658  32.346  32.503  1.00  0.00    -0.550 OA
ENDBRANCH   6   7
ENDBRANCH   5   6
ENDBRANCH   4   5
ENDBRANCH   3   4
ENDBRANCH   2   3
ENDBRANCH   1   2
BRANCH   1  10
ATOM     10  C   UNL     1      19.182  27.826  31.167  1.00  0.00     0.000 C 
BRANCH  10  11
ATOM     11  C   UNL     1      17.946  28.530  30.585  1.00  0.00    -0.000 C 
BRANCH  11  12
ATOM     12  C   UNL     1      18.306  29.791  29.780  1.00  0.00    -0.000 C 
BRANCH  12  13
ATOM     13  C   UNL     1      18.645  29.485  28.310  1.00  0.00    -0.000 C 
BRANCH  13  14
ATOM     14  C   UNL     1      17.770  28.401  27.654  1.00  0.00    -0.000 C 
BRANCH  14  15
ATOM     15  C   UNL     1      18.579  27.416  26.797  1.00  0.00    -0.000 C 
BRANCH  15  16
ATOM     16  C   UNL     1      19.507  26.564  27.670  1.00  0.00    -0.003 C 
ATOM     17  C   UNL     1      18.738  25.436  28.355  1.00  0.00     0.004 C 
ENDBRANCH  15  16
ENDBRANCH  14  15
ENDBRANCH  13  14
ENDBRANCH  12  13
ENDBRANCH  11  12
ENDBRANCH  10  11
ENDBRANCH   1  10
TORSDOF 13
ENDMDL
MODEL 4
REMARK VINA RESULT:    -4.880      1.099      2.139
REMARK INTER + INTRA:          -9.673
REMARK INTER:                  -8.123
REMARK INTRA:                  -1.550
REMARK UNBOUND:                -1.084
REMARK SMILES CCCCCCCCCCCCCCC(=O)[O-]
REMARK SMILES IDX 9 1 10 2 11 3 12 4 13 5 14 6 15 7 16 8 17 9 8 10 7 11 6 12
REMARK SMILES IDX 5 13 4 14 3 15 2 16 1 17
REMARK H PARENT
REMARK Flexibility Score: inf
ROOT
ATOM      1  C   UNL     1      19.074  27.806  31.249  1.00  0.00     0.000 C 
ENDROOT
BRANCH   1   2
ATOM      2  C   UNL     1      17.934  28.492  30.477  1.00  0.00     0.000 C 
BRANCH   2   3
ATOM      3  C   UNL     1      18.418  29.709  29.669  1.00  0.00     0.000 C 
BRANCH   3   4
ATOM      4  C   UNL     1      18.438  29.451  28.153  1.00  0.00     0.000 C 
BRANCH   4   5
ATOM      5  C   UNL     1      17.612  28.239  27.678  1.00  0.00     0.006 C 
BRANCH   5   6
ATOM      6  C   UNL     1      18.429  27.179  26.918  1.00  0.00     0.053 C 
BRANCH   6   7
ATOM      7  C   UNL     1      19.206  26.286  27.837  1.00  0.00     0.041 C 
ATOM      8  O   UNL     1      20.429  26.501  28.047  1.00  0.00    -0.550 OA
ATOM      9  O   UNL     1      18.572  25.239  28.495  1.00  0.00    -0.550 OA
ENDBRANCH   6   7
ENDBRANCH   5   6
ENDBRANCH   4   5
ENDBRANCH   3   4
ENDBRANCH   2   3
ENDBRANCH   1   2
BRANCH   1  10
ATOM     10  C   UNL     1      19.620  28.676  32.394  1.00  0.00     0.000 C 
BRANCH  10  11
ATOM     11  C   UNL     1      19.934  27.857  33.656  1.00  0.00    -0.000 C 
BRANCH  11  12
ATOM     12  C   UNL     1      18.864  28.021  34.751  1.00  0.00    -0.000 C 
BRANCH  12  13
ATOM     13  C   UNL     1      18.426  29.483  34.944  1.00  0.00    -0.000 C 
BRANCH  13  14
ATOM     14  C   UNL     1      16.910  29.729  34.817  1.00  0.00    -0.000 C 
BRANCH  14  15
ATOM     15  C   UNL     1      16.515  30.344  33.466  1.00  0.00    -0.000 C 
BRANCH  15  16
ATOM     16  C   UNL     1      17.186  31.707  33.268  1.00  0.00    -0.003 C 
ATOM     17  C   UNL     1      16.276  32.843  33.729  1.00  0.00     0.004 C 
ENDBRANCH  15  16
ENDBRANCH  14  15
ENDBRANCH  13  14
ENDBRANCH  12  13
ENDBRANCH  11  12
ENDBRANCH  10  11
ENDBRANCH   1  10
TORSDOF 13
ENDMDL
MODEL 5
REMARK VINA RESULT:    -4.814      1.484      2.495
REMARK INTER + INTRA:          -9.557
REMARK INTER:                  -7.853
REMARK INTRA:                  -1.704
REMARK UNBOUND:                -1.084
REMARK SMILES CCCCCCCCCCCCCCC(=O)[O-]
REMARK SMILES IDX 9 1 10 2 11 3 12 4 13 5 14 6 15 7 16 8 17 9 8 10 7 11 6 12
REMARK SMILES IDX 5 13 4 14 3 15 2 16 1 17
REMARK H PARENT
REMARK Flexibility Score: inf
ROOT
ATOM      1  C   UNL     1      19.208  27.901  34.887  1.00  0.00     0.000 C 
ENDROOT
BRANCH   1   2
ATOM      2  C   UNL     1      19.638  27.222  33.575  1.00  0.00     0.000 C 
BRANCH   2   3
ATOM      3  C   UNL     1      19.796  28.225  32.418  1.00  0.00     0.000 C 
BRANCH   3   4
ATOM      4  C   UNL     1      19.061  27.784  31.140  1.00  0.00     0.000 C 
BRANCH   4   5
ATOM      5  C   UNL     1      17.935  28.726  30.669  1.00  0.00     0.006 C 
BRANCH   5   6
ATOM      6  C   UNL     1      18.435  30.028  30.018  1.00  0.00     0.053 C 
BRANCH   6   7
ATOM      7  C   UNL     1      18.403  29.970  28.521  1.00  0.00     0.041 C 
ATOM      8  O   UNL     1      18.803  30.951  27.840  1.00  0.00    -0.550 OA
ATOM      9  O   UNL     1      17.970  28.819  27.875  1.00  0.00    -0.550 OA
ENDBRANCH   6   7
ENDBRANCH   5   6
ENDBRANCH   4   5
ENDBRANCH   3   4
ENDBRANCH   2   3
ENDBRANCH   1   2
BRANCH   1  10
ATOM     10  C   UNL     1      18.644  29.315  34.663  1.00  0.00     0.000 C 
BRANCH  10  11
ATOM     11  C   UNL     1      17.108  29.347  34.693  1.00  0.00    -0.000 C 
BRANCH  11  12
ATOM     12  C   UNL     1      16.519  30.437  33.780  1.00  0.00    -0.000 C 
BRANCH  12  13
ATOM     13  C   UNL     1      17.583  31.418  33.258  1.00  0.00    -0.000 C 
BRANCH  13  14
ATOM     14  C   UNL     1      17.194  32.906  33.346  1.00  0.00    -0.000 C 
BRANCH  14  15
ATOM     15  C   UNL     1      15.947  33.148  34.209  1.00  0.00    -0.000 C 
BRANCH  15  16
ATOM     16  C   UNL     1      16.338  33.585  35.625  1.00  0.00    -0.003 C 
ATOM     17  C   UNL     1      15.765  32.635  36.674  1.00  0.00     0.004 C 
ENDBRANCH  15  16
ENDBRANCH  14  15
ENDBRANCH  13  14
ENDBRANCH  12  13
ENDBRANCH  11  12
ENDBRANCH  10  11
ENDBRANCH   1  10
TORSDOF 13
ENDMDL
MODEL 6
REMARK VINA RESULT:    -4.787      1.702      3.098
REMARK INTER + INTRA:          -9.510
REMARK INTER:                  -7.990
REMARK INTRA:                  -1.520
REMARK UNBOUND:                -1.084
REMARK SMILES CCCCCCCCCCCCCCC(=O)[O-]
REMARK SMILES IDX 9 1 10 2 11 3 12 4 13 5 14 6 15 7 16 8 17 9 8 10 7 11 6 12
REMARK SMILES IDX 5 13 4 14 3 15 2 16 1 17
REMARK H PARENT
REMARK Flexibility Score: inf
ROOT
ATOM      1  C   UNL     1      18.359  30.388  30.504  1.00  0.00     0.000 C 
ENDROOT
BRANCH   1   2
ATOM      2  C   UNL     1      18.515  30.650  28.997  1.00  0.00     0.000 C 
BRANCH   2   3
ATOM      3  C   UNL     1      18.977  29.400  28.226  1.00  0.00     0.000 C 
BRANCH   3   4
ATOM      4  C   UNL     1      17.923  28.888  27.229  1.00  0.00     0.000 C 
BRANCH   4   5
ATOM      5  C   UNL     1      17.612  27.380  27.314  1.00  0.00     0.006 C 
BRANCH   5   6
ATOM      6  C   UNL     1      17.810  26.776  28.716  1.00  0.00     0.053 C 
BRANCH   6   7
ATOM      7  C   UNL     1      18.889  25.735  28.744  1.00  0.00     0.041 C 
ATOM      8  O   UNL     1      18.829  24.738  27.978  1.00  0.00    -0.550 OA
ATOM      9  O   UNL     1      19.982  25.886  29.588  1.00  0.00    -0.550 OA
ENDBRANCH   6   7
ENDBRANCH   5   6
ENDBRANCH   4   5
ENDBRANCH   3   4
ENDBRANCH   2   3
ENDBRANCH   1   2
BRANCH   1  10
ATOM     10  C   UNL     1      19.306  29.287  31.014  1.00  0.00     0.000 C 
BRANCH  10  11
ATOM     11  C   UNL     1      18.621  28.339  32.010  1.00  0.00    -0.000 C 
BRANCH  11  12
ATOM     12  C   UNL     1      19.626  27.580  32.895  1.00  0.00    -0.000 C 
BRANCH  12  13
ATOM     13  C   UNL     1      19.503  27.944  34.385  1.00  0.00    -0.000 C 
BRANCH  13  14
ATOM     14  C   UNL     1      18.133  28.511  34.804  1.00  0.00    -0.000 C 
BRANCH  14  15
ATOM     15  C   UNL     1      18.196  29.993  35.202  1.00  0.00    -0.000 C 
BRANCH  15  16
ATOM     16  C   UNL     1      16.828  30.663  35.038  1.00  0.00    -0.003 C 
ATOM     17  C   UNL     1      16.729  31.399  33.704  1.00  0.00     0.004 C 
ENDBRANCH  15  16
ENDBRANCH  14  15
ENDBRANCH  13  14
ENDBRANCH  12  13
ENDBRANCH  11  12
ENDBRANCH  10  11
ENDBRANCH   1  10
TORSDOF 13
ENDMDL
MODEL 7
REMARK VINA RESULT:    -4.760      4.065      6.721
REMARK INTER + INTRA:          -9.461
REMARK INTER:                  -7.960
REMARK INTRA:                  -1.501
REMARK UNBOUND:                -1.084
REMARK SMILES CCCCCCCCCCCCCCC(=O)[O-]
REMARK SMILES IDX 9 1 10 2 11 3 12 4 13 5 14 6 15 7 16 8 17 9 8 10 7 11 6 12
REMARK SMILES IDX 5 13 4 14 3 15 2 16 1 17
REMARK H PARENT
REMARK Flexibility Score: inf
ROOT
ATOM      1  C   UNL     1      19.648  28.904  35.285  1.00  0.00     0.000 C 
ENDROOT
BRANCH   1   2
ATOM      2  C   UNL     1      18.489  29.908  35.393  1.00  0.00     0.000 C 
BRANCH   2   3
ATOM      3  C   UNL     1      17.183  29.370  34.781  1.00  0.00     0.000 C 
BRANCH   3   4
ATOM      4  C   UNL     1      16.589  30.310  33.718  1.00  0.00     0.000 C 
BRANCH   4   5
ATOM      5  C   UNL     1      17.248  31.700  33.623  1.00  0.00     0.006 C 
BRANCH   5   6
ATOM      6  C   UNL     1      16.249  32.871  33.649  1.00  0.00     0.053 C 
BRANCH   6   7
ATOM      7  C   UNL     1      16.140  33.502  35.005  1.00  0.00     0.041 C 
ATOM      8  O   UNL     1      15.425  34.525  35.173  1.00  0.00    -0.550 OA
ATOM      9  O   UNL     1      16.795  32.938  36.093  1.00  0.00    -0.550 OA
ENDBRANCH   6   7
ENDBRANCH   5   6
ENDBRANCH   4   5
ENDBRANCH   3   4
ENDBRANCH   2   3
ENDBRANCH   1   2
BRANCH   1  10
ATOM     10  C   UNL     1      19.195  27.533  34.752  1.00  0.00     0.000 C 
BRANCH  10  11
ATOM     11  C   UNL     1      19.893  27.154  33.436  1.00  0.00    -0.000 C 
BRANCH  11  12
ATOM     12  C   UNL     1      19.811  28.270  32.379  1.00  0.00    -0.000 C 
BRANCH  12  13
ATOM     13  C   UNL     1      19.124  27.811  31.080  1.00  0.00    -0.000 C 
BRANCH  13  14
ATOM     14  C   UNL     1      17.966  28.710  30.606  1.00  0.00    -0.000 C 
BRANCH  14  15
ATOM     15  C   UNL     1      18.416  30.142  30.280  1.00  0.00    -0.000 C 
BRANCH  15  16
ATOM     16  C   UNL     1      18.421  30.384  28.767  1.00  0.00    -0.003 C 
ATOM     17  C   UNL     1      18.198  29.083  27.999  1.00  0.00     0.004 C 
ENDBRANCH  15  16
ENDBRANCH  14  15
ENDBRANCH  13  14
ENDBRANCH  12  13
ENDBRANCH  11  12
ENDBRANCH  10  11
ENDBRANCH   1  10
TORSDOF 13
ENDMDL
MODEL 8
REMARK VINA RESULT:    -4.725      2.130      3.743
REMARK INTER + INTRA:          -9.401
REMARK INTER:                  -7.610
REMARK INTRA:                  -1.791
REMARK UNBOUND:                -1.084
REMARK SMILES CCCCCCCCCCCCCCC(=O)[O-]
REMARK SMILES IDX 9 1 10 2 11 3 12 4 13 5 14 6 15 7 16 8 17 9 8 10 7 11 6 12
REMARK SMILES IDX 5 13 4 14 3 15 2 16 1 17
REMARK H PARENT
REMARK Flexibility Score: inf
ROOT
ATOM      1  C   UNL     1      19.024  30.808  30.495  1.00  0.00     0.000 C 
ENDROOT
BRANCH   1   2
ATOM      2  C   UNL     1      18.363  31.711  29.441  1.00  0.00     0.000 C 
BRANCH   2   3
ATOM      3  C   UNL     1      18.703  31.283  28.002  1.00  0.00     0.000 C 
BRANCH   3   4
ATOM      4  C   UNL     1      19.660  30.080  27.946  1.00  0.00     0.000 C 
BRANCH   4   5
ATOM      5  C   UNL     1      19.364  29.052  26.835  1.00  0.00     0.006 C 
BRANCH   5   6
ATOM      6  C   UNL     1      18.396  27.933  27.257  1.00  0.00     0.053 C 
BRANCH   6   7
ATOM      7  C   UNL     1      19.112  26.714  27.757  1.00  0.00     0.041 C 
ATOM      8  O   UNL     1      20.363  26.626  27.654  1.00  0.00    -0.550 OA
ATOM      9  O   UNL     1      18.402  25.691  28.375  1.00  0.00    -0.550 OA
ENDBRANCH   6   7
ENDBRANCH   5   6
ENDBRANCH   4   5
ENDBRANCH   3   4
ENDBRANCH   2   3
ENDBRANCH   1   2
BRANCH   1  10
ATOM     10  C   UNL     1      18.005  29.937  31.251  1.00  0.00     0.000 C 
BRANCH  10  11
ATOM     11  C   UNL     1      18.122  28.448  30.887  1.00  0.00    -0.000 C 
BRANCH  11  12
ATOM     12  C   UNL     1      19.508  27.864  31.214  1.00  0.00    -0.000 C 
BRANCH  12  13
ATOM     13  C   UNL     1      19.539  27.117  32.559  1.00  0.00    -0.000 C 
BRANCH  13  14
ATOM     14  C   UNL     1      20.008  27.960  33.759  1.00  0.00    -0.000 C 
BRANCH  14  15
ATOM     15  C   UNL     1      18.920  28.135  34.830  1.00  0.00    -0.000 C 
BRANCH  15  16
ATOM     16  C   UNL     1      18.453  29.592  34.904  1.00  0.00    -0.003 C 
ATOM     17  C   UNL     1      16.932  29.690  34.821  1.00  0.00     0.004 C 
ENDBRANCH  15  16
ENDBRANCH  14  15
ENDBRANCH  13  14
ENDBRANCH  12  13
ENDBRANCH  11  12
ENDBRANCH  10  11
ENDBRANCH   1  10
TORSDOF 13
ENDMDL
MODEL 9
REMARK VINA RESULT:    -4.650      3.450      6.501
REMARK INTER + INTRA:          -9.268
REMARK INTER:                  -7.759
REMARK INTRA:                  -1.509
REMARK UNBOUND:                -1.084
REMARK SMILES CCCCCCCCCCCCCCC(=O)[O-]
REMARK SMILES IDX 9 1 10 2 11 3 12 4 13 5 14 6 15 7 16 8 17 9 8 10 7 11 6 12
REMARK SMILES IDX 5 13 4 14 3 15 2 16 1 17
REMARK H PARENT
REMARK Flexibility Score: inf
ROOT
ATOM      1  C   UNL     1      19.618  27.342  30.915  1.00  0.00     0.000 C 
ENDROOT
BRANCH   1   2
ATOM      2  C   UNL     1      19.479  27.408  32.445  1.00  0.00     0.000 C 
BRANCH   2   3
ATOM      3  C   UNL     1      18.822  28.717  32.921  1.00  0.00     0.000 C 
BRANCH   3   4
ATOM      4  C   UNL     1      18.384  28.665  34.395  1.00  0.00     0.000 C 
BRANCH   4   5
ATOM      5  C   UNL     1      17.133  29.497  34.741  1.00  0.00     0.006 C 
BRANCH   5   6
ATOM      6  C   UNL     1      16.735  30.513  33.657  1.00  0.00     0.053 C 
BRANCH   6   7
ATOM      7  C   UNL     1      17.032  31.927  34.058  1.00  0.00     0.041 C 
ATOM      8  O   UNL     1      16.124  32.653  34.542  1.00  0.00    -0.550 OA
ATOM      9  O   UNL     1      18.320  32.432  33.935  1.00  0.00    -0.550 OA
ENDBRANCH   6   7
ENDBRANCH   5   6
ENDBRANCH   4   5
ENDBRANCH   3   4
ENDBRANCH   2   3
ENDBRANCH   1   2
BRANCH   1  10
ATOM     10  C   UNL     1      18.319  27.730  30.186  1.00  0.00     0.000 C 
BRANCH  10  11
ATOM     11  C   UNL     1      18.184  27.039  28.820  1.00  0.00    -0.000 C 
BRANCH  11  12
ATOM     12  C   UNL     1      17.853  28.025  27.686  1.00  0.00    -0.000 C 
BRANCH  12  13
ATOM     13  C   UNL     1      19.101  28.486  26.912  1.00  0.00    -0.000 C 
BRANCH  13  14
ATOM     14  C   UNL     1      19.521  29.946  27.168  1.00  0.00    -0.000 C 
BRANCH  14  15
ATOM     15  C   UNL     1      18.597  30.669  28.160  1.00  0.00    -0.000 C 
BRANCH  15  16
ATOM     16  C   UNL     1      19.368  31.098  29.413  1.00  0.00    -0.003 C 
ATOM     17  C   UNL     1      18.426  31.663  30.473  1.00  0.00     0.004 C 
ENDBRANCH  15  16
ENDBRANCH  14  15
ENDBRANCH  13  14
ENDBRANCH  12  13
ENDBRANCH  11  12
ENDBRANCH  10  11
ENDBRANCH   1  10
TORSDOF 13
ENDMDL
