MODEL 1
REMARK VINA RESULT:    -3.933      0.000      0.000
REMARK INTER + INTRA:          -4.417
REMARK INTER:                  -4.163
REMARK INTRA:                  -0.254
REMARK UNBOUND:                -0.254
REMARK SMILES C=C(C)[C@H]1CC=C(C)CC1
REMARK SMILES IDX 8 1 7 2 6 3 5 4 4 5 10 6 9 7 2 8 1 9 3 10
REMARK H PARENT
REMARK Flexibility Score: inf
ROOT
ATOM      1  C   UNL     1       1.446  -9.889   4.874  1.00  0.00     0.039 C 
ATOM      2  C   UNL     1       0.168  -9.134   5.116  1.00  0.00    -0.077 C 
ATOM      3  C   UNL     1       0.134  -7.808   4.871  1.00  0.00    -0.027 C 
ATOM      4  C   UNL     1      -1.101  -6.957   5.060  1.00  0.00     0.035 C 
ATOM      5  C   UNL     1      -2.224  -7.639   5.875  1.00  0.00     0.018 C 
ATOM      6  C   UNL     1      -2.331  -9.126   5.506  1.00  0.00     0.013 C 
ATOM      7  C   UNL     1      -1.005  -9.856   5.741  1.00  0.00     0.031 C 
ENDROOT
BRANCH   5   8
ATOM      8  C   UNL     1      -2.123  -7.441   7.389  1.00  0.00    -0.077 C 
ATOM      9  C   UNL     1      -1.386  -6.423   7.865  1.00  0.00     0.008 C 
ATOM     10  C   UNL     1      -2.852  -8.310   8.388  1.00  0.00     0.039 C 
ENDBRANCH   5   8
TORSDOF 1
ENDMDL
MODEL 2
REMARK VINA RESULT:    -3.786      1.364      3.054
REMARK INTER + INTRA:          -4.261
REMARK INTER:                  -4.006
REMARK INTRA:                  -0.255
REMARK UNBOUND:                -0.254
REMARK SMILES C=C(C)[C@H]1CC=C(C)CC1
REMARK SMILES IDX 8 1 7 2 6 3 5 4 4 5 10 6 9 7 2 8 1 9 3 10
REMARK H PARENT
REMARK Flexibility Score: inf
ROOT
ATOM      1  C   UNL     1       1.386  -9.578   4.855  1.00  0.00     0.039 C 
ATOM      2  C   UNL     1       0.022  -9.119   5.293  1.00  0.00    -0.077 C 
ATOM      3  C   UNL     1      -0.692  -9.895   6.135  1.00  0.00    -0.027 C 
ATOM      4  C   UNL     1      -2.063  -9.521   6.653  1.00  0.00     0.035 C 
ATOM      5  C   UNL     1      -2.734  -8.357   5.888  1.00  0.00     0.018 C 
ATOM      6  C   UNL     1      -1.700  -7.281   5.526  1.00  0.00     0.013 C 
ATOM      7  C   UNL     1      -0.561  -7.864   4.683  1.00  0.00     0.031 C 
ENDROOT
BRANCH   5   8
ATOM      8  C   UNL     1      -3.554  -8.784   4.669  1.00  0.00    -0.077 C 
ATOM      9  C   UNL     1      -3.959 -10.062   4.572  1.00  0.00     0.008 C 
ATOM     10  C   UNL     1      -3.974  -7.827   3.577  1.00  0.00     0.039 C 
ENDBRANCH   5   8
TORSDOF 1
ENDMDL
MODEL 3
REMARK VINA RESULT:    -3.640      1.005      3.840
REMARK INTER + INTRA:          -4.107
REMARK INTER:                  -3.826
REMARK INTRA:                  -0.281
REMARK UNBOUND:                -0.254
REMARK SMILES C=C(C)[C@H]1CC=C(C)CC1
REMARK SMILES IDX 8 1 7 2 6 3 5 4 4 5 10 6 9 7 2 8 1 9 3 10
REMARK H PARENT
REMARK Flexibility Score: inf
ROOT
ATOM      1  C   UNL     1      -3.477  -7.044   8.331  1.00  0.00     0.039 C 
ATOM      2  C   UNL     1      -2.736  -7.291   7.046  1.00  0.00    -0.077 C 
ATOM      3  C   UNL     1      -3.342  -7.989   6.064  1.00  0.00    -0.027 C 
ATOM      4  C   UNL     1      -2.697  -8.278   4.727  1.00  0.00     0.035 C 
ATOM      5  C   UNL     1      -1.174  -8.016   4.686  1.00  0.00     0.018 C 
ATOM      6  C   UNL     1      -0.823  -6.750   5.482  1.00  0.00     0.013 C 
ATOM      7  C   UNL     1      -1.291  -6.858   6.936  1.00  0.00     0.031 C 
ENDROOT
BRANCH   5   8
ATOM      8  C   UNL     1      -0.311  -9.206   5.112  1.00  0.00    -0.077 C 
ATOM      9  C   UNL     1       1.027  -9.081   5.086  1.00  0.00     0.008 C 
ATOM     10  C   UNL     1      -0.887 -10.511   5.608  1.00  0.00     0.039 C 
ENDBRANCH   5   8
TORSDOF 1
ENDMDL
MODEL 4
REMARK VINA RESULT:    -3.489      1.383      3.534
REMARK INTER + INTRA:          -3.947
REMARK INTER:                  -3.671
REMARK INTRA:                  -0.276
REMARK UNBOUND:                -0.254
REMARK SMILES C=C(C)[C@H]1CC=C(C)CC1
REMARK SMILES IDX 8 1 7 2 6 3 5 4 4 5 10 6 9 7 2 8 1 9 3 10
REMARK H PARENT
REMARK Flexibility Score: inf
ROOT
ATOM      1  C   UNL     1      -1.521  -5.903   8.034  1.00  0.00     0.039 C 
ATOM      2  C   UNL     1      -1.527  -7.078   7.094  1.00  0.00    -0.077 C 
ATOM      3  C   UNL     1      -0.999  -6.933   5.861  1.00  0.00    -0.027 C 
ATOM      4  C   UNL     1      -0.937  -8.052   4.846  1.00  0.00     0.035 C 
ATOM      5  C   UNL     1      -1.822  -9.271   5.188  1.00  0.00     0.018 C 
ATOM      6  C   UNL     1      -1.780  -9.562   6.696  1.00  0.00     0.013 C 
ATOM      7  C   UNL     1      -2.234  -8.348   7.512  1.00  0.00     0.031 C 
ENDROOT
BRANCH   5   8
ATOM      8  C   UNL     1      -3.260  -9.180   4.673  1.00  0.00    -0.077 C 
ATOM      9  C   UNL     1      -4.080 -10.231   4.845  1.00  0.00     0.008 C 
ATOM     10  C   UNL     1      -3.827  -7.944   4.015  1.00  0.00     0.039 C 
ENDBRANCH   5   8
TORSDOF 1
ENDMDL
MODEL 5
REMARK VINA RESULT:    -3.481      1.946      3.787
REMARK INTER + INTRA:          -3.939
REMARK INTER:                  -3.680
REMARK INTRA:                  -0.259
REMARK UNBOUND:                -0.254
REMARK SMILES C=C(C)[C@H]1CC=C(C)CC1
REMARK SMILES IDX 8 1 7 2 6 3 5 4 4 5 10 6 9 7 2 8 1 9 3 10
REMARK H PARENT
REMARK Flexibility Score: inf
ROOT
ATOM      1  C   UNL     1      -5.008  -7.516   2.719  1.00  0.00     0.039 C 
ATOM      2  C   UNL     1      -4.146  -7.804   3.918  1.00  0.00    -0.077 C 
ATOM      3  C   UNL     1      -3.601  -6.773   4.596  1.00  0.00    -0.027 C 
ATOM      4  C   UNL     1      -2.737  -6.949   5.825  1.00  0.00     0.035 C 
ATOM      5  C   UNL     1      -2.239  -8.395   6.050  1.00  0.00     0.018 C 
ATOM      6  C   UNL     1      -3.343  -9.405   5.704  1.00  0.00     0.013 C 
ATOM      7  C   UNL     1      -3.815  -9.241   4.256  1.00  0.00     0.031 C 
ENDROOT
BRANCH   5   8
ATOM      8  C   UNL     1      -0.924  -8.734   5.346  1.00  0.00    -0.077 C 
ATOM      9  C   UNL     1      -0.205  -7.741   4.798  1.00  0.00     0.008 C 
ATOM     10  C   UNL     1      -0.363 -10.135   5.271  1.00  0.00     0.039 C 
ENDBRANCH   5   8
TORSDOF 1
ENDMDL
MODEL 6
REMARK VINA RESULT:    -3.413      4.495      6.984
REMARK INTER + INTRA:          -3.866
REMARK INTER:                  -3.597
REMARK INTRA:                  -0.269
REMARK UNBOUND:                -0.254
REMARK SMILES C=C(C)[C@H]1CC=C(C)CC1
REMARK SMILES IDX 8 1 7 2 6 3 5 4 4 5 10 6 9 7 2 8 1 9 3 10
REMARK H PARENT
REMARK Flexibility Score: inf
ROOT
ATOM      1  C   UNL     1      -1.180  -6.031   9.278  1.00  0.00     0.039 C 
ATOM      2  C   UNL     1      -1.510  -4.632   9.722  1.00  0.00    -0.077 C 
ATOM      3  C   UNL     1      -2.645  -4.416  10.417  1.00  0.00    -0.027 C 
ATOM      4  C   UNL     1      -3.063  -3.055  10.928  1.00  0.00     0.035 C 
ATOM      5  C   UNL     1      -2.278  -1.876  10.308  1.00  0.00     0.018 C 
ATOM      6  C   UNL     1      -0.796  -2.242  10.141  1.00  0.00     0.013 C 
ATOM      7  C   UNL     1      -0.624  -3.491   9.272  1.00  0.00     0.031 C 
ENDROOT
BRANCH   5   8
ATOM      8  C   UNL     1      -2.872  -1.327   9.009  1.00  0.00    -0.077 C 
ATOM      9  C   UNL     1      -2.343  -0.215   8.471  1.00  0.00     0.008 C 
ATOM     10  C   UNL     1      -4.003  -2.000   8.267  1.00  0.00     0.039 C 
ENDBRANCH   5   8
TORSDOF 1
ENDMDL
MODEL 7
REMARK VINA RESULT:    -3.321      9.975     11.378
REMARK INTER + INTRA:          -3.769
REMARK INTER:                  -3.492
REMARK INTRA:                  -0.278
REMARK UNBOUND:                -0.254
REMARK SMILES C=C(C)[C@H]1CC=C(C)CC1
REMARK SMILES IDX 8 1 7 2 6 3 5 4 4 5 10 6 9 7 2 8 1 9 3 10
REMARK H PARENT
REMARK Flexibility Score: inf
ROOT
ATOM      1  C   UNL     1       4.165  -4.601  -1.260  1.00  0.00     0.039 C 
ATOM      2  C   UNL     1       5.386  -3.826  -0.847  1.00  0.00    -0.077 C 
ATOM      3  C   UNL     1       6.589  -4.187  -1.340  1.00  0.00    -0.027 C 
ATOM      4  C   UNL     1       7.876  -3.466  -1.008  1.00  0.00     0.035 C 
ATOM      5  C   UNL     1       7.772  -2.505   0.198  1.00  0.00     0.018 C 
ATOM      6  C   UNL     1       6.427  -1.764   0.184  1.00  0.00     0.013 C 
ATOM      7  C   UNL     1       5.250  -2.745   0.202  1.00  0.00     0.031 C 
ENDROOT
BRANCH   5   8
ATOM      8  C   UNL     1       8.043  -3.155   1.557  1.00  0.00    -0.077 C 
ATOM      9  C   UNL     1       8.025  -2.387   2.660  1.00  0.00     0.008 C 
ATOM     10  C   UNL     1       8.287  -4.635   1.732  1.00  0.00     0.039 C 
ENDBRANCH   5   8
TORSDOF 1
ENDMDL
MODEL 8
REMARK VINA RESULT:    -3.173     12.386     13.767
REMARK INTER + INTRA:          -3.612
REMARK INTER:                  -3.331
REMARK INTRA:                  -0.280
REMARK UNBOUND:                -0.254
REMARK SMILES C=C(C)[C@H]1CC=C(C)CC1
REMARK SMILES IDX 8 1 7 2 6 3 5 4 4 5 10 6 9 7 2 8 1 9 3 10
REMARK H PARENT
REMARK Flexibility Score: inf
ROOT
ATOM      1  C   UNL     1       2.916 -10.391  -5.999  1.00  0.00     0.039 C 
ATOM      2  C   UNL     1       4.190  -9.986  -5.308  1.00  0.00    -0.077 C 
ATOM      3  C   UNL     1       4.334  -8.710  -4.894  1.00  0.00    -0.027 C 
ATOM      4  C   UNL     1       5.562  -8.202  -4.173  1.00  0.00     0.035 C 
ATOM      5  C   UNL     1       6.780  -9.151  -4.246  1.00  0.00     0.018 C 
ATOM      6  C   UNL     1       6.331 -10.615  -4.118  1.00  0.00     0.013 C 
ATOM      7  C   UNL     1       5.320 -10.986  -5.208  1.00  0.00     0.031 C 
ENDROOT
BRANCH   5   8
ATOM      8  C   UNL     1       7.679  -8.943  -5.467  1.00  0.00    -0.077 C 
ATOM      9  C   UNL     1       8.764  -9.722  -5.616  1.00  0.00     0.008 C 
ATOM     10  C   UNL     1       7.386  -7.928  -6.547  1.00  0.00     0.039 C 
ENDBRANCH   5   8
TORSDOF 1
ENDMDL
MODEL 9
REMARK VINA RESULT:    -3.153      9.776     11.660
REMARK INTER + INTRA:          -3.591
REMARK INTER:                  -3.330
REMARK INTRA:                  -0.261
REMARK UNBOUND:                -0.254
REMARK SMILES C=C(C)[C@H]1CC=C(C)CC1
REMARK SMILES IDX 8 1 7 2 6 3 5 4 4 5 10 6 9 7 2 8 1 9 3 10
REMARK H PARENT
REMARK Flexibility Score: inf
ROOT
ATOM      1  C   UNL     1       8.880  -4.191   1.295  1.00  0.00     0.039 C 
ATOM      2  C   UNL     1       7.893  -3.773   0.239  1.00  0.00    -0.077 C 
ATOM      3  C   UNL     1       6.759  -3.146   0.613  1.00  0.00    -0.027 C 
ATOM      4  C   UNL     1       5.710  -2.667  -0.366  1.00  0.00     0.035 C 
ATOM      5  C   UNL     1       5.861  -3.245  -1.792  1.00  0.00     0.018 C 
ATOM      6  C   UNL     1       7.343  -3.324  -2.189  1.00  0.00     0.013 C 
ATOM      7  C   UNL     1       8.141  -4.176  -1.198  1.00  0.00     0.031 C 
ENDROOT
BRANCH   5   8
ATOM      8  C   UNL     1       5.147  -4.579  -2.018  1.00  0.00    -0.077 C 
ATOM      9  C   UNL     1       4.254  -5.002  -1.107  1.00  0.00     0.008 C 
ATOM     10  C   UNL     1       5.360  -5.435  -3.245  1.00  0.00     0.039 C 
ENDBRANCH   5   8
TORSDOF 1
ENDMDL
