MODEL 1
REMARK VINA RESULT:    -3.124      0.000      0.000
REMARK INTER + INTRA:          -4.309
REMARK INTER:                  -4.586
REMARK INTRA:                   0.276
REMARK UNBOUND:                 0.276
REMARK SMILES C=C1CC=CC(C)(C)CC=C(C)CCC1
REMARK SMILES IDX 2 1 1 2 15 3 14 4 13 5 11 6 12 7 10 8 3 10 4 11 5 12 6 13
REMARK SMILES IDX 7 14 8 15 9 16
REMARK H PARENT
REMARK Flexibility Score: 60.00
ROOT
ATOM      1  C   UNL     1     133.414 135.463 131.486  1.00  0.00    -0.074 C 
ATOM      2  C   UNL     1     132.602 136.494 131.777  1.00  0.00     0.008 C 
ENDROOT
BRANCH   1   3
ATOM      3  C   UNL     1     133.257 134.747 130.153  1.00  0.00     0.031 C 
BRANCH   3   4
ATOM      4  C   UNL     1     133.443 135.669 128.937  1.00  0.00     0.009 C 
BRANCH   4   5
ATOM      5  C   UNL     1     134.906 135.775 128.462  1.00  0.00     0.030 C 
BRANCH   5   6
ATOM      6  C   UNL     1     135.609 136.963 129.102  1.00  0.00    -0.077 C 
ATOM      7  C   UNL     1     134.960 138.320 129.020  1.00  0.00     0.039 C 
ATOM      8  C   UNL     1     136.784 136.855 129.769  1.00  0.00    -0.027 CG0
ATOM      9  G   UNL     1     137.583 135.577 129.908  1.00  0.00     0.000 G0
ENDBRANCH   5   6
ENDBRANCH   4   5
ENDBRANCH   3   4
ENDBRANCH   1   3
BRANCH   1  10
ATOM     10  C   UNL     1     134.601 135.130 132.378  1.00  0.00     0.057 C 
BRANCH  10  11
ATOM     11  C   UNL     1     135.418 133.921 131.951  1.00  0.00    -0.026 C 
ATOM     12  C   UNL     1     136.712 133.860 131.549  1.00  0.00    -0.024 C 
BRANCH  12  13
ATOM     13  C   UNL     1     137.721 135.001 131.350  1.00  0.00    -0.014 C 
ATOM     14  C   UNL     1     139.142 134.404 131.504  1.00  0.00     0.016 C 
ATOM     15  C   UNL     1     137.562 136.072 132.458  1.00  0.00     0.016 C 
BRANCH  13  16
ATOM     16  C   UNL     1     137.589 135.568 129.904  1.00  0.00     0.038 CG0
ATOM     17  G   UNL     1     136.800 136.855 129.794  1.00  0.00     0.000 G0
ENDBRANCH  13  16
ENDBRANCH  12  13
ENDBRANCH  10  11
ENDBRANCH   1  10
TORSDOF 0
ENDMDL
MODEL 2
REMARK VINA RESULT:    -3.069      2.797      4.419
REMARK INTER + INTRA:          -4.228
REMARK INTER:                  -4.711
REMARK INTRA:                   0.483
REMARK UNBOUND:                 0.276
REMARK SMILES C=C1CC=CC(C)(C)CC=C(C)CCC1
REMARK SMILES IDX 2 1 1 2 15 3 14 4 13 5 11 6 12 7 10 8 3 10 4 11 5 12 6 13
REMARK SMILES IDX 7 14 8 15 9 16
REMARK H PARENT
REMARK Flexibility Score: 60.00
ROOT
ATOM      1  C   UNL     1     136.359 140.096 132.115  1.00  0.00    -0.074 C 
ATOM      2  C   UNL     1     135.733 140.895 131.233  1.00  0.00     0.008 C 
ENDROOT
BRANCH   1   3
ATOM      3  C   UNL     1     135.531 139.254 133.073  1.00  0.00     0.031 C 
BRANCH   3   4
ATOM      4  C   UNL     1     134.563 138.293 132.364  1.00  0.00     0.009 C 
BRANCH   4   5
ATOM      5  C   UNL     1     135.257 137.064 131.744  1.00  0.00     0.030 C 
BRANCH   5   6
ATOM      6  C   UNL     1     135.941 136.221 132.811  1.00  0.00    -0.077 C 
ATOM      7  C   UNL     1     135.105 135.629 133.914  1.00  0.00     0.039 C 
ATOM      8  C   UNL     1     137.271 135.953 132.801  1.00  0.00    -0.027 CG0
ATOM      9  G   UNL     1     138.254 136.503 131.790  1.00  0.00     0.000 G0
ENDBRANCH   5   6
ENDBRANCH   4   5
ENDBRANCH   3   4
ENDBRANCH   1   3
BRANCH   1  10
ATOM     10  C   UNL     1     137.864 139.880 132.039  1.00  0.00     0.057 C 
BRANCH  10  11
ATOM     11  C   UNL     1     138.501 139.290 133.286  1.00  0.00    -0.026 C 
ATOM     12  C   UNL     1     139.231 138.154 133.420  1.00  0.00    -0.024 C 
BRANCH  12  13
ATOM     13  C   UNL     1     139.582 137.096 132.363  1.00  0.00    -0.014 C 
ATOM     14  C   UNL     1     140.365 135.963 133.074  1.00  0.00     0.016 C 
ATOM     15  C   UNL     1     140.528 137.688 131.289  1.00  0.00     0.016 C 
BRANCH  13  16
ATOM     16  C   UNL     1     138.272 136.485 131.780  1.00  0.00     0.038 CG0
ATOM     17  G   UNL     1     137.293 135.973 132.815  1.00  0.00     0.000 G0
ENDBRANCH  13  16
ENDBRANCH  12  13
ENDBRANCH  10  11
ENDBRANCH   1  10
TORSDOF 0
ENDMDL
MODEL 3
REMARK VINA RESULT:    -3.061      3.023      5.002
REMARK INTER + INTRA:          -4.217
REMARK INTER:                  -4.512
REMARK INTRA:                   0.295
REMARK UNBOUND:                 0.276
REMARK SMILES C=C1CC=CC(C)(C)CC=C(C)CCC1
REMARK SMILES IDX 2 1 1 2 15 3 14 4 13 5 11 6 12 7 10 8 3 10 4 11 5 12 6 13
REMARK SMILES IDX 7 14 8 15 9 16
REMARK H PARENT
REMARK Flexibility Score: 60.00
ROOT
ATOM      1  C   UNL     1     137.351 140.344 132.193  1.00  0.00    -0.074 C 
ATOM      2  C   UNL     1     136.323 140.996 131.623  1.00  0.00     0.008 C 
ENDROOT
BRANCH   1   3
ATOM      3  C   UNL     1     137.479 140.338 133.709  1.00  0.00     0.031 C 
BRANCH   3   4
ATOM      4  C   UNL     1     136.255 139.745 134.425  1.00  0.00     0.009 C 
BRANCH   4   5
ATOM      5  C   UNL     1     136.383 138.236 134.717  1.00  0.00     0.030 C 
BRANCH   5   6
ATOM      6  C   UNL     1     135.765 137.404 133.603  1.00  0.00    -0.077 C 
ATOM      7  C   UNL     1     134.332 137.660 133.215  1.00  0.00     0.039 C 
ATOM      8  C   UNL     1     136.454 136.456 132.920  1.00  0.00    -0.027 CG0
ATOM      9  G   UNL     1     137.883 136.050 133.211  1.00  0.00     0.000 G0
ENDBRANCH   5   6
ENDBRANCH   4   5
ENDBRANCH   3   4
ENDBRANCH   1   3
BRANCH   1  10
ATOM     10  C   UNL     1     138.269 139.459 131.362  1.00  0.00     0.057 C 
BRANCH  10  11
ATOM     11  C   UNL     1     139.450 138.863 132.110  1.00  0.00    -0.026 C 
ATOM     12  C   UNL     1     139.729 137.561 132.372  1.00  0.00    -0.024 C 
BRANCH  12  13
ATOM     13  C   UNL     1     138.906 136.306 132.043  1.00  0.00    -0.014 C 
ATOM     14  C   UNL     1     139.887 135.109 131.961  1.00  0.00     0.016 C 
ATOM     15  C   UNL     1     138.242 136.438 130.649  1.00  0.00     0.016 C 
BRANCH  13  16
ATOM     16  C   UNL     1     137.897 136.027 133.197  1.00  0.00     0.038 CG0
ATOM     17  G   UNL     1     136.474 136.460 132.918  1.00  0.00     0.000 G0
ENDBRANCH  13  16
ENDBRANCH  12  13
ENDBRANCH  10  11
ENDBRANCH   1  10
TORSDOF 0
ENDMDL
MODEL 4
REMARK VINA RESULT:    -3.027      1.773      2.422
REMARK INTER + INTRA:          -4.167
REMARK INTER:                  -4.705
REMARK INTRA:                   0.538
REMARK UNBOUND:                 0.276
REMARK SMILES C=C1CC=CC(C)(C)CC=C(C)CCC1
REMARK SMILES IDX 2 1 1 2 15 3 14 4 13 5 11 6 12 7 10 8 3 10 4 11 5 12 6 13
REMARK SMILES IDX 7 14 8 15 9 16
REMARK H PARENT
REMARK Flexibility Score: 60.00
ROOT
ATOM      1  C   UNL     1     133.487 136.368 131.869  1.00  0.00    -0.074 C 
ATOM      2  C   UNL     1     132.691 135.893 130.895  1.00  0.00     0.008 C 
ENDROOT
BRANCH   1   3
ATOM      3  C   UNL     1     133.131 137.682 132.546  1.00  0.00     0.031 C 
BRANCH   3   4
ATOM      4  C   UNL     1     134.291 138.690 132.577  1.00  0.00     0.009 C 
BRANCH   4   5
ATOM      5  C   UNL     1     135.063 138.783 131.245  1.00  0.00     0.030 C 
BRANCH   5   6
ATOM      6  C   UNL     1     136.560 138.912 131.483  1.00  0.00    -0.077 C 
ATOM      7  C   UNL     1     137.076 140.122 132.217  1.00  0.00     0.039 C 
ATOM      8  C   UNL     1     137.455 137.973 131.088  1.00  0.00    -0.027 CG0
ATOM      9  G   UNL     1     137.107 136.724 130.307  1.00  0.00     0.000 G0
ENDBRANCH   5   6
ENDBRANCH   4   5
ENDBRANCH   3   4
ENDBRANCH   1   3
BRANCH   1  10
ATOM     10  C   UNL     1     134.620 135.521 132.431  1.00  0.00     0.057 C 
BRANCH  10  11
ATOM     11  C   UNL     1     135.163 134.455 131.493  1.00  0.00    -0.026 C 
ATOM     12  C   UNL     1     136.378 134.380 130.893  1.00  0.00    -0.024 C 
BRANCH  12  13
ATOM     13  C   UNL     1     137.545 135.377 130.936  1.00  0.00    -0.014 C 
ATOM     14  C   UNL     1     138.696 134.791 130.080  1.00  0.00     0.016 C 
ATOM     15  C   UNL     1     138.089 135.522 132.380  1.00  0.00     0.016 C 
BRANCH  13  16
ATOM     16  C   UNL     1     137.103 136.726 130.293  1.00  0.00     0.038 CG0
ATOM     17  G   UNL     1     137.465 137.961 131.090  1.00  0.00     0.000 G0
ENDBRANCH  13  16
ENDBRANCH  12  13
ENDBRANCH  10  11
ENDBRANCH   1  10
TORSDOF 0
ENDMDL
MODEL 5
REMARK VINA RESULT:    -3.006      1.598      4.199
REMARK INTER + INTRA:          -4.135
REMARK INTER:                  -4.429
REMARK INTRA:                   0.294
REMARK UNBOUND:                 0.276
REMARK SMILES C=C1CC=CC(C)(C)CC=C(C)CCC1
REMARK SMILES IDX 2 1 1 2 15 3 14 4 13 5 11 6 12 7 10 8 3 10 4 11 5 12 6 13
REMARK SMILES IDX 7 14 8 15 9 16
REMARK H PARENT
REMARK Flexibility Score: 60.00
ROOT
ATOM      1  C   UNL     1     137.511 133.433 131.506  1.00  0.00    -0.074 C 
ATOM      2  C   UNL     1     138.067 132.572 130.635  1.00  0.00     0.008 C 
ENDROOT
BRANCH   1   3
ATOM      3  C   UNL     1     138.411 134.251 132.420  1.00  0.00     0.031 C 
BRANCH   3   4
ATOM      4  C   UNL     1     139.320 135.234 131.665  1.00  0.00     0.009 C 
BRANCH   4   5
ATOM      5  C   UNL     1     138.799 136.686 131.674  1.00  0.00     0.030 C 
BRANCH   5   6
ATOM      6  C   UNL     1     137.836 136.934 130.522  1.00  0.00    -0.077 C 
ATOM      7  C   UNL     1     138.356 136.851 129.111  1.00  0.00     0.039 C 
ATOM      8  C   UNL     1     136.519 137.200 130.704  1.00  0.00    -0.027 CG0
ATOM      9  G   UNL     1     135.849 137.358 132.053  1.00  0.00     0.000 G0
ENDBRANCH   5   6
ENDBRANCH   4   5
ENDBRANCH   3   4
ENDBRANCH   1   3
BRANCH   1  10
ATOM     10  C   UNL     1     136.021 133.739 131.456  1.00  0.00     0.057 C 
BRANCH  10  11
ATOM     11  C   UNL     1     135.400 134.167 132.775  1.00  0.00    -0.026 C 
ATOM     12  C   UNL     1     134.748 135.316 133.082  1.00  0.00    -0.024 C 
BRANCH  12  13
ATOM     13  C   UNL     1     134.494 136.552 132.206  1.00  0.00    -0.014 C 
ATOM     14  C   UNL     1     133.469 137.450 132.945  1.00  0.00     0.016 C 
ATOM     15  C   UNL     1     133.844 136.144 130.860  1.00  0.00     0.016 C 
BRANCH  13  16
ATOM     16  C   UNL     1     135.817 137.359 132.047  1.00  0.00     0.038 CG0
ATOM     17  G   UNL     1     136.509 137.191 130.711  1.00  0.00     0.000 G0
ENDBRANCH  13  16
ENDBRANCH  12  13
ENDBRANCH  10  11
ENDBRANCH   1  10
TORSDOF 0
ENDMDL
MODEL 6
REMARK VINA RESULT:    -2.988      2.524      4.794
REMARK INTER + INTRA:          -4.110
REMARK INTER:                  -4.757
REMARK INTRA:                   0.647
REMARK UNBOUND:                 0.276
REMARK SMILES C=C1CC=CC(C)(C)CC=C(C)CCC1
REMARK SMILES IDX 2 1 1 2 15 3 14 4 13 5 11 6 12 7 10 8 3 10 4 11 5 12 6 13
REMARK SMILES IDX 7 14 8 15 9 16
REMARK H PARENT
REMARK Flexibility Score: 60.00
ROOT
ATOM      1  C   UNL     1     138.890 134.199 131.188  1.00  0.00    -0.074 C 
ATOM      2  C   UNL     1     138.909 134.400 129.858  1.00  0.00     0.008 C 
ENDROOT
BRANCH   1   3
ATOM      3  C   UNL     1     139.780 135.049 132.081  1.00  0.00     0.031 C 
BRANCH   3   4
ATOM      4  C   UNL     1     140.003 136.473 131.547  1.00  0.00     0.009 C 
BRANCH   4   5
ATOM      5  C   UNL     1     138.735 137.351 131.587  1.00  0.00     0.030 C 
BRANCH   5   6
ATOM      6  C   UNL     1     138.205 137.490 133.006  1.00  0.00    -0.077 C 
ATOM      7  C   UNL     1     139.093 138.105 134.056  1.00  0.00     0.039 C 
ATOM      8  C   UNL     1     136.955 137.109 133.369  1.00  0.00    -0.027 CG0
ATOM      9  G   UNL     1     135.956 136.439 132.449  1.00  0.00     0.000 G0
ENDBRANCH   5   6
ENDBRANCH   4   5
ENDBRANCH   3   4
ENDBRANCH   1   3
BRANCH   1  10
ATOM     10  C   UNL     1     137.858 133.277 131.822  1.00  0.00     0.057 C 
BRANCH  10  11
ATOM     11  C   UNL     1     137.497 133.596 133.263  1.00  0.00    -0.026 C 
ATOM     12  C   UNL     1     136.456 134.320 133.746  1.00  0.00    -0.024 C 
BRANCH  12  13
ATOM     13  C   UNL     1     135.365 135.081 132.978  1.00  0.00    -0.014 C 
ATOM     14  C   UNL     1     134.222 135.397 133.976  1.00  0.00     0.016 C 
ATOM     15  C   UNL     1     134.755 134.190 131.867  1.00  0.00     0.016 C 
BRANCH  13  16
ATOM     16  C   UNL     1     135.939 136.433 132.457  1.00  0.00     0.038 CG0
ATOM     17  G   UNL     1     136.951 137.089 133.372  1.00  0.00     0.000 G0
ENDBRANCH  13  16
ENDBRANCH  12  13
ENDBRANCH  10  11
ENDBRANCH   1  10
TORSDOF 0
ENDMDL
MODEL 7
REMARK VINA RESULT:    -2.986      2.478      4.154
REMARK INTER + INTRA:          -4.106
REMARK INTER:                  -4.718
REMARK INTRA:                   0.612
REMARK UNBOUND:                 0.276
REMARK SMILES C=C1CC=CC(C)(C)CC=C(C)CCC1
REMARK SMILES IDX 2 1 1 2 15 3 14 4 13 5 11 6 12 7 10 8 3 10 4 11 5 12 6 13
REMARK SMILES IDX 7 14 8 15 9 16
REMARK H PARENT
REMARK Flexibility Score: 60.00
ROOT
ATOM      1  C   UNL     1     133.543 136.841 132.477  1.00  0.00    -0.074 C 
ATOM      2  C   UNL     1     133.212 136.408 131.247  1.00  0.00     0.008 C 
ENDROOT
BRANCH   1   3
ATOM      3  C   UNL     1     133.825 135.824 133.572  1.00  0.00     0.031 C 
BRANCH   3   4
ATOM      4  C   UNL     1     134.757 134.686 133.126  1.00  0.00     0.009 C 
BRANCH   4   5
ATOM      5  C   UNL     1     136.254 135.003 133.318  1.00  0.00     0.030 C 
BRANCH   5   6
ATOM      6  C   UNL     1     136.851 135.628 132.066  1.00  0.00    -0.077 C 
ATOM      7  C   UNL     1     137.010 134.774 130.835  1.00  0.00     0.039 C 
ATOM      8  C   UNL     1     137.224 136.929 131.995  1.00  0.00    -0.027 CG0
ATOM      9  G   UNL     1     137.168 137.907 133.149  1.00  0.00     0.000 G0
ENDBRANCH   5   6
ENDBRANCH   4   5
ENDBRANCH   3   4
ENDBRANCH   1   3
BRANCH   1  10
ATOM     10  C   UNL     1     133.825 138.315 132.734  1.00  0.00     0.057 C 
BRANCH  10  11
ATOM     11  C   UNL     1     134.585 139.034 131.631  1.00  0.00    -0.026 C 
ATOM     12  C   UNL     1     135.872 139.462 131.616  1.00  0.00    -0.024 C 
BRANCH  12  13
ATOM     13  C   UNL     1     136.929 139.401 132.730  1.00  0.00    -0.014 C 
ATOM     14  C   UNL     1     136.364 140.161 133.956  1.00  0.00     0.016 C 
ATOM     15  C   UNL     1     138.220 140.140 132.300  1.00  0.00     0.016 C 
BRANCH  13  16
ATOM     16  C   UNL     1     137.162 137.917 133.146  1.00  0.00     0.038 CG0
ATOM     17  G   UNL     1     137.236 136.937 131.995  1.00  0.00     0.000 G0
ENDBRANCH  13  16
ENDBRANCH  12  13
ENDBRANCH  10  11
ENDBRANCH   1  10
TORSDOF 0
ENDMDL
MODEL 8
REMARK VINA RESULT:    -2.974      2.409      4.565
REMARK INTER + INTRA:          -4.088
REMARK INTER:                  -4.383
REMARK INTRA:                   0.295
REMARK UNBOUND:                 0.276
REMARK SMILES C=C1CC=CC(C)(C)CC=C(C)CCC1
REMARK SMILES IDX 2 1 1 2 15 3 14 4 13 5 11 6 12 7 10 8 3 10 4 11 5 12 6 13
REMARK SMILES IDX 7 14 8 15 9 16
REMARK H PARENT
REMARK Flexibility Score: 60.00
ROOT
ATOM      1  C   UNL     1     136.701 139.342 133.446  1.00  0.00    -0.074 C 
ATOM      2  C   UNL     1     137.887 139.214 134.067  1.00  0.00     0.008 C 
ENDROOT
BRANCH   1   3
ATOM      3  C   UNL     1     136.565 140.332 132.300  1.00  0.00     0.031 C 
BRANCH   3   4
ATOM      4  C   UNL     1     137.409 139.965 131.069  1.00  0.00     0.009 C 
BRANCH   4   5
ATOM      5  C   UNL     1     136.706 138.984 130.109  1.00  0.00     0.030 C 
BRANCH   5   6
ATOM      6  C   UNL     1     137.102 137.545 130.404  1.00  0.00    -0.077 C 
ATOM      7  C   UNL     1     138.561 137.215 130.582  1.00  0.00     0.039 C 
ATOM      8  C   UNL     1     136.198 136.543 130.541  1.00  0.00    -0.027 CG0
ATOM      9  G   UNL     1     134.704 136.698 130.353  1.00  0.00     0.000 G0
ENDBRANCH   5   6
ENDBRANCH   4   5
ENDBRANCH   3   4
ENDBRANCH   1   3
BRANCH   1  10
ATOM     10  C   UNL     1     135.559 138.380 133.742  1.00  0.00     0.057 C 
BRANCH  10  11
ATOM     11  C   UNL     1     134.244 138.698 133.051  1.00  0.00    -0.026 C 
ATOM     12  C   UNL     1     133.518 137.934 132.197  1.00  0.00    -0.024 C 
BRANCH  12  13
ATOM     13  C   UNL     1     133.836 136.543 131.629  1.00  0.00    -0.014 C 
ATOM     14  C   UNL     1     132.494 135.877 131.237  1.00  0.00     0.016 C 
ATOM     15  C   UNL     1     134.484 135.645 132.712  1.00  0.00     0.016 C 
BRANCH  13  16
ATOM     16  C   UNL     1     134.697 136.692 130.338  1.00  0.00     0.038 CG0
ATOM     17  G   UNL     1     136.189 136.547 130.547  1.00  0.00     0.000 G0
ENDBRANCH  13  16
ENDBRANCH  12  13
ENDBRANCH  10  11
ENDBRANCH   1  10
TORSDOF 0
ENDMDL
MODEL 9
REMARK VINA RESULT:    -2.889      2.202      4.069
REMARK INTER + INTRA:          -3.964
REMARK INTER:                  -4.254
REMARK INTRA:                   0.290
REMARK UNBOUND:                 0.276
REMARK SMILES C=C1CC=CC(C)(C)CC=C(C)CCC1
REMARK SMILES IDX 2 1 1 2 15 3 14 4 13 5 11 6 12 7 10 8 3 10 4 11 5 12 6 13
REMARK SMILES IDX 7 14 8 15 9 16
REMARK H PARENT
REMARK Flexibility Score: 60.00
ROOT
ATOM      1  C   UNL     1     138.364 134.832 133.771  1.00  0.00    -0.074 C 
ATOM      2  C   UNL     1     137.488 134.559 134.754  1.00  0.00     0.008 C 
ENDROOT
BRANCH   1   3
ATOM      3  C   UNL     1     138.366 133.971 132.517  1.00  0.00     0.031 C 
BRANCH   3   4
ATOM      4  C   UNL     1     136.964 133.739 131.930  1.00  0.00     0.009 C 
BRANCH   4   5
ATOM      5  C   UNL     1     136.660 134.613 130.697  1.00  0.00     0.030 C 
BRANCH   5   6
ATOM      6  C   UNL     1     136.251 136.021 131.106  1.00  0.00    -0.077 C 
ATOM      7  C   UNL     1     134.897 136.229 131.732  1.00  0.00     0.039 C 
ATOM      8  C   UNL     1     137.060 137.098 130.957  1.00  0.00    -0.027 CG0
ATOM      9  G   UNL     1     138.429 137.067 130.311  1.00  0.00     0.000 G0
ENDBRANCH   5   6
ENDBRANCH   4   5
ENDBRANCH   3   4
ENDBRANCH   1   3
BRANCH   1  10
ATOM     10  C   UNL     1     139.210 136.097 133.810  1.00  0.00     0.057 C 
BRANCH  10  11
ATOM     11  C   UNL     1     140.374 136.132 132.833  1.00  0.00    -0.026 C 
ATOM     12  C   UNL     1     140.526 136.876 131.709  1.00  0.00    -0.024 C 
BRANCH  12  13
ATOM     13  C   UNL     1     139.545 137.862 131.057  1.00  0.00    -0.014 C 
ATOM     14  C   UNL     1     140.334 138.687 130.010  1.00  0.00     0.016 C 
ATOM     15  C   UNL     1     139.003 138.867 132.104  1.00  0.00     0.016 C 
BRANCH  13  16
ATOM     16  C   UNL     1     138.430 137.071 130.309  1.00  0.00     0.038 CG0
ATOM     17  G   UNL     1     137.072 137.100 130.976  1.00  0.00     0.000 G0
ENDBRANCH  13  16
ENDBRANCH  12  13
ENDBRANCH  10  11
ENDBRANCH   1  10
TORSDOF 0
ENDMDL
