MODEL 1
REMARK VINA RESULT:    -3.299      0.000      0.000
REMARK INTER + INTRA:          -3.319
REMARK INTER:                  -4.070
REMARK INTRA:                   0.751
REMARK UNBOUND:                 0.751
REMARK SMILES CC1=CC=CC(C)(C)CC1=O
REMARK SMILES IDX 1 1 2 2 3 3 10 4 11 5 9 6 4 8 5 9 6 10 7 11 8 12
REMARK H PARENT
REMARK Flexibility Score: 80.00
ROOT
ATOM      1  C   UNL     1      33.759  71.958 106.041  1.00  0.00     0.048 C 
ATOM      2  C   UNL     1      32.668  71.023 106.507  1.00  0.00    -0.008 C 
ATOM      3  C   UNL     1      31.435  71.542 106.690  1.00  0.00     0.007 C 
ENDROOT
BRANCH   2   4
ATOM      4  C   UNL     1      33.023  69.589 106.650  1.00  0.00     0.159 C 
ATOM      5  O   UNL     1      34.130  69.188 106.196  1.00  0.00    -0.295 OA
BRANCH   4   6
ATOM      6  C   UNL     1      32.141  68.584 107.325  1.00  0.00     0.091 CG0
ATOM      7  G   UNL     1      30.754  68.447 106.660  1.00  0.00     0.000 G0
ENDBRANCH   4   6
ENDBRANCH   2   4
BRANCH   3   8
ATOM      8  C   UNL     1      30.177  70.881 107.108  1.00  0.00    -0.003 C 
ATOM      9  C   UNL     1      29.861  69.580 107.092  1.00  0.00    -0.020 C 
BRANCH   9  10
ATOM     10  C   UNL     1      30.757  68.444 106.655  1.00  0.00    -0.010 CG0
ATOM     11  C   UNL     1      30.132  67.119 107.145  1.00  0.00     0.016 C 
ATOM     12  C   UNL     1      30.830  68.395 105.111  1.00  0.00     0.016 C 
ATOM     13  G   UNL     1      32.146  68.595 107.312  1.00  0.00     0.000 G0
ENDBRANCH   9  10
ENDBRANCH   3   8
TORSDOF 0
ENDMDL
MODEL 2
REMARK VINA RESULT:    -3.279      0.984      1.114
REMARK INTER + INTRA:          -3.295
REMARK INTER:                  -4.054
REMARK INTRA:                   0.759
REMARK UNBOUND:                 0.751
REMARK SMILES CC1=CC=CC(C)(C)CC1=O
REMARK SMILES IDX 1 1 2 2 3 3 10 4 11 5 9 6 4 8 5 9 6 10 7 11 8 12
REMARK H PARENT
REMARK Flexibility Score: 80.00
ROOT
ATOM      1  C   UNL     1      34.737  72.249 106.028  1.00  0.00     0.048 C 
ATOM      2  C   UNL     1      33.499  71.413 106.255  1.00  0.00    -0.008 C 
ATOM      3  C   UNL     1      32.339  72.062 106.487  1.00  0.00     0.007 C 
ENDROOT
BRANCH   2   4
ATOM      4  C   UNL     1      33.645  69.941 106.127  1.00  0.00     0.159 C 
ATOM      5  O   UNL     1      34.718  69.475 105.650  1.00  0.00    -0.295 OA
BRANCH   4   6
ATOM      6  C   UNL     1      32.590  68.967 106.548  1.00  0.00     0.091 CG0
ATOM      7  G   UNL     1      31.251  69.157 105.800  1.00  0.00     0.000 G0
ENDBRANCH   4   6
ENDBRANCH   2   4
BRANCH   3   8
ATOM      8  C   UNL     1      30.977  71.525 106.715  1.00  0.00    -0.003 C 
ATOM      9  C   UNL     1      30.487  70.313 106.425  1.00  0.00    -0.020 C 
BRANCH   9  10
ATOM     10  C   UNL     1      31.246  69.165 105.801  1.00  0.00    -0.010 CG0
ATOM     11  C   UNL     1      30.408  67.879 105.977  1.00  0.00     0.016 C 
ATOM     12  C   UNL     1      31.427  69.414 104.286  1.00  0.00     0.016 C 
ATOM     13  G   UNL     1      32.590  68.969 106.537  1.00  0.00     0.000 G0
ENDBRANCH   9  10
ENDBRANCH   3   8
TORSDOF 0
ENDMDL
MODEL 3
REMARK VINA RESULT:    -3.217      2.332      3.806
REMARK INTER + INTRA:          -3.219
REMARK INTER:                  -3.980
REMARK INTRA:                   0.761
REMARK UNBOUND:                 0.751
REMARK SMILES CC1=CC=CC(C)(C)CC1=O
REMARK SMILES IDX 1 1 2 2 3 3 10 4 11 5 9 6 4 8 5 9 6 10 7 11 8 12
REMARK H PARENT
REMARK Flexibility Score: 80.00
ROOT
ATOM      1  C   UNL     1      30.302  71.119 106.856  1.00  0.00     0.048 C 
ATOM      2  C   UNL     1      31.616  70.977 106.123  1.00  0.00    -0.008 C 
ATOM      3  C   UNL     1      32.613  71.823 106.457  1.00  0.00     0.007 C 
ENDROOT
BRANCH   2   4
ATOM      4  C   UNL     1      31.727  69.865 105.146  1.00  0.00     0.159 C 
ATOM      5  O   UNL     1      30.818  68.990 105.113  1.00  0.00    -0.295 OA
BRANCH   4   6
ATOM      6  C   UNL     1      32.860  69.728 104.177  1.00  0.00     0.091 CG0
ATOM      7  G   UNL     1      34.239  69.606 104.863  1.00  0.00     0.000 G0
ENDBRANCH   4   6
ENDBRANCH   2   4
BRANCH   3   8
ATOM      8  C   UNL     1      34.000  71.909 105.942  1.00  0.00    -0.003 C 
ATOM      9  C   UNL     1      34.714  70.990 105.279  1.00  0.00    -0.020 C 
BRANCH   9  10
ATOM     10  C   UNL     1      34.243  69.615 104.865  1.00  0.00    -0.010 CG0
ATOM     11  C   UNL     1      35.246  69.049 103.836  1.00  0.00     0.016 C 
ATOM     12  C   UNL     1      34.231  68.671 106.090  1.00  0.00     0.016 C 
ATOM     13  G   UNL     1      32.861  69.722 104.184  1.00  0.00     0.000 G0
ENDBRANCH   9  10
ENDBRANCH   3   8
TORSDOF 0
ENDMDL
MODEL 4
REMARK VINA RESULT:    -3.167      1.630      3.470
REMARK INTER + INTRA:          -3.157
REMARK INTER:                  -3.928
REMARK INTRA:                   0.771
REMARK UNBOUND:                 0.751
REMARK SMILES CC1=CC=CC(C)(C)CC1=O
REMARK SMILES IDX 1 1 2 2 3 3 10 4 11 5 9 6 4 8 5 9 6 10 7 11 8 12
REMARK H PARENT
REMARK Flexibility Score: 80.00
ROOT
ATOM      1  C   UNL     1      29.103  68.540 107.467  1.00  0.00     0.048 C 
ATOM      2  C   UNL     1      30.165  69.400 106.823  1.00  0.00    -0.008 C 
ATOM      3  C   UNL     1      30.189  70.710 107.147  1.00  0.00     0.007 C 
ENDROOT
BRANCH   2   4
ATOM      4  C   UNL     1      31.146  68.717 105.944  1.00  0.00     0.159 C 
ATOM      5  O   UNL     1      31.178  67.455 105.933  1.00  0.00    -0.295 OA
BRANCH   4   6
ATOM      6  C   UNL     1      32.098  69.446 105.047  1.00  0.00     0.091 CG0
ATOM      7  G   UNL     1      33.048  70.395 105.810  1.00  0.00     0.000 G0
ENDBRANCH   4   6
ENDBRANCH   2   4
BRANCH   3   8
ATOM      8  C   UNL     1      31.113  71.782 106.707  1.00  0.00    -0.003 C 
ATOM      9  C   UNL     1      32.329  71.676 106.157  1.00  0.00    -0.020 C 
BRANCH   9  10
ATOM     10  C   UNL     1      33.054  70.392 105.823  1.00  0.00    -0.010 CG0
ATOM     11  C   UNL     1      34.248  70.736 104.905  1.00  0.00     0.016 C 
ATOM     12  C   UNL     1      33.613  69.751 107.113  1.00  0.00     0.016 C 
ATOM     13  G   UNL     1      32.107  69.447 105.050  1.00  0.00     0.000 G0
ENDBRANCH   9  10
ENDBRANCH   3   8
TORSDOF 0
ENDMDL
MODEL 5
REMARK VINA RESULT:    -3.008      1.450      2.093
REMARK INTER + INTRA:          -2.960
REMARK INTER:                  -3.703
REMARK INTRA:                   0.743
REMARK UNBOUND:                 0.751
REMARK SMILES CC1=CC=CC(C)(C)CC1=O
REMARK SMILES IDX 1 1 2 2 3 3 10 4 11 5 9 6 4 8 5 9 6 10 7 11 8 12
REMARK H PARENT
REMARK Flexibility Score: 80.00
ROOT
ATOM      1  C   UNL     1      30.943  71.818 106.569  1.00  0.00     0.048 C 
ATOM      2  C   UNL     1      31.023  70.309 106.565  1.00  0.00    -0.008 C 
ATOM      3  C   UNL     1      30.000  69.627 107.121  1.00  0.00     0.007 C 
ENDROOT
BRANCH   2   4
ATOM      4  C   UNL     1      32.188  69.696 105.879  1.00  0.00     0.159 C 
ATOM      5  O   UNL     1      32.952  70.436 105.197  1.00  0.00    -0.295 OA
BRANCH   4   6
ATOM      6  C   UNL     1      32.523  68.239 105.962  1.00  0.00     0.091 CG0
ATOM      7  G   UNL     1      31.383  67.323 105.465  1.00  0.00     0.000 G0
ENDBRANCH   4   6
ENDBRANCH   2   4
BRANCH   3   8
ATOM      8  C   UNL     1      29.785  68.166 107.241  1.00  0.00    -0.003 C 
ATOM      9  C   UNL     1      30.353  67.168 106.552  1.00  0.00    -0.020 C 
BRANCH   9  10
ATOM     10  C   UNL     1      31.402  67.307 105.473  1.00  0.00    -0.010 CG0
ATOM     11  C   UNL     1      32.028  65.917 105.224  1.00  0.00     0.016 C 
ATOM     12  C   UNL     1      30.743  67.777 104.155  1.00  0.00     0.016 C 
ATOM     13  G   UNL     1      32.519  68.261 105.952  1.00  0.00     0.000 G0
ENDBRANCH   9  10
ENDBRANCH   3   8
TORSDOF 0
ENDMDL
MODEL 6
REMARK VINA RESULT:    -2.893      2.636      4.081
REMARK INTER + INTRA:          -2.819
REMARK INTER:                  -3.582
REMARK INTRA:                   0.763
REMARK UNBOUND:                 0.751
REMARK SMILES CC1=CC=CC(C)(C)CC1=O
REMARK SMILES IDX 1 1 2 2 3 3 10 4 11 5 9 6 4 8 5 9 6 10 7 11 8 12
REMARK H PARENT
REMARK Flexibility Score: 80.00
ROOT
ATOM      1  C   UNL     1      31.668  68.623 103.652  1.00  0.00     0.048 C 
ATOM      2  C   UNL     1      32.345  69.715 104.447  1.00  0.00    -0.008 C 
ATOM      3  C   UNL     1      31.574  70.468 105.260  1.00  0.00     0.007 C 
ENDROOT
BRANCH   2   4
ATOM      4  C   UNL     1      33.821  69.821 104.326  1.00  0.00     0.159 C 
ATOM      5  O   UNL     1      34.451  68.902 103.734  1.00  0.00    -0.295 OA
BRANCH   4   6
ATOM      6  C   UNL     1      34.612  70.976 104.858  1.00  0.00     0.091 CG0
ATOM      7  G   UNL     1      34.452  71.175 106.382  1.00  0.00     0.000 G0
ENDBRANCH   4   6
ENDBRANCH   2   4
BRANCH   3   8
ATOM      8  C   UNL     1      31.950  71.576 106.169  1.00  0.00    -0.003 C 
ATOM      9  C   UNL     1      33.153  71.892 106.665  1.00  0.00    -0.020 C 
BRANCH   9  10
ATOM     10  C   UNL     1      34.455  71.181 106.379  1.00  0.00    -0.010 CG0
ATOM     11  C   UNL     1      35.614  72.079 106.866  1.00  0.00     0.016 C 
ATOM     12  C   UNL     1      34.516  69.854 107.170  1.00  0.00     0.016 C 
ATOM     13  G   UNL     1      34.612  70.974 104.856  1.00  0.00     0.000 G0
ENDBRANCH   9  10
ENDBRANCH   3   8
TORSDOF 0
ENDMDL
MODEL 7
REMARK VINA RESULT:    -2.890      2.440      3.472
REMARK INTER + INTRA:          -2.815
REMARK INTER:                  -3.565
REMARK INTRA:                   0.751
REMARK UNBOUND:                 0.751
REMARK SMILES CC1=CC=CC(C)(C)CC1=O
REMARK SMILES IDX 1 1 2 2 3 3 10 4 11 5 9 6 4 8 5 9 6 10 7 11 8 12
REMARK H PARENT
REMARK Flexibility Score: 80.00
ROOT
ATOM      1  C   UNL     1      32.898  72.160 106.733  1.00  0.00     0.048 C 
ATOM      2  C   UNL     1      32.939  71.136 105.622  1.00  0.00    -0.008 C 
ATOM      3  C   UNL     1      34.143  70.840 105.090  1.00  0.00     0.007 C 
ENDROOT
BRANCH   2   4
ATOM      4  C   UNL     1      31.657  70.481 105.260  1.00  0.00     0.159 C 
ATOM      5  O   UNL     1      30.650  70.665 105.998  1.00  0.00    -0.295 OA
BRANCH   4   6
ATOM      6  C   UNL     1      31.485  69.619 104.048  1.00  0.00     0.091 CG0
ATOM      7  G   UNL     1      32.434  68.400 104.027  1.00  0.00     0.000 G0
ENDBRANCH   4   6
ENDBRANCH   2   4
BRANCH   3   8
ATOM      8  C   UNL     1      34.500  69.874 104.024  1.00  0.00    -0.003 C 
ATOM      9  C   UNL     1      33.805  68.826 103.567  1.00  0.00    -0.020 C 
BRANCH   9  10
ATOM     10  C   UNL     1      32.434  68.387 104.030  1.00  0.00    -0.010 CG0
ATOM     11  C   UNL     1      31.879  67.372 103.006  1.00  0.00     0.016 C 
ATOM     12  C   UNL     1      32.543  67.675 105.398  1.00  0.00     0.016 C 
ATOM     13  G   UNL     1      31.483  69.604 104.066  1.00  0.00     0.000 G0
ENDBRANCH   9  10
ENDBRANCH   3   8
TORSDOF 0
ENDMDL
MODEL 8
REMARK VINA RESULT:    -2.848     10.871     12.066
REMARK INTER + INTRA:          -2.763
REMARK INTER:                  -3.510
REMARK INTRA:                   0.747
REMARK UNBOUND:                 0.751
REMARK SMILES CC1=CC=CC(C)(C)CC1=O
REMARK SMILES IDX 1 1 2 2 3 3 10 4 11 5 9 6 4 8 5 9 6 10 7 11 8 12
REMARK H PARENT
REMARK Flexibility Score: 80.00
ROOT
ATOM      1  C   UNL     1      28.948  59.916 100.562  1.00  0.00     0.048 C 
ATOM      2  C   UNL     1      29.428  60.563  99.284  1.00  0.00    -0.008 C 
ATOM      3  C   UNL     1      28.950  60.078  98.119  1.00  0.00     0.007 C 
ENDROOT
BRANCH   2   4
ATOM      4  C   UNL     1      30.329  61.735  99.417  1.00  0.00     0.159 C 
ATOM      5  O   UNL     1      30.480  62.260 100.555  1.00  0.00    -0.295 OA
BRANCH   4   6
ATOM      6  C   UNL     1      31.090  62.327  98.271  1.00  0.00     0.091 CG0
ATOM      7  G   UNL     1      30.178  62.835  97.132  1.00  0.00     0.000 G0
ENDBRANCH   4   6
ENDBRANCH   2   4
BRANCH   3   8
ATOM      8  C   UNL     1      29.210  60.515  96.727  1.00  0.00    -0.003 C 
ATOM      9  C   UNL     1      29.712  61.676  96.287  1.00  0.00    -0.020 C 
BRANCH   9  10
ATOM     10  C   UNL     1      30.170  62.836  97.139  1.00  0.00    -0.010 CG0
ATOM     11  C   UNL     1      31.006  63.787  96.254  1.00  0.00     0.016 C 
ATOM     12  C   UNL     1      28.945  63.623  97.661  1.00  0.00     0.016 C 
ATOM     13  G   UNL     1      31.075  62.320  98.279  1.00  0.00     0.000 G0
ENDBRANCH   9  10
ENDBRANCH   3   8
TORSDOF 0
ENDMDL
MODEL 9
REMARK VINA RESULT:    -2.729      2.147      3.880
REMARK INTER + INTRA:          -2.616
REMARK INTER:                  -3.375
REMARK INTRA:                   0.759
REMARK UNBOUND:                 0.751
REMARK SMILES CC1=CC=CC(C)(C)CC1=O
REMARK SMILES IDX 1 1 2 2 3 3 10 4 11 5 9 6 4 8 5 9 6 10 7 11 8 12
REMARK H PARENT
REMARK Flexibility Score: 80.00
ROOT
ATOM      1  C   UNL     1      29.626  69.411 107.308  1.00  0.00     0.048 C 
ATOM      2  C   UNL     1      31.091  69.688 107.064  1.00  0.00    -0.008 C 
ATOM      3  C   UNL     1      31.989  68.877 107.661  1.00  0.00     0.007 C 
ENDROOT
BRANCH   2   4
ATOM      4  C   UNL     1      31.423  70.787 106.122  1.00  0.00     0.159 C 
ATOM      5  O   UNL     1      30.498  71.294 105.428  1.00  0.00    -0.295 OA
BRANCH   4   6
ATOM      6  C   UNL     1      32.802  71.345 105.958  1.00  0.00     0.091 CG0
ATOM      7  G   UNL     1      33.838  70.289 105.510  1.00  0.00     0.000 G0
ENDBRANCH   4   6
ENDBRANCH   2   4
BRANCH   3   8
ATOM      8  C   UNL     1      33.469  68.881 107.591  1.00  0.00    -0.003 C 
ATOM      9  C   UNL     1      34.271  69.462 106.689  1.00  0.00    -0.020 C 
BRANCH   9  10
ATOM     10  C   UNL     1      33.835  70.299 105.509  1.00  0.00    -0.010 CG0
ATOM     11  C   UNL     1      35.069  71.055 104.969  1.00  0.00     0.016 C 
ATOM     12  C   UNL     1      33.303  69.385 104.381  1.00  0.00     0.016 C 
ATOM     13  G   UNL     1      32.793  71.344 105.968  1.00  0.00     0.000 G0
ENDBRANCH   9  10
ENDBRANCH   3   8
TORSDOF 0
ENDMDL
