MODEL 1
REMARK VINA RESULT:    -3.815      0.000      0.000
REMARK INTER + INTRA:          -5.668
REMARK INTER:                  -5.376
REMARK INTRA:                  -0.292
REMARK UNBOUND:                -0.292
REMARK SMILES CCCCCCCCC(=O)[O-]
REMARK SMILES IDX 6 1 7 2 8 3 9 4 10 5 11 6 5 7 4 8 3 9 2 10 1 11
REMARK H PARENT
REMARK Flexibility Score: inf
ROOT
ATOM      1  C   UNL     1      11.130  18.307  13.908  1.00  0.00     0.000 C 
ENDROOT
BRANCH   1   2
ATOM      2  C   UNL     1      11.054  17.067  14.811  1.00  0.00     0.006 C 
BRANCH   2   3
ATOM      3  C   UNL     1      12.390  16.771  15.505  1.00  0.00     0.053 C 
BRANCH   3   4
ATOM      4  C   UNL     1      12.213  15.877  16.693  1.00  0.00     0.041 C 
ATOM      5  O   UNL     1      13.070  15.873  17.616  1.00  0.00    -0.550 OA
ATOM      6  O   UNL     1      11.085  15.073  16.798  1.00  0.00    -0.550 OA
ENDBRANCH   3   4
ENDBRANCH   2   3
ENDBRANCH   1   2
BRANCH   1   7
ATOM      7  C   UNL     1      10.288  18.114  12.638  1.00  0.00     0.000 C 
BRANCH   7   8
ATOM      8  C   UNL     1      10.143  16.635  12.235  1.00  0.00    -0.000 C 
BRANCH   8   9
ATOM      9  C   UNL     1       8.752  16.236  11.703  1.00  0.00    -0.000 C 
BRANCH   9  10
ATOM     10  C   UNL     1       8.635  16.179  10.169  1.00  0.00    -0.003 C 
ATOM     11  C   UNL     1       7.872  17.368   9.586  1.00  0.00     0.004 C 
ENDBRANCH   9  10
ENDBRANCH   8   9
ENDBRANCH   7   8
ENDBRANCH   1   7
TORSDOF 7
ENDMDL
MODEL 2
REMARK VINA RESULT:    -3.725      2.867      5.579
REMARK INTER + INTRA:          -5.542
REMARK INTER:                  -5.035
REMARK INTRA:                  -0.506
REMARK UNBOUND:                -0.292
REMARK SMILES CCCCCCCCC(=O)[O-]
REMARK SMILES IDX 6 1 7 2 8 3 9 4 10 5 11 6 5 7 4 8 3 9 2 10 1 11
REMARK H PARENT
REMARK Flexibility Score: inf
ROOT
ATOM      1  C   UNL     1      10.653  18.563  13.944  1.00  0.00     0.000 C 
ENDROOT
BRANCH   1   2
ATOM      2  C   UNL     1      10.613  17.266  13.122  1.00  0.00     0.006 C 
BRANCH   2   3
ATOM      3  C   UNL     1      10.016  17.483  11.725  1.00  0.00     0.053 C 
BRANCH   3   4
ATOM      4  C   UNL     1       9.049  16.400  11.359  1.00  0.00     0.041 C 
ATOM      5  O   UNL     1       8.470  15.737  12.260  1.00  0.00    -0.550 OA
ATOM      6  O   UNL     1       8.763  16.144  10.024  1.00  0.00    -0.550 OA
ENDBRANCH   3   4
ENDBRANCH   2   3
ENDBRANCH   1   2
BRANCH   1   7
ATOM      7  C   UNL     1      11.875  18.585  14.874  1.00  0.00     0.000 C 
BRANCH   7   8
ATOM      8  C   UNL     1      12.528  17.201  15.039  1.00  0.00    -0.000 C 
BRANCH   8   9
ATOM      9  C   UNL     1      12.676  16.717  16.495  1.00  0.00    -0.000 C 
BRANCH   9  10
ATOM     10  C   UNL     1      11.810  15.501  16.867  1.00  0.00    -0.003 C 
ATOM     11  C   UNL     1      10.316  15.823  16.906  1.00  0.00     0.004 C 
ENDBRANCH   9  10
ENDBRANCH   8   9
ENDBRANCH   7   8
ENDBRANCH   1   7
TORSDOF 7
ENDMDL
MODEL 3
REMARK VINA RESULT:    -3.686      4.200      5.307
REMARK INTER + INTRA:          -5.487
REMARK INTER:                  -4.785
REMARK INTRA:                  -0.702
REMARK UNBOUND:                -0.292
REMARK SMILES CCCCCCCCC(=O)[O-]
REMARK SMILES IDX 6 1 7 2 8 3 9 4 10 5 11 6 5 7 4 8 3 9 2 10 1 11
REMARK H PARENT
REMARK Flexibility Score: inf
ROOT
ATOM      1  C   UNL     1      13.985  18.581  16.821  1.00  0.00     0.000 C 
ENDROOT
BRANCH   1   2
ATOM      2  C   UNL     1      14.540  17.208  17.229  1.00  0.00     0.006 C 
BRANCH   2   3
ATOM      3  C   UNL     1      15.243  16.496  16.065  1.00  0.00     0.053 C 
BRANCH   3   4
ATOM      4  C   UNL     1      16.501  17.199  15.661  1.00  0.00     0.041 C 
ATOM      5  O   UNL     1      17.365  17.498  16.526  1.00  0.00    -0.550 OA
ATOM      6  O   UNL     1      16.734  17.496  14.324  1.00  0.00    -0.550 OA
ENDBRANCH   3   4
ENDBRANCH   2   3
ENDBRANCH   1   2
BRANCH   1   7
ATOM      7  C   UNL     1      12.466  18.644  17.034  1.00  0.00     0.000 C 
BRANCH   7   8
ATOM      8  C   UNL     1      11.670  18.480  15.726  1.00  0.00    -0.000 C 
BRANCH   8   9
ATOM      9  C   UNL     1      11.336  17.026  15.342  1.00  0.00    -0.000 C 
BRANCH   9  10
ATOM     10  C   UNL     1      10.639  16.206  16.443  1.00  0.00    -0.003 C 
ATOM     11  C   UNL     1      11.503  15.059  16.967  1.00  0.00     0.004 C 
ENDBRANCH   9  10
ENDBRANCH   8   9
ENDBRANCH   7   8
ENDBRANCH   1   7
TORSDOF 7
ENDMDL
MODEL 4
REMARK VINA RESULT:    -3.674      3.148      5.473
REMARK INTER + INTRA:          -5.469
REMARK INTER:                  -4.732
REMARK INTRA:                  -0.737
REMARK UNBOUND:                -0.292
REMARK SMILES CCCCCCCCC(=O)[O-]
REMARK SMILES IDX 6 1 7 2 8 3 9 4 10 5 11 6 5 7 4 8 3 9 2 10 1 11
REMARK H PARENT
REMARK Flexibility Score: inf
ROOT
ATOM      1  C   UNL     1      12.201  18.633  14.572  1.00  0.00     0.000 C 
ENDROOT
BRANCH   1   2
ATOM      2  C   UNL     1      10.812  18.438  13.946  1.00  0.00     0.006 C 
BRANCH   2   3
ATOM      3  C   UNL     1      10.643  17.042  13.331  1.00  0.00     0.053 C 
BRANCH   3   4
ATOM      4  C   UNL     1       9.997  17.104  11.982  1.00  0.00     0.041 C 
ATOM      5  O   UNL     1      10.214  18.082  11.219  1.00  0.00    -0.550 OA
ATOM      6  O   UNL     1       9.179  16.065  11.554  1.00  0.00    -0.550 OA
ENDBRANCH   3   4
ENDBRANCH   2   3
ENDBRANCH   1   2
BRANCH   1   7
ATOM      7  C   UNL     1      12.088  19.216  15.988  1.00  0.00     0.000 C 
BRANCH   7   8
ATOM      8  C   UNL     1      11.980  18.131  17.075  1.00  0.00    -0.000 C 
BRANCH   8   9
ATOM      9  C   UNL     1      12.715  16.813  16.759  1.00  0.00    -0.000 C 
BRANCH   9  10
ATOM     10  C   UNL     1      11.848  15.546  16.857  1.00  0.00    -0.003 C 
ATOM     11  C   UNL     1      10.350  15.845  16.817  1.00  0.00     0.004 C 
ENDBRANCH   9  10
ENDBRANCH   8   9
ENDBRANCH   7   8
ENDBRANCH   1   7
TORSDOF 7
ENDMDL
MODEL 5
REMARK VINA RESULT:    -3.617      3.186      6.054
REMARK INTER + INTRA:          -5.389
REMARK INTER:                  -4.922
REMARK INTRA:                  -0.467
REMARK UNBOUND:                -0.292
REMARK SMILES CCCCCCCCC(=O)[O-]
REMARK SMILES IDX 6 1 7 2 8 3 9 4 10 5 11 6 5 7 4 8 3 9 2 10 1 11
REMARK H PARENT
REMARK Flexibility Score: inf
ROOT
ATOM      1  C   UNL     1      11.493  16.850  16.877  1.00  0.00     0.000 C 
ENDROOT
BRANCH   1   2
ATOM      2  C   UNL     1      11.002  16.595  15.444  1.00  0.00     0.006 C 
BRANCH   2   3
ATOM      3  C   UNL     1      11.539  17.635  14.452  1.00  0.00     0.053 C 
BRANCH   3   4
ATOM      4  C   UNL     1      10.599  17.848  13.306  1.00  0.00     0.041 C 
ATOM      5  O   UNL     1      10.439  16.946  12.443  1.00  0.00    -0.550 OA
ATOM      6  O   UNL     1       9.876  19.030  13.210  1.00  0.00    -0.550 OA
ENDBRANCH   3   4
ENDBRANCH   2   3
ENDBRANCH   1   2
BRANCH   1   7
ATOM      7  C   UNL     1      12.612  15.868  17.257  1.00  0.00     0.000 C 
BRANCH   7   8
ATOM      8  C   UNL     1      13.994  16.541  17.348  1.00  0.00    -0.000 C 
BRANCH   8   9
ATOM      9  C   UNL     1      14.879  16.388  16.096  1.00  0.00    -0.000 C 
BRANCH   9  10
ATOM     10  C   UNL     1      15.304  17.711  15.434  1.00  0.00    -0.003 C 
ATOM     11  C   UNL     1      16.608  17.590  14.646  1.00  0.00     0.004 C 
ENDBRANCH   9  10
ENDBRANCH   8   9
ENDBRANCH   7   8
ENDBRANCH   1   7
TORSDOF 7
ENDMDL
MODEL 6
REMARK VINA RESULT:    -3.616      3.491      6.039
REMARK INTER + INTRA:          -5.388
REMARK INTER:                  -4.773
REMARK INTRA:                  -0.614
REMARK UNBOUND:                -0.292
REMARK SMILES CCCCCCCCC(=O)[O-]
REMARK SMILES IDX 6 1 7 2 8 3 9 4 10 5 11 6 5 7 4 8 3 9 2 10 1 11
REMARK H PARENT
REMARK Flexibility Score: inf
ROOT
ATOM      1  C   UNL     1      12.143  18.627  16.960  1.00  0.00     0.000 C 
ENDROOT
BRANCH   1   2
ATOM      2  C   UNL     1      12.346  17.845  15.655  1.00  0.00     0.006 C 
BRANCH   2   3
ATOM      3  C   UNL     1      11.255  16.788  15.435  1.00  0.00     0.053 C 
BRANCH   3   4
ATOM      4  C   UNL     1      11.012  15.975  16.668  1.00  0.00     0.041 C 
ATOM      5  O   UNL     1       9.885  15.996  17.229  1.00  0.00    -0.550 OA
ATOM      6  O   UNL     1      12.021  15.169  17.181  1.00  0.00    -0.550 OA
ENDBRANCH   3   4
ENDBRANCH   2   3
ENDBRANCH   1   2
BRANCH   1   7
ATOM      7  C   UNL     1      13.492  19.019  17.581  1.00  0.00     0.000 C 
BRANCH   7   8
ATOM      8  C   UNL     1      14.475  17.838  17.672  1.00  0.00    -0.000 C 
BRANCH   8   9
ATOM      9  C   UNL     1      15.942  18.182  17.345  1.00  0.00    -0.000 C 
BRANCH   9  10
ATOM     10  C   UNL     1      16.565  17.356  16.205  1.00  0.00    -0.003 C 
ATOM     11  C   UNL     1      15.676  16.197  15.756  1.00  0.00     0.004 C 
ENDBRANCH   9  10
ENDBRANCH   8   9
ENDBRANCH   7   8
ENDBRANCH   1   7
TORSDOF 7
ENDMDL
MODEL 7
REMARK VINA RESULT:    -3.591      3.907      5.323
REMARK INTER + INTRA:          -5.352
REMARK INTER:                  -4.700
REMARK INTRA:                  -0.652
REMARK UNBOUND:                -0.292
REMARK SMILES CCCCCCCCC(=O)[O-]
REMARK SMILES IDX 6 1 7 2 8 3 9 4 10 5 11 6 5 7 4 8 3 9 2 10 1 11
REMARK H PARENT
REMARK Flexibility Score: inf
ROOT
ATOM      1  C   UNL     1      13.855  16.894  17.229  1.00  0.00     0.000 C 
ENDROOT
BRANCH   1   2
ATOM      2  C   UNL     1      14.815  16.562  16.078  1.00  0.00     0.006 C 
BRANCH   2   3
ATOM      3  C   UNL     1      15.330  17.822  15.369  1.00  0.00     0.053 C 
BRANCH   3   4
ATOM      4  C   UNL     1      16.779  18.068  15.656  1.00  0.00     0.041 C 
ATOM      5  O   UNL     1      17.173  18.218  16.843  1.00  0.00    -0.550 OA
ATOM      6  O   UNL     1      17.699  18.101  14.616  1.00  0.00    -0.550 OA
ENDBRANCH   3   4
ENDBRANCH   2   3
ENDBRANCH   1   2
BRANCH   1   7
ATOM      7  C   UNL     1      13.051  15.654  17.648  1.00  0.00     0.000 C 
BRANCH   7   8
ATOM      8  C   UNL     1      11.793  15.438  16.788  1.00  0.00    -0.000 C 
BRANCH   8   9
ATOM      9  C   UNL     1      11.047  16.725  16.384  1.00  0.00    -0.000 C 
BRANCH   9  10
ATOM     10  C   UNL     1      10.993  16.997  14.870  1.00  0.00    -0.003 C 
ATOM     11  C   UNL     1      11.567  18.362  14.490  1.00  0.00     0.004 C 
ENDBRANCH   9  10
ENDBRANCH   8   9
ENDBRANCH   7   8
ENDBRANCH   1   7
TORSDOF 7
ENDMDL
MODEL 8
REMARK VINA RESULT:    -3.575      1.728      2.344
REMARK INTER + INTRA:          -5.330
REMARK INTER:                  -4.992
REMARK INTRA:                  -0.338
REMARK UNBOUND:                -0.292
REMARK SMILES CCCCCCCCC(=O)[O-]
REMARK SMILES IDX 6 1 7 2 8 3 9 4 10 5 11 6 5 7 4 8 3 9 2 10 1 11
REMARK H PARENT
REMARK Flexibility Score: inf
ROOT
ATOM      1  C   UNL     1      10.976  16.664  15.436  1.00  0.00     0.000 C 
ENDROOT
BRANCH   1   2
ATOM      2  C   UNL     1      11.265  16.610  16.943  1.00  0.00     0.006 C 
BRANCH   2   3
ATOM      3  C   UNL     1      12.532  15.807  17.264  1.00  0.00     0.053 C 
BRANCH   3   4
ATOM      4  C   UNL     1      13.771  16.632  17.095  1.00  0.00     0.041 C 
ATOM      5  O   UNL     1      13.908  17.706  17.737  1.00  0.00    -0.550 OA
ATOM      6  O   UNL     1      14.787  16.197  16.254  1.00  0.00    -0.550 OA
ENDBRANCH   3   4
ENDBRANCH   2   3
ENDBRANCH   1   2
BRANCH   1   7
ATOM      7  C   UNL     1      11.196  18.080  14.884  1.00  0.00     0.000 C 
BRANCH   7   8
ATOM      8  C   UNL     1      10.835  18.205  13.393  1.00  0.00    -0.000 C 
BRANCH   8   9
ATOM      9  C   UNL     1      10.449  16.884  12.701  1.00  0.00    -0.000 C 
BRANCH   9  10
ATOM     10  C   UNL     1       9.423  17.021  11.562  1.00  0.00    -0.003 C 
ATOM     11  C   UNL     1       8.305  15.982  11.639  1.00  0.00     0.004 C 
ENDBRANCH   9  10
ENDBRANCH   8   9
ENDBRANCH   7   8
ENDBRANCH   1   7
TORSDOF 7
ENDMDL
MODEL 9
REMARK VINA RESULT:    -3.509      4.035      5.869
REMARK INTER + INTRA:          -5.237
REMARK INTER:                  -4.778
REMARK INTRA:                  -0.459
REMARK UNBOUND:                -0.292
REMARK SMILES CCCCCCCCC(=O)[O-]
REMARK SMILES IDX 6 1 7 2 8 3 9 4 10 5 11 6 5 7 4 8 3 9 2 10 1 11
REMARK H PARENT
REMARK Flexibility Score: inf
ROOT
ATOM      1  C   UNL     1      14.756  16.454  16.089  1.00  0.00     0.000 C 
ENDROOT
BRANCH   1   2
ATOM      2  C   UNL     1      15.416  17.759  15.621  1.00  0.00     0.006 C 
BRANCH   2   3
ATOM      3  C   UNL     1      16.934  17.613  15.447  1.00  0.00     0.053 C 
BRANCH   3   4
ATOM      4  C   UNL     1      17.668  17.883  16.724  1.00  0.00     0.041 C 
ATOM      5  O   UNL     1      18.877  17.553  16.841  1.00  0.00    -0.550 OA
ATOM      6  O   UNL     1      17.025  18.527  17.773  1.00  0.00    -0.550 OA
ENDBRANCH   3   4
ENDBRANCH   2   3
ENDBRANCH   1   2
BRANCH   1   7
ATOM      7  C   UNL     1      13.883  16.694  17.329  1.00  0.00     0.000 C 
BRANCH   7   8
ATOM      8  C   UNL     1      12.981  15.494  17.668  1.00  0.00    -0.000 C 
BRANCH   8   9
ATOM      9  C   UNL     1      11.686  15.393  16.839  1.00  0.00    -0.000 C 
BRANCH   9  10
ATOM     10  C   UNL     1      11.062  16.743  16.442  1.00  0.00    -0.003 C 
ATOM     11  C   UNL     1      11.194  17.044  14.950  1.00  0.00     0.004 C 
ENDBRANCH   9  10
ENDBRANCH   8   9
ENDBRANCH   7   8
ENDBRANCH   1   7
TORSDOF 7
ENDMDL
