MODEL 1
REMARK VINA RESULT:    -5.439      0.000      0.000
REMARK INTER + INTRA:          -7.587
REMARK INTER:                  -6.870
REMARK INTRA:                  -0.718
REMARK UNBOUND:                -0.718
REMARK SMILES O=C(C=Cc1ccc(O)cc1)c1ccc(O)cc1O
REMARK SMILES IDX 4 1 3 2 5 3 6 4 7 5 8 6 11 7 10 8 9 9 2 11 1 12 12 13 18 14
REMARK SMILES IDX 13 15 17 16 14 17 15 18 19 19 16 21
REMARK H PARENT 9 10 19 20 16 22
REMARK Flexibility Score: inf
ROOT
ATOM      1  C   UNL     1      23.193   5.420 -21.626  1.00  0.00     0.012 C 
ATOM      2  C   UNL     1      24.001   4.350 -21.629  1.00  0.00     0.053 C 
ENDROOT
BRANCH   1   3
ATOM      3  C   UNL     1      23.111   6.387 -20.504  1.00  0.00    -0.025 A 
ATOM      4  C   UNL     1      23.190   5.899 -19.188  1.00  0.00     0.012 A 
ATOM      5  C   UNL     1      23.106   6.773 -18.100  1.00  0.00     0.047 A 
ATOM      6  C   UNL     1      22.933   8.144 -18.309  1.00  0.00     0.115 A 
ATOM      7  C   UNL     1      22.921   7.769 -20.706  1.00  0.00     0.012 A 
ATOM      8  C   UNL     1      22.837   8.640 -19.616  1.00  0.00     0.047 A 
BRANCH   6   9
ATOM      9  O   UNL     1      22.852   9.003 -17.215  1.00  0.00    -0.508 OA
ATOM     10  H   UNL     1      22.008   9.076 -16.660  1.00  0.00     0.293 HD
ENDBRANCH   6   9
ENDBRANCH   1   3
BRANCH   2  11
ATOM     11  C   UNL     1      24.043   3.399 -22.760  1.00  0.00     0.189 C 
ATOM     12  O   UNL     1      24.301   2.182 -22.549  1.00  0.00    -0.289 OA
BRANCH  11  13
ATOM     13  C   UNL     1      23.838   3.859 -24.154  1.00  0.00     0.064 A 
ATOM     14  C   UNL     1      22.722   3.448 -24.918  1.00  0.00     0.130 A 
ATOM     15  C   UNL     1      24.794   4.705 -24.742  1.00  0.00     0.020 A 
ATOM     16  C   UNL     1      22.561   3.921 -26.229  1.00  0.00     0.093 A 
ATOM     17  C   UNL     1      24.628   5.164 -26.052  1.00  0.00     0.047 A 
ATOM     18  C   UNL     1      23.512   4.778 -26.796  1.00  0.00     0.119 A 
BRANCH  14  19
ATOM     19  O   UNL     1      21.789   2.556 -24.388  1.00  0.00    -0.507 OA
ATOM     20  H   UNL     1      21.644   2.467 -23.390  1.00  0.00     0.293 HD
ENDBRANCH  14  19
BRANCH  18  21
ATOM     21  O   UNL     1      23.357   5.248 -28.098  1.00  0.00    -0.508 OA
ATOM     22  H   UNL     1      23.868   4.840 -28.872  1.00  0.00     0.293 HD
ENDBRANCH  18  21
ENDBRANCH  11  13
ENDBRANCH   2  11
TORSDOF 6
ENDMDL
MODEL 2
REMARK VINA RESULT:    -5.390      1.449      2.366
REMARK INTER + INTRA:          -7.526
REMARK INTER:                  -7.063
REMARK INTRA:                  -0.463
REMARK UNBOUND:                -0.718
REMARK SMILES O=C(C=Cc1ccc(O)cc1)c1ccc(O)cc1O
REMARK SMILES IDX 4 1 3 2 5 3 6 4 7 5 8 6 11 7 10 8 9 9 2 11 1 12 12 13 18 14
REMARK SMILES IDX 13 15 17 16 14 17 15 18 19 19 16 21
REMARK H PARENT 9 10 19 20 16 22
REMARK Flexibility Score: inf
ROOT
ATOM      1  C   UNL     1      23.386   5.235 -21.543  1.00  0.00     0.012 C 
ATOM      2  C   UNL     1      23.782   5.497 -22.796  1.00  0.00     0.053 C 
ENDROOT
BRANCH   1   3
ATOM      3  C   UNL     1      23.236   6.274 -20.494  1.00  0.00    -0.025 A 
ATOM      4  C   UNL     1      23.218   5.872 -19.147  1.00  0.00     0.012 A 
ATOM      5  C   UNL     1      23.068   6.816 -18.126  1.00  0.00     0.047 A 
ATOM      6  C   UNL     1      22.923   8.171 -18.436  1.00  0.00     0.115 A 
ATOM      7  C   UNL     1      23.073   7.641 -20.798  1.00  0.00     0.012 A 
ATOM      8  C   UNL     1      22.923   8.581 -19.775  1.00  0.00     0.047 A 
BRANCH   6   9
ATOM      9  O   UNL     1      22.775   9.100 -17.407  1.00  0.00    -0.508 OA
ATOM     10  H   UNL     1      23.020   8.875 -16.451  1.00  0.00     0.293 HD
ENDBRANCH   6   9
ENDBRANCH   1   3
BRANCH   2  11
ATOM     11  C   UNL     1      23.936   4.433 -23.812  1.00  0.00     0.189 C 
ATOM     12  O   UNL     1      25.088   4.029 -24.131  1.00  0.00    -0.289 OA
BRANCH  11  13
ATOM     13  C   UNL     1      22.757   3.861 -24.505  1.00  0.00     0.064 A 
ATOM     14  C   UNL     1      22.782   3.552 -25.884  1.00  0.00     0.130 A 
ATOM     15  C   UNL     1      21.574   3.647 -23.778  1.00  0.00     0.020 A 
ATOM     16  C   UNL     1      21.647   2.998 -26.496  1.00  0.00     0.093 A 
ATOM     17  C   UNL     1      20.447   3.101 -24.399  1.00  0.00     0.047 A 
ATOM     18  C   UNL     1      20.481   2.772 -25.755  1.00  0.00     0.119 A 
BRANCH  14  19
ATOM     19  O   UNL     1      23.918   3.813 -26.650  1.00  0.00    -0.507 OA
ATOM     20  H   UNL     1      23.900   3.771 -27.662  1.00  0.00     0.293 HD
ENDBRANCH  14  19
BRANCH  18  21
ATOM     21  O   UNL     1      19.351   2.225 -26.359  1.00  0.00    -0.508 OA
ATOM     22  H   UNL     1      18.600   2.809 -26.705  1.00  0.00     0.293 HD
ENDBRANCH  18  21
ENDBRANCH  11  13
ENDBRANCH   2  11
TORSDOF 6
ENDMDL
MODEL 3
REMARK VINA RESULT:    -5.307      2.590      3.609
REMARK INTER + INTRA:          -7.422
REMARK INTER:                  -6.809
REMARK INTRA:                  -0.613
REMARK UNBOUND:                -0.718
REMARK SMILES O=C(C=Cc1ccc(O)cc1)c1ccc(O)cc1O
REMARK SMILES IDX 4 1 3 2 5 3 6 4 7 5 8 6 11 7 10 8 9 9 2 11 1 12 12 13 18 14
REMARK SMILES IDX 13 15 17 16 14 17 15 18 19 19 16 21
REMARK H PARENT 9 10 19 20 16 22
REMARK Flexibility Score: inf
ROOT
ATOM      1  C   UNL     1      23.677   5.846 -22.446  1.00  0.00     0.012 C 
ATOM      2  C   UNL     1      24.305   6.584 -23.372  1.00  0.00     0.053 C 
ENDROOT
BRANCH   1   3
ATOM      3  C   UNL     1      23.289   6.359 -21.109  1.00  0.00    -0.025 A 
ATOM      4  C   UNL     1      22.869   7.695 -20.997  1.00  0.00     0.012 A 
ATOM      5  C   UNL     1      22.505   8.224 -19.754  1.00  0.00     0.047 A 
ATOM      6  C   UNL     1      22.564   7.429 -18.607  1.00  0.00     0.115 A 
ATOM      7  C   UNL     1      23.361   5.568 -19.943  1.00  0.00     0.012 A 
ATOM      8  C   UNL     1      22.996   6.100 -18.704  1.00  0.00     0.047 A 
BRANCH   6   9
ATOM      9  O   UNL     1      22.196   7.969 -17.375  1.00  0.00    -0.508 OA
ATOM     10  H   UNL     1      22.044   7.383 -16.564  1.00  0.00     0.293 HD
ENDBRANCH   6   9
ENDBRANCH   1   3
BRANCH   2  11
ATOM     11  C   UNL     1      24.691   6.033 -24.689  1.00  0.00     0.189 C 
ATOM     12  O   UNL     1      24.310   4.877 -25.023  1.00  0.00    -0.289 OA
BRANCH  11  13
ATOM     13  C   UNL     1      25.566   6.795 -25.610  1.00  0.00     0.064 A 
ATOM     14  C   UNL     1      25.395   6.745 -27.012  1.00  0.00     0.130 A 
ATOM     15  C   UNL     1      26.613   7.567 -25.077  1.00  0.00     0.020 A 
ATOM     16  C   UNL     1      26.239   7.496 -27.846  1.00  0.00     0.093 A 
ATOM     17  C   UNL     1      27.451   8.306 -25.917  1.00  0.00     0.047 A 
ATOM     18  C   UNL     1      27.265   8.276 -27.300  1.00  0.00     0.119 A 
BRANCH  14  19
ATOM     19  O   UNL     1      24.409   5.937 -27.579  1.00  0.00    -0.507 OA
ATOM     20  H   UNL     1      24.530   5.507 -28.488  1.00  0.00     0.293 HD
ENDBRANCH  14  19
BRANCH  18  21
ATOM     21  O   UNL     1      28.106   9.020 -28.123  1.00  0.00    -0.508 OA
ATOM     22  H   UNL     1      28.170   8.839 -29.118  1.00  0.00     0.293 HD
ENDBRANCH  18  21
ENDBRANCH  11  13
ENDBRANCH   2  11
TORSDOF 6
ENDMDL
MODEL 4
REMARK VINA RESULT:    -5.186      1.520      2.489
REMARK INTER + INTRA:          -7.268
REMARK INTER:                  -6.548
REMARK INTRA:                  -0.719
REMARK UNBOUND:                -0.718
REMARK SMILES O=C(C=Cc1ccc(O)cc1)c1ccc(O)cc1O
REMARK SMILES IDX 4 1 3 2 5 3 6 4 7 5 8 6 11 7 10 8 9 9 2 11 1 12 12 13 18 14
REMARK SMILES IDX 13 15 17 16 14 17 15 18 19 19 16 21
REMARK H PARENT 9 10 19 20 16 22
REMARK Flexibility Score: inf
ROOT
ATOM      1  C   UNL     1      23.655   5.427 -22.228  1.00  0.00     0.012 C 
ATOM      2  C   UNL     1      22.811   4.716 -22.988  1.00  0.00     0.053 C 
ENDROOT
BRANCH   1   3
ATOM      3  C   UNL     1      23.268   6.067 -20.946  1.00  0.00    -0.025 A 
ATOM      4  C   UNL     1      22.892   7.420 -20.956  1.00  0.00     0.012 A 
ATOM      5  C   UNL     1      22.530   8.067 -19.770  1.00  0.00     0.047 A 
ATOM      6  C   UNL     1      22.550   7.374 -18.557  1.00  0.00     0.115 A 
ATOM      7  C   UNL     1      23.301   5.379 -19.715  1.00  0.00     0.012 A 
ATOM      8  C   UNL     1      22.939   6.029 -18.532  1.00  0.00     0.047 A 
BRANCH   6   9
ATOM      9  O   UNL     1      22.186   8.031 -17.383  1.00  0.00    -0.508 OA
ATOM     10  H   UNL     1      21.683   8.909 -17.402  1.00  0.00     0.293 HD
ENDBRANCH   6   9
ENDBRANCH   1   3
BRANCH   2  11
ATOM     11  C   UNL     1      23.229   4.106 -24.269  1.00  0.00     0.189 C 
ATOM     12  O   UNL     1      22.759   2.987 -24.616  1.00  0.00    -0.289 OA
BRANCH  11  13
ATOM     13  C   UNL     1      24.236   4.762 -25.136  1.00  0.00     0.064 A 
ATOM     14  C   UNL     1      25.571   4.303 -25.206  1.00  0.00     0.130 A 
ATOM     15  C   UNL     1      23.860   5.887 -25.889  1.00  0.00     0.020 A 
ATOM     16  C   UNL     1      26.487   4.946 -26.052  1.00  0.00     0.093 A 
ATOM     17  C   UNL     1      24.782   6.524 -26.724  1.00  0.00     0.047 A 
ATOM     18  C   UNL     1      26.094   6.054 -26.812  1.00  0.00     0.119 A 
BRANCH  14  19
ATOM     19  O   UNL     1      25.995   3.230 -24.421  1.00  0.00    -0.507 OA
ATOM     20  H   UNL     1      25.885   2.271 -24.726  1.00  0.00     0.293 HD
ENDBRANCH  14  19
BRANCH  18  21
ATOM     21  O   UNL     1      27.000   6.697 -27.652  1.00  0.00    -0.508 OA
ATOM     22  H   UNL     1      27.772   7.240 -27.282  1.00  0.00     0.293 HD
ENDBRANCH  18  21
ENDBRANCH  11  13
ENDBRANCH   2  11
TORSDOF 6
ENDMDL
MODEL 5
REMARK VINA RESULT:    -5.182      2.008      7.427
REMARK INTER + INTRA:          -7.263
REMARK INTER:                  -6.653
REMARK INTRA:                  -0.610
REMARK UNBOUND:                -0.718
REMARK SMILES O=C(C=Cc1ccc(O)cc1)c1ccc(O)cc1O
REMARK SMILES IDX 4 1 3 2 5 3 6 4 7 5 8 6 11 7 10 8 9 9 2 11 1 12 12 13 18 14
REMARK SMILES IDX 13 15 17 16 14 17 15 18 19 19 16 21
REMARK H PARENT 9 10 19 20 16 22
REMARK Flexibility Score: inf
ROOT
ATOM      1  C   UNL     1      23.496   4.599 -23.510  1.00  0.00     0.012 C 
ATOM      2  C   UNL     1      23.252   5.217 -22.346  1.00  0.00     0.053 C 
ENDROOT
BRANCH   1   3
ATOM      3  C   UNL     1      22.455   3.903 -24.306  1.00  0.00    -0.025 A 
ATOM      4  C   UNL     1      22.684   3.691 -25.676  1.00  0.00     0.012 A 
ATOM      5  C   UNL     1      21.726   3.049 -26.467  1.00  0.00     0.047 A 
ATOM      6  C   UNL     1      20.522   2.620 -25.903  1.00  0.00     0.115 A 
ATOM      7  C   UNL     1      21.230   3.481 -23.748  1.00  0.00     0.012 A 
ATOM      8  C   UNL     1      20.275   2.840 -24.542  1.00  0.00     0.047 A 
BRANCH   6   9
ATOM      9  O   UNL     1      19.576   1.981 -26.703  1.00  0.00    -0.508 OA
ATOM     10  H   UNL     1      18.831   1.425 -26.300  1.00  0.00     0.293 HD
ENDBRANCH   6   9
ENDBRANCH   1   3
BRANCH   2  11
ATOM     11  C   UNL     1      24.319   5.887 -21.572  1.00  0.00     0.189 C 
ATOM     12  O   UNL     1      25.530   5.688 -21.867  1.00  0.00    -0.289 OA
BRANCH  11  13
ATOM     13  C   UNL     1      23.996   6.754 -20.414  1.00  0.00     0.064 A 
ATOM     14  C   UNL     1      24.471   8.082 -20.322  1.00  0.00     0.130 A 
ATOM     15  C   UNL     1      23.217   6.233 -19.366  1.00  0.00     0.020 A 
ATOM     16  C   UNL     1      24.126   8.872 -19.214  1.00  0.00     0.093 A 
ATOM     17  C   UNL     1      22.886   7.026 -18.264  1.00  0.00     0.047 A 
ATOM     18  C   UNL     1      23.334   8.346 -18.187  1.00  0.00     0.119 A 
BRANCH  14  19
ATOM     19  O   UNL     1      25.300   8.610 -21.312  1.00  0.00    -0.507 OA
ATOM     20  H   UNL     1      25.600   8.058 -22.106  1.00  0.00     0.293 HD
ENDBRANCH  14  19
BRANCH  18  21
ATOM     21  O   UNL     1      22.992   9.125 -17.084  1.00  0.00    -0.508 OA
ATOM     22  H   UNL     1      23.320   8.898 -16.153  1.00  0.00     0.293 HD
ENDBRANCH  18  21
ENDBRANCH  11  13
ENDBRANCH   2  11
TORSDOF 6
ENDMDL
MODEL 6
REMARK VINA RESULT:    -5.142     16.155     17.095
REMARK INTER + INTRA:          -7.213
REMARK INTER:                  -6.842
REMARK INTRA:                  -0.371
REMARK UNBOUND:                -0.718
REMARK SMILES O=C(C=Cc1ccc(O)cc1)c1ccc(O)cc1O
REMARK SMILES IDX 4 1 3 2 5 3 6 4 7 5 8 6 11 7 10 8 9 9 2 11 1 12 12 13 18 14
REMARK SMILES IDX 13 15 17 16 14 17 15 18 19 19 16 21
REMARK H PARENT 9 10 19 20 16 22
REMARK Flexibility Score: inf
ROOT
ATOM      1  C   UNL     1      31.927  -9.312 -26.875  1.00  0.00     0.012 C 
ATOM      2  C   UNL     1      32.279  -8.246 -27.607  1.00  0.00     0.053 C 
ENDROOT
BRANCH   1   3
ATOM      3  C   UNL     1      31.982  -9.346 -25.392  1.00  0.00    -0.025 A 
ATOM      4  C   UNL     1      31.114 -10.211 -24.706  1.00  0.00     0.012 A 
ATOM      5  C   UNL     1      31.125 -10.268 -23.309  1.00  0.00     0.047 A 
ATOM      6  C   UNL     1      31.994  -9.454 -22.578  1.00  0.00     0.115 A 
ATOM      7  C   UNL     1      32.845  -8.516 -24.647  1.00  0.00     0.012 A 
ATOM      8  C   UNL     1      32.852  -8.575 -23.251  1.00  0.00     0.047 A 
BRANCH   6   9
ATOM      9  O   UNL     1      31.994  -9.521 -21.186  1.00  0.00    -0.508 OA
ATOM     10  H   UNL     1      31.584  -8.788 -20.620  1.00  0.00     0.293 HD
ENDBRANCH   6   9
ENDBRANCH   1   3
BRANCH   2  11
ATOM     11  C   UNL     1      32.226  -8.255 -29.085  1.00  0.00     0.189 C 
ATOM     12  O   UNL     1      33.290  -8.368 -29.753  1.00  0.00    -0.289 OA
BRANCH  11  13
ATOM     13  C   UNL     1      30.942  -8.080 -29.806  1.00  0.00     0.064 A 
ATOM     14  C   UNL     1      30.864  -8.144 -31.215  1.00  0.00     0.130 A 
ATOM     15  C   UNL     1      29.775  -7.817 -29.068  1.00  0.00     0.020 A 
ATOM     16  C   UNL     1      29.624  -7.987 -31.854  1.00  0.00     0.093 A 
ATOM     17  C   UNL     1      28.546  -7.656 -29.715  1.00  0.00     0.047 A 
ATOM     18  C   UNL     1      28.466  -7.745 -31.106  1.00  0.00     0.119 A 
BRANCH  14  19
ATOM     19  O   UNL     1      32.014  -8.337 -31.982  1.00  0.00    -0.507 OA
ATOM     20  H   UNL     1      32.596  -9.158 -31.871  1.00  0.00     0.293 HD
ENDBRANCH  14  19
BRANCH  18  21
ATOM     21  O   UNL     1      27.234  -7.586 -31.735  1.00  0.00    -0.508 OA
ATOM     22  H   UNL     1      26.584  -8.357 -31.828  1.00  0.00     0.293 HD
ENDBRANCH  18  21
ENDBRANCH  11  13
ENDBRANCH   2  11
TORSDOF 6
ENDMDL
MODEL 7
REMARK VINA RESULT:    -5.002      2.240      7.325
REMARK INTER + INTRA:          -7.035
REMARK INTER:                  -6.421
REMARK INTRA:                  -0.614
REMARK UNBOUND:                -0.718
REMARK SMILES O=C(C=Cc1ccc(O)cc1)c1ccc(O)cc1O
REMARK SMILES IDX 4 1 3 2 5 3 6 4 7 5 8 6 11 7 10 8 9 9 2 11 1 12 12 13 18 14
REMARK SMILES IDX 13 15 17 16 14 17 15 18 19 19 16 21
REMARK H PARENT 9 10 19 20 16 22
REMARK Flexibility Score: inf
ROOT
ATOM      1  C   UNL     1      24.355   5.673 -24.063  1.00  0.00     0.012 C 
ATOM      2  C   UNL     1      24.180   6.379 -22.937  1.00  0.00     0.053 C 
ENDROOT
BRANCH   1   3
ATOM      3  C   UNL     1      25.249   6.097 -25.169  1.00  0.00    -0.025 A 
ATOM      4  C   UNL     1      26.635   6.134 -24.938  1.00  0.00     0.012 A 
ATOM      5  C   UNL     1      27.513   6.538 -25.949  1.00  0.00     0.047 A 
ATOM      6  C   UNL     1      27.020   6.920 -27.199  1.00  0.00     0.115 A 
ATOM      7  C   UNL     1      24.758   6.499 -26.428  1.00  0.00     0.012 A 
ATOM      8  C   UNL     1      25.639   6.903 -27.435  1.00  0.00     0.047 A 
BRANCH   6   9
ATOM      9  O   UNL     1      27.907   7.320 -28.196  1.00  0.00    -0.508 OA
ATOM     10  H   UNL     1      27.944   8.279 -28.519  1.00  0.00     0.293 HD
ENDBRANCH   6   9
ENDBRANCH   1   3
BRANCH   2  11
ATOM     11  C   UNL     1      23.267   5.932 -21.863  1.00  0.00     0.189 C 
ATOM     12  O   UNL     1      22.524   4.928 -22.045  1.00  0.00    -0.289 OA
BRANCH  11  13
ATOM     13  C   UNL     1      23.168   6.676 -20.584  1.00  0.00     0.064 A 
ATOM     14  C   UNL     1      23.209   6.018 -19.335  1.00  0.00     0.130 A 
ATOM     15  C   UNL     1      23.002   8.072 -20.617  1.00  0.00     0.020 A 
ATOM     16  C   UNL     1      23.126   6.765 -18.149  1.00  0.00     0.093 A 
ATOM     17  C   UNL     1      22.914   8.805 -19.430  1.00  0.00     0.047 A 
ATOM     18  C   UNL     1      22.981   8.157 -18.196  1.00  0.00     0.119 A 
BRANCH  14  19
ATOM     19  O   UNL     1      23.306   4.628 -19.267  1.00  0.00    -0.507 OA
ATOM     20  H   UNL     1      23.778   4.164 -18.500  1.00  0.00     0.293 HD
ENDBRANCH  14  19
BRANCH  18  21
ATOM     21  O   UNL     1      22.896   8.902 -17.022  1.00  0.00    -0.508 OA
ATOM     22  H   UNL     1      23.189   9.871 -16.988  1.00  0.00     0.293 HD
ENDBRANCH  18  21
ENDBRANCH  11  13
ENDBRANCH   2  11
TORSDOF 6
ENDMDL
MODEL 8
REMARK VINA RESULT:    -4.923      1.873      2.574
REMARK INTER + INTRA:          -6.935
REMARK INTER:                  -6.444
REMARK INTRA:                  -0.492
REMARK UNBOUND:                -0.718
REMARK SMILES O=C(C=Cc1ccc(O)cc1)c1ccc(O)cc1O
REMARK SMILES IDX 4 1 3 2 5 3 6 4 7 5 8 6 11 7 10 8 9 9 2 11 1 12 12 13 18 14
REMARK SMILES IDX 13 15 17 16 14 17 15 18 19 19 16 21
REMARK H PARENT 9 10 19 20 16 22
REMARK Flexibility Score: inf
ROOT
ATOM      1  C   UNL     1      24.108   6.397 -22.431  1.00  0.00     0.012 C 
ATOM      2  C   UNL     1      24.764   7.242 -23.238  1.00  0.00     0.053 C 
ENDROOT
BRANCH   1   3
ATOM      3  C   UNL     1      23.536   6.789 -21.120  1.00  0.00    -0.025 A 
ATOM      4  C   UNL     1      23.466   5.824 -20.100  1.00  0.00     0.012 A 
ATOM      5  C   UNL     1      22.924   6.147 -18.852  1.00  0.00     0.047 A 
ATOM      6  C   UNL     1      22.435   7.433 -18.608  1.00  0.00     0.115 A 
ATOM      7  C   UNL     1      23.026   8.080 -20.871  1.00  0.00     0.012 A 
ATOM      8  C   UNL     1      22.484   8.398 -19.622  1.00  0.00     0.047 A 
BRANCH   6   9
ATOM      9  O   UNL     1      21.898   7.740 -17.359  1.00  0.00    -0.508 OA
ATOM     10  H   UNL     1      21.374   7.058 -16.826  1.00  0.00     0.293 HD
ENDBRANCH   6   9
ENDBRANCH   1   3
BRANCH   2  11
ATOM     11  C   UNL     1      25.336   6.811 -24.532  1.00  0.00     0.189 C 
ATOM     12  O   UNL     1      26.343   7.406 -25.005  1.00  0.00    -0.289 OA
BRANCH  11  13
ATOM     13  C   UNL     1      24.713   5.718 -25.317  1.00  0.00     0.064 A 
ATOM     14  C   UNL     1      25.018   4.360 -25.075  1.00  0.00     0.130 A 
ATOM     15  C   UNL     1      23.815   6.044 -26.348  1.00  0.00     0.020 A 
ATOM     16  C   UNL     1      24.393   3.358 -25.834  1.00  0.00     0.093 A 
ATOM     17  C   UNL     1      23.203   5.038 -27.102  1.00  0.00     0.047 A 
ATOM     18  C   UNL     1      23.486   3.695 -26.845  1.00  0.00     0.119 A 
BRANCH  14  19
ATOM     19  O   UNL     1      25.955   4.005 -24.104  1.00  0.00    -0.507 OA
ATOM     20  H   UNL     1      25.776   4.139 -23.117  1.00  0.00     0.293 HD
ENDBRANCH  14  19
BRANCH  18  21
ATOM     21  O   UNL     1      22.865   2.704 -27.602  1.00  0.00    -0.508 OA
ATOM     22  H   UNL     1      23.336   2.260 -28.380  1.00  0.00     0.293 HD
ENDBRANCH  18  21
ENDBRANCH  11  13
ENDBRANCH   2  11
TORSDOF 6
ENDMDL
MODEL 9
REMARK VINA RESULT:    -4.858      1.744      2.824
REMARK INTER + INTRA:          -6.854
REMARK INTER:                  -6.474
REMARK INTRA:                  -0.380
REMARK UNBOUND:                -0.718
REMARK SMILES O=C(C=Cc1ccc(O)cc1)c1ccc(O)cc1O
REMARK SMILES IDX 4 1 3 2 5 3 6 4 7 5 8 6 11 7 10 8 9 9 2 11 1 12 12 13 18 14
REMARK SMILES IDX 13 15 17 16 14 17 15 18 19 19 16 21
REMARK H PARENT 9 10 19 20 16 22
REMARK Flexibility Score: inf
ROOT
ATOM      1  C   UNL     1      23.966   7.170 -22.359  1.00  0.00     0.012 C 
ATOM      2  C   UNL     1      25.162   6.962 -22.925  1.00  0.00     0.053 C 
ENDROOT
BRANCH   1   3
ATOM      3  C   UNL     1      23.787   7.622 -20.957  1.00  0.00    -0.025 A 
ATOM      4  C   UNL     1      24.776   8.437 -20.380  1.00  0.00     0.012 A 
ATOM      5  C   UNL     1      24.654   8.877 -19.059  1.00  0.00     0.047 A 
ATOM      6  C   UNL     1      23.548   8.501 -18.291  1.00  0.00     0.115 A 
ATOM      7  C   UNL     1      22.682   7.235 -20.171  1.00  0.00     0.012 A 
ATOM      8  C   UNL     1      22.563   7.676 -18.850  1.00  0.00     0.047 A 
BRANCH   6   9
ATOM      9  O   UNL     1      23.439   8.947 -16.976  1.00  0.00    -0.508 OA
ATOM     10  H   UNL     1      22.552   8.944 -16.487  1.00  0.00     0.293 HD
ENDBRANCH   6   9
ENDBRANCH   1   3
BRANCH   2  11
ATOM     11  C   UNL     1      25.301   6.495 -24.322  1.00  0.00     0.189 C 
ATOM     12  O   UNL     1      26.224   6.953 -25.050  1.00  0.00    -0.289 OA
BRANCH  11  13
ATOM     13  C   UNL     1      24.338   5.531 -24.906  1.00  0.00     0.064 A 
ATOM     14  C   UNL     1      23.971   5.578 -26.269  1.00  0.00     0.130 A 
ATOM     15  C   UNL     1      23.754   4.560 -24.074  1.00  0.00     0.020 A 
ATOM     16  C   UNL     1      23.067   4.635 -26.782  1.00  0.00     0.093 A 
ATOM     17  C   UNL     1      22.850   3.630 -24.593  1.00  0.00     0.047 A 
ATOM     18  C   UNL     1      22.507   3.661 -25.946  1.00  0.00     0.119 A 
BRANCH  14  19
ATOM     19  O   UNL     1      24.481   6.570 -27.108  1.00  0.00    -0.507 OA
ATOM     20  H   UNL     1      25.391   6.984 -26.951  1.00  0.00     0.293 HD
ENDBRANCH  14  19
BRANCH  18  21
ATOM     21  O   UNL     1      21.608   2.725 -26.450  1.00  0.00    -0.508 OA
ATOM     22  H   UNL     1      21.796   2.216 -27.306  1.00  0.00     0.293 HD
ENDBRANCH  18  21
ENDBRANCH  11  13
ENDBRANCH   2  11
TORSDOF 6
ENDMDL
