MODEL 1
REMARK VINA RESULT:    -2.915      0.000      0.000
REMARK INTER + INTRA:          -3.693
REMARK INTER:                  -3.596
REMARK INTRA:                  -0.097
REMARK UNBOUND:                -0.097
REMARK SMILES CCCCCC(=O)[O-]
REMARK SMILES IDX 4 1 5 2 6 3 7 4 8 5 3 6 2 7 1 8
REMARK H PARENT
REMARK Flexibility Score: inf
ROOT
ATOM      1  C   UNL     1      34.682   7.324 -31.206  1.00  0.00     0.006 C 
ENDROOT
BRANCH   1   2
ATOM      2  C   UNL     1      33.237   7.476 -30.714  1.00  0.00     0.053 C 
BRANCH   2   3
ATOM      3  C   UNL     1      32.952   8.903 -30.362  1.00  0.00     0.041 C 
ATOM      4  O   UNL     1      32.452   9.192 -29.243  1.00  0.00    -0.550 OA
ATOM      5  O   UNL     1      33.286   9.918 -31.249  1.00  0.00    -0.550 OA
ENDBRANCH   2   3
ENDBRANCH   1   2
BRANCH   1   6
ATOM      6  C   UNL     1      35.099   5.855 -31.371  1.00  0.00     0.000 C 
BRANCH   6   7
ATOM      7  C   UNL     1      35.123   5.409 -32.840  1.00  0.00    -0.003 C 
ATOM      8  C   UNL     1      33.975   4.447 -33.140  1.00  0.00     0.004 C 
ENDBRANCH   6   7
ENDBRANCH   1   6
TORSDOF 4
ENDMDL
MODEL 2
REMARK VINA RESULT:    -2.901      1.254      2.129
REMARK INTER + INTRA:          -3.676
REMARK INTER:                  -3.479
REMARK INTRA:                  -0.196
REMARK UNBOUND:                -0.097
REMARK SMILES CCCCCC(=O)[O-]
REMARK SMILES IDX 4 1 5 2 6 3 7 4 8 5 3 6 2 7 1 8
REMARK H PARENT
REMARK Flexibility Score: inf
ROOT
ATOM      1  C   UNL     1      35.050   5.458 -31.415  1.00  0.00     0.006 C 
ENDROOT
BRANCH   1   2
ATOM      2  C   UNL     1      35.210   6.969 -31.203  1.00  0.00     0.053 C 
BRANCH   2   3
ATOM      3  C   UNL     1      33.875   7.609 -30.981  1.00  0.00     0.041 C 
ATOM      4  O   UNL     1      33.697   8.821 -31.272  1.00  0.00    -0.550 OA
ATOM      5  O   UNL     1      32.813   6.855 -30.499  1.00  0.00    -0.550 OA
ENDBRANCH   2   3
ENDBRANCH   1   2
BRANCH   1   6
ATOM      6  C   UNL     1      34.838   5.087 -32.892  1.00  0.00     0.000 C 
BRANCH   6   7
ATOM      7  C   UNL     1      33.845   3.931 -33.073  1.00  0.00    -0.003 C 
ATOM      8  C   UNL     1      32.403   4.425 -32.975  1.00  0.00     0.004 C 
ENDBRANCH   6   7
ENDBRANCH   1   6
TORSDOF 4
ENDMDL
MODEL 3
REMARK VINA RESULT:    -2.886      3.295      4.509
REMARK INTER + INTRA:          -3.657
REMARK INTER:                  -3.455
REMARK INTRA:                  -0.202
REMARK UNBOUND:                -0.097
REMARK SMILES CCCCCC(=O)[O-]
REMARK SMILES IDX 4 1 5 2 6 3 7 4 8 5 3 6 2 7 1 8
REMARK H PARENT
REMARK Flexibility Score: inf
ROOT
ATOM      1  C   UNL     1      34.952   5.181 -31.358  1.00  0.00     0.006 C 
ENDROOT
BRANCH   1   2
ATOM      2  C   UNL     1      34.773   4.947 -32.864  1.00  0.00     0.053 C 
BRANCH   2   3
ATOM      3  C   UNL     1      33.533   4.150 -33.125  1.00  0.00     0.041 C 
ATOM      4  O   UNL     1      33.614   2.920 -33.384  1.00  0.00    -0.550 OA
ATOM      5  O   UNL     1      32.286   4.753 -33.033  1.00  0.00    -0.550 OA
ENDBRANCH   2   3
ENDBRANCH   1   2
BRANCH   1   6
ATOM      6  C   UNL     1      35.395   6.616 -31.032  1.00  0.00     0.000 C 
BRANCH   6   7
ATOM      7  C   UNL     1      34.254   7.634 -31.180  1.00  0.00    -0.003 C 
ATOM      8  C   UNL     1      33.025   7.200 -30.385  1.00  0.00     0.004 C 
ENDBRANCH   6   7
ENDBRANCH   1   6
TORSDOF 4
ENDMDL
MODEL 4
REMARK VINA RESULT:    -2.841      2.886      3.952
REMARK INTER + INTRA:          -3.603
REMARK INTER:                  -3.489
REMARK INTRA:                  -0.114
REMARK UNBOUND:                -0.097
REMARK SMILES CCCCCC(=O)[O-]
REMARK SMILES IDX 4 1 5 2 6 3 7 4 8 5 3 6 2 7 1 8
REMARK H PARENT
REMARK Flexibility Score: inf
ROOT
ATOM      1  C   UNL     1      34.342   4.195 -32.944  1.00  0.00     0.006 C 
ENDROOT
BRANCH   1   2
ATOM      2  C   UNL     1      35.003   5.579 -32.886  1.00  0.00     0.053 C 
BRANCH   2   3
ATOM      3  C   UNL     1      35.464   5.878 -31.494  1.00  0.00     0.041 C 
ATOM      4  O   UNL     1      36.066   6.956 -31.244  1.00  0.00    -0.550 OA
ATOM      5  O   UNL     1      35.188   4.990 -30.463  1.00  0.00    -0.550 OA
ENDBRANCH   2   3
ENDBRANCH   1   2
BRANCH   1   6
ATOM      6  C   UNL     1      32.811   4.276 -33.056  1.00  0.00     0.000 C 
BRANCH   6   7
ATOM      7  C   UNL     1      32.178   2.936 -33.458  1.00  0.00    -0.003 C 
ATOM      8  C   UNL     1      33.239   1.845 -33.590  1.00  0.00     0.004 C 
ENDBRANCH   6   7
ENDBRANCH   1   6
TORSDOF 4
ENDMDL
MODEL 5
REMARK VINA RESULT:    -2.794      3.084      4.168
REMARK INTER + INTRA:          -3.544
REMARK INTER:                  -3.320
REMARK INTRA:                  -0.225
REMARK UNBOUND:                -0.097
REMARK SMILES CCCCCC(=O)[O-]
REMARK SMILES IDX 4 1 5 2 6 3 7 4 8 5 3 6 2 7 1 8
REMARK H PARENT
REMARK Flexibility Score: inf
ROOT
ATOM      1  C   UNL     1      35.265   6.875 -31.116  1.00  0.00     0.006 C 
ENDROOT
BRANCH   1   2
ATOM      2  C   UNL     1      35.001   5.385 -31.372  1.00  0.00     0.053 C 
BRANCH   2   3
ATOM      3  C   UNL     1      34.807   5.134 -32.835  1.00  0.00     0.041 C 
ATOM      4  O   UNL     1      33.779   4.532 -33.243  1.00  0.00    -0.550 OA
ATOM      5  O   UNL     1      35.738   5.606 -33.751  1.00  0.00    -0.550 OA
ENDBRANCH   2   3
ENDBRANCH   1   2
BRANCH   1   6
ATOM      6  C   UNL     1      33.973   7.704 -31.060  1.00  0.00     0.000 C 
BRANCH   6   7
ATOM      7  C   UNL     1      32.915   7.086 -30.134  1.00  0.00    -0.003 C 
ATOM      8  C   UNL     1      31.598   6.867 -30.876  1.00  0.00     0.004 C 
ENDBRANCH   6   7
ENDBRANCH   1   6
TORSDOF 4
ENDMDL
MODEL 6
REMARK VINA RESULT:    -2.789      2.966      4.580
REMARK INTER + INTRA:          -3.538
REMARK INTER:                  -3.427
REMARK INTRA:                  -0.111
REMARK UNBOUND:                -0.097
REMARK SMILES CCCCCC(=O)[O-]
REMARK SMILES IDX 4 1 5 2 6 3 7 4 8 5 3 6 2 7 1 8
REMARK H PARENT
REMARK Flexibility Score: inf
ROOT
ATOM      1  C   UNL     1      34.545   7.389 -31.218  1.00  0.00     0.006 C 
ENDROOT
BRANCH   1   2
ATOM      2  C   UNL     1      35.456   6.161 -31.342  1.00  0.00     0.053 C 
BRANCH   2   3
ATOM      3  C   UNL     1      35.053   5.329 -32.519  1.00  0.00     0.041 C 
ATOM      4  O   UNL     1      35.522   5.578 -33.661  1.00  0.00    -0.550 OA
ATOM      5  O   UNL     1      34.198   4.248 -32.347  1.00  0.00    -0.550 OA
ENDBRANCH   2   3
ENDBRANCH   1   2
BRANCH   1   6
ATOM      6  C   UNL     1      33.468   7.220 -30.136  1.00  0.00     0.000 C 
BRANCH   6   7
ATOM      7  C   UNL     1      32.624   8.488 -29.940  1.00  0.00    -0.003 C 
ATOM      8  C   UNL     1      33.087   9.605 -30.873  1.00  0.00     0.004 C 
ENDBRANCH   6   7
ENDBRANCH   1   6
TORSDOF 4
ENDMDL
MODEL 7
REMARK VINA RESULT:    -2.781     15.612     16.815
REMARK INTER + INTRA:          -3.528
REMARK INTER:                  -3.402
REMARK INTRA:                  -0.126
REMARK UNBOUND:                -0.097
REMARK SMILES CCCCCC(=O)[O-]
REMARK SMILES IDX 4 1 5 2 6 3 7 4 8 5 3 6 2 7 1 8
REMARK H PARENT
REMARK Flexibility Score: inf
ROOT
ATOM      1  C   UNL     1      24.708  -6.161 -29.232  1.00  0.00     0.006 C 
ENDROOT
BRANCH   1   2
ATOM      2  C   UNL     1      23.745  -5.936 -30.406  1.00  0.00     0.053 C 
BRANCH   2   3
ATOM      3  C   UNL     1      24.428  -5.178 -31.502  1.00  0.00     0.041 C 
ATOM      4  O   UNL     1      25.651  -4.897 -31.410  1.00  0.00    -0.550 OA
ATOM      5  O   UNL     1      23.724  -4.826 -32.646  1.00  0.00    -0.550 OA
ENDBRANCH   2   3
ENDBRANCH   1   2
BRANCH   1   6
ATOM      6  C   UNL     1      24.905  -7.649 -28.906  1.00  0.00     0.000 C 
BRANCH   6   7
ATOM      7  C   UNL     1      24.615  -7.974 -27.433  1.00  0.00    -0.003 C 
ATOM      8  C   UNL     1      24.163  -6.728 -26.675  1.00  0.00     0.004 C 
ENDBRANCH   6   7
ENDBRANCH   1   6
TORSDOF 4
ENDMDL
MODEL 8
REMARK VINA RESULT:    -2.774     16.259     17.448
REMARK INTER + INTRA:          -3.520
REMARK INTER:                  -3.317
REMARK INTRA:                  -0.203
REMARK UNBOUND:                -0.097
REMARK SMILES CCCCCC(=O)[O-]
REMARK SMILES IDX 4 1 5 2 6 3 7 4 8 5 3 6 2 7 1 8
REMARK H PARENT
REMARK Flexibility Score: inf
ROOT
ATOM      1  C   UNL     1      24.260  -7.872 -27.756  1.00  0.00     0.006 C 
ENDROOT
BRANCH   1   2
ATOM      2  C   UNL     1      25.185  -7.577 -28.945  1.00  0.00     0.053 C 
BRANCH   2   3
ATOM      3  C   UNL     1      24.822  -6.270 -29.578  1.00  0.00     0.041 C 
ATOM      4  O   UNL     1      25.432  -5.218 -29.253  1.00  0.00    -0.550 OA
ATOM      5  O   UNL     1      23.842  -6.222 -30.561  1.00  0.00    -0.550 OA
ENDBRANCH   2   3
ENDBRANCH   1   2
BRANCH   1   6
ATOM      6  C   UNL     1      25.018  -7.955 -26.423  1.00  0.00     0.000 C 
BRANCH   6   7
ATOM      7  C   UNL     1      24.829  -6.701 -25.557  1.00  0.00    -0.003 C 
ATOM      8  C   UNL     1      23.654  -5.862 -26.056  1.00  0.00     0.004 C 
ENDBRANCH   6   7
ENDBRANCH   1   6
TORSDOF 4
ENDMDL
MODEL 9
REMARK VINA RESULT:    -2.663     15.376     16.360
REMARK INTER + INTRA:          -3.382
REMARK INTER:                  -3.251
REMARK INTRA:                  -0.132
REMARK UNBOUND:                -0.097
REMARK SMILES CCCCCC(=O)[O-]
REMARK SMILES IDX 4 1 5 2 6 3 7 4 8 5 3 6 2 7 1 8
REMARK H PARENT
REMARK Flexibility Score: inf
ROOT
ATOM      1  C   UNL     1      25.292  -5.163 -29.968  1.00  0.00     0.006 C 
ENDROOT
BRANCH   1   2
ATOM      2  C   UNL     1      24.228  -5.668 -30.951  1.00  0.00     0.053 C 
BRANCH   2   3
ATOM      3  C   UNL     1      24.437  -5.062 -32.304  1.00  0.00     0.041 C 
ATOM      4  O   UNL     1      25.575  -5.091 -32.842  1.00  0.00    -0.550 OA
ATOM      5  O   UNL     1      23.365  -4.509 -32.992  1.00  0.00    -0.550 OA
ENDBRANCH   2   3
ENDBRANCH   1   2
BRANCH   1   6
ATOM      6  C   UNL     1      25.824  -6.274 -29.050  1.00  0.00     0.000 C 
BRANCH   6   7
ATOM      7  C   UNL     1      24.916  -7.514 -29.037  1.00  0.00    -0.003 C 
ATOM      8  C   UNL     1      24.566  -7.922 -27.608  1.00  0.00     0.004 C 
ENDBRANCH   6   7
ENDBRANCH   1   6
TORSDOF 4
ENDMDL
