MODEL 1
REMARK VINA RESULT:    -6.101      0.000      0.000
REMARK INTER + INTRA:          -7.310
REMARK INTER:                  -7.171
REMARK INTRA:                  -0.138
REMARK UNBOUND:                -0.138
REMARK SMILES O=C([O-])C=Cc1ccc(O)c(O)c1
REMARK SMILES IDX 6 1 13 2 7 3 11 4 8 5 9 6 5 7 4 8 2 9 1 10 3 11 12 12 10 14
REMARK H PARENT 12 13 10 15
REMARK Flexibility Score: inf
ROOT
ATOM      1  C   UNL     1     -14.664 -29.129 -13.665  1.00  0.00    -0.022 A 
ATOM      2  C   UNL     1     -13.671 -28.405 -14.344  1.00  0.00     0.058 A 
ATOM      3  C   UNL     1     -15.773 -28.436 -13.145  1.00  0.00     0.012 A 
ATOM      4  C   UNL     1     -13.756 -27.014 -14.484  1.00  0.00     0.157 A 
ATOM      5  C   UNL     1     -15.866 -27.050 -13.281  1.00  0.00     0.051 A 
ATOM      6  C   UNL     1     -14.868 -26.326 -13.942  1.00  0.00     0.157 A 
ENDROOT
BRANCH   1   7
ATOM      7  C   UNL     1     -14.522 -30.602 -13.559  1.00  0.00     0.010 C 
ATOM      8  C   UNL     1     -15.559 -31.453 -13.562  1.00  0.00     0.025 C 
BRANCH   8   9
ATOM      9  C   UNL     1     -15.380 -32.910 -13.444  1.00  0.00     0.064 C 
ATOM     10  O   UNL     1     -16.308 -33.707 -13.747  1.00  0.00    -0.545 OA
ATOM     11  O   UNL     1     -14.170 -33.414 -12.988  1.00  0.00    -0.545 OA
ENDBRANCH   8   9
ENDBRANCH   1   7
BRANCH   4  12
ATOM     12  O   UNL     1     -12.725 -26.363 -15.163  1.00  0.00    -0.504 OA
ATOM     13  H   UNL     1     -12.343 -25.469 -14.888  1.00  0.00     0.293 HD
ENDBRANCH   4  12
BRANCH   6  14
ATOM     14  O   UNL     1     -15.020 -24.941 -14.040  1.00  0.00    -0.504 OA
ATOM     15  H   UNL     1     -15.595 -24.484 -14.732  1.00  0.00     0.293 HD
ENDBRANCH   6  14
TORSDOF 4
ENDMDL
MODEL 2
REMARK VINA RESULT:    -6.006      1.415      1.439
REMARK INTER + INTRA:          -7.198
REMARK INTER:                  -7.061
REMARK INTRA:                  -0.136
REMARK UNBOUND:                -0.138
REMARK SMILES O=C([O-])C=Cc1ccc(O)c(O)c1
REMARK SMILES IDX 6 1 13 2 7 3 11 4 8 5 9 6 5 7 4 8 2 9 1 10 3 11 12 12 10 14
REMARK H PARENT 12 13 10 15
REMARK Flexibility Score: inf
ROOT
ATOM      1  C   UNL     1     -15.030 -29.696 -12.769  1.00  0.00    -0.022 A 
ATOM      2  C   UNL     1     -13.867 -29.017 -12.373  1.00  0.00     0.058 A 
ATOM      3  C   UNL     1     -16.121 -28.949 -13.251  1.00  0.00     0.012 A 
ATOM      4  C   UNL     1     -13.791 -27.619 -12.425  1.00  0.00     0.157 A 
ATOM      5  C   UNL     1     -16.053 -27.556 -13.307  1.00  0.00     0.051 A 
ATOM      6  C   UNL     1     -14.901 -26.878 -12.896  1.00  0.00     0.157 A 
ENDROOT
BRANCH   1   7
ATOM      7  C   UNL     1     -15.045 -31.178 -12.700  1.00  0.00     0.010 C 
ATOM      8  C   UNL     1     -15.641 -31.960 -13.612  1.00  0.00     0.025 C 
BRANCH   8   9
ATOM      9  C   UNL     1     -15.646 -33.429 -13.505  1.00  0.00     0.064 C 
ATOM     10  O   UNL     1     -16.656 -34.104 -13.843  1.00  0.00    -0.545 OA
ATOM     11  O   UNL     1     -14.520 -34.082 -13.023  1.00  0.00    -0.545 OA
ENDBRANCH   8   9
ENDBRANCH   1   7
BRANCH   4  12
ATOM     12  O   UNL     1     -12.605 -27.015 -12.005  1.00  0.00    -0.504 OA
ATOM     13  H   UNL     1     -11.821 -26.825 -12.614  1.00  0.00     0.293 HD
ENDBRANCH   4  12
BRANCH   6  14
ATOM     14  O   UNL     1     -14.899 -25.484 -12.974  1.00  0.00    -0.504 OA
ATOM     15  H   UNL     1     -15.554 -24.948 -13.524  1.00  0.00     0.293 HD
ENDBRANCH   6  14
TORSDOF 4
ENDMDL
MODEL 3
REMARK VINA RESULT:    -5.509      1.413      6.206
REMARK INTER + INTRA:          -6.614
REMARK INTER:                  -6.475
REMARK INTRA:                  -0.139
REMARK UNBOUND:                -0.138
REMARK SMILES O=C([O-])C=Cc1ccc(O)c(O)c1
REMARK SMILES IDX 6 1 13 2 7 3 11 4 8 5 9 6 5 7 4 8 2 9 1 10 3 11 12 12 10 14
REMARK H PARENT 12 13 10 15
REMARK Flexibility Score: inf
ROOT
ATOM      1  C   UNL     1     -15.092 -30.685 -13.106  1.00  0.00    -0.022 A 
ATOM      2  C   UNL     1     -16.044 -31.563 -13.647  1.00  0.00     0.058 A 
ATOM      3  C   UNL     1     -13.944 -31.223 -12.495  1.00  0.00     0.012 A 
ATOM      4  C   UNL     1     -15.880 -32.952 -13.564  1.00  0.00     0.157 A 
ATOM      5  C   UNL     1     -13.771 -32.605 -12.409  1.00  0.00     0.051 A 
ATOM      6  C   UNL     1     -14.728 -33.480 -12.933  1.00  0.00     0.157 A 
ENDROOT
BRANCH   1   7
ATOM      7  C   UNL     1     -15.318 -29.224 -13.235  1.00  0.00     0.010 C 
ATOM      8  C   UNL     1     -14.605 -28.299 -12.576  1.00  0.00     0.025 C 
BRANCH   8   9
ATOM      9  C   UNL     1     -14.865 -26.857 -12.720  1.00  0.00     0.064 C 
ATOM     10  O   UNL     1     -14.832 -26.086 -11.724  1.00  0.00    -0.545 OA
ATOM     11  O   UNL     1     -15.153 -26.338 -13.975  1.00  0.00    -0.545 OA
ENDBRANCH   8   9
ENDBRANCH   1   7
BRANCH   4  12
ATOM     12  O   UNL     1     -16.874 -33.760 -14.118  1.00  0.00    -0.504 OA
ATOM     13  H   UNL     1     -16.843 -34.131 -15.056  1.00  0.00     0.293 HD
ENDBRANCH   4  12
BRANCH   6  14
ATOM     14  O   UNL     1     -14.497 -34.852 -12.811  1.00  0.00    -0.504 OA
ATOM     15  H   UNL     1     -14.069 -35.283 -12.005  1.00  0.00     0.293 HD
ENDBRANCH   6  14
TORSDOF 4
ENDMDL
MODEL 4
REMARK VINA RESULT:    -5.501      1.546      6.062
REMARK INTER + INTRA:          -6.604
REMARK INTER:                  -6.475
REMARK INTRA:                  -0.128
REMARK UNBOUND:                -0.138
REMARK SMILES O=C([O-])C=Cc1ccc(O)c(O)c1
REMARK SMILES IDX 6 1 13 2 7 3 11 4 8 5 9 6 5 7 4 8 2 9 1 10 3 11 12 12 10 14
REMARK H PARENT 12 13 10 15
REMARK Flexibility Score: inf
ROOT
ATOM      1  C   UNL     1     -15.400 -30.703 -12.886  1.00  0.00    -0.022 A 
ATOM      2  C   UNL     1     -14.326 -31.240 -12.160  1.00  0.00     0.058 A 
ATOM      3  C   UNL     1     -16.234 -31.575 -13.610  1.00  0.00     0.012 A 
ATOM      4  C   UNL     1     -14.061 -32.616 -12.169  1.00  0.00     0.157 A 
ATOM      5  C   UNL     1     -15.977 -32.948 -13.624  1.00  0.00     0.051 A 
ATOM      6  C   UNL     1     -14.897 -33.481 -12.914  1.00  0.00     0.157 A 
ENDROOT
BRANCH   1   7
ATOM      7  C   UNL     1     -15.635 -29.239 -12.828  1.00  0.00     0.010 C 
ATOM      8  C   UNL     1     -14.652 -28.326 -12.834  1.00  0.00     0.025 C 
BRANCH   8   9
ATOM      9  C   UNL     1     -14.923 -26.880 -12.764  1.00  0.00     0.064 C 
ATOM     10  O   UNL     1     -14.875 -26.261 -11.667  1.00  0.00    -0.545 OA
ATOM     11  O   UNL     1     -15.236 -26.188 -13.925  1.00  0.00    -0.545 OA
ENDBRANCH   8   9
ENDBRANCH   1   7
BRANCH   4  12
ATOM     12  O   UNL     1     -12.969 -33.074 -11.429  1.00  0.00    -0.504 OA
ATOM     13  H   UNL     1     -12.292 -33.739 -11.775  1.00  0.00     0.293 HD
ENDBRANCH   4  12
BRANCH   6  14
ATOM     14  O   UNL     1     -14.693 -34.862 -12.972  1.00  0.00    -0.504 OA
ATOM     15  H   UNL     1     -14.221 -35.331 -13.730  1.00  0.00     0.293 HD
ENDBRANCH   6  14
TORSDOF 4
ENDMDL
MODEL 5
REMARK VINA RESULT:    -5.451      1.990      2.350
REMARK INTER + INTRA:          -6.545
REMARK INTER:                  -6.410
REMARK INTRA:                  -0.135
REMARK UNBOUND:                -0.138
REMARK SMILES O=C([O-])C=Cc1ccc(O)c(O)c1
REMARK SMILES IDX 6 1 13 2 7 3 11 4 8 5 9 6 5 7 4 8 2 9 1 10 3 11 12 12 10 14
REMARK H PARENT 12 13 10 15
REMARK Flexibility Score: inf
ROOT
ATOM      1  C   UNL     1     -13.761 -28.818 -12.363  1.00  0.00    -0.022 A 
ATOM      2  C   UNL     1     -13.730 -28.773 -13.766  1.00  0.00     0.058 A 
ATOM      3  C   UNL     1     -14.216 -27.689 -11.657  1.00  0.00     0.012 A 
ATOM      4  C   UNL     1     -14.118 -27.620 -14.462  1.00  0.00     0.157 A 
ATOM      5  C   UNL     1     -14.605 -26.537 -12.344  1.00  0.00     0.051 A 
ATOM      6  C   UNL     1     -14.558 -26.486 -13.741  1.00  0.00     0.157 A 
ENDROOT
BRANCH   1   7
ATOM      7  C   UNL     1     -13.348 -30.071 -11.684  1.00  0.00     0.010 C 
ATOM      8  C   UNL     1     -13.054 -31.208 -12.332  1.00  0.00     0.025 C 
BRANCH   8   9
ATOM      9  C   UNL     1     -12.659 -32.437 -11.624  1.00  0.00     0.064 C 
ATOM     10  O   UNL     1     -12.181 -32.392 -10.458  1.00  0.00    -0.545 OA
ATOM     11  O   UNL     1     -12.813 -33.665 -12.251  1.00  0.00    -0.545 OA
ENDBRANCH   8   9
ENDBRANCH   1   7
BRANCH   4  12
ATOM     12  O   UNL     1     -14.051 -27.648 -15.856  1.00  0.00    -0.504 OA
ATOM     13  H   UNL     1     -14.666 -28.196 -16.440  1.00  0.00     0.293 HD
ENDBRANCH   4  12
BRANCH   6  14
ATOM     14  O   UNL     1     -14.957 -25.302 -14.365  1.00  0.00    -0.504 OA
ATOM     15  H   UNL     1     -14.662 -24.382 -14.073  1.00  0.00     0.293 HD
ENDBRANCH   6  14
TORSDOF 4
ENDMDL
MODEL 6
REMARK VINA RESULT:    -5.448      3.756      5.387
REMARK INTER + INTRA:          -6.541
REMARK INTER:                  -6.410
REMARK INTRA:                  -0.131
REMARK UNBOUND:                -0.138
REMARK SMILES O=C([O-])C=Cc1ccc(O)c(O)c1
REMARK SMILES IDX 6 1 13 2 7 3 11 4 8 5 9 6 5 7 4 8 2 9 1 10 3 11 12 12 10 14
REMARK H PARENT 12 13 10 15
REMARK Flexibility Score: inf
ROOT
ATOM      1  C   UNL     1     -13.802 -27.860 -12.095  1.00  0.00    -0.022 A 
ATOM      2  C   UNL     1     -14.071 -29.236 -12.177  1.00  0.00     0.058 A 
ATOM      3  C   UNL     1     -14.759 -26.951 -12.583  1.00  0.00     0.012 A 
ATOM      4  C   UNL     1     -15.255 -29.709 -12.756  1.00  0.00     0.157 A 
ATOM      5  C   UNL     1     -15.942 -27.415 -13.161  1.00  0.00     0.051 A 
ATOM      6  C   UNL     1     -16.203 -28.786 -13.258  1.00  0.00     0.157 A 
ENDROOT
BRANCH   1   7
ATOM      7  C   UNL     1     -12.534 -27.421 -11.461  1.00  0.00     0.010 C 
ATOM      8  C   UNL     1     -12.050 -27.943 -10.324  1.00  0.00     0.025 C 
BRANCH   8   9
ATOM      9  C   UNL     1     -10.793 -27.474  -9.717  1.00  0.00     0.064 C 
ATOM     10  O   UNL     1     -10.024 -26.689 -10.334  1.00  0.00    -0.545 OA
ATOM     11  O   UNL     1     -10.449 -27.904  -8.443  1.00  0.00    -0.545 OA
ENDBRANCH   8   9
ENDBRANCH   1   7
BRANCH   4  12
ATOM     12  O   UNL     1     -15.447 -31.091 -12.810  1.00  0.00    -0.504 OA
ATOM     13  H   UNL     1     -15.633 -31.667 -12.002  1.00  0.00     0.293 HD
ENDBRANCH   4  12
BRANCH   6  14
ATOM     14  O   UNL     1     -17.403 -29.183 -13.851  1.00  0.00    -0.504 OA
ATOM     15  H   UNL     1     -18.316 -28.934 -13.499  1.00  0.00     0.293 HD
ENDBRANCH   6  14
TORSDOF 4
ENDMDL
MODEL 7
REMARK VINA RESULT:    -5.244      1.766      2.691
REMARK INTER + INTRA:          -6.302
REMARK INTER:                  -6.177
REMARK INTRA:                  -0.125
REMARK UNBOUND:                -0.138
REMARK SMILES O=C([O-])C=Cc1ccc(O)c(O)c1
REMARK SMILES IDX 6 1 13 2 7 3 11 4 8 5 9 6 5 7 4 8 2 9 1 10 3 11 12 12 10 14
REMARK H PARENT 12 13 10 15
REMARK Flexibility Score: inf
ROOT
ATOM      1  C   UNL     1     -14.640 -30.726 -12.507  1.00  0.00    -0.022 A 
ATOM      2  C   UNL     1     -15.664 -29.855 -12.910  1.00  0.00     0.058 A 
ATOM      3  C   UNL     1     -13.409 -30.182 -12.095  1.00  0.00     0.012 A 
ATOM      4  C   UNL     1     -15.468 -28.468 -12.933  1.00  0.00     0.157 A 
ATOM      5  C   UNL     1     -13.206 -28.801 -12.114  1.00  0.00     0.051 A 
ATOM      6  C   UNL     1     -14.221 -27.934 -12.532  1.00  0.00     0.157 A 
ENDROOT
BRANCH   1   7
ATOM      7  C   UNL     1     -14.913 -32.185 -12.494  1.00  0.00     0.010 C 
ATOM      8  C   UNL     1     -15.016 -32.932 -13.603  1.00  0.00     0.025 C 
BRANCH   8   9
ATOM      9  C   UNL     1     -15.299 -34.377 -13.553  1.00  0.00     0.064 C 
ATOM     10  O   UNL     1     -14.367 -35.221 -13.474  1.00  0.00    -0.545 OA
ATOM     11  O   UNL     1     -16.615 -34.816 -13.596  1.00  0.00    -0.545 OA
ENDBRANCH   8   9
ENDBRANCH   1   7
BRANCH   4  12
ATOM     12  O   UNL     1     -16.531 -27.666 -13.354  1.00  0.00    -0.504 OA
ATOM     13  H   UNL     1     -16.996 -27.767 -14.245  1.00  0.00     0.293 HD
ENDBRANCH   4  12
BRANCH   6  14
ATOM     14  O   UNL     1     -13.951 -26.563 -12.530  1.00  0.00    -0.504 OA
ATOM     15  H   UNL     1     -13.056 -26.164 -12.290  1.00  0.00     0.293 HD
ENDBRANCH   6  14
TORSDOF 4
ENDMDL
MODEL 8
REMARK VINA RESULT:    -5.217      4.405      5.685
REMARK INTER + INTRA:          -6.271
REMARK INTER:                  -6.139
REMARK INTRA:                  -0.131
REMARK UNBOUND:                -0.138
REMARK SMILES O=C([O-])C=Cc1ccc(O)c(O)c1
REMARK SMILES IDX 6 1 13 2 7 3 11 4 8 5 9 6 5 7 4 8 2 9 1 10 3 11 12 12 10 14
REMARK H PARENT 12 13 10 15
REMARK Flexibility Score: inf
ROOT
ATOM      1  C   UNL     1     -12.860 -28.323 -11.278  1.00  0.00    -0.022 A 
ATOM      2  C   UNL     1     -13.367 -27.108 -11.764  1.00  0.00     0.058 A 
ATOM      3  C   UNL     1     -13.490 -29.522 -11.660  1.00  0.00     0.012 A 
ATOM      4  C   UNL     1     -14.495 -27.073 -12.594  1.00  0.00     0.157 A 
ATOM      5  C   UNL     1     -14.614 -29.497 -12.488  1.00  0.00     0.051 A 
ATOM      6  C   UNL     1     -15.129 -28.285 -12.959  1.00  0.00     0.157 A 
ENDROOT
BRANCH   1   7
ATOM      7  C   UNL     1     -11.656 -28.294 -10.410  1.00  0.00     0.010 C 
ATOM      8  C   UNL     1     -11.372 -27.293  -9.565  1.00  0.00     0.025 C 
BRANCH   8   9
ATOM      9  C   UNL     1     -10.161 -27.293  -8.727  1.00  0.00     0.064 C 
ATOM     10  O   UNL     1      -9.687 -28.366  -8.265  1.00  0.00    -0.545 OA
ATOM     11  O   UNL     1      -9.530 -26.091  -8.440  1.00  0.00    -0.545 OA
ENDBRANCH   8   9
ENDBRANCH   1   7
BRANCH   4  12
ATOM     12  O   UNL     1     -14.946 -25.826 -13.030  1.00  0.00    -0.504 OA
ATOM     13  H   UNL     1     -15.451 -25.677 -13.892  1.00  0.00     0.293 HD
ENDBRANCH   4  12
BRANCH   6  14
ATOM     14  O   UNL     1     -16.258 -28.329 -13.780  1.00  0.00    -0.504 OA
ATOM     15  H   UNL     1     -16.224 -28.303 -14.788  1.00  0.00     0.293 HD
ENDBRANCH   6  14
TORSDOF 4
ENDMDL
MODEL 9
REMARK VINA RESULT:    -5.169      3.839      4.672
REMARK INTER + INTRA:          -6.213
REMARK INTER:                  -6.084
REMARK INTRA:                  -0.129
REMARK UNBOUND:                -0.138
REMARK SMILES O=C([O-])C=Cc1ccc(O)c(O)c1
REMARK SMILES IDX 6 1 13 2 7 3 11 4 8 5 9 6 5 7 4 8 2 9 1 10 3 11 12 12 10 14
REMARK H PARENT 12 13 10 15
REMARK Flexibility Score: inf
ROOT
ATOM      1  C   UNL     1     -13.118 -28.879 -11.593  1.00  0.00    -0.022 A 
ATOM      2  C   UNL     1     -13.572 -29.931 -12.403  1.00  0.00     0.058 A 
ATOM      3  C   UNL     1     -13.015 -27.590 -12.148  1.00  0.00     0.012 A 
ATOM      4  C   UNL     1     -13.895 -29.721 -13.750  1.00  0.00     0.157 A 
ATOM      5  C   UNL     1     -13.335 -27.372 -13.490  1.00  0.00     0.051 A 
ATOM      6  C   UNL     1     -13.771 -28.424 -14.302  1.00  0.00     0.157 A 
ENDROOT
BRANCH   1   7
ATOM      7  C   UNL     1     -12.802 -29.163 -10.171  1.00  0.00     0.010 C 
ATOM      8  C   UNL     1     -12.036 -30.188  -9.769  1.00  0.00     0.025 C 
BRANCH   8   9
ATOM      9  C   UNL     1     -11.753 -30.446  -8.347  1.00  0.00     0.064 C 
ATOM     10  O   UNL     1     -11.291 -31.555  -7.965  1.00  0.00    -0.545 OA
ATOM     11  O   UNL     1     -12.000 -29.452  -7.410  1.00  0.00    -0.545 OA
ENDBRANCH   8   9
ENDBRANCH   1   7
BRANCH   4  12
ATOM     12  O   UNL     1     -14.330 -30.818 -14.495  1.00  0.00    -0.504 OA
ATOM     13  H   UNL     1     -14.689 -30.755 -15.437  1.00  0.00     0.293 HD
ENDBRANCH   4  12
BRANCH   6  14
ATOM     14  O   UNL     1     -14.072 -28.139 -15.636  1.00  0.00    -0.504 OA
ATOM     15  H   UNL     1     -13.793 -28.718 -16.413  1.00  0.00     0.293 HD
ENDBRANCH   6  14
TORSDOF 4
ENDMDL
