MODEL 1
REMARK VINA RESULT:    -5.412      0.000      0.000
REMARK INTER + INTRA:         -11.157
REMARK INTER:                  -9.524
REMARK INTRA:                  -1.633
REMARK UNBOUND:                -1.633
REMARK SMILES CCCCCCC=CCCCCCCCC(=O)[O-]
REMARK SMILES IDX 10 1 11 2 12 3 13 4 14 5 15 6 16 7 17 8 18 9 9 10 8 11 7 12
REMARK SMILES IDX 6 13 5 14 4 15 3 16 2 17 1 18
REMARK H PARENT
REMARK Flexibility Score: inf
ROOT
ATOM      1  C   UNL     1      24.765  11.532  36.076  1.00  0.00     0.004 C 
ENDROOT
BRANCH   1   2
ATOM      2  C   UNL     1      26.097  12.145  35.615  1.00  0.00     0.000 C 
BRANCH   2   3
ATOM      3  C   UNL     1      26.933  11.170  34.768  1.00  0.00     0.000 C 
BRANCH   3   4
ATOM      4  C   UNL     1      28.018  11.883  33.946  1.00  0.00     0.000 C 
BRANCH   4   5
ATOM      5  C   UNL     1      27.464  13.071  33.140  1.00  0.00     0.006 C 
BRANCH   5   6
ATOM      6  C   UNL     1      26.944  12.642  31.761  1.00  0.00     0.053 C 
BRANCH   6   7
ATOM      7  C   UNL     1      27.996  11.937  30.961  1.00  0.00     0.041 C 
ATOM      8  O   UNL     1      27.830  10.738  30.614  1.00  0.00    -0.550 OA
ATOM      9  O   UNL     1      29.173  12.595  30.625  1.00  0.00    -0.550 OA
ENDBRANCH   6   7
ENDBRANCH   5   6
ENDBRANCH   4   5
ENDBRANCH   3   4
ENDBRANCH   2   3
ENDBRANCH   1   2
BRANCH   1  10
ATOM     10  C   UNL     1      23.547  12.297  35.538  1.00  0.00     0.027 C 
BRANCH  10  11
ATOM     11  C   UNL     1      23.018  11.646  34.287  1.00  0.00    -0.031 C 
ATOM     12  C   UNL     1      22.023  10.739  34.261  1.00  0.00    -0.031 C 
BRANCH  12  13
ATOM     13  C   UNL     1      21.232  10.303  35.468  1.00  0.00     0.027 C 
BRANCH  13  14
ATOM     14  C   UNL     1      19.814  10.884  35.426  1.00  0.00     0.004 C 
BRANCH  14  15
ATOM     15  C   UNL     1      19.758  12.245  36.137  1.00  0.00     0.000 C 
BRANCH  15  16
ATOM     16  C   UNL     1      19.295  13.385  35.211  1.00  0.00    -0.000 C 
BRANCH  16  17
ATOM     17  C   UNL     1      20.428  14.123  34.477  1.00  0.00    -0.003 C 
ATOM     18  C   UNL     1      20.397  13.916  32.964  1.00  0.00     0.004 C 
ENDBRANCH  16  17
ENDBRANCH  15  16
ENDBRANCH  14  15
ENDBRANCH  13  14
ENDBRANCH  12  13
ENDBRANCH  10  11
ENDBRANCH   1  10
TORSDOF 13
ENDMDL
MODEL 2
REMARK VINA RESULT:    -5.212      1.113      2.343
REMARK INTER + INTRA:         -10.806
REMARK INTER:                  -9.225
REMARK INTRA:                  -1.581
REMARK UNBOUND:                -1.633
REMARK SMILES CCCCCCC=CCCCCCCCC(=O)[O-]
REMARK SMILES IDX 10 1 11 2 12 3 13 4 14 5 15 6 16 7 17 8 18 9 9 10 8 11 7 12
REMARK SMILES IDX 6 13 5 14 4 15 3 16 2 17 1 18
REMARK H PARENT
REMARK Flexibility Score: inf
ROOT
ATOM      1  C   UNL     1      23.378  11.053  35.533  1.00  0.00     0.004 C 
ENDROOT
BRANCH   1   2
ATOM      2  C   UNL     1      24.864  11.078  35.925  1.00  0.00     0.000 C 
BRANCH   2   3
ATOM      3  C   UNL     1      25.780  11.439  34.743  1.00  0.00     0.000 C 
BRANCH   3   4
ATOM      4  C   UNL     1      27.069  12.148  35.190  1.00  0.00     0.000 C 
BRANCH   4   5
ATOM      5  C   UNL     1      27.696  12.995  34.069  1.00  0.00     0.006 C 
BRANCH   5   6
ATOM      6  C   UNL     1      28.371  12.128  32.998  1.00  0.00     0.053 C 
BRANCH   6   7
ATOM      7  C   UNL     1      28.009  12.569  31.613  1.00  0.00     0.041 C 
ATOM      8  O   UNL     1      26.802  12.737  31.297  1.00  0.00    -0.550 OA
ATOM      9  O   UNL     1      29.004  12.766  30.662  1.00  0.00    -0.550 OA
ENDBRANCH   6   7
ENDBRANCH   5   6
ENDBRANCH   4   5
ENDBRANCH   3   4
ENDBRANCH   2   3
ENDBRANCH   1   2
BRANCH   1  10
ATOM     10  C   UNL     1      22.847  12.442  35.151  1.00  0.00     0.027 C 
BRANCH  10  11
ATOM     11  C   UNL     1      22.319  12.441  33.739  1.00  0.00    -0.031 C 
ATOM     12  C   UNL     1      21.264  13.165  33.318  1.00  0.00    -0.031 C 
BRANCH  12  13
ATOM     13  C   UNL     1      20.506  14.148  34.174  1.00  0.00     0.027 C 
BRANCH  13  14
ATOM     14  C   UNL     1      19.080  13.652  34.437  1.00  0.00     0.004 C 
BRANCH  14  15
ATOM     15  C   UNL     1      18.887  13.299  35.920  1.00  0.00     0.000 C 
BRANCH  15  16
ATOM     16  C   UNL     1      19.413  11.896  36.275  1.00  0.00    -0.000 C 
BRANCH  16  17
ATOM     17  C   UNL     1      19.131  10.813  35.219  1.00  0.00    -0.003 C 
ATOM     18  C   UNL     1      20.043   9.595  35.352  1.00  0.00     0.004 C 
ENDBRANCH  16  17
ENDBRANCH  15  16
ENDBRANCH  14  15
ENDBRANCH  13  14
ENDBRANCH  12  13
ENDBRANCH  10  11
ENDBRANCH   1  10
TORSDOF 13
ENDMDL
MODEL 3
REMARK VINA RESULT:    -5.208      1.117      2.421
REMARK INTER + INTRA:         -10.798
REMARK INTER:                  -9.050
REMARK INTRA:                  -1.748
REMARK UNBOUND:                -1.633
REMARK SMILES CCCCCCC=CCCCCCCCC(=O)[O-]
REMARK SMILES IDX 10 1 11 2 12 3 13 4 14 5 15 6 16 7 17 8 18 9 9 10 8 11 7 12
REMARK SMILES IDX 6 13 5 14 4 15 3 16 2 17 1 18
REMARK H PARENT
REMARK Flexibility Score: inf
ROOT
ATOM      1  C   UNL     1      23.261  11.136  35.048  1.00  0.00     0.004 C 
ENDROOT
BRANCH   1   2
ATOM      2  C   UNL     1      23.596  12.521  35.623  1.00  0.00     0.000 C 
BRANCH   2   3
ATOM      3  C   UNL     1      25.017  12.590  36.208  1.00  0.00     0.000 C 
BRANCH   3   4
ATOM      4  C   UNL     1      26.022  11.735  35.419  1.00  0.00     0.000 C 
BRANCH   4   5
ATOM      5  C   UNL     1      27.311  12.504  35.078  1.00  0.00     0.006 C 
BRANCH   5   6
ATOM      6  C   UNL     1      28.128  11.806  33.982  1.00  0.00     0.053 C 
BRANCH   6   7
ATOM      7  C   UNL     1      27.602  12.111  32.613  1.00  0.00     0.041 C 
ATOM      8  O   UNL     1      26.998  13.194  32.395  1.00  0.00    -0.550 OA
ATOM      9  O   UNL     1      27.754  11.187  31.587  1.00  0.00    -0.550 OA
ENDBRANCH   6   7
ENDBRANCH   5   6
ENDBRANCH   4   5
ENDBRANCH   3   4
ENDBRANCH   2   3
ENDBRANCH   1   2
BRANCH   1  10
ATOM     10  C   UNL     1      22.175  10.410  35.854  1.00  0.00     0.027 C 
BRANCH  10  11
ATOM     11  C   UNL     1      20.926  10.233  35.028  1.00  0.00    -0.031 C 
ATOM     12  C   UNL     1      19.795  10.945  35.192  1.00  0.00    -0.031 C 
BRANCH  12  13
ATOM     13  C   UNL     1      19.636  12.083  36.169  1.00  0.00     0.027 C 
BRANCH  13  14
ATOM     14  C   UNL     1      19.267  13.378  35.437  1.00  0.00     0.004 C 
BRANCH  14  15
ATOM     15  C   UNL     1      20.474  13.934  34.665  1.00  0.00     0.000 C 
BRANCH  15  16
ATOM     16  C   UNL     1      20.159  14.217  33.185  1.00  0.00    -0.000 C 
BRANCH  16  17
ATOM     17  C   UNL     1      20.326  13.009  32.246  1.00  0.00    -0.003 C 
ATOM     18  C   UNL     1      21.782  12.581  32.073  1.00  0.00     0.004 C 
ENDBRANCH  16  17
ENDBRANCH  15  16
ENDBRANCH  14  15
ENDBRANCH  13  14
ENDBRANCH  12  13
ENDBRANCH  10  11
ENDBRANCH   1  10
TORSDOF 13
ENDMDL
MODEL 4
REMARK VINA RESULT:    -5.161      2.884      6.936
REMARK INTER + INTRA:         -10.717
REMARK INTER:                  -9.027
REMARK INTRA:                  -1.690
REMARK UNBOUND:                -1.633
REMARK SMILES CCCCCCC=CCCCCCCCC(=O)[O-]
REMARK SMILES IDX 10 1 11 2 12 3 13 4 14 5 15 6 16 7 17 8 18 9 9 10 8 11 7 12
REMARK SMILES IDX 6 13 5 14 4 15 3 16 2 17 1 18
REMARK H PARENT
REMARK Flexibility Score: inf
ROOT
ATOM      1  C   UNL     1      22.277  11.094  34.167  1.00  0.00     0.004 C 
ENDROOT
BRANCH   1   2
ATOM      2  C   UNL     1      21.709  10.998  35.592  1.00  0.00     0.000 C 
BRANCH   2   3
ATOM      3  C   UNL     1      20.257  11.496  35.683  1.00  0.00     0.000 C 
BRANCH   3   4
ATOM      4  C   UNL     1      20.165  13.018  35.878  1.00  0.00     0.000 C 
BRANCH   4   5
ATOM      5  C   UNL     1      19.449  13.721  34.712  1.00  0.00     0.006 C 
BRANCH   5   6
ATOM      6  C   UNL     1      20.435  14.248  33.660  1.00  0.00     0.053 C 
BRANCH   6   7
ATOM      7  C   UNL     1      20.241  13.584  32.331  1.00  0.00     0.041 C 
ATOM      8  O   UNL     1      20.757  14.079  31.295  1.00  0.00    -0.550 OA
ATOM      9  O   UNL     1      19.466  12.434  32.233  1.00  0.00    -0.550 OA
ENDBRANCH   6   7
ENDBRANCH   5   6
ENDBRANCH   4   5
ENDBRANCH   3   4
ENDBRANCH   2   3
ENDBRANCH   1   2
BRANCH   1  10
ATOM     10  C   UNL     1      23.586  11.895  34.108  1.00  0.00     0.027 C 
BRANCH  10  11
ATOM     11  C   UNL     1      23.909  12.490  35.455  1.00  0.00    -0.031 C 
ATOM     12  C   UNL     1      25.139  12.516  36.002  1.00  0.00    -0.031 C 
BRANCH  12  13
ATOM     13  C   UNL     1      26.391  12.032  35.316  1.00  0.00     0.027 C 
BRANCH  13  14
ATOM     14  C   UNL     1      27.374  13.188  35.102  1.00  0.00     0.004 C 
BRANCH  14  15
ATOM     15  C   UNL     1      27.262  13.747  33.676  1.00  0.00     0.000 C 
BRANCH  15  16
ATOM     16  C   UNL     1      26.824  12.685  32.650  1.00  0.00    -0.000 C 
BRANCH  16  17
ATOM     17  C   UNL     1      27.977  11.922  31.975  1.00  0.00    -0.003 C 
ATOM     18  C   UNL     1      28.704  12.751  30.917  1.00  0.00     0.004 C 
ENDBRANCH  16  17
ENDBRANCH  15  16
ENDBRANCH  14  15
ENDBRANCH  13  14
ENDBRANCH  12  13
ENDBRANCH  10  11
ENDBRANCH   1  10
TORSDOF 13
ENDMDL
MODEL 5
REMARK VINA RESULT:    -5.088      3.734      7.282
REMARK INTER + INTRA:         -10.587
REMARK INTER:                  -9.417
REMARK INTRA:                  -1.170
REMARK UNBOUND:                -1.633
REMARK SMILES CCCCCCC=CCCCCCCCC(=O)[O-]
REMARK SMILES IDX 10 1 11 2 12 3 13 4 14 5 15 6 16 7 17 8 18 9 9 10 8 11 7 12
REMARK SMILES IDX 6 13 5 14 4 15 3 16 2 17 1 18
REMARK H PARENT
REMARK Flexibility Score: inf
ROOT
ATOM      1  C   UNL     1      24.608  10.846  35.916  1.00  0.00     0.004 C 
ENDROOT
BRANCH   1   2
ATOM      2  C   UNL     1      23.093  10.998  35.709  1.00  0.00     0.000 C 
BRANCH   2   3
ATOM      3  C   UNL     1      22.659  12.469  35.589  1.00  0.00     0.000 C 
BRANCH   3   4
ATOM      4  C   UNL     1      21.947  12.768  34.260  1.00  0.00     0.000 C 
BRANCH   4   5
ATOM      5  C   UNL     1      20.776  13.752  34.426  1.00  0.00     0.006 C 
BRANCH   5   6
ATOM      6  C   UNL     1      19.924  13.434  35.663  1.00  0.00     0.053 C 
BRANCH   6   7
ATOM      7  C   UNL     1      19.033  12.251  35.439  1.00  0.00     0.041 C 
ATOM      8  O   UNL     1      17.973  12.376  34.770  1.00  0.00    -0.550 OA
ATOM      9  O   UNL     1      19.357  11.019  35.994  1.00  0.00    -0.550 OA
ENDBRANCH   6   7
ENDBRANCH   5   6
ENDBRANCH   4   5
ENDBRANCH   3   4
ENDBRANCH   2   3
ENDBRANCH   1   2
BRANCH   1  10
ATOM     10  C   UNL     1      25.415  11.231  34.668  1.00  0.00     0.027 C 
BRANCH  10  11
ATOM     11  C   UNL     1      26.871  10.884  34.846  1.00  0.00    -0.031 C 
ATOM     12  C   UNL     1      27.877  11.780  34.824  1.00  0.00    -0.031 C 
BRANCH  12  13
ATOM     13  C   UNL     1      27.692  13.271  34.704  1.00  0.00     0.027 C 
BRANCH  13  14
ATOM     14  C   UNL     1      27.463  13.673  33.242  1.00  0.00     0.004 C 
BRANCH  14  15
ATOM     15  C   UNL     1      28.244  12.752  32.292  1.00  0.00     0.000 C 
BRANCH  15  16
ATOM     16  C   UNL     1      27.365  12.164  31.173  1.00  0.00    -0.000 C 
BRANCH  16  17
ATOM     17  C   UNL     1      25.908  12.661  31.165  1.00  0.00    -0.003 C 
ATOM     18  C   UNL     1      25.606  13.612  30.009  1.00  0.00     0.004 C 
ENDBRANCH  16  17
ENDBRANCH  15  16
ENDBRANCH  14  15
ENDBRANCH  13  14
ENDBRANCH  12  13
ENDBRANCH  10  11
ENDBRANCH   1  10
TORSDOF 13
ENDMDL
MODEL 6
REMARK VINA RESULT:    -5.079      1.902      3.631
REMARK INTER + INTRA:         -10.572
REMARK INTER:                  -8.528
REMARK INTRA:                  -2.044
REMARK UNBOUND:                -1.633
REMARK SMILES CCCCCCC=CCCCCCCCC(=O)[O-]
REMARK SMILES IDX 10 1 11 2 12 3 13 4 14 5 15 6 16 7 17 8 18 9 9 10 8 11 7 12
REMARK SMILES IDX 6 13 5 14 4 15 3 16 2 17 1 18
REMARK H PARENT
REMARK Flexibility Score: inf
ROOT
ATOM      1  C   UNL     1      23.037  12.339  33.029  1.00  0.00     0.004 C 
ENDROOT
BRANCH   1   2
ATOM      2  C   UNL     1      23.507  11.516  34.239  1.00  0.00     0.000 C 
BRANCH   2   3
ATOM      3  C   UNL     1      23.821  12.394  35.463  1.00  0.00     0.000 C 
BRANCH   3   4
ATOM      4  C   UNL     1      25.147  12.013  36.140  1.00  0.00     0.000 C 
BRANCH   4   5
ATOM      5  C   UNL     1      26.134  11.342  35.169  1.00  0.00     0.006 C 
BRANCH   5   6
ATOM      6  C   UNL     1      27.463  12.104  35.077  1.00  0.00     0.053 C 
BRANCH   6   7
ATOM      7  C   UNL     1      27.285  13.467  34.483  1.00  0.00     0.041 C 
ATOM      8  O   UNL     1      27.535  14.493  35.170  1.00  0.00    -0.550 OA
ATOM      9  O   UNL     1      26.815  13.606  33.183  1.00  0.00    -0.550 OA
ENDBRANCH   6   7
ENDBRANCH   5   6
ENDBRANCH   4   5
ENDBRANCH   3   4
ENDBRANCH   2   3
ENDBRANCH   1   2
BRANCH   1  10
ATOM     10  C   UNL     1      21.516  12.279  32.832  1.00  0.00     0.027 C 
BRANCH  10  11
ATOM     11  C   UNL     1      20.902  13.646  33.001  1.00  0.00    -0.031 C 
ATOM     12  C   UNL     1      20.407  14.122  34.160  1.00  0.00    -0.031 C 
BRANCH  12  13
ATOM     13  C   UNL     1      20.469  13.394  35.479  1.00  0.00     0.027 C 
BRANCH  13  14
ATOM     14  C   UNL     1      19.097  12.812  35.841  1.00  0.00     0.004 C 
BRANCH  14  15
ATOM     15  C   UNL     1      18.975  11.358  35.360  1.00  0.00     0.000 C 
BRANCH  15  16
ATOM     16  C   UNL     1      20.134  10.468  35.845  1.00  0.00    -0.000 C 
BRANCH  16  17
ATOM     17  C   UNL     1      20.615   9.420  34.826  1.00  0.00    -0.003 C 
ATOM     18  C   UNL     1      19.655   9.242  33.651  1.00  0.00     0.004 C 
ENDBRANCH  16  17
ENDBRANCH  15  16
ENDBRANCH  14  15
ENDBRANCH  13  14
ENDBRANCH  12  13
ENDBRANCH  10  11
ENDBRANCH   1  10
TORSDOF 13
ENDMDL
MODEL 7
REMARK VINA RESULT:    -5.043      3.665      7.288
REMARK INTER + INTRA:         -10.509
REMARK INTER:                  -8.817
REMARK INTRA:                  -1.692
REMARK UNBOUND:                -1.633
REMARK SMILES CCCCCCC=CCCCCCCCC(=O)[O-]
REMARK SMILES IDX 10 1 11 2 12 3 13 4 14 5 15 6 16 7 17 8 18 9 9 10 8 11 7 12
REMARK SMILES IDX 6 13 5 14 4 15 3 16 2 17 1 18
REMARK H PARENT
REMARK Flexibility Score: inf
ROOT
ATOM      1  C   UNL     1      22.373  11.206  34.181  1.00  0.00     0.004 C 
ENDROOT
BRANCH   1   2
ATOM      2  C   UNL     1      22.425  12.628  33.599  1.00  0.00     0.000 C 
BRANCH   2   3
ATOM      3  C   UNL     1      21.028  13.182  33.273  1.00  0.00     0.000 C 
BRANCH   3   4
ATOM      4  C   UNL     1      20.496  14.125  34.364  1.00  0.00     0.000 C 
BRANCH   4   5
ATOM      5  C   UNL     1      19.176  13.629  34.981  1.00  0.00     0.006 C 
BRANCH   5   6
ATOM      6  C   UNL     1      19.403  12.525  36.022  1.00  0.00     0.053 C 
BRANCH   6   7
ATOM      7  C   UNL     1      19.049  11.171  35.487  1.00  0.00     0.041 C 
ATOM      8  O   UNL     1      19.498  10.134  36.043  1.00  0.00    -0.550 OA
ATOM      9  O   UNL     1      18.249  11.056  34.357  1.00  0.00    -0.550 OA
ENDBRANCH   6   7
ENDBRANCH   5   6
ENDBRANCH   4   5
ENDBRANCH   3   4
ENDBRANCH   2   3
ENDBRANCH   1   2
BRANCH   1  10
ATOM     10  C   UNL     1      23.141  11.083  35.505  1.00  0.00     0.027 C 
BRANCH  10  11
ATOM     11  C   UNL     1      24.014  12.291  35.729  1.00  0.00    -0.031 C 
ATOM     12  C   UNL     1      25.355  12.298  35.602  1.00  0.00    -0.031 C 
BRANCH  12  13
ATOM     13  C   UNL     1      26.175  11.123  35.133  1.00  0.00     0.027 C 
BRANCH  13  14
ATOM     14  C   UNL     1      27.618  11.551  34.840  1.00  0.00     0.004 C 
BRANCH  14  15
ATOM     15  C   UNL     1      27.649  12.846  34.014  1.00  0.00     0.000 C 
BRANCH  15  16
ATOM     16  C   UNL     1      28.011  12.604  32.537  1.00  0.00    -0.000 C 
BRANCH  16  17
ATOM     17  C   UNL     1      26.895  11.962  31.693  1.00  0.00    -0.003 C 
ATOM     18  C   UNL     1      25.609  12.785  31.676  1.00  0.00     0.004 C 
ENDBRANCH  16  17
ENDBRANCH  15  16
ENDBRANCH  14  15
ENDBRANCH  13  14
ENDBRANCH  12  13
ENDBRANCH  10  11
ENDBRANCH   1  10
TORSDOF 13
ENDMDL
MODEL 8
REMARK VINA RESULT:    -5.037      1.244      2.544
REMARK INTER + INTRA:         -10.498
REMARK INTER:                  -8.514
REMARK INTRA:                  -1.984
REMARK UNBOUND:                -1.633
REMARK SMILES CCCCCCC=CCCCCCCCC(=O)[O-]
REMARK SMILES IDX 10 1 11 2 12 3 13 4 14 5 15 6 16 7 17 8 18 9 9 10 8 11 7 12
REMARK SMILES IDX 6 13 5 14 4 15 3 16 2 17 1 18
REMARK H PARENT
REMARK Flexibility Score: inf
ROOT
ATOM      1  C   UNL     1      23.541  11.177  35.575  1.00  0.00     0.004 C 
ENDROOT
BRANCH   1   2
ATOM      2  C   UNL     1      24.063  12.600  35.832  1.00  0.00     0.000 C 
BRANCH   2   3
ATOM      3  C   UNL     1      25.599  12.677  35.817  1.00  0.00     0.000 C 
BRANCH   3   4
ATOM      4  C   UNL     1      26.246  11.456  35.144  1.00  0.00     0.000 C 
BRANCH   4   5
ATOM      5  C   UNL     1      27.362  11.846  34.160  1.00  0.00     0.006 C 
BRANCH   5   6
ATOM      6  C   UNL     1      26.973  13.049  33.291  1.00  0.00     0.053 C 
BRANCH   6   7
ATOM      7  C   UNL     1      26.619  12.638  31.894  1.00  0.00     0.041 C 
ATOM      8  O   UNL     1      25.771  13.297  31.237  1.00  0.00    -0.550 OA
ATOM      9  O   UNL     1      27.204  11.511  31.331  1.00  0.00    -0.550 OA
ENDBRANCH   6   7
ENDBRANCH   5   6
ENDBRANCH   4   5
ENDBRANCH   3   4
ENDBRANCH   2   3
ENDBRANCH   1   2
BRANCH   1  10
ATOM     10  C   UNL     1      22.570  11.112  34.388  1.00  0.00     0.027 C 
BRANCH  10  11
ATOM     11  C   UNL     1      23.120  11.868  33.205  1.00  0.00    -0.031 C 
ATOM     12  C   UNL     1      22.369  12.539  32.312  1.00  0.00    -0.031 C 
BRANCH  12  13
ATOM     13  C   UNL     1      20.873  12.708  32.407  1.00  0.00     0.027 C 
BRANCH  13  14
ATOM     14  C   UNL     1      20.519  14.048  33.064  1.00  0.00     0.004 C 
BRANCH  14  15
ATOM     15  C   UNL     1      19.455  13.859  34.156  1.00  0.00     0.000 C 
BRANCH  15  16
ATOM     16  C   UNL     1      20.062  13.520  35.529  1.00  0.00    -0.000 C 
BRANCH  16  17
ATOM     17  C   UNL     1      19.275  12.478  36.345  1.00  0.00    -0.003 C 
ATOM     18  C   UNL     1      19.348  11.073  35.752  1.00  0.00     0.004 C 
ENDBRANCH  16  17
ENDBRANCH  15  16
ENDBRANCH  14  15
ENDBRANCH  13  14
ENDBRANCH  12  13
ENDBRANCH  10  11
ENDBRANCH   1  10
TORSDOF 13
ENDMDL
MODEL 9
REMARK VINA RESULT:    -4.929      2.233      3.959
REMARK INTER + INTRA:         -10.308
REMARK INTER:                  -8.238
REMARK INTRA:                  -2.070
REMARK UNBOUND:                -1.633
REMARK SMILES CCCCCCC=CCCCCCCCC(=O)[O-]
REMARK SMILES IDX 10 1 11 2 12 3 13 4 14 5 15 6 16 7 17 8 18 9 9 10 8 11 7 12
REMARK SMILES IDX 6 13 5 14 4 15 3 16 2 17 1 18
REMARK H PARENT
REMARK Flexibility Score: inf
ROOT
ATOM      1  C   UNL     1      21.828  11.524  31.819  1.00  0.00     0.004 C 
ENDROOT
BRANCH   1   2
ATOM      2  C   UNL     1      23.107  12.320  32.123  1.00  0.00     0.000 C 
BRANCH   2   3
ATOM      3  C   UNL     1      24.035  12.435  30.902  1.00  0.00     0.000 C 
BRANCH   3   4
ATOM      4  C   UNL     1      25.472  12.824  31.286  1.00  0.00     0.000 C 
BRANCH   4   5
ATOM      5  C   UNL     1      25.729  12.713  32.799  1.00  0.00     0.006 C 
BRANCH   5   6
ATOM      6  C   UNL     1      27.151  13.151  33.178  1.00  0.00     0.053 C 
BRANCH   6   7
ATOM      7  C   UNL     1      27.303  13.334  34.656  1.00  0.00     0.041 C 
ATOM      8  O   UNL     1      27.509  12.338  35.399  1.00  0.00    -0.550 OA
ATOM      9  O   UNL     1      27.189  14.601  35.217  1.00  0.00    -0.550 OA
ENDBRANCH   6   7
ENDBRANCH   5   6
ENDBRANCH   4   5
ENDBRANCH   3   4
ENDBRANCH   2   3
ENDBRANCH   1   2
BRANCH   1  10
ATOM     10  C   UNL     1      20.554  12.282  32.217  1.00  0.00     0.027 C 
BRANCH  10  11
ATOM     11  C   UNL     1      20.895  13.615  32.832  1.00  0.00    -0.031 C 
ATOM     12  C   UNL     1      20.340  14.101  33.958  1.00  0.00    -0.031 C 
BRANCH  12  13
ATOM     13  C   UNL     1      19.357  13.350  34.820  1.00  0.00     0.027 C 
BRANCH  13  14
ATOM     14  C   UNL     1      20.083  12.589  35.935  1.00  0.00     0.004 C 
BRANCH  14  15
ATOM     15  C   UNL     1      20.179  11.092  35.605  1.00  0.00     0.000 C 
BRANCH  15  16
ATOM     16  C   UNL     1      21.629  10.575  35.587  1.00  0.00    -0.000 C 
BRANCH  16  17
ATOM     17  C   UNL     1      22.706  11.662  35.748  1.00  0.00    -0.003 C 
ATOM     18  C   UNL     1      24.129  11.110  35.686  1.00  0.00     0.004 C 
ENDBRANCH  16  17
ENDBRANCH  15  16
ENDBRANCH  14  15
ENDBRANCH  13  14
ENDBRANCH  12  13
ENDBRANCH  10  11
ENDBRANCH   1  10
TORSDOF 13
ENDMDL
