MODEL 1
REMARK VINA RESULT:    16.340      0.000      0.000
REMARK INTER + INTRA:          18.443
REMARK INTER:                  18.729
REMARK INTRA:                  -0.286
REMARK UNBOUND:                -0.286
REMARK SMILES O=C1C[C@H](c2ccc(O)cc2)Oc2cc(O)cc(O)c21
REMARK SMILES IDX 3 1 4 2 12 3 13 4 14 5 15 6 17 7 18 8 20 9 2 10 1 11 5 12
REMARK SMILES IDX 6 13 11 14 7 15 10 16 8 17 9 18 19 20 16 22
REMARK H PARENT 9 19 19 21 16 23
REMARK Flexibility Score: inf
ROOT
ATOM      1  C   UNL     1      -5.945  -0.898  13.934  1.00  0.00     0.131 C 
ATOM      2  C   UNL     1      -4.658  -0.345  13.304  1.00  0.00     0.211 C 
ATOM      3  O   UNL     1      -4.285  -1.120  12.161  1.00  0.00    -0.484 OA
ATOM      4  C   UNL     1      -4.409  -2.515  12.121  1.00  0.00     0.138 A 
ATOM      5  C   UNL     1      -3.773  -3.222  11.097  1.00  0.00     0.093 A 
ATOM      6  C   UNL     1      -3.867  -4.613  11.037  1.00  0.00     0.123 A 
ATOM      7  C   UNL     1      -4.624  -5.300  11.991  1.00  0.00     0.093 A 
ATOM      8  C   UNL     1      -5.303  -4.609  13.003  1.00  0.00     0.133 A 
ATOM      9  C   UNL     1      -5.171  -3.198  13.094  1.00  0.00     0.102 A 
ATOM     10  C   UNL     1      -5.786  -2.371  14.162  1.00  0.00     0.174 C 
ATOM     11  O   UNL     1      -6.125  -2.865  15.270  1.00  0.00    -0.294 OA
ENDROOT
BRANCH   2  12
ATOM     12  C   UNL     1      -4.836   1.102  12.912  1.00  0.00    -0.007 A 
ATOM     13  C   UNL     1      -5.950   1.507  12.156  1.00  0.00     0.011 A 
ATOM     14  C   UNL     1      -3.916   2.071  13.348  1.00  0.00     0.011 A 
ATOM     15  C   UNL     1      -6.125   2.853  11.821  1.00  0.00     0.046 A 
ATOM     16  C   UNL     1      -4.093   3.416  13.011  1.00  0.00     0.046 A 
ATOM     17  C   UNL     1      -5.199   3.810  12.245  1.00  0.00     0.115 A 
BRANCH  17  18
ATOM     18  O   UNL     1      -5.385   5.147  11.904  1.00  0.00    -0.508 OA
ATOM     19  H   UNL     1      -5.823   5.415  11.030  1.00  0.00     0.293 HD
ENDBRANCH  17  18
ENDBRANCH   2  12
BRANCH   8  20
ATOM     20  O   UNL     1      -6.114  -5.357  13.859  1.00  0.00    -0.507 OA
ATOM     21  H   UNL     1      -5.763  -5.923  14.618  1.00  0.00     0.293 HD
ENDBRANCH   8  20
BRANCH   6  22
ATOM     22  O   UNL     1      -3.208  -5.303  10.022  1.00  0.00    -0.508 OA
ATOM     23  H   UNL     1      -2.242  -5.105   9.788  1.00  0.00     0.293 HD
ENDBRANCH   6  22
TORSDOF 4
ENDMDL
