MODEL 1
REMARK VINA RESULT:    -5.028      0.000      0.000
REMARK INTER + INTRA:          -5.322
REMARK INTER:                  -5.322
REMARK INTRA:                   0.000
REMARK UNBOUND:                 0.000
REMARK SMILES Cc1cc(O)c(C)c(C)c1O
REMARK SMILES IDX 1 1 2 2 3 3 4 4 6 5 8 6 10 7 9 8 7 9 11 10 5 12
REMARK H PARENT 11 11 5 13
REMARK Flexibility Score: inf
ROOT
ATOM      1  C   UNL     1      17.716  -0.004 -14.079  1.00  0.00     0.048 C 
ATOM      2  C   UNL     1      16.289  -0.147 -13.627  1.00  0.00    -0.005 A 
ATOM      3  C   UNL     1      15.938   0.169 -12.311  1.00  0.00     0.053 A 
ATOM      4  C   UNL     1      14.615   0.079 -11.879  1.00  0.00     0.119 A 
ATOM      5  C   UNL     1      13.602  -0.325 -12.780  1.00  0.00    -0.003 A 
ATOM      6  C   UNL     1      13.967  -0.769 -14.082  1.00  0.00    -0.002 A 
ATOM      7  C   UNL     1      15.306  -0.608 -14.519  1.00  0.00     0.121 A 
ATOM      8  C   UNL     1      12.948  -1.396 -15.008  1.00  0.00     0.049 C 
ATOM      9  C   UNL     1      12.154  -0.294 -12.342  1.00  0.00     0.049 C 
ENDROOT
BRANCH   7  10
ATOM     10  O   UNL     1      15.690  -0.884 -15.837  1.00  0.00    -0.507 OA
ATOM     11  H   UNL     1      16.545  -1.365 -16.084  1.00  0.00     0.293 HD
ENDBRANCH   7  10
BRANCH   4  12
ATOM     12  O   UNL     1      14.351   0.385 -10.542  1.00  0.00    -0.508 OA
ATOM     13  H   UNL     1      14.000   1.281 -10.230  1.00  0.00     0.293 HD
ENDBRANCH   4  12
TORSDOF 2
ENDMDL
MODEL 2
REMARK VINA RESULT:    -4.968     20.335     21.431
REMARK INTER + INTRA:          -5.259
REMARK INTER:                  -5.259
REMARK INTRA:                   0.000
REMARK UNBOUND:                 0.000
REMARK SMILES Cc1cc(O)c(C)c(C)c1O
REMARK SMILES IDX 1 1 2 2 3 3 4 4 6 5 8 6 10 7 9 8 7 9 11 10 5 12
REMARK H PARENT 11 11 5 13
REMARK Flexibility Score: inf
ROOT
ATOM      1  C   UNL     1      29.885  16.304 -14.981  1.00  0.00     0.048 C 
ATOM      2  C   UNL     1      29.960  15.107 -15.888  1.00  0.00    -0.005 A 
ATOM      3  C   UNL     1      29.566  15.217 -17.224  1.00  0.00     0.053 A 
ATOM      4  C   UNL     1      29.661  14.130 -18.093  1.00  0.00     0.119 A 
ATOM      5  C   UNL     1      30.176  12.896 -17.630  1.00  0.00    -0.003 A 
ATOM      6  C   UNL     1      30.461  12.739 -16.245  1.00  0.00    -0.002 A 
ATOM      7  C   UNL     1      30.418  13.873 -15.395  1.00  0.00     0.121 A 
ATOM      8  C   UNL     1      30.821  11.387 -15.670  1.00  0.00     0.049 C 
ATOM      9  C   UNL     1      30.399  11.764 -18.608  1.00  0.00     0.049 C 
ENDROOT
BRANCH   7  10
ATOM     10  O   UNL     1      30.834  13.810 -14.060  1.00  0.00    -0.507 OA
ATOM     11  H   UNL     1      30.475  13.142 -13.390  1.00  0.00     0.293 HD
ENDBRANCH   7  10
BRANCH   4  12
ATOM     12  O   UNL     1      29.219  14.313 -19.406  1.00  0.00    -0.508 OA
ATOM     13  H   UNL     1      28.906  13.558 -20.003  1.00  0.00     0.293 HD
ENDBRANCH   4  12
TORSDOF 2
ENDMDL
MODEL 3
REMARK VINA RESULT:    -4.856      1.271      3.103
REMARK INTER + INTRA:          -5.140
REMARK INTER:                  -5.140
REMARK INTRA:                   0.000
REMARK UNBOUND:                 0.000
REMARK SMILES Cc1cc(O)c(C)c(C)c1O
REMARK SMILES IDX 1 1 2 2 3 3 4 4 6 5 8 6 10 7 9 8 7 9 11 10 5 12
REMARK H PARENT 11 11 5 13
REMARK Flexibility Score: inf
ROOT
ATOM      1  C   UNL     1      13.299  -0.641 -15.067  1.00  0.00     0.048 C 
ATOM      2  C   UNL     1      14.392  -0.763 -14.041  1.00  0.00    -0.005 A 
ATOM      3  C   UNL     1      14.197  -0.264 -12.750  1.00  0.00     0.053 A 
ATOM      4  C   UNL     1      15.182  -0.398 -11.772  1.00  0.00     0.119 A 
ATOM      5  C   UNL     1      16.396  -1.059 -12.075  1.00  0.00    -0.003 A 
ATOM      6  C   UNL     1      16.653  -1.457 -13.417  1.00  0.00    -0.002 A 
ATOM      7  C   UNL     1      15.614  -1.369 -14.378  1.00  0.00     0.121 A 
ATOM      8  C   UNL     1      18.010  -1.984 -13.829  1.00  0.00     0.049 C 
ATOM      9  C   UNL     1      17.403  -1.317 -10.976  1.00  0.00     0.049 C 
ENDROOT
BRANCH   7  10
ATOM     10  O   UNL     1      15.759  -1.885 -15.670  1.00  0.00    -0.507 OA
ATOM     11  H   UNL     1      15.352  -1.462 -16.494  1.00  0.00     0.293 HD
ENDBRANCH   7  10
BRANCH   4  12
ATOM     12  O   UNL     1      14.922   0.153 -10.514  1.00  0.00    -0.508 OA
ATOM     13  H   UNL     1      15.182  -0.291  -9.643  1.00  0.00     0.293 HD
ENDBRANCH   4  12
TORSDOF 2
ENDMDL
MODEL 4
REMARK VINA RESULT:    -4.852     19.315     21.408
REMARK INTER + INTRA:          -5.136
REMARK INTER:                  -5.136
REMARK INTRA:                   0.000
REMARK UNBOUND:                 0.000
REMARK SMILES Cc1cc(O)c(C)c(C)c1O
REMARK SMILES IDX 1 1 2 2 3 3 4 4 6 5 8 6 10 7 9 8 7 9 11 10 5 12
REMARK H PARENT 11 11 5 13
REMARK Flexibility Score: inf
ROOT
ATOM      1  C   UNL     1      30.377  17.420 -16.720  1.00  0.00     0.048 C 
ATOM      2  C   UNL     1      29.915  15.996 -16.575  1.00  0.00    -0.005 A 
ATOM      3  C   UNL     1      29.604  15.244 -17.711  1.00  0.00     0.053 A 
ATOM      4  C   UNL     1      29.208  13.911 -17.604  1.00  0.00     0.119 A 
ATOM      5  C   UNL     1      29.131  13.295 -16.332  1.00  0.00    -0.003 A 
ATOM      6  C   UNL     1      29.324  14.087 -15.165  1.00  0.00    -0.002 A 
ATOM      7  C   UNL     1      29.786  15.421 -15.300  1.00  0.00     0.121 A 
ATOM      8  C   UNL     1      29.057  13.524 -13.786  1.00  0.00     0.049 C 
ATOM      9  C   UNL     1      28.831  11.816 -16.232  1.00  0.00     0.049 C 
ENDROOT
BRANCH   7  10
ATOM     10  O   UNL     1      30.139  16.195 -14.189  1.00  0.00    -0.507 OA
ATOM     11  H   UNL     1      29.466  16.627 -13.568  1.00  0.00     0.293 HD
ENDBRANCH   7  10
BRANCH   4  12
ATOM     12  O   UNL     1      28.886  13.236 -18.784  1.00  0.00    -0.508 OA
ATOM     13  H   UNL     1      28.752  13.696 -19.675  1.00  0.00     0.293 HD
ENDBRANCH   4  12
TORSDOF 2
ENDMDL
MODEL 5
REMARK VINA RESULT:    -4.833     19.137     21.359
REMARK INTER + INTRA:          -5.115
REMARK INTER:                  -5.115
REMARK INTRA:                   0.000
REMARK UNBOUND:                 0.000
REMARK SMILES Cc1cc(O)c(C)c(C)c1O
REMARK SMILES IDX 1 1 2 2 3 3 4 4 6 5 8 6 10 7 9 8 7 9 11 10 5 12
REMARK H PARENT 11 11 5 13
REMARK Flexibility Score: inf
ROOT
ATOM      1  C   UNL     1      28.932  11.298 -15.799  1.00  0.00     0.048 C 
ATOM      2  C   UNL     1      29.244  12.703 -16.236  1.00  0.00    -0.005 A 
ATOM      3  C   UNL     1      29.022  13.087 -17.561  1.00  0.00     0.053 A 
ATOM      4  C   UNL     1      29.270  14.394 -17.980  1.00  0.00     0.119 A 
ATOM      5  C   UNL     1      29.739  15.358 -17.056  1.00  0.00    -0.003 A 
ATOM      6  C   UNL     1      30.086  14.945 -15.739  1.00  0.00    -0.002 A 
ATOM      7  C   UNL     1      29.766  13.629 -15.318  1.00  0.00     0.121 A 
ATOM      8  C   UNL     1      30.776  15.890 -14.781  1.00  0.00     0.049 C 
ATOM      9  C   UNL     1      29.879  16.801 -17.486  1.00  0.00     0.049 C 
ENDROOT
BRANCH   7  10
ATOM     10  O   UNL     1      29.944  13.216 -13.992  1.00  0.00    -0.507 OA
ATOM     11  H   UNL     1      30.562  12.465 -13.715  1.00  0.00     0.293 HD
ENDBRANCH   7  10
BRANCH   4  12
ATOM     12  O   UNL     1      29.051  14.692 -19.328  1.00  0.00    -0.508 OA
ATOM     13  H   UNL     1      29.794  14.819 -20.002  1.00  0.00     0.293 HD
ENDBRANCH   4  12
TORSDOF 2
ENDMDL
MODEL 6
REMARK VINA RESULT:    -4.590     18.309     19.788
REMARK INTER + INTRA:          -4.858
REMARK INTER:                  -4.858
REMARK INTRA:                   0.000
REMARK UNBOUND:                 0.000
REMARK SMILES Cc1cc(O)c(C)c(C)c1O
REMARK SMILES IDX 1 1 2 2 3 3 4 4 6 5 8 6 10 7 9 8 7 9 11 10 5 12
REMARK H PARENT 11 11 5 13
REMARK Flexibility Score: inf
ROOT
ATOM      1  C   UNL     1      28.421  13.478 -14.065  1.00  0.00     0.048 C 
ATOM      2  C   UNL     1      28.958  12.803 -15.298  1.00  0.00    -0.005 A 
ATOM      3  C   UNL     1      29.159  13.541 -16.467  1.00  0.00     0.053 A 
ATOM      4  C   UNL     1      29.690  12.945 -17.611  1.00  0.00     0.119 A 
ATOM      5  C   UNL     1      30.048  11.576 -17.595  1.00  0.00    -0.003 A 
ATOM      6  C   UNL     1      29.730  10.789 -16.452  1.00  0.00    -0.002 A 
ATOM      7  C   UNL     1      29.251  11.429 -15.281  1.00  0.00     0.121 A 
ATOM      8  C   UNL     1      29.909   9.287 -16.464  1.00  0.00     0.049 C 
ATOM      9  C   UNL     1      30.744  10.970 -18.793  1.00  0.00     0.049 C 
ENDROOT
BRANCH   7  10
ATOM     10  O   UNL     1      29.067  10.731 -14.082  1.00  0.00    -0.507 OA
ATOM     11  H   UNL     1      28.563   9.856 -14.012  1.00  0.00     0.293 HD
ENDBRANCH   7  10
BRANCH   4  12
ATOM     12  O   UNL     1      29.833  13.744 -18.748  1.00  0.00    -0.508 OA
ATOM     13  H   UNL     1      29.435  13.514 -19.649  1.00  0.00     0.293 HD
ENDBRANCH   4  12
TORSDOF 2
ENDMDL
MODEL 7
REMARK VINA RESULT:    -4.515      1.322      4.488
REMARK INTER + INTRA:          -4.779
REMARK INTER:                  -4.779
REMARK INTRA:                   0.000
REMARK UNBOUND:                 0.000
REMARK SMILES Cc1cc(O)c(C)c(C)c1O
REMARK SMILES IDX 1 1 2 2 3 3 4 4 6 5 8 6 10 7 9 8 7 9 11 10 5 12
REMARK H PARENT 11 11 5 13
REMARK Flexibility Score: inf
ROOT
ATOM      1  C   UNL     1      12.708  -0.374 -12.847  1.00  0.00     0.048 C 
ATOM      2  C   UNL     1      14.127  -0.798 -13.111  1.00  0.00    -0.005 A 
ATOM      3  C   UNL     1      14.492  -1.270 -14.375  1.00  0.00     0.053 A 
ATOM      4  C   UNL     1      15.809  -1.634 -14.652  1.00  0.00     0.119 A 
ATOM      5  C   UNL     1      16.803  -1.515 -13.652  1.00  0.00    -0.003 A 
ATOM      6  C   UNL     1      16.417  -1.156 -12.330  1.00  0.00    -0.002 A 
ATOM      7  C   UNL     1      15.087  -0.730 -12.087  1.00  0.00     0.121 A 
ATOM      8  C   UNL     1      17.406  -1.210 -11.186  1.00  0.00     0.049 C 
ATOM      9  C   UNL     1      18.251  -1.786 -13.998  1.00  0.00     0.049 C 
ENDROOT
BRANCH   7  10
ATOM     10  O   UNL     1      14.691  -0.221 -10.845  1.00  0.00    -0.507 OA
ATOM     11  H   UNL     1      15.311   0.273 -10.216  1.00  0.00     0.293 HD
ENDBRANCH   7  10
BRANCH   4  12
ATOM     12  O   UNL     1      16.088  -2.124 -15.931  1.00  0.00    -0.508 OA
ATOM     13  H   UNL     1      15.718  -1.718 -16.780  1.00  0.00     0.293 HD
ENDBRANCH   4  12
TORSDOF 2
ENDMDL
MODEL 8
REMARK VINA RESULT:    -4.461     19.241     21.144
REMARK INTER + INTRA:          -4.721
REMARK INTER:                  -4.721
REMARK INTRA:                   0.000
REMARK UNBOUND:                 0.000
REMARK SMILES Cc1cc(O)c(C)c(C)c1O
REMARK SMILES IDX 1 1 2 2 3 3 4 4 6 5 8 6 10 7 9 8 7 9 11 10 5 12
REMARK H PARENT 11 11 5 13
REMARK Flexibility Score: inf
ROOT
ATOM      1  C   UNL     1      30.018  17.372 -16.251  1.00  0.00     0.048 C 
ATOM      2  C   UNL     1      29.830  15.903 -15.989  1.00  0.00    -0.005 A 
ATOM      3  C   UNL     1      29.852  15.419 -14.678  1.00  0.00     0.053 A 
ATOM      4  C   UNL     1      29.644  14.067 -14.408  1.00  0.00     0.119 A 
ATOM      5  C   UNL     1      29.392  13.164 -15.467  1.00  0.00    -0.003 A 
ATOM      6  C   UNL     1      29.494  13.624 -16.810  1.00  0.00    -0.002 A 
ATOM      7  C   UNL     1      29.642  15.012 -17.058  1.00  0.00     0.121 A 
ATOM      8  C   UNL     1      29.432  12.658 -17.973  1.00  0.00     0.049 C 
ATOM      9  C   UNL     1      29.038  11.726 -15.158  1.00  0.00     0.049 C 
ENDROOT
BRANCH   7  10
ATOM     10  O   UNL     1      29.595  15.538 -18.354  1.00  0.00    -0.507 OA
ATOM     11  H   UNL     1      28.749  15.594 -18.908  1.00  0.00     0.293 HD
ENDBRANCH   7  10
BRANCH   4  12
ATOM     12  O   UNL     1      29.710  13.657 -13.073  1.00  0.00    -0.508 OA
ATOM     13  H   UNL     1      30.494  13.153 -12.679  1.00  0.00     0.293 HD
ENDBRANCH   4  12
TORSDOF 2
ENDMDL
MODEL 9
REMARK VINA RESULT:    -4.416      1.188      3.191
REMARK INTER + INTRA:          -4.674
REMARK INTER:                  -4.674
REMARK INTRA:                   0.000
REMARK UNBOUND:                 0.000
REMARK SMILES Cc1cc(O)c(C)c(C)c1O
REMARK SMILES IDX 1 1 2 2 3 3 4 4 6 5 8 6 10 7 9 8 7 9 11 10 5 12
REMARK H PARENT 11 11 5 13
REMARK Flexibility Score: inf
ROOT
ATOM      1  C   UNL     1      11.555  -0.817 -13.044  1.00  0.00     0.048 C 
ATOM      2  C   UNL     1      13.041  -0.599 -13.124  1.00  0.00    -0.005 A 
ATOM      3  C   UNL     1      13.739  -0.132 -12.007  1.00  0.00     0.053 A 
ATOM      4  C   UNL     1      15.122   0.043 -12.046  1.00  0.00     0.119 A 
ATOM      5  C   UNL     1      15.842  -0.266 -13.224  1.00  0.00    -0.003 A 
ATOM      6  C   UNL     1      15.126  -0.621 -14.402  1.00  0.00    -0.002 A 
ATOM      7  C   UNL     1      13.730  -0.854 -14.321  1.00  0.00     0.121 A 
ATOM      8  C   UNL     1      15.833  -0.765 -15.732  1.00  0.00     0.049 C 
ATOM      9  C   UNL     1      17.353  -0.200 -13.217  1.00  0.00     0.049 C 
ENDROOT
BRANCH   7  10
ATOM     10  O   UNL     1      13.001  -1.351 -15.408  1.00  0.00    -0.507 OA
ATOM     11  H   UNL     1      11.995  -1.287 -15.487  1.00  0.00     0.293 HD
ENDBRANCH   7  10
BRANCH   4  12
ATOM     12  O   UNL     1      15.742   0.541 -10.897  1.00  0.00    -0.508 OA
ATOM     13  H   UNL     1      16.351   1.349 -10.894  1.00  0.00     0.293 HD
ENDBRANCH   4  12
TORSDOF 2
ENDMDL
