MODEL 1
REMARK VINA RESULT:    -5.128      0.000      0.000
REMARK INTER + INTRA:          -5.603
REMARK INTER:                  -5.577
REMARK INTRA:                  -0.026
REMARK UNBOUND:                -0.026
REMARK SMILES COc1ccccc1O
REMARK SMILES IDX 3 1 4 2 5 3 6 4 7 5 8 6 2 7 1 8 9 9
REMARK H PARENT 9 10
REMARK Flexibility Score: inf
ROOT
ATOM      1  C   UNL     1     -12.252   1.690  -9.209  1.00  0.00     0.160 A 
ATOM      2  C   UNL     1     -13.618   1.499  -9.497  1.00  0.00     0.050 A 
ATOM      3  C   UNL     1     -14.538   2.526  -9.271  1.00  0.00     0.004 A 
ATOM      4  C   UNL     1     -14.109   3.751  -8.757  1.00  0.00     0.004 A 
ATOM      5  C   UNL     1     -12.758   3.953  -8.468  1.00  0.00     0.050 A 
ATOM      6  C   UNL     1     -11.828   2.931  -8.690  1.00  0.00     0.157 A 
ENDROOT
BRANCH   1   7
ATOM      7  O   UNL     1     -11.298   0.683  -9.423  1.00  0.00    -0.493 OA
ATOM      8  C   UNL     1     -11.507  -0.465 -10.239  1.00  0.00     0.278 C 
ENDBRANCH   1   7
BRANCH   6   9
ATOM      9  O   UNL     1     -10.485   3.164  -8.391  1.00  0.00    -0.504 OA
ATOM     10  H   UNL     1     -10.199   3.790  -7.648  1.00  0.00     0.293 HD
ENDBRANCH   6   9
TORSDOF 2
ENDMDL
MODEL 2
REMARK VINA RESULT:    -4.502      1.317      2.117
REMARK INTER + INTRA:          -4.923
REMARK INTER:                  -4.891
REMARK INTRA:                  -0.032
REMARK UNBOUND:                -0.026
REMARK SMILES COc1ccccc1O
REMARK SMILES IDX 3 1 4 2 5 3 6 4 7 5 8 6 2 7 1 8 9 9
REMARK H PARENT 9 10
REMARK Flexibility Score: inf
ROOT
ATOM      1  C   UNL     1     -13.759   1.478  -9.569  1.00  0.00     0.160 A 
ATOM      2  C   UNL     1     -14.750   2.437  -9.279  1.00  0.00     0.050 A 
ATOM      3  C   UNL     1     -14.397   3.681  -8.748  1.00  0.00     0.004 A 
ATOM      4  C   UNL     1     -13.056   3.980  -8.500  1.00  0.00     0.004 A 
ATOM      5  C   UNL     1     -12.065   3.039  -8.783  1.00  0.00     0.050 A 
ATOM      6  C   UNL     1     -12.408   1.790  -9.315  1.00  0.00     0.157 A 
ENDROOT
BRANCH   1   7
ATOM      7  O   UNL     1     -14.075   0.219 -10.103  1.00  0.00    -0.493 OA
ATOM      8  C   UNL     1     -15.125  -0.618  -9.629  1.00  0.00     0.278 C 
ENDBRANCH   1   7
BRANCH   6   9
ATOM      9  O   UNL     1     -11.394   0.872  -9.587  1.00  0.00    -0.504 OA
ATOM     10  H   UNL     1     -11.482   0.169 -10.310  1.00  0.00     0.293 HD
ENDBRANCH   6   9
TORSDOF 2
ENDMDL
MODEL 3
REMARK VINA RESULT:    -4.455      7.128      9.421
REMARK INTER + INTRA:          -4.871
REMARK INTER:                  -4.832
REMARK INTRA:                  -0.039
REMARK UNBOUND:                -0.026
REMARK SMILES COc1ccccc1O
REMARK SMILES IDX 3 1 4 2 5 3 6 4 7 5 8 6 2 7 1 8 9 9
REMARK H PARENT 9 10
REMARK Flexibility Score: inf
ROOT
ATOM      1  C   UNL     1     -10.742  -5.607  -7.045  1.00  0.00     0.160 A 
ATOM      2  C   UNL     1     -11.326  -5.510  -5.766  1.00  0.00     0.050 A 
ATOM      3  C   UNL     1     -11.595  -6.663  -5.024  1.00  0.00     0.004 A 
ATOM      4  C   UNL     1     -11.287  -7.920  -5.546  1.00  0.00     0.004 A 
ATOM      5  C   UNL     1     -10.707  -8.029  -6.812  1.00  0.00     0.050 A 
ATOM      6  C   UNL     1     -10.434  -6.880  -7.564  1.00  0.00     0.157 A 
ENDROOT
BRANCH   1   7
ATOM      7  O   UNL     1     -10.456  -4.471  -7.820  1.00  0.00    -0.493 OA
ATOM      8  C   UNL     1      -9.555  -3.438  -7.435  1.00  0.00     0.278 C 
ENDBRANCH   1   7
BRANCH   6   9
ATOM      9  O   UNL     1      -9.854  -7.023  -8.825  1.00  0.00    -0.504 OA
ATOM     10  H   UNL     1     -10.007  -7.843  -9.399  1.00  0.00     0.293 HD
ENDBRANCH   6   9
TORSDOF 2
ENDMDL
MODEL 4
REMARK VINA RESULT:    -4.422     15.646     16.631
REMARK INTER + INTRA:          -4.835
REMARK INTER:                  -4.808
REMARK INTRA:                  -0.027
REMARK UNBOUND:                -0.026
REMARK SMILES COc1ccccc1O
REMARK SMILES IDX 3 1 4 2 5 3 6 4 7 5 8 6 2 7 1 8 9 9
REMARK H PARENT 9 10
REMARK Flexibility Score: inf
ROOT
ATOM      1  C   UNL     1     -10.646   5.727   6.619  1.00  0.00     0.160 A 
ATOM      2  C   UNL     1     -11.345   5.066   5.589  1.00  0.00     0.050 A 
ATOM      3  C   UNL     1     -11.772   3.746   5.758  1.00  0.00     0.004 A 
ATOM      4  C   UNL     1     -11.506   3.072   6.951  1.00  0.00     0.004 A 
ATOM      5  C   UNL     1     -10.815   3.716   7.979  1.00  0.00     0.050 A 
ATOM      6  C   UNL     1     -10.383   5.038   7.820  1.00  0.00     0.157 A 
ENDROOT
BRANCH   1   7
ATOM      7  O   UNL     1     -10.204   7.053   6.486  1.00  0.00    -0.493 OA
ATOM      8  C   UNL     1      -8.920   7.429   5.998  1.00  0.00     0.278 C 
ENDBRANCH   1   7
BRANCH   6   9
ATOM      9  O   UNL     1      -9.695   5.653   8.866  1.00  0.00    -0.504 OA
ATOM     10  H   UNL     1      -8.687   5.740   8.871  1.00  0.00     0.293 HD
ENDBRANCH   6   9
TORSDOF 2
ENDMDL
MODEL 5
REMARK VINA RESULT:    -4.411      4.741      6.919
REMARK INTER + INTRA:          -4.824
REMARK INTER:                  -4.790
REMARK INTRA:                  -0.034
REMARK UNBOUND:                -0.026
REMARK SMILES COc1ccccc1O
REMARK SMILES IDX 3 1 4 2 5 3 6 4 7 5 8 6 2 7 1 8 9 9
REMARK H PARENT 9 10
REMARK Flexibility Score: inf
ROOT
ATOM      1  C   UNL     1     -10.452  -3.619  -9.010  1.00  0.00     0.160 A 
ATOM      2  C   UNL     1     -11.383  -4.621  -9.353  1.00  0.00     0.050 A 
ATOM      3  C   UNL     1     -11.716  -5.620  -8.435  1.00  0.00     0.004 A 
ATOM      4  C   UNL     1     -11.127  -5.633  -7.169  1.00  0.00     0.004 A 
ATOM      5  C   UNL     1     -10.204  -4.646  -6.817  1.00  0.00     0.050 A 
ATOM      6  C   UNL     1      -9.864  -3.640  -7.729  1.00  0.00     0.157 A 
ENDROOT
BRANCH   1   7
ATOM      7  O   UNL     1     -10.093  -2.599  -9.905  1.00  0.00    -0.493 OA
ATOM      8  C   UNL     1     -10.763  -1.347 -10.011  1.00  0.00     0.278 C 
ENDBRANCH   1   7
BRANCH   6   9
ATOM      9  O   UNL     1      -8.938  -2.669  -7.346  1.00  0.00    -0.504 OA
ATOM     10  H   UNL     1      -7.999  -2.641  -7.721  1.00  0.00     0.293 HD
ENDBRANCH   6   9
TORSDOF 2
ENDMDL
MODEL 6
REMARK VINA RESULT:    -4.411     15.026     15.982
REMARK INTER + INTRA:          -4.824
REMARK INTER:                  -4.790
REMARK INTRA:                  -0.034
REMARK UNBOUND:                -0.026
REMARK SMILES COc1ccccc1O
REMARK SMILES IDX 3 1 4 2 5 3 6 4 7 5 8 6 2 7 1 8 9 9
REMARK H PARENT 9 10
REMARK Flexibility Score: inf
ROOT
ATOM      1  C   UNL     1     -11.918   4.610   5.730  1.00  0.00     0.160 A 
ATOM      2  C   UNL     1     -10.635   5.169   5.564  1.00  0.00     0.050 A 
ATOM      3  C   UNL     1      -9.836   5.447   6.677  1.00  0.00     0.004 A 
ATOM      4  C   UNL     1     -10.306   5.173   7.962  1.00  0.00     0.004 A 
ATOM      5  C   UNL     1     -11.575   4.618   8.139  1.00  0.00     0.050 A 
ATOM      6  C   UNL     1     -12.383   4.336   7.031  1.00  0.00     0.157 A 
ENDROOT
BRANCH   1   7
ATOM      7  O   UNL     1     -12.748   4.317   4.636  1.00  0.00    -0.493 OA
ATOM      8  C   UNL     1     -13.685   5.227   4.068  1.00  0.00     0.278 C 
ENDBRANCH   1   7
BRANCH   6   9
ATOM      9  O   UNL     1     -13.646   3.783   7.242  1.00  0.00    -0.504 OA
ATOM     10  H   UNL     1     -13.790   2.785   7.337  1.00  0.00     0.293 HD
ENDBRANCH   6   9
TORSDOF 2
ENDMDL
MODEL 7
REMARK VINA RESULT:    -4.390     15.780     16.783
REMARK INTER + INTRA:          -4.801
REMARK INTER:                  -4.776
REMARK INTRA:                  -0.025
REMARK UNBOUND:                -0.026
REMARK SMILES COc1ccccc1O
REMARK SMILES IDX 3 1 4 2 5 3 6 4 7 5 8 6 2 7 1 8 9 9
REMARK H PARENT 9 10
REMARK Flexibility Score: inf
ROOT
ATOM      1  C   UNL     1     -10.312   5.025   6.815  1.00  0.00     0.160 A 
ATOM      2  C   UNL     1     -10.139   5.238   8.198  1.00  0.00     0.050 A 
ATOM      3  C   UNL     1     -10.695   4.351   9.125  1.00  0.00     0.004 A 
ATOM      4  C   UNL     1     -11.426   3.247   8.685  1.00  0.00     0.004 A 
ATOM      5  C   UNL     1     -11.603   3.024   7.318  1.00  0.00     0.050 A 
ATOM      6  C   UNL     1     -11.052   3.906   6.382  1.00  0.00     0.157 A 
ENDROOT
BRANCH   1   7
ATOM      7  O   UNL     1      -9.769   5.893   5.855  1.00  0.00    -0.493 OA
ATOM      8  C   UNL     1      -9.118   7.123   6.156  1.00  0.00     0.278 C 
ENDBRANCH   1   7
BRANCH   6   9
ATOM      9  O   UNL     1     -11.248   3.655   5.024  1.00  0.00    -0.504 OA
ATOM     10  H   UNL     1     -11.942   2.998   4.691  1.00  0.00     0.293 HD
ENDBRANCH   6   9
TORSDOF 2
ENDMDL
MODEL 8
REMARK VINA RESULT:    -4.379     14.654     15.558
REMARK INTER + INTRA:          -4.789
REMARK INTER:                  -4.763
REMARK INTRA:                  -0.026
REMARK UNBOUND:                -0.026
REMARK SMILES COc1ccccc1O
REMARK SMILES IDX 3 1 4 2 5 3 6 4 7 5 8 6 2 7 1 8 9 9
REMARK H PARENT 9 10
REMARK Flexibility Score: inf
ROOT
ATOM      1  C   UNL     1     -12.880   4.313   5.603  1.00  0.00     0.160 A 
ATOM      2  C   UNL     1     -13.569   4.816   6.724  1.00  0.00     0.050 A 
ATOM      3  C   UNL     1     -13.156   4.480   8.017  1.00  0.00     0.004 A 
ATOM      4  C   UNL     1     -12.056   3.641   8.204  1.00  0.00     0.004 A 
ATOM      5  C   UNL     1     -11.365   3.137   7.101  1.00  0.00     0.050 A 
ATOM      6  C   UNL     1     -11.770   3.467   5.802  1.00  0.00     0.157 A 
ENDROOT
BRANCH   1   7
ATOM      7  O   UNL     1     -13.264   4.629   4.290  1.00  0.00    -0.493 OA
ATOM      8  C   UNL     1     -14.066   5.751   3.932  1.00  0.00     0.278 C 
ENDBRANCH   1   7
BRANCH   6   9
ATOM      9  O   UNL     1     -11.058   2.947   4.722  1.00  0.00    -0.504 OA
ATOM     10  H   UNL     1     -11.154   3.316   3.784  1.00  0.00     0.293 HD
ENDBRANCH   6   9
TORSDOF 2
ENDMDL
MODEL 9
REMARK VINA RESULT:    -4.232      6.657      7.952
REMARK INTER + INTRA:          -4.629
REMARK INTER:                  -4.604
REMARK INTRA:                  -0.026
REMARK UNBOUND:                -0.026
REMARK SMILES COc1ccccc1O
REMARK SMILES IDX 3 1 4 2 5 3 6 4 7 5 8 6 2 7 1 8 9 9
REMARK H PARENT 9 10
REMARK Flexibility Score: inf
ROOT
ATOM      1  C   UNL     1     -10.694  -5.420  -7.794  1.00  0.00     0.160 A 
ATOM      2  C   UNL     1     -10.033  -4.517  -6.937  1.00  0.00     0.050 A 
ATOM      3  C   UNL     1      -9.691  -3.238  -7.387  1.00  0.00     0.004 A 
ATOM      4  C   UNL     1     -10.002  -2.848  -8.690  1.00  0.00     0.004 A 
ATOM      5  C   UNL     1     -10.657  -3.733  -9.548  1.00  0.00     0.050 A 
ATOM      6  C   UNL     1     -11.005  -5.016  -9.108  1.00  0.00     0.157 A 
ENDROOT
BRANCH   1   7
ATOM      7  O   UNL     1     -11.055  -6.711  -7.378  1.00  0.00    -0.493 OA
ATOM      8  C   UNL     1     -10.533  -7.362  -6.224  1.00  0.00     0.278 C 
ENDBRANCH   1   7
BRANCH   6   9
ATOM      9  O   UNL     1     -11.659  -5.876  -9.990  1.00  0.00    -0.504 OA
ATOM     10  H   UNL     1     -12.665  -5.981  -9.995  1.00  0.00     0.293 HD
ENDBRANCH   6   9
TORSDOF 2
ENDMDL
