MODEL 1
REMARK VINA RESULT:    -2.536      0.000      0.000
REMARK INTER + INTRA:          -3.034
REMARK INTER:                  -2.832
REMARK INTRA:                  -0.202
REMARK UNBOUND:                -0.202
REMARK SMILES CC(C)c1ccc(C(=O)[O-])cc1
REMARK SMILES IDX 7 1 6 2 11 3 5 4 12 5 4 6 8 7 9 8 10 9 2 10 1 11 3 12
REMARK H PARENT
REMARK Flexibility Score: inf
ROOT
ATOM      1  C   UNL     1      22.516   4.384   6.923  1.00  0.00    -0.003 A 
ATOM      2  C   UNL     1      21.424   4.752   7.726  1.00  0.00     0.010 A 
ATOM      3  C   UNL     1      23.124   5.358   6.113  1.00  0.00     0.010 A 
ATOM      4  C   UNL     1      20.949   6.067   7.720  1.00  0.00     0.004 A 
ATOM      5  C   UNL     1      22.650   6.672   6.106  1.00  0.00     0.004 A 
ATOM      6  C   UNL     1      21.555   7.042   6.910  1.00  0.00    -0.045 A 
ENDROOT
BRANCH   1   7
ATOM      7  C   UNL     1      23.015   2.991   6.933  1.00  0.00     0.071 C 
ATOM      8  O   UNL     1      22.712   2.194   6.007  1.00  0.00    -0.545 OA
ATOM      9  O   UNL     1      23.829   2.542   7.968  1.00  0.00    -0.545 OA
ENDBRANCH   1   7
BRANCH   6  10
ATOM     10  C   UNL     1      21.030   8.465   6.913  1.00  0.00     0.013 C 
ATOM     11  C   UNL     1      19.623   8.535   6.306  1.00  0.00     0.012 C 
ATOM     12  C   UNL     1      21.052   9.060   8.325  1.00  0.00     0.012 C 
ENDBRANCH   6  10
TORSDOF 2
ENDMDL
MODEL 2
REMARK VINA RESULT:    -1.800     13.156     14.224
REMARK INTER + INTRA:          -2.212
REMARK INTER:                  -2.002
REMARK INTRA:                  -0.210
REMARK UNBOUND:                -0.202
REMARK SMILES CC(C)c1ccc(C(=O)[O-])cc1
REMARK SMILES IDX 7 1 6 2 11 3 5 4 12 5 4 6 8 7 9 8 10 9 2 10 1 11 3 12
REMARK H PARENT
REMARK Flexibility Score: inf
ROOT
ATOM      1  C   UNL     1      21.402   5.175  22.127  1.00  0.00    -0.003 A 
ATOM      2  C   UNL     1      21.778   4.262  21.128  1.00  0.00     0.010 A 
ATOM      3  C   UNL     1      20.955   6.453  21.748  1.00  0.00     0.010 A 
ATOM      4  C   UNL     1      21.709   4.619  19.778  1.00  0.00     0.004 A 
ATOM      5  C   UNL     1      20.886   6.810  20.400  1.00  0.00     0.004 A 
ATOM      6  C   UNL     1      21.263   5.895  19.398  1.00  0.00    -0.045 A 
ENDROOT
BRANCH   1   7
ATOM      7  C   UNL     1      21.477   4.794  23.555  1.00  0.00     0.071 C 
ATOM      8  O   UNL     1      22.049   5.543  24.390  1.00  0.00    -0.545 OA
ATOM      9  O   UNL     1      20.915   3.601  23.996  1.00  0.00    -0.545 OA
ENDBRANCH   1   7
BRANCH   6  10
ATOM     10  C   UNL     1      21.193   6.269  17.929  1.00  0.00     0.013 C 
ATOM     11  C   UNL     1      22.227   7.347  17.584  1.00  0.00     0.012 C 
ATOM     12  C   UNL     1      21.363   5.035  17.036  1.00  0.00     0.012 C 
ENDBRANCH   6  10
TORSDOF 2
ENDMDL
MODEL 3
REMARK VINA RESULT:    -1.798     13.160     14.214
REMARK INTER + INTRA:          -2.210
REMARK INTER:                  -2.001
REMARK INTRA:                  -0.209
REMARK UNBOUND:                -0.202
REMARK SMILES CC(C)c1ccc(C(=O)[O-])cc1
REMARK SMILES IDX 7 1 6 2 11 3 5 4 12 5 4 6 8 7 9 8 10 9 2 10 1 11 3 12
REMARK H PARENT
REMARK Flexibility Score: inf
ROOT
ATOM      1  C   UNL     1      21.401   5.161  22.128  1.00  0.00    -0.003 A 
ATOM      2  C   UNL     1      20.963   6.440  21.748  1.00  0.00     0.010 A 
ATOM      3  C   UNL     1      21.776   4.246  21.129  1.00  0.00     0.010 A 
ATOM      4  C   UNL     1      20.901   6.798  20.398  1.00  0.00     0.004 A 
ATOM      5  C   UNL     1      21.714   4.602  19.780  1.00  0.00     0.004 A 
ATOM      6  C   UNL     1      21.275   5.884  19.399  1.00  0.00    -0.045 A 
ENDROOT
BRANCH   1   7
ATOM      7  C   UNL     1      21.466   4.787  23.558  1.00  0.00     0.071 C 
ATOM      8  O   UNL     1      22.039   5.536  24.392  1.00  0.00    -0.545 OA
ATOM      9  O   UNL     1      20.892   3.601  24.002  1.00  0.00    -0.545 OA
ENDBRANCH   1   7
BRANCH   6  10
ATOM     10  C   UNL     1      21.202   6.285  17.936  1.00  0.00     0.013 C 
ATOM     11  C   UNL     1      22.246   7.359  17.607  1.00  0.00     0.012 C 
ATOM     12  C   UNL     1      21.356   5.066  17.021  1.00  0.00     0.012 C 
ENDBRANCH   6  10
TORSDOF 2
ENDMDL
MODEL 4
REMARK VINA RESULT:    -0.750     13.178     14.286
REMARK INTER + INTRA:          -1.039
REMARK INTER:                  -0.831
REMARK INTRA:                  -0.209
REMARK UNBOUND:                -0.202
REMARK SMILES CC(C)c1ccc(C(=O)[O-])cc1
REMARK SMILES IDX 7 1 6 2 11 3 5 4 12 5 4 6 8 7 9 8 10 9 2 10 1 11 3 12
REMARK H PARENT
REMARK Flexibility Score: inf
ROOT
ATOM      1  C   UNL     1      21.490   5.731  19.299  1.00  0.00    -0.003 A 
ATOM      2  C   UNL     1      22.033   4.508  19.723  1.00  0.00     0.010 A 
ATOM      3  C   UNL     1      21.018   6.638  20.263  1.00  0.00     0.010 A 
ATOM      4  C   UNL     1      22.102   4.196  21.084  1.00  0.00     0.004 A 
ATOM      5  C   UNL     1      21.087   6.327  21.623  1.00  0.00     0.004 A 
ATOM      6  C   UNL     1      21.631   5.101  22.050  1.00  0.00    -0.045 A 
ENDROOT
BRANCH   1   7
ATOM      7  C   UNL     1      21.419   6.058  17.857  1.00  0.00     0.071 C 
ATOM      8  O   UNL     1      21.823   7.171  17.431  1.00  0.00    -0.545 OA
ATOM      9  O   UNL     1      20.904   5.137  16.951  1.00  0.00    -0.545 OA
ENDBRANCH   1   7
BRANCH   6  10
ATOM     10  C   UNL     1      21.712   4.749  23.524  1.00  0.00     0.013 C 
ATOM     11  C   UNL     1      21.518   5.994  24.399  1.00  0.00     0.012 C 
ATOM     12  C   UNL     1      20.702   3.655  23.888  1.00  0.00     0.012 C 
ENDBRANCH   6  10
TORSDOF 2
ENDMDL
MODEL 5
REMARK VINA RESULT:    -0.701     13.167     14.263
REMARK INTER + INTRA:          -0.985
REMARK INTER:                  -0.774
REMARK INTRA:                  -0.211
REMARK UNBOUND:                -0.202
REMARK SMILES CC(C)c1ccc(C(=O)[O-])cc1
REMARK SMILES IDX 7 1 6 2 11 3 5 4 12 5 4 6 8 7 9 8 10 9 2 10 1 11 3 12
REMARK H PARENT
REMARK Flexibility Score: inf
ROOT
ATOM      1  C   UNL     1      21.488   5.752  19.291  1.00  0.00    -0.003 A 
ATOM      2  C   UNL     1      21.049   6.663  20.265  1.00  0.00     0.010 A 
ATOM      3  C   UNL     1      21.991   4.505  19.702  1.00  0.00     0.010 A 
ATOM      4  C   UNL     1      21.113   6.337  21.623  1.00  0.00     0.004 A 
ATOM      5  C   UNL     1      22.055   4.179  21.059  1.00  0.00     0.004 A 
ATOM      6  C   UNL     1      21.616   5.092  22.036  1.00  0.00    -0.045 A 
ENDROOT
BRANCH   1   7
ATOM      7  C   UNL     1      21.418   6.101  17.854  1.00  0.00     0.071 C 
ATOM      8  O   UNL     1      21.776   7.240  17.454  1.00  0.00    -0.545 OA
ATOM      9  O   UNL     1      20.958   5.175  16.926  1.00  0.00    -0.545 OA
ENDBRANCH   1   7
BRANCH   6  10
ATOM     10  C   UNL     1      21.679   4.750  23.513  1.00  0.00     0.013 C 
ATOM     11  C   UNL     1      21.452   5.997  24.378  1.00  0.00     0.012 C 
ATOM     12  C   UNL     1      20.681   3.643  23.868  1.00  0.00     0.012 C 
ENDBRANCH   6  10
TORSDOF 2
ENDMDL
MODEL 6
REMARK VINA RESULT:    -0.353     21.368     22.676
REMARK INTER + INTRA:          -0.596
REMARK INTER:                  -0.389
REMARK INTRA:                  -0.207
REMARK UNBOUND:                -0.202
REMARK SMILES CC(C)c1ccc(C(=O)[O-])cc1
REMARK SMILES IDX 7 1 6 2 11 3 5 4 12 5 4 6 8 7 9 8 10 9 2 10 1 11 3 12
REMARK H PARENT
REMARK Flexibility Score: inf
ROOT
ATOM      1  C   UNL     1      35.456  -1.831  22.984  1.00  0.00    -0.003 A 
ATOM      2  C   UNL     1      35.815  -2.455  24.190  1.00  0.00     0.010 A 
ATOM      3  C   UNL     1      34.128  -1.407  22.807  1.00  0.00     0.010 A 
ATOM      4  C   UNL     1      34.867  -2.651  25.198  1.00  0.00     0.004 A 
ATOM      5  C   UNL     1      33.180  -1.603  23.813  1.00  0.00     0.004 A 
ATOM      6  C   UNL     1      33.539  -2.229  25.022  1.00  0.00    -0.045 A 
ENDROOT
BRANCH   1   7
ATOM      7  C   UNL     1      36.463  -1.625  21.920  1.00  0.00     0.071 C 
ATOM      8  O   UNL     1      36.546  -0.520  21.321  1.00  0.00    -0.545 OA
ATOM      9  O   UNL     1      37.334  -2.649  21.566  1.00  0.00    -0.545 OA
ENDBRANCH   1   7
BRANCH   6  10
ATOM     10  C   UNL     1      32.520  -2.449  26.125  1.00  0.00     0.013 C 
ATOM     11  C   UNL     1      31.362  -1.449  26.013  1.00  0.00     0.012 C 
ATOM     12  C   UNL     1      32.004  -3.892  26.122  1.00  0.00     0.012 C 
ENDBRANCH   6  10
TORSDOF 2
ENDMDL
MODEL 7
REMARK VINA RESULT:    -0.118     21.642     22.813
REMARK INTER + INTRA:          -0.333
REMARK INTER:                  -0.127
REMARK INTRA:                  -0.206
REMARK UNBOUND:                -0.202
REMARK SMILES CC(C)c1ccc(C(=O)[O-])cc1
REMARK SMILES IDX 7 1 6 2 11 3 5 4 12 5 4 6 8 7 9 8 10 9 2 10 1 11 3 12
REMARK H PARENT
REMARK Flexibility Score: inf
ROOT
ATOM      1  C   UNL     1      36.457  -2.123  21.879  1.00  0.00    -0.003 A 
ATOM      2  C   UNL     1      37.340  -1.623  22.850  1.00  0.00     0.010 A 
ATOM      3  C   UNL     1      35.106  -2.310  22.219  1.00  0.00     0.010 A 
ATOM      4  C   UNL     1      36.883  -1.315  24.134  1.00  0.00     0.004 A 
ATOM      5  C   UNL     1      34.649  -2.003  23.503  1.00  0.00     0.004 A 
ATOM      6  C   UNL     1      35.533  -1.502  24.476  1.00  0.00    -0.045 A 
ENDROOT
BRANCH   1   7
ATOM      7  C   UNL     1      36.946  -2.448  20.520  1.00  0.00     0.071 C 
ATOM      8  O   UNL     1      36.626  -1.730  19.536  1.00  0.00    -0.545 OA
ATOM      9  O   UNL     1      37.766  -3.550  20.311  1.00  0.00    -0.545 OA
ENDBRANCH   1   7
BRANCH   6  10
ATOM     10  C   UNL     1      35.050  -1.164  25.875  1.00  0.00     0.013 C 
ATOM     11  C   UNL     1      35.092   0.349  26.123  1.00  0.00     0.012 C 
ATOM     12  C   UNL     1      33.646  -1.725  26.125  1.00  0.00     0.012 C 
ENDBRANCH   6  10
TORSDOF 2
ENDMDL
MODEL 8
REMARK VINA RESULT:     0.023     21.367     22.573
REMARK INTER + INTRA:          -0.176
REMARK INTER:                   0.030
REMARK INTRA:                  -0.206
REMARK UNBOUND:                -0.202
REMARK SMILES CC(C)c1ccc(C(=O)[O-])cc1
REMARK SMILES IDX 7 1 6 2 11 3 5 4 12 5 4 6 8 7 9 8 10 9 2 10 1 11 3 12
REMARK H PARENT
REMARK Flexibility Score: inf
ROOT
ATOM      1  C   UNL     1      33.323  -2.151  24.766  1.00  0.00    -0.003 A 
ATOM      2  C   UNL     1      33.087  -1.613  23.491  1.00  0.00     0.010 A 
ATOM      3  C   UNL     1      34.642  -2.465  25.139  1.00  0.00     0.010 A 
ATOM      4  C   UNL     1      34.146  -1.393  22.605  1.00  0.00     0.004 A 
ATOM      5  C   UNL     1      35.700  -2.246  24.254  1.00  0.00     0.004 A 
ATOM      6  C   UNL     1      35.464  -1.707  22.976  1.00  0.00    -0.045 A 
ENDROOT
BRANCH   1   7
ATOM      7  C   UNL     1      32.199  -2.381  25.701  1.00  0.00     0.071 C 
ATOM      8  O   UNL     1      31.510  -1.416  26.125  1.00  0.00    -0.545 OA
ATOM      9  O   UNL     1      31.888  -3.668  26.125  1.00  0.00    -0.545 OA
ENDBRANCH   1   7
BRANCH   6  10
ATOM     10  C   UNL     1      36.604  -1.464  22.004  1.00  0.00     0.013 C 
ATOM     11  C   UNL     1      36.998  -2.758  21.280  1.00  0.00     0.012 C 
ATOM     12  C   UNL     1      36.252  -0.358  21.004  1.00  0.00     0.012 C 
ENDBRANCH   6  10
TORSDOF 2
ENDMDL
