MODEL 1
REMARK VINA RESULT:    -6.225      0.000      0.000
REMARK INTER + INTRA:          -7.454
REMARK INTER:                  -7.134
REMARK INTRA:                  -0.319
REMARK UNBOUND:                -0.319
REMARK SMILES O=C1C[C@H](c2ccc(O)cc2)Oc2cc(O)cc(O)c21
REMARK SMILES IDX 3 1 4 2 12 3 13 4 14 5 15 6 17 7 18 8 20 9 2 10 1 11 5 12
REMARK SMILES IDX 6 13 11 14 7 15 10 16 8 17 9 18 19 20 16 22
REMARK H PARENT 9 19 19 21 16 23
REMARK Flexibility Score: inf
ROOT
ATOM      1  C   UNL     1       5.379 -61.809  -6.457  1.00  0.00     0.131 C 
ATOM      2  C   UNL     1       5.297 -60.572  -7.365  1.00  0.00     0.211 C 
ATOM      3  O   UNL     1       5.502 -60.937  -8.733  1.00  0.00    -0.484 OA
ATOM      4  C   UNL     1       6.496 -61.845  -9.118  1.00  0.00     0.138 A 
ATOM      5  C   UNL     1       6.867 -61.927 -10.463  1.00  0.00     0.093 A 
ATOM      6  C   UNL     1       7.876 -62.811 -10.862  1.00  0.00     0.123 A 
ATOM      7  C   UNL     1       8.509 -63.618  -9.913  1.00  0.00     0.093 A 
ATOM      8  C   UNL     1       8.133 -63.560  -8.562  1.00  0.00     0.133 A 
ATOM      9  C   UNL     1       7.113 -62.671  -8.158  1.00  0.00     0.102 A 
ATOM     10  C   UNL     1       6.627 -62.589  -6.759  1.00  0.00     0.174 C 
ATOM     11  O   UNL     1       7.212 -63.206  -5.828  1.00  0.00    -0.294 OA
ENDROOT
BRANCH   2  12
ATOM     12  C   UNL     1       3.964 -59.882  -7.207  1.00  0.00    -0.007 A 
ATOM     13  C   UNL     1       3.238 -59.464  -8.337  1.00  0.00     0.011 A 
ATOM     14  C   UNL     1       3.410 -59.698  -5.930  1.00  0.00     0.011 A 
ATOM     15  C   UNL     1       1.990 -58.851  -8.187  1.00  0.00     0.046 A 
ATOM     16  C   UNL     1       2.161 -59.085  -5.783  1.00  0.00     0.046 A 
ATOM     17  C   UNL     1       1.449 -58.660  -6.908  1.00  0.00     0.115 A 
BRANCH  17  18
ATOM     18  O   UNL     1       0.207 -58.051  -6.746  1.00  0.00    -0.508 OA
ATOM     19  H   UNL     1      -0.396 -57.858  -7.538  1.00  0.00     0.293 HD
ENDBRANCH  17  18
ENDBRANCH   2  12
BRANCH   8  20
ATOM     20  O   UNL     1       8.765 -64.387  -7.634  1.00  0.00    -0.507 OA
ATOM     21  H   UNL     1       9.614 -64.890  -7.861  1.00  0.00     0.293 HD
ENDBRANCH   8  20
BRANCH   6  22
ATOM     22  O   UNL     1       8.260 -62.893 -12.199  1.00  0.00    -0.508 OA
ATOM     23  H   UNL     1       9.228 -63.031 -12.464  1.00  0.00     0.293 HD
ENDBRANCH   6  22
TORSDOF 4
ENDMDL
MODEL 2
REMARK VINA RESULT:    -6.162      1.744      2.686
REMARK INTER + INTRA:          -7.382
REMARK INTER:                  -7.068
REMARK INTRA:                  -0.315
REMARK UNBOUND:                -0.319
REMARK SMILES O=C1C[C@H](c2ccc(O)cc2)Oc2cc(O)cc(O)c21
REMARK SMILES IDX 3 1 4 2 12 3 13 4 14 5 15 6 17 7 18 8 20 9 2 10 1 11 5 12
REMARK SMILES IDX 6 13 11 14 7 15 10 16 8 17 9 18 19 20 16 22
REMARK H PARENT 9 19 19 21 16 23
REMARK Flexibility Score: inf
ROOT
ATOM      1  C   UNL     1       7.308 -63.187  -7.866  1.00  0.00     0.131 C 
ATOM      2  C   UNL     1       7.096 -61.968  -8.777  1.00  0.00     0.211 C 
ATOM      3  O   UNL     1       6.816 -62.383 -10.116  1.00  0.00    -0.484 OA
ATOM      4  C   UNL     1       7.522 -63.423 -10.735  1.00  0.00     0.138 A 
ATOM      5  C   UNL     1       7.440 -63.580 -12.121  1.00  0.00     0.093 A 
ATOM      6  C   UNL     1       8.159 -64.598 -12.758  1.00  0.00     0.123 A 
ATOM      7  C   UNL     1       8.954 -65.464 -12.003  1.00  0.00     0.093 A 
ATOM      8  C   UNL     1       9.030 -65.331 -10.608  1.00  0.00     0.133 A 
ATOM      9  C   UNL     1       8.304 -64.306  -9.964  1.00  0.00     0.102 A 
ATOM     10  C   UNL     1       8.294 -64.133  -8.491  1.00  0.00     0.174 C 
ATOM     11  O   UNL     1       9.062 -64.805  -7.750  1.00  0.00    -0.294 OA
ENDROOT
BRANCH   2  12
ATOM     12  C   UNL     1       5.974 -61.102  -8.258  1.00  0.00    -0.007 A 
ATOM     13  C   UNL     1       5.223 -60.301  -9.137  1.00  0.00     0.011 A 
ATOM     14  C   UNL     1       5.631 -61.130  -6.896  1.00  0.00     0.011 A 
ATOM     15  C   UNL     1       4.166 -59.524  -8.656  1.00  0.00     0.046 A 
ATOM     16  C   UNL     1       4.572 -60.351  -6.417  1.00  0.00     0.046 A 
ATOM     17  C   UNL     1       3.838 -59.547  -7.294  1.00  0.00     0.115 A 
BRANCH  17  18
ATOM     18  O   UNL     1       2.787 -58.776  -6.803  1.00  0.00    -0.508 OA
ATOM     19  H   UNL     1       2.126 -59.149  -6.130  1.00  0.00     0.293 HD
ENDBRANCH  17  18
ENDBRANCH   2  12
BRANCH   8  20
ATOM     20  O   UNL     1       9.816 -66.217  -9.872  1.00  0.00    -0.507 OA
ATOM     21  H   UNL     1      10.008 -67.156 -10.200  1.00  0.00     0.293 HD
ENDBRANCH   8  20
BRANCH   6  22
ATOM     22  O   UNL     1       8.091 -64.756 -14.140  1.00  0.00    -0.508 OA
ATOM     23  H   UNL     1       7.716 -64.030 -14.738  1.00  0.00     0.293 HD
ENDBRANCH   6  22
TORSDOF 4
ENDMDL
MODEL 3
REMARK VINA RESULT:    -5.905      1.992      7.168
REMARK INTER + INTRA:          -7.087
REMARK INTER:                  -6.791
REMARK INTRA:                  -0.296
REMARK UNBOUND:                -0.319
REMARK SMILES O=C1C[C@H](c2ccc(O)cc2)Oc2cc(O)cc(O)c21
REMARK SMILES IDX 3 1 4 2 12 3 13 4 14 5 15 6 17 7 18 8 20 9 2 10 1 11 5 12
REMARK SMILES IDX 6 13 11 14 7 15 10 16 8 17 9 18 19 20 16 22
REMARK H PARENT 9 19 19 21 16 23
REMARK Flexibility Score: inf
ROOT
ATOM      1  C   UNL     1       6.391 -61.356  -9.389  1.00  0.00     0.131 C 
ATOM      2  C   UNL     1       7.149 -62.426  -8.588  1.00  0.00     0.211 C 
ATOM      3  O   UNL     1       6.260 -63.122  -7.710  1.00  0.00    -0.484 OA
ATOM      4  C   UNL     1       5.283 -62.455  -6.960  1.00  0.00     0.138 A 
ATOM      5  C   UNL     1       4.664 -63.116  -5.896  1.00  0.00     0.093 A 
ATOM      6  C   UNL     1       3.703 -62.456  -5.120  1.00  0.00     0.123 A 
ATOM      7  C   UNL     1       3.359 -61.135  -5.417  1.00  0.00     0.093 A 
ATOM      8  C   UNL     1       3.959 -60.465  -6.494  1.00  0.00     0.133 A 
ATOM      9  C   UNL     1       4.926 -61.130  -7.279  1.00  0.00     0.102 A 
ATOM     10  C   UNL     1       5.567 -60.507  -8.463  1.00  0.00     0.174 C 
ATOM     11  O   UNL     1       5.388 -59.289  -8.735  1.00  0.00    -0.294 OA
ENDROOT
BRANCH   2  12
ATOM     12  C   UNL     1       7.831 -63.403  -9.515  1.00  0.00    -0.007 A 
ATOM     13  C   UNL     1       8.615 -64.450  -8.998  1.00  0.00     0.011 A 
ATOM     14  C   UNL     1       7.646 -63.308 -10.904  1.00  0.00     0.011 A 
ATOM     15  C   UNL     1       9.222 -65.370  -9.859  1.00  0.00     0.046 A 
ATOM     16  C   UNL     1       8.253 -64.229 -11.763  1.00  0.00     0.046 A 
ATOM     17  C   UNL     1       9.042 -65.260 -11.245  1.00  0.00     0.115 A 
BRANCH  17  18
ATOM     18  O   UNL     1       9.641 -66.171 -12.113  1.00  0.00    -0.508 OA
ATOM     19  H   UNL     1       9.149 -66.533 -12.922  1.00  0.00     0.293 HD
ENDBRANCH  17  18
ENDBRANCH   2  12
BRANCH   8  20
ATOM     20  O   UNL     1       3.588 -59.152  -6.784  1.00  0.00    -0.507 OA
ATOM     21  H   UNL     1       3.234 -58.530  -6.068  1.00  0.00     0.293 HD
ENDBRANCH   8  20
BRANCH   6  22
ATOM     22  O   UNL     1       3.088 -63.103  -4.052  1.00  0.00    -0.508 OA
ATOM     23  H   UNL     1       3.464 -63.051  -3.113  1.00  0.00     0.293 HD
ENDBRANCH   6  22
TORSDOF 4
ENDMDL
MODEL 4
REMARK VINA RESULT:    -5.707      1.697      6.857
REMARK INTER + INTRA:          -6.860
REMARK INTER:                  -6.560
REMARK INTRA:                  -0.300
REMARK UNBOUND:                -0.319
REMARK SMILES O=C1C[C@H](c2ccc(O)cc2)Oc2cc(O)cc(O)c21
REMARK SMILES IDX 3 1 4 2 12 3 13 4 14 5 15 6 17 7 18 8 20 9 2 10 1 11 5 12
REMARK SMILES IDX 6 13 11 14 7 15 10 16 8 17 9 18 19 20 16 22
REMARK H PARENT 9 19 19 21 16 23
REMARK Flexibility Score: inf
ROOT
ATOM      1  C   UNL     1       5.096 -60.142  -6.687  1.00  0.00     0.131 C 
ATOM      2  C   UNL     1       4.738 -61.324  -7.602  1.00  0.00     0.211 C 
ATOM      3  O   UNL     1       3.751 -60.938  -8.561  1.00  0.00    -0.484 OA
ATOM      4  C   UNL     1       2.647 -60.148  -8.214  1.00  0.00     0.138 A 
ATOM      5  C   UNL     1       1.561 -60.064  -9.090  1.00  0.00     0.093 A 
ATOM      6  C   UNL     1       0.439 -59.300  -8.748  1.00  0.00     0.123 A 
ATOM      7  C   UNL     1       0.409 -58.614  -7.531  1.00  0.00     0.093 A 
ATOM      8  C   UNL     1       1.501 -58.674  -6.651  1.00  0.00     0.133 A 
ATOM      9  C   UNL     1       2.635 -59.443  -6.995  1.00  0.00     0.102 A 
ATOM     10  C   UNL     1       3.846 -59.514  -6.142  1.00  0.00     0.174 C 
ATOM     11  O   UNL     1       3.860 -59.010  -4.986  1.00  0.00    -0.294 OA
ENDROOT
BRANCH   2  12
ATOM     12  C   UNL     1       5.967 -61.847  -8.304  1.00  0.00    -0.007 A 
ATOM     13  C   UNL     1       6.740 -62.869  -7.726  1.00  0.00     0.011 A 
ATOM     14  C   UNL     1       6.321 -61.355  -9.572  1.00  0.00     0.011 A 
ATOM     15  C   UNL     1       7.861 -63.372  -8.394  1.00  0.00     0.046 A 
ATOM     16  C   UNL     1       7.442 -61.860 -10.238  1.00  0.00     0.046 A 
ATOM     17  C   UNL     1       8.215 -62.867  -9.652  1.00  0.00     0.115 A 
BRANCH  17  18
ATOM     18  O   UNL     1       9.329 -63.359 -10.328  1.00  0.00    -0.508 OA
ATOM     19  H   UNL     1       9.351 -64.305 -10.694  1.00  0.00     0.293 HD
ENDBRANCH  17  18
ENDBRANCH   2  12
BRANCH   8  20
ATOM     20  O   UNL     1       1.458 -57.968  -5.449  1.00  0.00    -0.507 OA
ATOM     21  H   UNL     1       0.651 -57.416  -5.185  1.00  0.00     0.293 HD
ENDBRANCH   8  20
BRANCH   6  22
ATOM     22  O   UNL     1      -0.653 -59.218  -9.609  1.00  0.00    -0.508 OA
ATOM     23  H   UNL     1      -0.586 -59.509 -10.578  1.00  0.00     0.293 HD
ENDBRANCH   6  22
TORSDOF 4
ENDMDL
MODEL 5
REMARK VINA RESULT:    -5.597      1.576      7.507
REMARK INTER + INTRA:          -6.734
REMARK INTER:                  -6.415
REMARK INTRA:                  -0.319
REMARK UNBOUND:                -0.319
REMARK SMILES O=C1C[C@H](c2ccc(O)cc2)Oc2cc(O)cc(O)c21
REMARK SMILES IDX 3 1 4 2 12 3 13 4 14 5 15 6 17 7 18 8 20 9 2 10 1 11 5 12
REMARK SMILES IDX 6 13 11 14 7 15 10 16 8 17 9 18 19 20 16 22
REMARK H PARENT 9 19 19 21 16 23
REMARK Flexibility Score: inf
ROOT
ATOM      1  C   UNL     1       3.620 -59.861  -8.958  1.00  0.00     0.131 C 
ATOM      2  C   UNL     1       4.632 -59.867  -7.802  1.00  0.00     0.211 C 
ATOM      3  O   UNL     1       3.970 -60.085  -6.554  1.00  0.00    -0.484 OA
ATOM      4  C   UNL     1       2.762 -59.451  -6.233  1.00  0.00     0.138 A 
ATOM      5  C   UNL     1       2.323 -59.441  -4.906  1.00  0.00     0.093 A 
ATOM      6  C   UNL     1       1.132 -58.791  -4.564  1.00  0.00     0.123 A 
ATOM      7  C   UNL     1       0.377 -58.157  -5.554  1.00  0.00     0.093 A 
ATOM      8  C   UNL     1       0.796 -58.176  -6.893  1.00  0.00     0.133 A 
ATOM      9  C   UNL     1       1.996 -58.833  -7.241  1.00  0.00     0.102 A 
ATOM     10  C   UNL     1       2.478 -58.940  -8.640  1.00  0.00     0.174 C 
ATOM     11  O   UNL     1       1.912 -58.310  -9.574  1.00  0.00    -0.294 OA
ENDROOT
BRANCH   2  12
ATOM     12  C   UNL     1       5.686 -60.925  -8.021  1.00  0.00    -0.007 A 
ATOM     13  C   UNL     1       5.927 -61.907  -7.043  1.00  0.00     0.011 A 
ATOM     14  C   UNL     1       6.402 -60.971  -9.228  1.00  0.00     0.011 A 
ATOM     15  C   UNL     1       6.884 -62.902  -7.262  1.00  0.00     0.046 A 
ATOM     16  C   UNL     1       7.358 -61.969  -9.445  1.00  0.00     0.046 A 
ATOM     17  C   UNL     1       7.603 -62.935  -8.465  1.00  0.00     0.115 A 
BRANCH  17  18
ATOM     18  O   UNL     1       8.559 -63.922  -8.695  1.00  0.00    -0.508 OA
ATOM     19  H   UNL     1       8.993 -64.037  -9.604  1.00  0.00     0.293 HD
ENDBRANCH  17  18
ENDBRANCH   2  12
BRANCH   8  20
ATOM     20  O   UNL     1       0.018 -57.552  -7.869  1.00  0.00    -0.507 OA
ATOM     21  H   UNL     1       0.139 -56.573  -8.100  1.00  0.00     0.293 HD
ENDBRANCH   8  20
BRANCH   6  22
ATOM     22  O   UNL     1       0.691 -58.766  -3.243  1.00  0.00    -0.508 OA
ATOM     23  H   UNL     1       0.622 -59.614  -2.692  1.00  0.00     0.293 HD
ENDBRANCH   6  22
TORSDOF 4
ENDMDL
MODEL 6
REMARK VINA RESULT:    -5.583      9.857     11.767
REMARK INTER + INTRA:          -6.718
REMARK INTER:                  -6.398
REMARK INTRA:                  -0.319
REMARK UNBOUND:                -0.319
REMARK SMILES O=C1C[C@H](c2ccc(O)cc2)Oc2cc(O)cc(O)c21
REMARK SMILES IDX 3 1 4 2 12 3 13 4 14 5 15 6 17 7 18 8 20 9 2 10 1 11 5 12
REMARK SMILES IDX 6 13 11 14 7 15 10 16 8 17 9 18 19 20 16 22
REMARK H PARENT 9 19 19 21 16 23
REMARK Flexibility Score: inf
ROOT
ATOM      1  C   UNL     1       0.819 -67.497   1.118  1.00  0.00     0.131 C 
ATOM      2  C   UNL     1       0.362 -66.166   0.500  1.00  0.00     0.211 C 
ATOM      3  O   UNL     1       1.413 -65.198   0.555  1.00  0.00    -0.484 OA
ATOM      4  C   UNL     1       2.215 -65.036   1.692  1.00  0.00     0.138 A 
ATOM      5  C   UNL     1       3.001 -63.888   1.820  1.00  0.00     0.093 A 
ATOM      6  C   UNL     1       3.790 -63.699   2.961  1.00  0.00     0.123 A 
ATOM      7  C   UNL     1       3.796 -64.665   3.970  1.00  0.00     0.093 A 
ATOM      8  C   UNL     1       3.027 -65.833   3.845  1.00  0.00     0.133 A 
ATOM      9  C   UNL     1       2.233 -66.026   2.694  1.00  0.00     0.102 A 
ATOM     10  C   UNL     1       1.433 -67.255   2.467  1.00  0.00     0.174 C 
ATOM     11  O   UNL     1       1.305 -68.125   3.370  1.00  0.00    -0.294 OA
ENDROOT
BRANCH   2  12
ATOM     12  C   UNL     1      -0.084 -66.366  -0.928  1.00  0.00    -0.007 A 
ATOM     13  C   UNL     1       0.344 -65.488  -1.940  1.00  0.00     0.011 A 
ATOM     14  C   UNL     1      -0.889 -67.465  -1.271  1.00  0.00     0.011 A 
ATOM     15  C   UNL     1      -0.048 -65.694  -3.266  1.00  0.00     0.046 A 
ATOM     16  C   UNL     1      -1.279 -67.669  -2.598  1.00  0.00     0.046 A 
ATOM     17  C   UNL     1      -0.862 -66.786  -3.598  1.00  0.00     0.115 A 
BRANCH  17  18
ATOM     18  O   UNL     1      -1.258 -67.002  -4.916  1.00  0.00    -0.508 OA
ATOM     19  H   UNL     1      -2.011 -67.642  -5.144  1.00  0.00     0.293 HD
ENDBRANCH  17  18
ENDBRANCH   2  12
BRANCH   8  20
ATOM     20  O   UNL     1       3.062 -66.793   4.856  1.00  0.00    -0.507 OA
ATOM     21  H   UNL     1       3.932 -67.210   5.164  1.00  0.00     0.293 HD
ENDBRANCH   8  20
BRANCH   6  22
ATOM     22  O   UNL     1       4.569 -62.552   3.103  1.00  0.00    -0.508 OA
ATOM     23  H   UNL     1       5.574 -62.606   3.217  1.00  0.00     0.293 HD
ENDBRANCH   6  22
TORSDOF 4
ENDMDL
MODEL 7
REMARK VINA RESULT:    -5.539      1.631      3.188
REMARK INTER + INTRA:          -6.667
REMARK INTER:                  -6.369
REMARK INTRA:                  -0.298
REMARK UNBOUND:                -0.319
REMARK SMILES O=C1C[C@H](c2ccc(O)cc2)Oc2cc(O)cc(O)c21
REMARK SMILES IDX 3 1 4 2 12 3 13 4 14 5 15 6 17 7 18 8 20 9 2 10 1 11 5 12
REMARK SMILES IDX 6 13 11 14 7 15 10 16 8 17 9 18 19 20 16 22
REMARK H PARENT 9 19 19 21 16 23
REMARK Flexibility Score: inf
ROOT
ATOM      1  C   UNL     1       4.426 -59.545  -8.275  1.00  0.00     0.131 C 
ATOM      2  C   UNL     1       3.969 -60.439  -7.112  1.00  0.00     0.211 C 
ATOM      3  O   UNL     1       5.068 -61.191  -6.592  1.00  0.00    -0.484 OA
ATOM      4  C   UNL     1       6.010 -61.804  -7.427  1.00  0.00     0.138 A 
ATOM      5  C   UNL     1       6.865 -62.776  -6.901  1.00  0.00     0.093 A 
ATOM      6  C   UNL     1       7.796 -63.417  -7.727  1.00  0.00     0.123 A 
ATOM      7  C   UNL     1       7.874 -63.078  -9.080  1.00  0.00     0.093 A 
ATOM      8  C   UNL     1       7.035 -62.090  -9.618  1.00  0.00     0.133 A 
ATOM      9  C   UNL     1       6.097 -61.441  -8.786  1.00  0.00     0.102 A 
ATOM     10  C   UNL     1       5.212 -60.353  -9.269  1.00  0.00     0.174 C 
ATOM     11  O   UNL     1       5.148 -60.060 -10.493  1.00  0.00    -0.294 OA
ENDROOT
BRANCH   2  12
ATOM     12  C   UNL     1       3.342 -59.611  -6.017  1.00  0.00    -0.007 A 
ATOM     13  C   UNL     1       1.949 -59.421  -5.973  1.00  0.00     0.011 A 
ATOM     14  C   UNL     1       4.140 -59.067  -4.997  1.00  0.00     0.011 A 
ATOM     15  C   UNL     1       1.370 -58.679  -4.940  1.00  0.00     0.046 A 
ATOM     16  C   UNL     1       3.558 -58.324  -3.965  1.00  0.00     0.046 A 
ATOM     17  C   UNL     1       2.174 -58.127  -3.933  1.00  0.00     0.115 A 
BRANCH  17  18
ATOM     18  O   UNL     1       1.609 -57.385  -2.898  1.00  0.00    -0.508 OA
ATOM     19  H   UNL     1       0.956 -56.632  -3.083  1.00  0.00     0.293 HD
ENDBRANCH  17  18
ENDBRANCH   2  12
BRANCH   8  20
ATOM     20  O   UNL     1       7.141 -61.755 -10.968  1.00  0.00    -0.507 OA
ATOM     21  H   UNL     1       7.852 -61.117 -11.303  1.00  0.00     0.293 HD
ENDBRANCH   8  20
BRANCH   6  22
ATOM     22  O   UNL     1       8.646 -64.394  -7.214  1.00  0.00    -0.508 OA
ATOM     23  H   UNL     1       8.639 -64.638  -6.230  1.00  0.00     0.293 HD
ENDBRANCH   6  22
TORSDOF 4
ENDMDL
MODEL 8
REMARK VINA RESULT:    -5.492      8.763     11.146
REMARK INTER + INTRA:          -6.614
REMARK INTER:                  -6.298
REMARK INTRA:                  -0.316
REMARK UNBOUND:                -0.319
REMARK SMILES O=C1C[C@H](c2ccc(O)cc2)Oc2cc(O)cc(O)c21
REMARK SMILES IDX 3 1 4 2 12 3 13 4 14 5 15 6 17 7 18 8 20 9 2 10 1 11 5 12
REMARK SMILES IDX 6 13 11 14 7 15 10 16 8 17 9 18 19 20 16 22
REMARK H PARENT 9 19 19 21 16 23
REMARK Flexibility Score: inf
ROOT
ATOM      1  C   UNL     1       3.103 -63.620  -0.821  1.00  0.00     0.131 C 
ATOM      2  C   UNL     1       2.646 -63.438   0.635  1.00  0.00     0.211 C 
ATOM      3  O   UNL     1       2.014 -64.627   1.118  1.00  0.00    -0.484 OA
ATOM      4  C   UNL     1       1.108 -65.355   0.337  1.00  0.00     0.138 A 
ATOM      5  C   UNL     1       0.286 -66.307   0.947  1.00  0.00     0.093 A 
ATOM      6  C   UNL     1      -0.643 -67.026   0.186  1.00  0.00     0.123 A 
ATOM      7  C   UNL     1      -0.744 -66.795  -1.188  1.00  0.00     0.093 A 
ATOM      8  C   UNL     1       0.088 -65.856  -1.817  1.00  0.00     0.133 A 
ATOM      9  C   UNL     1       1.028 -65.131  -1.052  1.00  0.00     0.102 A 
ATOM     10  C   UNL     1       1.974 -64.160  -1.652  1.00  0.00     0.174 C 
ATOM     11  O   UNL     1       1.880 -63.820  -2.862  1.00  0.00    -0.294 OA
ENDROOT
BRANCH   2  12
ATOM     12  C   UNL     1       3.814 -63.077   1.520  1.00  0.00    -0.007 A 
ATOM     13  C   UNL     1       3.834 -63.465   2.872  1.00  0.00     0.011 A 
ATOM     14  C   UNL     1       4.921 -62.394   0.988  1.00  0.00     0.011 A 
ATOM     15  C   UNL     1       4.931 -63.154   3.680  1.00  0.00     0.046 A 
ATOM     16  C   UNL     1       6.017 -62.085   1.799  1.00  0.00     0.046 A 
ATOM     17  C   UNL     1       6.026 -62.462   3.145  1.00  0.00     0.115 A 
BRANCH  17  18
ATOM     18  O   UNL     1       7.125 -62.146   3.941  1.00  0.00    -0.508 OA
ATOM     19  H   UNL     1       8.072 -62.211   3.585  1.00  0.00     0.293 HD
ENDBRANCH  17  18
ENDBRANCH   2  12
BRANCH   8  20
ATOM     20  O   UNL     1      -0.017 -65.653  -3.193  1.00  0.00    -0.507 OA
ATOM     21  H   UNL     1      -0.769 -65.107  -3.594  1.00  0.00     0.293 HD
ENDBRANCH   8  20
BRANCH   6  22
ATOM     22  O   UNL     1      -1.473 -67.970   0.787  1.00  0.00    -0.508 OA
ATOM     23  H   UNL     1      -1.096 -68.791   1.245  1.00  0.00     0.293 HD
ENDBRANCH   6  22
TORSDOF 4
ENDMDL
MODEL 9
REMARK VINA RESULT:    -5.410      8.757     11.693
REMARK INTER + INTRA:          -6.520
REMARK INTER:                  -6.202
REMARK INTRA:                  -0.318
REMARK UNBOUND:                -0.319
REMARK SMILES O=C1C[C@H](c2ccc(O)cc2)Oc2cc(O)cc(O)c21
REMARK SMILES IDX 3 1 4 2 12 3 13 4 14 5 15 6 17 7 18 8 20 9 2 10 1 11 5 12
REMARK SMILES IDX 6 13 11 14 7 15 10 16 8 17 9 18 19 20 16 22
REMARK H PARENT 9 19 19 21 16 23
REMARK Flexibility Score: inf
ROOT
ATOM      1  C   UNL     1      -3.236 -56.451 -14.344  1.00  0.00     0.131 C 
ATOM      2  C   UNL     1      -3.528 -55.548 -13.136  1.00  0.00     0.211 C 
ATOM      3  O   UNL     1      -2.801 -55.992 -11.987  1.00  0.00    -0.484 OA
ATOM      4  C   UNL     1      -2.695 -57.349 -11.655  1.00  0.00     0.138 A 
ATOM      5  C   UNL     1      -2.260 -57.711 -10.377  1.00  0.00     0.093 A 
ATOM      6  C   UNL     1      -2.172 -59.061 -10.020  1.00  0.00     0.123 A 
ATOM      7  C   UNL     1      -2.515 -60.049 -10.947  1.00  0.00     0.093 A 
ATOM      8  C   UNL     1      -2.936 -59.701 -12.239  1.00  0.00     0.133 A 
ATOM      9  C   UNL     1      -3.022 -58.339 -12.602  1.00  0.00     0.102 A 
ATOM     10  C   UNL     1      -3.409 -57.893 -13.963  1.00  0.00     0.174 C 
ATOM     11  O   UNL     1      -3.831 -58.714 -14.822  1.00  0.00    -0.294 OA
ENDROOT
BRANCH   2  12
ATOM     12  C   UNL     1      -3.179 -54.112 -13.446  1.00  0.00    -0.007 A 
ATOM     13  C   UNL     1      -2.292 -53.398 -12.620  1.00  0.00     0.011 A 
ATOM     14  C   UNL     1      -3.694 -53.491 -14.596  1.00  0.00     0.011 A 
ATOM     15  C   UNL     1      -1.948 -52.078 -12.928  1.00  0.00     0.046 A 
ATOM     16  C   UNL     1      -3.348 -52.171 -14.901  1.00  0.00     0.046 A 
ATOM     17  C   UNL     1      -2.477 -51.461 -14.070  1.00  0.00     0.115 A 
BRANCH  17  18
ATOM     18  O   UNL     1      -2.142 -50.147 -14.387  1.00  0.00    -0.508 OA
ATOM     19  H   UNL     1      -2.631 -49.361 -13.972  1.00  0.00     0.293 HD
ENDBRANCH  17  18
ENDBRANCH   2  12
BRANCH   8  20
ATOM     20  O   UNL     1      -3.256 -60.703 -13.154  1.00  0.00    -0.507 OA
ATOM     21  H   UNL     1      -2.586 -61.413 -13.422  1.00  0.00     0.293 HD
ENDBRANCH   8  20
BRANCH   6  22
ATOM     22  O   UNL     1      -1.748 -59.432  -8.746  1.00  0.00    -0.508 OA
ATOM     23  H   UNL     1      -2.315 -60.024  -8.151  1.00  0.00     0.293 HD
ENDBRANCH   6  22
TORSDOF 4
ENDMDL
