MODEL 1
REMARK VINA RESULT:    14.750      0.000      0.000
REMARK INTER + INTRA:          25.426
REMARK INTER:                  22.510
REMARK INTRA:                   2.916
REMARK UNBOUND:                 2.916
REMARK SMILES CC1=CCC[C@H](C)C(=O)C[C@H](C(C)C)C(=O)C1
REMARK SMILES IDX 8 1 9 2 6 3 7 4 5 5 4 6 3 7 2 8 1 9 10 11 11 12 15 13 16 14
REMARK SMILES IDX 17 15 12 17 13 18 14 19
REMARK H PARENT
REMARK Flexibility Score: 70.00
ROOT
ATOM      1  C   UNL     1     -28.690  35.214 -11.817  1.00  0.00     0.136 C 
ATOM      2  O   UNL     1     -28.528  36.165 -12.568  1.00  0.00    -0.299 OA
ENDROOT
BRANCH   1   3
ATOM      3  C   UNL     1     -28.898  33.832 -12.414  1.00  0.00     0.053 C 
ATOM      4  C   UNL     1     -29.819  33.947 -13.636  1.00  0.00     0.016 C 
BRANCH   3   5
ATOM      5  C   UNL     1     -27.567  33.126 -12.796  1.00  0.00     0.015 C 
BRANCH   5   6
ATOM      6  C   UNL     1     -26.812  33.720 -14.002  1.00  0.00     0.028 C 
BRANCH   6   7
ATOM      7  C   UNL     1     -25.408  34.215 -13.750  1.00  0.00    -0.028 C 
ATOM      8  C   UNL     1     -25.052  35.203 -12.898  1.00  0.00    -0.070 CG0
ATOM      9  C   UNL     1     -23.643  35.737 -13.009  1.00  0.00     0.039 C 
ATOM     10  G   UNL     1     -25.985  35.803 -11.859  1.00  0.00     0.000 G0
ENDBRANCH   6   7
ENDBRANCH   5   6
ENDBRANCH   3   5
ENDBRANCH   1   3
BRANCH   1  11
ATOM     11  C   UNL     1     -28.540  35.421 -10.322  1.00  0.00     0.087 C 
BRANCH  11  12
ATOM     12  C   UNL     1     -27.223  34.875  -9.694  1.00  0.00     0.066 C 
BRANCH  12  13
ATOM     13  C   UNL     1     -26.023  34.924 -10.629  1.00  0.00     0.140 C 
ATOM     14  O   UNL     1     -25.036  34.268 -10.329  1.00  0.00    -0.299 OA
BRANCH  13  15
ATOM     15  C   UNL     1     -25.966  35.807 -11.857  1.00  0.00     0.106 CG0
ATOM     16  G   UNL     1     -25.034  35.215 -12.901  1.00  0.00     0.000 G0
ENDBRANCH  13  15
ENDBRANCH  12  13
BRANCH  12  17
ATOM     17  C   UNL     1     -26.902  35.562  -8.328  1.00  0.00    -0.006 C 
ATOM     18  C   UNL     1     -25.667  36.477  -8.421  1.00  0.00     0.008 C 
ATOM     19  C   UNL     1     -26.669  34.527  -7.213  1.00  0.00     0.008 C 
ENDBRANCH  12  17
ENDBRANCH  11  12
ENDBRANCH   1  11
TORSDOF 1
ENDMDL
MODEL 2
REMARK VINA RESULT:    16.136      1.814      5.077
REMARK INTER + INTRA:          27.543
REMARK INTER:                  24.824
REMARK INTRA:                   2.718
REMARK UNBOUND:                 2.916
REMARK SMILES CC1=CCC[C@H](C)C(=O)C[C@H](C(C)C)C(=O)C1
REMARK SMILES IDX 8 1 9 2 6 3 7 4 5 5 4 6 3 7 2 8 1 9 10 11 11 12 15 13 16 14
REMARK SMILES IDX 17 15 12 17 13 18 14 19
REMARK H PARENT
REMARK Flexibility Score: 70.00
ROOT
ATOM      1  C   UNL     1     -26.329  34.520  -9.127  1.00  0.00     0.136 C 
ATOM      2  O   UNL     1     -26.930  33.464  -8.993  1.00  0.00    -0.299 OA
ENDROOT
BRANCH   1   3
ATOM      3  C   UNL     1     -25.734  35.188  -7.899  1.00  0.00     0.053 C 
ATOM      4  C   UNL     1     -24.851  36.361  -8.344  1.00  0.00     0.016 C 
BRANCH   3   5
ATOM      5  C   UNL     1     -26.808  35.666  -6.883  1.00  0.00     0.015 C 
BRANCH   5   6
ATOM      6  C   UNL     1     -28.094  36.259  -7.493  1.00  0.00     0.028 C 
BRANCH   6   7
ATOM      7  C   UNL     1     -27.926  37.174  -8.683  1.00  0.00    -0.028 C 
ATOM      8  C   UNL     1     -28.216  36.871  -9.968  1.00  0.00    -0.070 CG0
ATOM      9  C   UNL     1     -27.705  37.814 -11.032  1.00  0.00     0.039 C 
ATOM     10  G   UNL     1     -29.006  35.644 -10.391  1.00  0.00     0.000 G0
ENDBRANCH   6   7
ENDBRANCH   5   6
ENDBRANCH   3   5
ENDBRANCH   1   3
BRANCH   1  11
ATOM     11  C   UNL     1     -26.080  35.055 -10.524  1.00  0.00     0.087 C 
BRANCH  11  12
ATOM     12  C   UNL     1     -26.996  34.472 -11.642  1.00  0.00     0.066 C 
BRANCH  12  13
ATOM     13  C   UNL     1     -28.433  34.968 -11.588  1.00  0.00     0.140 C 
ATOM     14  O   UNL     1     -29.111  34.872 -12.602  1.00  0.00    -0.299 OA
BRANCH  13  15
ATOM     15  C   UNL     1     -29.030  35.647 -10.374  1.00  0.00     0.106 CG0
ATOM     16  G   UNL     1     -28.196  36.852  -9.970  1.00  0.00     0.000 G0
ENDBRANCH  13  15
ENDBRANCH  12  13
BRANCH  12  17
ATOM     17  C   UNL     1     -26.381  34.678 -13.063  1.00  0.00    -0.006 C 
ATOM     18  C   UNL     1     -26.465  33.400 -13.917  1.00  0.00     0.008 C 
ATOM     19  C   UNL     1     -24.910  35.127 -12.986  1.00  0.00     0.008 C 
ENDBRANCH  12  17
ENDBRANCH  11  12
ENDBRANCH   1  11
TORSDOF 1
ENDMDL
MODEL 3
REMARK VINA RESULT:    16.531      1.516      4.123
REMARK INTER + INTRA:          28.144
REMARK INTER:                  26.388
REMARK INTRA:                   1.756
REMARK UNBOUND:                 2.916
REMARK SMILES CC1=CCC[C@H](C)C(=O)C[C@H](C(C)C)C(=O)C1
REMARK SMILES IDX 8 1 9 2 6 3 7 4 5 5 4 6 3 7 2 8 1 9 10 11 11 12 15 13 16 14
REMARK SMILES IDX 17 15 12 17 13 18 14 19
REMARK H PARENT
REMARK Flexibility Score: 70.00
ROOT
ATOM      1  C   UNL     1     -27.851  36.299 -10.918  1.00  0.00     0.136 C 
ATOM      2  O   UNL     1     -27.657  37.150 -11.775  1.00  0.00    -0.299 OA
ENDROOT
BRANCH   1   3
ATOM      3  C   UNL     1     -27.549  36.635  -9.467  1.00  0.00     0.053 C 
ATOM      4  C   UNL     1     -28.841  37.097  -8.780  1.00  0.00     0.016 C 
BRANCH   3   5
ATOM      5  C   UNL     1     -26.906  35.454  -8.689  1.00  0.00     0.015 C 
BRANCH   5   6
ATOM      6  C   UNL     1     -25.611  34.875  -9.293  1.00  0.00     0.028 C 
BRANCH   6   7
ATOM      7  C   UNL     1     -25.106  35.515 -10.564  1.00  0.00    -0.028 C 
ATOM      8  C   UNL     1     -25.146  34.971 -11.801  1.00  0.00    -0.070 CG0
ATOM      9  C   UNL     1     -24.332  35.647 -12.880  1.00  0.00     0.039 C 
ATOM     10  G   UNL     1     -25.944  33.728 -12.154  1.00  0.00     0.000 G0
ENDBRANCH   6   7
ENDBRANCH   5   6
ENDBRANCH   3   5
ENDBRANCH   1   3
BRANCH   1  11
ATOM     11  C   UNL     1     -28.514  34.993 -11.312  1.00  0.00     0.087 C 
BRANCH  11  12
ATOM     12  C   UNL     1     -28.384  34.598 -12.814  1.00  0.00     0.066 C 
BRANCH  12  13
ATOM     13  C   UNL     1     -27.011  34.065 -13.198  1.00  0.00     0.140 C 
ATOM     14  O   UNL     1     -26.800  33.828 -14.379  1.00  0.00    -0.299 OA
BRANCH  13  15
ATOM     15  C   UNL     1     -25.936  33.737 -12.185  1.00  0.00     0.106 CG0
ATOM     16  G   UNL     1     -25.151  34.984 -11.814  1.00  0.00     0.000 G0
ENDBRANCH  13  15
ENDBRANCH  12  13
BRANCH  12  17
ATOM     17  C   UNL     1     -29.515  33.615 -13.255  1.00  0.00    -0.006 C 
ATOM     18  C   UNL     1     -29.184  32.156 -12.888  1.00  0.00     0.008 C 
ATOM     19  C   UNL     1     -29.780  33.697 -14.769  1.00  0.00     0.008 C 
ENDBRANCH  12  17
ENDBRANCH  11  12
ENDBRANCH   1  11
TORSDOF 1
ENDMDL
