MODEL 1
REMARK VINA RESULT:    -6.655      0.000      0.000
REMARK INTER + INTRA:          -8.309
REMARK INTER:                  -8.016
REMARK INTRA:                  -0.292
REMARK UNBOUND:                -0.292
REMARK SMILES O=c1c(O)c(-c2ccc(O)cc2O)oc2cc(O)cc(O)c12
REMARK SMILES IDX 5 1 3 2 2 3 1 4 22 5 20 6 19 7 17 8 16 9 15 10 14 11 6 12
REMARK SMILES IDX 8 13 7 14 9 15 11 16 12 17 10 18 13 20 4 22 21 24 18 26
REMARK H PARENT 10 19 13 21 4 23 21 25 18 27
REMARK Flexibility Score: inf
ROOT
ATOM      1  C   UNL     1      16.022   7.622 -24.902  1.00  0.00     0.184 A 
ATOM      2  C   UNL     1      15.552   7.574 -23.581  1.00  0.00     0.208 A 
ATOM      3  C   UNL     1      16.429   7.181 -22.559  1.00  0.00     0.238 A 
ATOM      4  O   UNL     1      16.018   7.200 -21.370  1.00  0.00    -0.285 OA
ATOM      5  C   UNL     1      17.760   6.815 -22.877  1.00  0.00     0.111 A 
ATOM      6  C   UNL     1      18.725   6.363 -21.927  1.00  0.00     0.134 A 
ATOM      7  C   UNL     1      20.046   6.144 -22.335  1.00  0.00     0.093 A 
ATOM      8  C   UNL     1      20.422   6.298 -23.672  1.00  0.00     0.123 A 
ATOM      9  C   UNL     1      19.474   6.682 -24.617  1.00  0.00     0.094 A 
ATOM     10  C   UNL     1      18.156   6.944 -24.234  1.00  0.00     0.146 A 
ATOM     11  O   UNL     1      17.288   7.322 -25.165  1.00  0.00    -0.451 OA
ENDROOT
BRANCH   1  12
ATOM     12  C   UNL     1      15.137   8.005 -26.023  1.00  0.00     0.063 A 
ATOM     13  C   UNL     1      14.484   9.650 -27.694  1.00  0.00     0.047 A 
ATOM     14  C   UNL     1      15.339   9.238 -26.670  1.00  0.00     0.020 A 
ATOM     15  C   UNL     1      13.411   8.841 -28.082  1.00  0.00     0.119 A 
ATOM     16  C   UNL     1      13.200   7.615 -27.444  1.00  0.00     0.093 A 
ATOM     17  C   UNL     1      14.056   7.186 -26.423  1.00  0.00     0.130 A 
BRANCH  15  18
ATOM     18  O   UNL     1      12.549   9.244 -29.099  1.00  0.00    -0.508 OA
ATOM     19  H   UNL     1      11.936  10.043 -28.988  1.00  0.00     0.293 HD
ENDBRANCH  15  18
BRANCH  17  20
ATOM     20  O   UNL     1      13.819   5.936 -25.846  1.00  0.00    -0.507 OA
ATOM     21  H   UNL     1      13.152   5.273 -26.219  1.00  0.00     0.293 HD
ENDBRANCH  17  20
ENDBRANCH   1  12
BRANCH   2  22
ATOM     22  O   UNL     1      14.232   7.939 -23.298  1.00  0.00    -0.502 OA
ATOM     23  H   UNL     1      13.438   7.466 -23.711  1.00  0.00     0.293 HD
ENDBRANCH   2  22
BRANCH   6  24
ATOM     24  O   UNL     1      18.434   6.090 -20.587  1.00  0.00    -0.507 OA
ATOM     25  H   UNL     1      17.534   6.230 -20.153  1.00  0.00     0.293 HD
ENDBRANCH   6  24
BRANCH   8  26
ATOM     26  O   UNL     1      21.735   6.062 -24.073  1.00  0.00    -0.508 OA
ATOM     27  H   UNL     1      22.417   5.656 -23.442  1.00  0.00     0.293 HD
ENDBRANCH   8  26
TORSDOF 6
ENDMDL
MODEL 2
REMARK VINA RESULT:    -6.313      3.539      8.601
REMARK INTER + INTRA:          -7.896
REMARK INTER:                  -7.557
REMARK INTRA:                  -0.340
REMARK UNBOUND:                -0.292
REMARK SMILES O=c1c(O)c(-c2ccc(O)cc2O)oc2cc(O)cc(O)c12
REMARK SMILES IDX 5 1 3 2 2 3 1 4 22 5 20 6 19 7 17 8 16 9 15 10 14 11 6 12
REMARK SMILES IDX 8 13 7 14 9 15 11 16 12 17 10 18 13 20 4 22 21 24 18 26
REMARK H PARENT 10 19 13 21 4 23 21 25 18 27
REMARK Flexibility Score: inf
ROOT
ATOM      1  C   UNL     1      22.436   4.728 -23.171  1.00  0.00     0.184 A 
ATOM      2  C   UNL     1      22.343   5.020 -21.803  1.00  0.00     0.208 A 
ATOM      3  C   UNL     1      21.236   5.745 -21.334  1.00  0.00     0.238 A 
ATOM      4  O   UNL     1      21.129   5.950 -20.097  1.00  0.00    -0.285 OA
ATOM      5  C   UNL     1      20.250   6.191 -22.247  1.00  0.00     0.111 A 
ATOM      6  C   UNL     1      19.107   6.968 -21.890  1.00  0.00     0.134 A 
ATOM      7  C   UNL     1      18.134   7.250 -22.856  1.00  0.00     0.093 A 
ATOM      8  C   UNL     1      18.295   6.839 -24.183  1.00  0.00     0.123 A 
ATOM      9  C   UNL     1      19.436   6.132 -24.553  1.00  0.00     0.094 A 
ATOM     10  C   UNL     1      20.407   5.803 -23.604  1.00  0.00     0.146 A 
ATOM     11  O   UNL     1      21.472   5.115 -23.997  1.00  0.00    -0.451 OA
ENDROOT
BRANCH   1  12
ATOM     12  C   UNL     1      23.590   3.989 -23.726  1.00  0.00     0.063 A 
ATOM     13  C   UNL     1      24.900   1.940 -23.824  1.00  0.00     0.047 A 
ATOM     14  C   UNL     1      23.788   2.645 -23.360  1.00  0.00     0.020 A 
ATOM     15  C   UNL     1      25.834   2.568 -24.655  1.00  0.00     0.119 A 
ATOM     16  C   UNL     1      25.648   3.903 -25.023  1.00  0.00     0.093 A 
ATOM     17  C   UNL     1      24.532   4.618 -24.573  1.00  0.00     0.130 A 
BRANCH  15  18
ATOM     18  O   UNL     1      26.949   1.875 -25.120  1.00  0.00    -0.508 OA
ATOM     19  H   UNL     1      27.039   0.873 -24.998  1.00  0.00     0.293 HD
ENDBRANCH  15  18
BRANCH  17  20
ATOM     20  O   UNL     1      24.378   5.939 -25.002  1.00  0.00    -0.507 OA
ATOM     21  H   UNL     1      24.270   6.718 -24.365  1.00  0.00     0.293 HD
ENDBRANCH  17  20
ENDBRANCH   1  12
BRANCH   2  22
ATOM     22  O   UNL     1      23.334   4.569 -20.925  1.00  0.00    -0.502 OA
ATOM     23  H   UNL     1      24.095   5.160 -20.617  1.00  0.00     0.293 HD
ENDBRANCH   2  22
BRANCH   6  24
ATOM     24  O   UNL     1      18.893   7.504 -20.616  1.00  0.00    -0.507 OA
ATOM     25  H   UNL     1      18.030   7.921 -20.304  1.00  0.00     0.293 HD
ENDBRANCH   6  24
BRANCH   8  26
ATOM     26  O   UNL     1      17.330   7.138 -25.141  1.00  0.00    -0.508 OA
ATOM     27  H   UNL     1      16.403   6.728 -25.106  1.00  0.00     0.293 HD
ENDBRANCH   8  26
TORSDOF 6
ENDMDL
MODEL 3
REMARK VINA RESULT:    -6.024      1.517      6.654
REMARK INTER + INTRA:          -7.549
REMARK INTER:                  -7.241
REMARK INTRA:                  -0.308
REMARK UNBOUND:                -0.292
REMARK SMILES O=c1c(O)c(-c2ccc(O)cc2O)oc2cc(O)cc(O)c12
REMARK SMILES IDX 5 1 3 2 2 3 1 4 22 5 20 6 19 7 17 8 16 9 15 10 14 11 6 12
REMARK SMILES IDX 8 13 7 14 9 15 11 16 12 17 10 18 13 20 4 22 21 24 18 26
REMARK H PARENT 10 19 13 21 4 23 21 25 18 27
REMARK Flexibility Score: inf
ROOT
ATOM      1  C   UNL     1      16.103   7.093 -24.345  1.00  0.00     0.184 A 
ATOM      2  C   UNL     1      15.126   6.096 -24.476  1.00  0.00     0.208 A 
ATOM      3  C   UNL     1      14.150   6.224 -25.477  1.00  0.00     0.238 A 
ATOM      4  O   UNL     1      13.314   5.297 -25.628  1.00  0.00    -0.285 OA
ATOM      5  C   UNL     1      14.151   7.365 -26.316  1.00  0.00     0.111 A 
ATOM      6  C   UNL     1      13.187   7.620 -27.338  1.00  0.00     0.134 A 
ATOM      7  C   UNL     1      13.355   8.719 -28.188  1.00  0.00     0.093 A 
ATOM      8  C   UNL     1      14.418   9.610 -28.012  1.00  0.00     0.123 A 
ATOM      9  C   UNL     1      15.330   9.403 -26.981  1.00  0.00     0.094 A 
ATOM     10  C   UNL     1      15.210   8.294 -26.140  1.00  0.00     0.146 A 
ATOM     11  O   UNL     1      16.110   8.126 -25.178  1.00  0.00    -0.451 OA
ENDROOT
BRANCH   1  12
ATOM     12  C   UNL     1      17.141   7.023 -23.294  1.00  0.00     0.063 A 
ATOM     13  C   UNL     1      17.711   6.959 -20.929  1.00  0.00     0.047 A 
ATOM     14  C   UNL     1      16.751   6.970 -21.944  1.00  0.00     0.020 A 
ATOM     15  C   UNL     1      19.072   7.007 -21.247  1.00  0.00     0.119 A 
ATOM     16  C   UNL     1      19.469   7.061 -22.586  1.00  0.00     0.093 A 
ATOM     17  C   UNL     1      18.518   7.063 -23.613  1.00  0.00     0.130 A 
BRANCH  15  18
ATOM     18  O   UNL     1      20.037   7.001 -20.243  1.00  0.00    -0.508 OA
ATOM     19  H   UNL     1      21.027   7.020 -20.459  1.00  0.00     0.293 HD
ENDBRANCH  15  18
BRANCH  17  20
ATOM     20  O   UNL     1      18.974   7.081 -24.934  1.00  0.00    -0.507 OA
ATOM     21  H   UNL     1      19.789   7.602 -25.229  1.00  0.00     0.293 HD
ENDBRANCH  17  20
ENDBRANCH   1  12
BRANCH   2  22
ATOM     22  O   UNL     1      15.148   4.982 -23.630  1.00  0.00    -0.502 OA
ATOM     23  H   UNL     1      15.804   4.896 -22.865  1.00  0.00     0.293 HD
ENDBRANCH   2  22
BRANCH   6  24
ATOM     24  O   UNL     1      12.041   6.845 -27.542  1.00  0.00    -0.507 OA
ATOM     25  H   UNL     1      11.191   7.175 -27.971  1.00  0.00     0.293 HD
ENDBRANCH   6  24
BRANCH   8  26
ATOM     26  O   UNL     1      14.569  10.711 -28.852  1.00  0.00    -0.508 OA
ATOM     27  H   UNL     1      15.275  10.729 -29.580  1.00  0.00     0.293 HD
ENDBRANCH   8  26
TORSDOF 6
ENDMDL
MODEL 4
REMARK VINA RESULT:    -5.774      1.528      3.116
REMARK INTER + INTRA:          -7.247
REMARK INTER:                  -6.844
REMARK INTRA:                  -0.403
REMARK UNBOUND:                -0.292
REMARK SMILES O=c1c(O)c(-c2ccc(O)cc2O)oc2cc(O)cc(O)c12
REMARK SMILES IDX 5 1 3 2 2 3 1 4 22 5 20 6 19 7 17 8 16 9 15 10 14 11 6 12
REMARK SMILES IDX 8 13 7 14 9 15 11 16 12 17 10 18 13 20 4 22 21 24 18 26
REMARK H PARENT 10 19 13 21 4 23 21 25 18 27
REMARK Flexibility Score: inf
ROOT
ATOM      1  C   UNL     1      16.579   7.287 -24.242  1.00  0.00     0.184 A 
ATOM      2  C   UNL     1      17.944   7.160 -24.535  1.00  0.00     0.208 A 
ATOM      3  C   UNL     1      18.856   6.999 -23.480  1.00  0.00     0.238 A 
ATOM      4  O   UNL     1      20.071   6.824 -23.752  1.00  0.00    -0.285 OA
ATOM      5  C   UNL     1      18.388   6.994 -22.143  1.00  0.00     0.111 A 
ATOM      6  C   UNL     1      19.226   6.878 -20.992  1.00  0.00     0.134 A 
ATOM      7  C   UNL     1      18.645   6.763 -19.723  1.00  0.00     0.093 A 
ATOM      8  C   UNL     1      17.258   6.826 -19.557  1.00  0.00     0.123 A 
ATOM      9  C   UNL     1      16.436   6.999 -20.668  1.00  0.00     0.094 A 
ATOM     10  C   UNL     1      16.984   7.079 -21.951  1.00  0.00     0.146 A 
ATOM     11  O   UNL     1      16.163   7.229 -22.983  1.00  0.00    -0.451 OA
ENDROOT
BRANCH   1  12
ATOM     12  C   UNL     1      15.576   7.483 -25.312  1.00  0.00     0.063 A 
ATOM     13  C   UNL     1      14.522   8.959 -26.934  1.00  0.00     0.047 A 
ATOM     14  C   UNL     1      15.495   8.729 -25.960  1.00  0.00     0.020 A 
ATOM     15  C   UNL     1      13.610   7.952 -27.270  1.00  0.00     0.119 A 
ATOM     16  C   UNL     1      13.682   6.711 -26.630  1.00  0.00     0.093 A 
ATOM     17  C   UNL     1      14.659   6.464 -25.659  1.00  0.00     0.130 A 
BRANCH  15  18
ATOM     18  O   UNL     1      12.633   8.172 -28.237  1.00  0.00    -0.508 OA
ATOM     19  H   UNL     1      12.637   9.005 -28.814  1.00  0.00     0.293 HD
ENDBRANCH  15  18
BRANCH  17  20
ATOM     20  O   UNL     1      14.706   5.194 -25.079  1.00  0.00    -0.507 OA
ATOM     21  H   UNL     1      15.571   4.702 -24.895  1.00  0.00     0.293 HD
ENDBRANCH  17  20
ENDBRANCH   1  12
BRANCH   2  22
ATOM     22  O   UNL     1      18.377   7.171 -25.865  1.00  0.00    -0.502 OA
ATOM     23  H   UNL     1      17.797   6.842 -26.626  1.00  0.00     0.293 HD
ENDBRANCH   2  22
BRANCH   6  24
ATOM     24  O   UNL     1      20.623   6.896 -21.038  1.00  0.00    -0.507 OA
ATOM     25  H   UNL     1      21.175   6.706 -21.860  1.00  0.00     0.293 HD
ENDBRANCH   6  24
BRANCH   8  26
ATOM     26  O   UNL     1      16.689   6.727 -18.290  1.00  0.00    -0.508 OA
ATOM     27  H   UNL     1      16.038   5.985 -18.058  1.00  0.00     0.293 HD
ENDBRANCH   8  26
TORSDOF 6
ENDMDL
MODEL 5
REMARK VINA RESULT:    -5.688      3.845      6.688
REMARK INTER + INTRA:          -7.145
REMARK INTER:                  -6.799
REMARK INTRA:                  -0.345
REMARK UNBOUND:                -0.292
REMARK SMILES O=c1c(O)c(-c2ccc(O)cc2O)oc2cc(O)cc(O)c12
REMARK SMILES IDX 5 1 3 2 2 3 1 4 22 5 20 6 19 7 17 8 16 9 15 10 14 11 6 12
REMARK SMILES IDX 8 13 7 14 9 15 11 16 12 17 10 18 13 20 4 22 21 24 18 26
REMARK H PARENT 10 19 13 21 4 23 21 25 18 27
REMARK Flexibility Score: inf
ROOT
ATOM      1  C   UNL     1      21.447   4.743 -23.235  1.00  0.00     0.184 A 
ATOM      2  C   UNL     1      21.560   4.454 -21.868  1.00  0.00     0.208 A 
ATOM      3  C   UNL     1      22.747   3.876 -21.390  1.00  0.00     0.238 A 
ATOM      4  O   UNL     1      22.865   3.676 -20.153  1.00  0.00    -0.285 OA
ATOM      5  C   UNL     1      23.793   3.570 -22.293  1.00  0.00     0.111 A 
ATOM      6  C   UNL     1      25.024   2.946 -21.927  1.00  0.00     0.134 A 
ATOM      7  C   UNL     1      26.037   2.802 -22.882  1.00  0.00     0.093 A 
ATOM      8  C   UNL     1      25.839   3.199 -24.208  1.00  0.00     0.123 A 
ATOM      9  C   UNL     1      24.620   3.755 -24.588  1.00  0.00     0.094 A 
ATOM     10  C   UNL     1      23.604   3.946 -23.650  1.00  0.00     0.146 A 
ATOM     11  O   UNL     1      22.463   4.492 -24.052  1.00  0.00    -0.451 OA
ENDROOT
BRANCH   1  12
ATOM     12  C   UNL     1      20.212   5.331 -23.800  1.00  0.00     0.063 A 
ATOM     13  C   UNL     1      18.236   5.081 -25.197  1.00  0.00     0.047 A 
ATOM     14  C   UNL     1      19.378   4.536 -24.606  1.00  0.00     0.020 A 
ATOM     15  C   UNL     1      17.914   6.427 -24.996  1.00  0.00     0.119 A 
ATOM     16  C   UNL     1      18.737   7.225 -24.197  1.00  0.00     0.093 A 
ATOM     17  C   UNL     1      19.880   6.689 -23.591  1.00  0.00     0.130 A 
BRANCH  15  18
ATOM     18  O   UNL     1      16.780   6.981 -25.584  1.00  0.00    -0.508 OA
ATOM     19  H   UNL     1      15.852   6.807 -25.215  1.00  0.00     0.293 HD
ENDBRANCH  15  18
BRANCH  17  20
ATOM     20  O   UNL     1      20.646   7.524 -22.774  1.00  0.00    -0.507 OA
ATOM     21  H   UNL     1      21.643   7.650 -22.893  1.00  0.00     0.293 HD
ENDBRANCH  17  20
ENDBRANCH   1  12
BRANCH   2  22
ATOM     22  O   UNL     1      20.509   4.765 -21.000  1.00  0.00    -0.502 OA
ATOM     23  H   UNL     1      19.766   5.402 -21.255  1.00  0.00     0.293 HD
ENDBRANCH   2  22
BRANCH   6  24
ATOM     24  O   UNL     1      25.290   2.432 -20.654  1.00  0.00    -0.507 OA
ATOM     25  H   UNL     1      26.150   2.570 -20.145  1.00  0.00     0.293 HD
ENDBRANCH   6  24
BRANCH   8  26
ATOM     26  O   UNL     1      26.846   3.037 -25.156  1.00  0.00    -0.508 OA
ATOM     27  H   UNL     1      26.657   3.115 -26.149  1.00  0.00     0.293 HD
ENDBRANCH   8  26
TORSDOF 6
ENDMDL
MODEL 6
REMARK VINA RESULT:    -5.615      1.473      6.240
REMARK INTER + INTRA:          -7.056
REMARK INTER:                  -6.690
REMARK INTRA:                  -0.366
REMARK UNBOUND:                -0.292
REMARK SMILES O=c1c(O)c(-c2ccc(O)cc2O)oc2cc(O)cc(O)c12
REMARK SMILES IDX 5 1 3 2 2 3 1 4 22 5 20 6 19 7 17 8 16 9 15 10 14 11 6 12
REMARK SMILES IDX 8 13 7 14 9 15 11 16 12 17 10 18 13 20 4 22 21 24 18 26
REMARK H PARENT 10 19 13 21 4 23 21 25 18 27
REMARK Flexibility Score: inf
ROOT
ATOM      1  C   UNL     1      16.846   7.322 -24.102  1.00  0.00     0.184 A 
ATOM      2  C   UNL     1      15.985   7.224 -22.999  1.00  0.00     0.208 A 
ATOM      3  C   UNL     1      14.689   7.754 -23.098  1.00  0.00     0.238 A 
ATOM      4  O   UNL     1      13.902   7.609 -22.127  1.00  0.00    -0.285 OA
ATOM      5  C   UNL     1      14.282   8.399 -24.291  1.00  0.00     0.111 A 
ATOM      6  C   UNL     1      13.006   9.008 -24.489  1.00  0.00     0.134 A 
ATOM      7  C   UNL     1      12.668   9.510 -25.751  1.00  0.00     0.093 A 
ATOM      8  C   UNL     1      13.585   9.484 -26.806  1.00  0.00     0.123 A 
ATOM      9  C   UNL     1      14.854   8.946 -26.606  1.00  0.00     0.094 A 
ATOM     10  C   UNL     1      15.207   8.403 -25.369  1.00  0.00     0.146 A 
ATOM     11  O   UNL     1      16.422   7.887 -25.225  1.00  0.00    -0.451 OA
ENDROOT
BRANCH   1  12
ATOM     12  C   UNL     1      18.230   6.803 -24.048  1.00  0.00     0.063 A 
ATOM     13  C   UNL     1      20.482   6.964 -23.139  1.00  0.00     0.047 A 
ATOM     14  C   UNL     1      19.155   7.397 -23.171  1.00  0.00     0.020 A 
ATOM     15  C   UNL     1      20.907   5.936 -23.988  1.00  0.00     0.119 A 
ATOM     16  C   UNL     1      19.996   5.340 -24.864  1.00  0.00     0.093 A 
ATOM     17  C   UNL     1      18.660   5.758 -24.898  1.00  0.00     0.130 A 
BRANCH  15  18
ATOM     18  O   UNL     1      22.229   5.500 -23.968  1.00  0.00    -0.508 OA
ATOM     19  H   UNL     1      22.699   5.195 -24.812  1.00  0.00     0.293 HD
ENDBRANCH  15  18
BRANCH  17  20
ATOM     20  O   UNL     1      17.786   5.102 -25.769  1.00  0.00    -0.507 OA
ATOM     21  H   UNL     1      17.132   4.393 -25.464  1.00  0.00     0.293 HD
ENDBRANCH  17  20
ENDBRANCH   1  12
BRANCH   2  22
ATOM     22  O   UNL     1      16.416   6.584 -21.833  1.00  0.00    -0.502 OA
ATOM     23  H   UNL     1      16.947   7.063 -21.117  1.00  0.00     0.293 HD
ENDBRANCH   2  22
BRANCH   6  24
ATOM     24  O   UNL     1      12.051   9.166 -23.480  1.00  0.00    -0.507 OA
ATOM     25  H   UNL     1      12.088   9.869 -22.758  1.00  0.00     0.293 HD
ENDBRANCH   6  24
BRANCH   8  26
ATOM     26  O   UNL     1      13.247  10.001 -28.055  1.00  0.00    -0.508 OA
ATOM     27  H   UNL     1      12.735  10.871 -28.147  1.00  0.00     0.293 HD
ENDBRANCH   8  26
TORSDOF 6
ENDMDL
MODEL 7
REMARK VINA RESULT:    -5.544      2.179      6.804
REMARK INTER + INTRA:          -6.970
REMARK INTER:                  -6.579
REMARK INTRA:                  -0.392
REMARK UNBOUND:                -0.292
REMARK SMILES O=c1c(O)c(-c2ccc(O)cc2O)oc2cc(O)cc(O)c12
REMARK SMILES IDX 5 1 3 2 2 3 1 4 22 5 20 6 19 7 17 8 16 9 15 10 14 11 6 12
REMARK SMILES IDX 8 13 7 14 9 15 11 16 12 17 10 18 13 20 4 22 21 24 18 26
REMARK H PARENT 10 19 13 21 4 23 21 25 18 27
REMARK Flexibility Score: inf
ROOT
ATOM      1  C   UNL     1      15.566   6.717 -25.086  1.00  0.00     0.184 A 
ATOM      2  C   UNL     1      15.085   7.672 -25.993  1.00  0.00     0.208 A 
ATOM      3  C   UNL     1      13.841   7.463 -26.609  1.00  0.00     0.238 A 
ATOM      4  O   UNL     1      13.389   8.353 -27.374  1.00  0.00    -0.285 OA
ATOM      5  C   UNL     1      13.107   6.285 -26.327  1.00  0.00     0.111 A 
ATOM      6  C   UNL     1      11.854   5.949 -26.922  1.00  0.00     0.134 A 
ATOM      7  C   UNL     1      11.159   4.817 -26.479  1.00  0.00     0.093 A 
ATOM      8  C   UNL     1      11.703   3.973 -25.506  1.00  0.00     0.123 A 
ATOM      9  C   UNL     1      12.952   4.261 -24.962  1.00  0.00     0.094 A 
ATOM     10  C   UNL     1      13.653   5.403 -25.357  1.00  0.00     0.146 A 
ATOM     11  O   UNL     1      14.834   5.647 -24.802  1.00  0.00    -0.451 OA
ENDROOT
BRANCH   1  12
ATOM     12  C   UNL     1      16.880   6.873 -24.425  1.00  0.00     0.063 A 
ATOM     13  C   UNL     1      19.308   6.832 -24.581  1.00  0.00     0.047 A 
ATOM     14  C   UNL     1      18.054   6.744 -25.189  1.00  0.00     0.020 A 
ATOM     15  C   UNL     1      19.408   7.042 -23.201  1.00  0.00     0.119 A 
ATOM     16  C   UNL     1      18.247   7.170 -22.434  1.00  0.00     0.093 A 
ATOM     17  C   UNL     1      16.984   7.094 -23.033  1.00  0.00     0.130 A 
BRANCH  15  18
ATOM     18  O   UNL     1      20.654   7.126 -22.585  1.00  0.00    -0.508 OA
ATOM     19  H   UNL     1      21.289   7.891 -22.777  1.00  0.00     0.293 HD
ENDBRANCH  15  18
BRANCH  17  20
ATOM     20  O   UNL     1      15.859   7.265 -22.222  1.00  0.00    -0.507 OA
ATOM     21  H   UNL     1      15.906   7.293 -21.212  1.00  0.00     0.293 HD
ENDBRANCH  17  20
ENDBRANCH   1  12
BRANCH   2  22
ATOM     22  O   UNL     1      15.834   8.824 -26.254  1.00  0.00    -0.502 OA
ATOM     23  H   UNL     1      16.827   8.880 -26.068  1.00  0.00     0.293 HD
ENDBRANCH   2  22
BRANCH   6  24
ATOM     24  O   UNL     1      11.265   6.673 -27.964  1.00  0.00    -0.507 OA
ATOM     25  H   UNL     1      11.265   7.678 -28.038  1.00  0.00     0.293 HD
ENDBRANCH   6  24
BRANCH   8  26
ATOM     26  O   UNL     1      11.013   2.840 -25.082  1.00  0.00    -0.508 OA
ATOM     27  H   UNL     1      11.260   2.360 -24.223  1.00  0.00     0.293 HD
ENDBRANCH   8  26
TORSDOF 6
ENDMDL
MODEL 8
REMARK VINA RESULT:    -5.391      1.680      6.589
REMARK INTER + INTRA:          -6.786
REMARK INTER:                  -6.385
REMARK INTRA:                  -0.401
REMARK UNBOUND:                -0.292
REMARK SMILES O=c1c(O)c(-c2ccc(O)cc2O)oc2cc(O)cc(O)c12
REMARK SMILES IDX 5 1 3 2 2 3 1 4 22 5 20 6 19 7 17 8 16 9 15 10 14 11 6 12
REMARK SMILES IDX 8 13 7 14 9 15 11 16 12 17 10 18 13 20 4 22 21 24 18 26
REMARK H PARENT 10 19 13 21 4 23 21 25 18 27
REMARK Flexibility Score: inf
ROOT
ATOM      1  C   UNL     1      18.028   6.239 -23.392  1.00  0.00     0.184 A 
ATOM      2  C   UNL     1      17.281   6.388 -22.214  1.00  0.00     0.208 A 
ATOM      3  C   UNL     1      16.094   7.136 -22.250  1.00  0.00     0.238 A 
ATOM      4  O   UNL     1      15.397   7.215 -21.206  1.00  0.00    -0.285 OA
ATOM      5  C   UNL     1      15.685   7.748 -23.461  1.00  0.00     0.111 A 
ATOM      6  C   UNL     1      14.521   8.562 -23.605  1.00  0.00     0.134 A 
ATOM      7  C   UNL     1      14.148   9.015 -24.876  1.00  0.00     0.093 A 
ATOM      8  C   UNL     1      14.933   8.739 -25.999  1.00  0.00     0.123 A 
ATOM      9  C   UNL     1      16.102   7.995 -25.858  1.00  0.00     0.094 A 
ATOM     10  C   UNL     1      16.481   7.497 -24.610  1.00  0.00     0.146 A 
ATOM     11  O   UNL     1      17.595   6.781 -24.523  1.00  0.00    -0.451 OA
ENDROOT
BRANCH   1  12
ATOM     12  C   UNL     1      19.298   5.482 -23.408  1.00  0.00     0.063 A 
ATOM     13  C   UNL     1      20.451   3.350 -23.625  1.00  0.00     0.047 A 
ATOM     14  C   UNL     1      19.272   4.099 -23.658  1.00  0.00     0.020 A 
ATOM     15  C   UNL     1      21.671   3.970 -23.334  1.00  0.00     0.119 A 
ATOM     16  C   UNL     1      21.706   5.345 -23.083  1.00  0.00     0.093 A 
ATOM     17  C   UNL     1      20.534   6.108 -23.123  1.00  0.00     0.130 A 
BRANCH  15  18
ATOM     18  O   UNL     1      22.850   3.232 -23.294  1.00  0.00    -0.508 OA
ATOM     19  H   UNL     1      22.890   2.277 -23.630  1.00  0.00     0.293 HD
ENDBRANCH  15  18
BRANCH  17  20
ATOM     20  O   UNL     1      20.635   7.483 -22.899  1.00  0.00    -0.507 OA
ATOM     21  H   UNL     1      21.449   8.027 -23.157  1.00  0.00     0.293 HD
ENDBRANCH  17  20
ENDBRANCH   1  12
BRANCH   2  22
ATOM     22  O   UNL     1      17.711   5.775 -21.033  1.00  0.00    -0.502 OA
ATOM     23  H   UNL     1      17.107   5.181 -20.480  1.00  0.00     0.293 HD
ENDBRANCH   2  22
BRANCH   6  24
ATOM     24  O   UNL     1      13.717   8.972 -22.536  1.00  0.00    -0.507 OA
ATOM     25  H   UNL     1      13.446   9.926 -22.353  1.00  0.00     0.293 HD
ENDBRANCH   6  24
BRANCH   8  26
ATOM     26  O   UNL     1      14.563   9.208 -27.257  1.00  0.00    -0.508 OA
ATOM     27  H   UNL     1      14.948   8.807 -28.106  1.00  0.00     0.293 HD
ENDBRANCH   8  26
TORSDOF 6
ENDMDL
MODEL 9
REMARK VINA RESULT:    -5.337      3.711      6.965
REMARK INTER + INTRA:          -6.722
REMARK INTER:                  -6.582
REMARK INTRA:                  -0.140
REMARK UNBOUND:                -0.292
REMARK SMILES O=c1c(O)c(-c2ccc(O)cc2O)oc2cc(O)cc(O)c12
REMARK SMILES IDX 5 1 3 2 2 3 1 4 22 5 20 6 19 7 17 8 16 9 15 10 14 11 6 12
REMARK SMILES IDX 8 13 7 14 9 15 11 16 12 17 10 18 13 20 4 22 21 24 18 26
REMARK H PARENT 10 19 13 21 4 23 21 25 18 27
REMARK Flexibility Score: inf
ROOT
ATOM      1  C   UNL     1      21.240   5.075 -22.179  1.00  0.00     0.184 A 
ATOM      2  C   UNL     1      22.188   4.095 -22.508  1.00  0.00     0.208 A 
ATOM      3  C   UNL     1      23.261   3.864 -21.632  1.00  0.00     0.238 A 
ATOM      4  O   UNL     1      24.073   2.943 -21.903  1.00  0.00    -0.285 OA
ATOM      5  C   UNL     1      23.383   4.636 -20.451  1.00  0.00     0.111 A 
ATOM      6  C   UNL     1      24.450   4.515 -19.510  1.00  0.00     0.134 A 
ATOM      7  C   UNL     1      24.405   5.245 -18.316  1.00  0.00     0.093 A 
ATOM      8  C   UNL     1      23.363   6.141 -18.058  1.00  0.00     0.123 A 
ATOM      9  C   UNL     1      22.348   6.309 -18.996  1.00  0.00     0.094 A 
ATOM     10  C   UNL     1      22.345   5.568 -20.180  1.00  0.00     0.146 A 
ATOM     11  O   UNL     1      21.351   5.749 -21.041  1.00  0.00    -0.451 OA
ENDROOT
BRANCH   1  12
ATOM     12  C   UNL     1      20.103   5.379 -23.074  1.00  0.00     0.063 A 
ATOM     13  C   UNL     1      18.286   4.576 -24.481  1.00  0.00     0.047 A 
ATOM     14  C   UNL     1      19.330   4.322 -23.589  1.00  0.00     0.020 A 
ATOM     15  C   UNL     1      18.002   5.888 -24.876  1.00  0.00     0.119 A 
ATOM     16  C   UNL     1      18.765   6.945 -24.371  1.00  0.00     0.093 A 
ATOM     17  C   UNL     1      19.808   6.704 -23.469  1.00  0.00     0.130 A 
BRANCH  15  18
ATOM     18  O   UNL     1      16.966   6.152 -25.768  1.00  0.00    -0.508 OA
ATOM     19  H   UNL     1      16.792   7.088 -26.115  1.00  0.00     0.293 HD
ENDBRANCH  15  18
BRANCH  17  20
ATOM     20  O   UNL     1      20.514   7.802 -22.969  1.00  0.00    -0.507 OA
ATOM     21  H   UNL     1      20.155   8.402 -22.238  1.00  0.00     0.293 HD
ENDBRANCH  17  20
ENDBRANCH   1  12
BRANCH   2  22
ATOM     22  O   UNL     1      22.044   3.351 -23.682  1.00  0.00    -0.502 OA
ATOM     23  H   UNL     1      22.516   3.598 -24.542  1.00  0.00     0.293 HD
ENDBRANCH   2  22
BRANCH   6  24
ATOM     24  O   UNL     1      25.582   3.718 -19.711  1.00  0.00    -0.507 OA
ATOM     25  H   UNL     1      26.297   3.896 -20.399  1.00  0.00     0.293 HD
ENDBRANCH   6  24
BRANCH   8  26
ATOM     26  O   UNL     1      23.334   6.875 -16.875  1.00  0.00    -0.508 OA
ATOM     27  H   UNL     1      23.851   7.742 -16.777  1.00  0.00     0.293 HD
ENDBRANCH   8  26
TORSDOF 6
ENDMDL
