MODEL 1
REMARK VINA RESULT:    -4.770      0.000      0.000
REMARK INTER + INTRA:         -15.457
REMARK INTER:                 -12.020
REMARK INTRA:                  -3.438
REMARK UNBOUND:                -3.438
REMARK SMILES CCCCCCCCCCCCCCCCCCCCCCCCCCCC(=O)[O-]
REMARK SMILES IDX 15 1 16 2 17 3 18 4 19 5 20 6 21 7 22 8 23 9 24 10 25 11
REMARK SMILES IDX 26 12 27 13 28 14 29 15 30 16 14 17 13 18 12 19 11 20 10 21
REMARK SMILES IDX 9 22 8 23 7 24 6 25 5 26 4 27 3 28 2 29 1 30
REMARK H PARENT
REMARK Flexibility Score: inf
ROOT
ATOM      1  C   UNL     1      59.452  28.361  12.002  1.00  0.00     0.000 C 
ENDROOT
BRANCH   1   2
ATOM      2  C   UNL     1      59.675  29.678  11.236  1.00  0.00     0.000 C 
BRANCH   2   3
ATOM      3  C   UNL     1      60.027  29.521   9.744  1.00  0.00     0.000 C 
BRANCH   3   4
ATOM      4  C   UNL     1      60.927  28.306   9.462  1.00  0.00     0.000 C 
BRANCH   4   5
ATOM      5  C   UNL     1      62.409  28.684   9.273  1.00  0.00     0.000 C 
BRANCH   5   6
ATOM      6  C   UNL     1      62.803  30.081   9.789  1.00  0.00     0.000 C 
BRANCH   6   7
ATOM      7  C   UNL     1      64.157  30.562   9.249  1.00  0.00     0.000 C 
BRANCH   7   8
ATOM      8  C   UNL     1      64.792  31.591  10.195  1.00  0.00     0.000 C 
BRANCH   8   9
ATOM      9  C   UNL     1      64.099  31.579  11.565  1.00  0.00     0.000 C 
BRANCH   9  10
ATOM     10  C   UNL     1      64.460  32.803  12.422  1.00  0.00     0.000 C 
BRANCH  10  11
ATOM     11  C   UNL     1      65.599  33.636  11.818  1.00  0.00     0.000 C 
BRANCH  11  12
ATOM     12  C   UNL     1      66.004  34.776  12.764  1.00  0.00     0.006 C 
BRANCH  12  13
ATOM     13  C   UNL     1      66.920  34.295  13.897  1.00  0.00     0.053 C 
BRANCH  13  14
ATOM     14  C   UNL     1      66.223  34.316  15.223  1.00  0.00     0.041 C 
ATOM     15  O   UNL     1      65.873  33.237  15.770  1.00  0.00    -0.550 OA
ATOM     16  O   UNL     1      65.935  35.527  15.839  1.00  0.00    -0.550 OA
ENDBRANCH  13  14
ENDBRANCH  12  13
ENDBRANCH  11  12
ENDBRANCH  10  11
ENDBRANCH   9  10
ENDBRANCH   8   9
ENDBRANCH   7   8
ENDBRANCH   6   7
ENDBRANCH   5   6
ENDBRANCH   4   5
ENDBRANCH   3   4
ENDBRANCH   2   3
ENDBRANCH   1   2
BRANCH   1  17
ATOM     17  C   UNL     1      60.302  28.257  13.277  1.00  0.00     0.000 C 
BRANCH  17  18
ATOM     18  C   UNL     1      61.797  28.389  12.951  1.00  0.00     0.000 C 
BRANCH  18  19
ATOM     19  C   UNL     1      62.515  29.391  13.877  1.00  0.00     0.000 C 
BRANCH  19  20
ATOM     20  C   UNL     1      61.563  30.327  14.647  1.00  0.00     0.000 C 
BRANCH  20  21
ATOM     21  C   UNL     1      61.164  31.598  13.868  1.00  0.00     0.000 C 
BRANCH  21  22
ATOM     22  C   UNL     1      60.105  32.456  14.585  1.00  0.00    -0.000 C 
BRANCH  22  23
ATOM     23  C   UNL     1      60.677  33.787  15.097  1.00  0.00    -0.000 C 
BRANCH  23  24
ATOM     24  C   UNL     1      62.189  33.677  15.340  1.00  0.00    -0.000 C 
BRANCH  24  25
ATOM     25  C   UNL     1      62.578  33.897  16.811  1.00  0.00    -0.000 C 
BRANCH  25  26
ATOM     26  C   UNL     1      61.374  33.805  17.764  1.00  0.00    -0.000 C 
BRANCH  26  27
ATOM     27  C   UNL     1      61.782  33.863  19.249  1.00  0.00    -0.000 C 
BRANCH  27  28
ATOM     28  C   UNL     1      63.279  33.625  19.530  1.00  0.00    -0.000 C 
BRANCH  28  29
ATOM     29  C   UNL     1      63.795  34.225  20.851  1.00  0.00    -0.003 C 
ATOM     30  C   UNL     1      65.307  34.082  21.017  1.00  0.00     0.004 C 
ENDBRANCH  28  29
ENDBRANCH  27  28
ENDBRANCH  26  27
ENDBRANCH  25  26
ENDBRANCH  24  25
ENDBRANCH  23  24
ENDBRANCH  22  23
ENDBRANCH  21  22
ENDBRANCH  20  21
ENDBRANCH  19  20
ENDBRANCH  18  19
ENDBRANCH  17  18
ENDBRANCH   1  17
TORSDOF 26
ENDMDL
MODEL 2
REMARK VINA RESULT:    -4.759      6.936     12.710
REMARK INTER + INTRA:         -15.429
REMARK INTER:                 -11.869
REMARK INTRA:                  -3.560
REMARK UNBOUND:                -3.438
REMARK SMILES CCCCCCCCCCCCCCCCCCCCCCCCCCCC(=O)[O-]
REMARK SMILES IDX 15 1 16 2 17 3 18 4 19 5 20 6 21 7 22 8 23 9 24 10 25 11
REMARK SMILES IDX 26 12 27 13 28 14 29 15 30 16 14 17 13 18 12 19 11 20 10 21
REMARK SMILES IDX 9 22 8 23 7 24 6 25 5 26 4 27 3 28 2 29 1 30
REMARK H PARENT
REMARK Flexibility Score: inf
ROOT
ATOM      1  C   UNL     1      60.385  27.803  25.397  1.00  0.00     0.000 C 
ENDROOT
BRANCH   1   2
ATOM      2  C   UNL     1      60.498  27.165  26.793  1.00  0.00     0.000 C 
BRANCH   2   3
ATOM      3  C   UNL     1      61.935  26.948  27.305  1.00  0.00     0.000 C 
BRANCH   3   4
ATOM      4  C   UNL     1      62.207  27.650  28.647  1.00  0.00     0.000 C 
BRANCH   4   5
ATOM      5  C   UNL     1      61.640  29.081  28.705  1.00  0.00     0.000 C 
BRANCH   5   6
ATOM      6  C   UNL     1      62.546  30.173  28.104  1.00  0.00     0.000 C 
BRANCH   6   7
ATOM      7  C   UNL     1      63.546  30.750  29.116  1.00  0.00     0.000 C 
BRANCH   7   8
ATOM      8  C   UNL     1      64.977  30.300  28.793  1.00  0.00     0.000 C 
BRANCH   8   9
ATOM      9  C   UNL     1      65.068  29.742  27.364  1.00  0.00     0.000 C 
BRANCH   9  10
ATOM     10  C   UNL     1      66.406  30.074  26.684  1.00  0.00     0.000 C 
BRANCH  10  11
ATOM     11  C   UNL     1      66.593  29.336  25.350  1.00  0.00     0.000 C 
BRANCH  11  12
ATOM     12  C   UNL     1      65.680  28.103  25.275  1.00  0.00     0.006 C 
BRANCH  12  13
ATOM     13  C   UNL     1      65.531  27.576  23.842  1.00  0.00     0.053 C 
BRANCH  13  14
ATOM     14  C   UNL     1      65.212  26.112  23.817  1.00  0.00     0.041 C 
ATOM     15  O   UNL     1      65.906  25.326  23.119  1.00  0.00    -0.550 OA
ATOM     16  O   UNL     1      64.134  25.622  24.541  1.00  0.00    -0.550 OA
ENDBRANCH  13  14
ENDBRANCH  12  13
ENDBRANCH  11  12
ENDBRANCH  10  11
ENDBRANCH   9  10
ENDBRANCH   8   9
ENDBRANCH   7   8
ENDBRANCH   6   7
ENDBRANCH   5   6
ENDBRANCH   4   5
ENDBRANCH   3   4
ENDBRANCH   2   3
ENDBRANCH   1   2
BRANCH   1  17
ATOM     17  C   UNL     1      61.750  28.143  24.779  1.00  0.00     0.000 C 
BRANCH  17  18
ATOM     18  C   UNL     1      62.019  29.654  24.843  1.00  0.00     0.000 C 
BRANCH  18  19
ATOM     19  C   UNL     1      63.225  30.073  23.978  1.00  0.00     0.000 C 
BRANCH  19  20
ATOM     20  C   UNL     1      63.738  31.497  24.265  1.00  0.00     0.000 C 
BRANCH  20  21
ATOM     21  C   UNL     1      64.762  32.016  23.232  1.00  0.00     0.000 C 
BRANCH  21  22
ATOM     22  C   UNL     1      64.241  33.190  22.382  1.00  0.00    -0.000 C 
BRANCH  22  23
ATOM     23  C   UNL     1      65.262  33.651  21.330  1.00  0.00    -0.000 C 
BRANCH  23  24
ATOM     24  C   UNL     1      64.622  34.634  20.339  1.00  0.00    -0.000 C 
BRANCH  24  25
ATOM     25  C   UNL     1      65.196  34.512  18.918  1.00  0.00    -0.000 C 
BRANCH  25  26
ATOM     26  C   UNL     1      64.338  33.620  18.005  1.00  0.00    -0.000 C 
BRANCH  26  27
ATOM     27  C   UNL     1      63.360  34.427  17.130  1.00  0.00    -0.000 C 
BRANCH  27  28
ATOM     28  C   UNL     1      61.874  34.314  17.528  1.00  0.00    -0.000 C 
BRANCH  28  29
ATOM     29  C   UNL     1      61.575  33.294  18.641  1.00  0.00    -0.003 C 
ATOM     30  C   UNL     1      60.746  33.883  19.781  1.00  0.00     0.004 C 
ENDBRANCH  28  29
ENDBRANCH  27  28
ENDBRANCH  26  27
ENDBRANCH  25  26
ENDBRANCH  24  25
ENDBRANCH  23  24
ENDBRANCH  22  23
ENDBRANCH  21  22
ENDBRANCH  20  21
ENDBRANCH  19  20
ENDBRANCH  18  19
ENDBRANCH  17  18
ENDBRANCH   1  17
TORSDOF 26
ENDMDL
MODEL 3
REMARK VINA RESULT:    -4.728      5.920     10.726
REMARK INTER + INTRA:         -15.352
REMARK INTER:                 -12.637
REMARK INTRA:                  -2.715
REMARK UNBOUND:                -3.438
REMARK SMILES CCCCCCCCCCCCCCCCCCCCCCCCCCCC(=O)[O-]
REMARK SMILES IDX 15 1 16 2 17 3 18 4 19 5 20 6 21 7 22 8 23 9 24 10 25 11
REMARK SMILES IDX 26 12 27 13 28 14 29 15 30 16 14 17 13 18 12 19 11 20 10 21
REMARK SMILES IDX 9 22 8 23 7 24 6 25 5 26 4 27 3 28 2 29 1 30
REMARK H PARENT
REMARK Flexibility Score: inf
ROOT
ATOM      1  C   UNL     1      64.231  31.642  23.841  1.00  0.00     0.000 C 
ENDROOT
BRANCH   1   2
ATOM      2  C   UNL     1      64.751  32.529  22.695  1.00  0.00     0.000 C 
BRANCH   2   3
ATOM      3  C   UNL     1      63.711  33.481  22.074  1.00  0.00     0.000 C 
BRANCH   3   4
ATOM      4  C   UNL     1      64.223  34.189  20.807  1.00  0.00     0.000 C 
BRANCH   4   5
ATOM      5  C   UNL     1      63.415  33.828  19.546  1.00  0.00     0.000 C 
BRANCH   5   6
ATOM      6  C   UNL     1      61.884  33.826  19.723  1.00  0.00     0.000 C 
BRANCH   6   7
ATOM      7  C   UNL     1      61.125  34.005  18.401  1.00  0.00     0.000 C 
BRANCH   7   8
ATOM      8  C   UNL     1      62.096  34.081  17.215  1.00  0.00     0.000 C 
BRANCH   8   9
ATOM      9  C   UNL     1      61.567  33.274  16.019  1.00  0.00     0.000 C 
BRANCH   9  10
ATOM     10  C   UNL     1      62.154  31.855  15.956  1.00  0.00     0.000 C 
BRANCH  10  11
ATOM     11  C   UNL     1      61.136  30.812  15.473  1.00  0.00     0.000 C 
BRANCH  11  12
ATOM     12  C   UNL     1      61.101  30.752  13.939  1.00  0.00     0.006 C 
BRANCH  12  13
ATOM     13  C   UNL     1      60.987  29.314  13.415  1.00  0.00     0.053 C 
BRANCH  13  14
ATOM     14  C   UNL     1      59.793  29.139  12.527  1.00  0.00     0.041 C 
ATOM     15  O   UNL     1      59.694  29.807  11.464  1.00  0.00    -0.550 OA
ATOM     16  O   UNL     1      58.779  28.262  12.887  1.00  0.00    -0.550 OA
ENDBRANCH  13  14
ENDBRANCH  12  13
ENDBRANCH  11  12
ENDBRANCH  10  11
ENDBRANCH   9  10
ENDBRANCH   8   9
ENDBRANCH   7   8
ENDBRANCH   6   7
ENDBRANCH   5   6
ENDBRANCH   4   5
ENDBRANCH   3   4
ENDBRANCH   2   3
ENDBRANCH   1   2
BRANCH   1  17
ATOM     17  C   UNL     1      64.895  30.258  23.878  1.00  0.00     0.000 C 
BRANCH  17  18
ATOM     18  C   UNL     1      65.958  30.189  24.985  1.00  0.00     0.000 C 
BRANCH  18  19
ATOM     19  C   UNL     1      65.508  29.324  26.179  1.00  0.00     0.000 C 
BRANCH  19  20
ATOM     20  C   UNL     1      65.204  30.128  27.458  1.00  0.00     0.000 C 
BRANCH  20  21
ATOM     21  C   UNL     1      63.701  30.401  27.688  1.00  0.00     0.000 C 
BRANCH  21  22
ATOM     22  C   UNL     1      62.954  29.224  28.342  1.00  0.00    -0.000 C 
BRANCH  22  23
ATOM     23  C   UNL     1      61.492  29.126  27.875  1.00  0.00    -0.000 C 
BRANCH  23  24
ATOM     24  C   UNL     1      61.333  28.041  26.799  1.00  0.00    -0.000 C 
BRANCH  24  25
ATOM     25  C   UNL     1      61.537  28.577  25.373  1.00  0.00    -0.000 C 
BRANCH  25  26
ATOM     26  C   UNL     1      62.393  27.641  24.503  1.00  0.00    -0.000 C 
BRANCH  26  27
ATOM     27  C   UNL     1      63.103  26.547  25.322  1.00  0.00    -0.000 C 
BRANCH  27  28
ATOM     28  C   UNL     1      64.575  26.289  24.942  1.00  0.00    -0.000 C 
BRANCH  28  29
ATOM     29  C   UNL     1      64.809  25.911  23.468  1.00  0.00    -0.003 C 
ATOM     30  C   UNL     1      65.909  26.742  22.810  1.00  0.00     0.004 C 
ENDBRANCH  28  29
ENDBRANCH  27  28
ENDBRANCH  26  27
ENDBRANCH  25  26
ENDBRANCH  24  25
ENDBRANCH  23  24
ENDBRANCH  22  23
ENDBRANCH  21  22
ENDBRANCH  20  21
ENDBRANCH  19  20
ENDBRANCH  18  19
ENDBRANCH  17  18
ENDBRANCH   1  17
TORSDOF 26
ENDMDL
MODEL 4
REMARK VINA RESULT:    -4.707      5.856     10.860
REMARK INTER + INTRA:         -15.300
REMARK INTER:                 -12.440
REMARK INTRA:                  -2.860
REMARK UNBOUND:                -3.438
REMARK SMILES CCCCCCCCCCCCCCCCCCCCCCCCCCCC(=O)[O-]
REMARK SMILES IDX 15 1 16 2 17 3 18 4 19 5 20 6 21 7 22 8 23 9 24 10 25 11
REMARK SMILES IDX 26 12 27 13 28 14 29 15 30 16 14 17 13 18 12 19 11 20 10 21
REMARK SMILES IDX 9 22 8 23 7 24 6 25 5 26 4 27 3 28 2 29 1 30
REMARK H PARENT
REMARK Flexibility Score: inf
ROOT
ATOM      1  C   UNL     1      65.667  30.184  23.590  1.00  0.00     0.000 C 
ENDROOT
BRANCH   1   2
ATOM      2  C   UNL     1      66.591  31.263  22.997  1.00  0.00     0.000 C 
BRANCH   2   3
ATOM      3  C   UNL     1      65.887  32.552  22.533  1.00  0.00     0.000 C 
BRANCH   3   4
ATOM      4  C   UNL     1      66.520  33.164  21.271  1.00  0.00     0.000 C 
BRANCH   4   5
ATOM      5  C   UNL     1      65.551  34.069  20.488  1.00  0.00     0.000 C 
BRANCH   5   6
ATOM      6  C   UNL     1      64.136  34.192  21.086  1.00  0.00     0.000 C 
BRANCH   6   7
ATOM      7  C   UNL     1      63.029  33.787  20.102  1.00  0.00     0.000 C 
BRANCH   7   8
ATOM      8  C   UNL     1      63.532  33.843  18.654  1.00  0.00     0.000 C 
BRANCH   8   9
ATOM      9  C   UNL     1      62.597  33.065  17.717  1.00  0.00     0.000 C 
BRANCH   9  10
ATOM     10  C   UNL     1      61.877  33.975  16.709  1.00  0.00     0.000 C 
BRANCH  10  11
ATOM     11  C   UNL     1      61.955  33.446  15.269  1.00  0.00     0.000 C 
BRANCH  11  12
ATOM     12  C   UNL     1      60.563  33.420  14.620  1.00  0.00     0.006 C 
BRANCH  12  13
ATOM     13  C   UNL     1      59.915  32.031  14.686  1.00  0.00     0.053 C 
BRANCH  13  14
ATOM     14  C   UNL     1      60.875  30.951  14.291  1.00  0.00     0.041 C 
ATOM     15  O   UNL     1      61.193  30.800  13.082  1.00  0.00    -0.550 OA
ATOM     16  O   UNL     1      61.394  30.094  15.253  1.00  0.00    -0.550 OA
ENDBRANCH  13  14
ENDBRANCH  12  13
ENDBRANCH  11  12
ENDBRANCH  10  11
ENDBRANCH   9  10
ENDBRANCH   8   9
ENDBRANCH   7   8
ENDBRANCH   6   7
ENDBRANCH   5   6
ENDBRANCH   4   5
ENDBRANCH   3   4
ENDBRANCH   2   3
ENDBRANCH   1   2
BRANCH   1  17
ATOM     17  C   UNL     1      66.435  29.067  24.313  1.00  0.00     0.000 C 
BRANCH  17  18
ATOM     18  C   UNL     1      65.995  28.962  25.781  1.00  0.00     0.000 C 
BRANCH  18  19
ATOM     19  C   UNL     1      64.885  29.972  26.136  1.00  0.00     0.000 C 
BRANCH  19  20
ATOM     20  C   UNL     1      64.454  29.937  27.615  1.00  0.00     0.000 C 
BRANCH  20  21
ATOM     21  C   UNL     1      62.992  30.373  27.854  1.00  0.00     0.000 C 
BRANCH  21  22
ATOM     22  C   UNL     1      62.231  29.468  28.841  1.00  0.00    -0.000 C 
BRANCH  22  23
ATOM     23  C   UNL     1      61.017  28.784  28.192  1.00  0.00    -0.000 C 
BRANCH  23  24
ATOM     24  C   UNL     1      61.442  27.521  27.429  1.00  0.00    -0.000 C 
BRANCH  24  25
ATOM     25  C   UNL     1      60.933  27.497  25.979  1.00  0.00    -0.000 C 
BRANCH  25  26
ATOM     26  C   UNL     1      61.487  28.658  25.135  1.00  0.00    -0.000 C 
BRANCH  26  27
ATOM     27  C   UNL     1      62.320  28.178  23.932  1.00  0.00    -0.000 C 
BRANCH  27  28
ATOM     28  C   UNL     1      63.241  26.972  24.207  1.00  0.00    -0.000 C 
BRANCH  28  29
ATOM     29  C   UNL     1      64.008  26.447  22.980  1.00  0.00    -0.003 C 
ATOM     30  C   UNL     1      65.310  25.737  23.352  1.00  0.00     0.004 C 
ENDBRANCH  28  29
ENDBRANCH  27  28
ENDBRANCH  26  27
ENDBRANCH  25  26
ENDBRANCH  24  25
ENDBRANCH  23  24
ENDBRANCH  22  23
ENDBRANCH  21  22
ENDBRANCH  20  21
ENDBRANCH  19  20
ENDBRANCH  18  19
ENDBRANCH  17  18
ENDBRANCH   1  17
TORSDOF 26
ENDMDL
MODEL 5
REMARK VINA RESULT:    -4.595      6.147     12.341
REMARK INTER + INTRA:         -15.018
REMARK INTER:                 -11.707
REMARK INTRA:                  -3.312
REMARK UNBOUND:                -3.438
REMARK SMILES CCCCCCCCCCCCCCCCCCCCCCCCCCCC(=O)[O-]
REMARK SMILES IDX 15 1 16 2 17 3 18 4 19 5 20 6 21 7 22 8 23 9 24 10 25 11
REMARK SMILES IDX 26 12 27 13 28 14 29 15 30 16 14 17 13 18 12 19 11 20 10 21
REMARK SMILES IDX 9 22 8 23 7 24 6 25 5 26 4 27 3 28 2 29 1 30
REMARK H PARENT
REMARK Flexibility Score: inf
ROOT
ATOM      1  C   UNL     1      65.930  29.956  23.653  1.00  0.00     0.000 C 
ENDROOT
BRANCH   1   2
ATOM      2  C   UNL     1      66.495  29.761  25.071  1.00  0.00     0.000 C 
BRANCH   2   3
ATOM      3  C   UNL     1      65.578  29.001  26.048  1.00  0.00     0.000 C 
BRANCH   3   4
ATOM      4  C   UNL     1      65.168  29.843  27.269  1.00  0.00     0.000 C 
BRANCH   4   5
ATOM      5  C   UNL     1      63.762  30.457  27.135  1.00  0.00     0.000 C 
BRANCH   5   6
ATOM      6  C   UNL     1      62.853  30.297  28.369  1.00  0.00     0.000 C 
BRANCH   6   7
ATOM      7  C   UNL     1      61.656  29.369  28.118  1.00  0.00     0.000 C 
BRANCH   7   8
ATOM      8  C   UNL     1      62.082  27.896  28.167  1.00  0.00     0.000 C 
BRANCH   8   9
ATOM      9  C   UNL     1      61.684  27.166  26.876  1.00  0.00     0.000 C 
BRANCH   9  10
ATOM     10  C   UNL     1      61.019  28.098  25.850  1.00  0.00     0.000 C 
BRANCH  10  11
ATOM     11  C   UNL     1      61.838  28.242  24.560  1.00  0.00     0.000 C 
BRANCH  11  12
ATOM     12  C   UNL     1      62.967  27.201  24.509  1.00  0.00     0.006 C 
BRANCH  12  13
ATOM     13  C   UNL     1      63.606  27.102  23.118  1.00  0.00     0.053 C 
BRANCH  13  14
ATOM     14  C   UNL     1      64.906  26.359  23.154  1.00  0.00     0.041 C 
ATOM     15  O   UNL     1      65.261  25.759  24.202  1.00  0.00    -0.550 OA
ATOM     16  O   UNL     1      65.736  26.354  22.041  1.00  0.00    -0.550 OA
ENDBRANCH  13  14
ENDBRANCH  12  13
ENDBRANCH  11  12
ENDBRANCH  10  11
ENDBRANCH   9  10
ENDBRANCH   8   9
ENDBRANCH   7   8
ENDBRANCH   6   7
ENDBRANCH   5   6
ENDBRANCH   4   5
ENDBRANCH   3   4
ENDBRANCH   2   3
ENDBRANCH   1   2
BRANCH   1  17
ATOM     17  C   UNL     1      64.710  30.889  23.614  1.00  0.00     0.000 C 
BRANCH  17  18
ATOM     18  C   UNL     1      65.055  32.212  22.914  1.00  0.00     0.000 C 
BRANCH  18  19
ATOM     19  C   UNL     1      63.827  33.130  22.755  1.00  0.00     0.000 C 
BRANCH  19  20
ATOM     20  C   UNL     1      63.804  33.926  21.435  1.00  0.00     0.000 C 
BRANCH  20  21
ATOM     21  C   UNL     1      65.194  34.110  20.788  1.00  0.00     0.000 C 
BRANCH  21  22
ATOM     22  C   UNL     1      65.136  34.601  19.329  1.00  0.00    -0.000 C 
BRANCH  22  23
ATOM     23  C   UNL     1      65.317  33.457  18.318  1.00  0.00    -0.000 C 
BRANCH  23  24
ATOM     24  C   UNL     1      64.034  33.240  17.502  1.00  0.00    -0.000 C 
BRANCH  24  25
ATOM     25  C   UNL     1      63.207  34.526  17.332  1.00  0.00    -0.000 C 
BRANCH  25  26
ATOM     26  C   UNL     1      61.692  34.275  17.426  1.00  0.00    -0.000 C 
BRANCH  26  27
ATOM     27  C   UNL     1      61.073  33.846  16.082  1.00  0.00    -0.000 C 
BRANCH  27  28
ATOM     28  C   UNL     1      60.982  32.323  15.855  1.00  0.00    -0.000 C 
BRANCH  28  29
ATOM     29  C   UNL     1      61.263  31.864  14.413  1.00  0.00    -0.003 C 
ATOM     30  C   UNL     1      62.277  32.753  13.693  1.00  0.00     0.004 C 
ENDBRANCH  28  29
ENDBRANCH  27  28
ENDBRANCH  26  27
ENDBRANCH  25  26
ENDBRANCH  24  25
ENDBRANCH  23  24
ENDBRANCH  22  23
ENDBRANCH  21  22
ENDBRANCH  20  21
ENDBRANCH  19  20
ENDBRANCH  18  19
ENDBRANCH  17  18
ENDBRANCH   1  17
TORSDOF 26
ENDMDL
MODEL 6
REMARK VINA RESULT:    -4.556      5.175      9.663
REMARK INTER + INTRA:         -14.918
REMARK INTER:                 -12.475
REMARK INTRA:                  -2.443
REMARK UNBOUND:                -3.438
REMARK SMILES CCCCCCCCCCCCCCCCCCCCCCCCCCCC(=O)[O-]
REMARK SMILES IDX 15 1 16 2 17 3 18 4 19 5 20 6 21 7 22 8 23 9 24 10 25 11
REMARK SMILES IDX 26 12 27 13 28 14 29 15 30 16 14 17 13 18 12 19 11 20 10 21
REMARK SMILES IDX 9 22 8 23 7 24 6 25 5 26 4 27 3 28 2 29 1 30
REMARK H PARENT
REMARK Flexibility Score: inf
ROOT
ATOM      1  C   UNL     1      64.544  32.999  22.444  1.00  0.00     0.000 C 
ENDROOT
BRANCH   1   2
ATOM      2  C   UNL     1      63.918  33.918  21.381  1.00  0.00     0.000 C 
BRANCH   2   3
ATOM      3  C   UNL     1      64.750  34.106  20.097  1.00  0.00     0.000 C 
BRANCH   3   4
ATOM      4  C   UNL     1      63.954  33.806  18.815  1.00  0.00     0.000 C 
BRANCH   4   5
ATOM      5  C   UNL     1      62.469  33.501  19.084  1.00  0.00     0.000 C 
BRANCH   5   6
ATOM      6  C   UNL     1      61.510  33.818  17.919  1.00  0.00     0.000 C 
BRANCH   6   7
ATOM      7  C   UNL     1      62.242  34.160  16.614  1.00  0.00     0.000 C 
BRANCH   7   8
ATOM      8  C   UNL     1      61.739  33.287  15.456  1.00  0.00     0.000 C 
BRANCH   8   9
ATOM      9  C   UNL     1      62.171  31.825  15.643  1.00  0.00     0.000 C 
BRANCH   9  10
ATOM     10  C   UNL     1      62.150  31.029  14.327  1.00  0.00     0.000 C 
BRANCH  10  11
ATOM     11  C   UNL     1      61.301  29.753  14.418  1.00  0.00     0.000 C 
BRANCH  11  12
ATOM     12  C   UNL     1      61.735  28.731  13.357  1.00  0.00     0.006 C 
BRANCH  12  13
ATOM     13  C   UNL     1      60.569  28.287  12.465  1.00  0.00     0.053 C 
BRANCH  13  14
ATOM     14  C   UNL     1      60.672  28.864  11.086  1.00  0.00     0.041 C 
ATOM     15  O   UNL     1      60.315  30.051  10.869  1.00  0.00    -0.550 OA
ATOM     16  O   UNL     1      61.135  28.081  10.036  1.00  0.00    -0.550 OA
ENDBRANCH  13  14
ENDBRANCH  12  13
ENDBRANCH  11  12
ENDBRANCH  10  11
ENDBRANCH   9  10
ENDBRANCH   8   9
ENDBRANCH   7   8
ENDBRANCH   6   7
ENDBRANCH   5   6
ENDBRANCH   4   5
ENDBRANCH   3   4
ENDBRANCH   2   3
ENDBRANCH   1   2
BRANCH   1  17
ATOM     17  C   UNL     1      66.038  32.734  22.205  1.00  0.00     0.000 C 
BRANCH  17  18
ATOM     18  C   UNL     1      66.521  31.533  23.032  1.00  0.00     0.000 C 
BRANCH  18  19
ATOM     19  C   UNL     1      65.357  30.772  23.697  1.00  0.00     0.000 C 
BRANCH  19  20
ATOM     20  C   UNL     1      65.796  29.534  24.503  1.00  0.00     0.000 C 
BRANCH  20  21
ATOM     21  C   UNL     1      66.748  28.589  23.737  1.00  0.00     0.000 C 
BRANCH  21  22
ATOM     22  C   UNL     1      66.064  27.820  22.592  1.00  0.00    -0.000 C 
BRANCH  22  23
ATOM     23  C   UNL     1      65.618  26.411  23.015  1.00  0.00    -0.000 C 
BRANCH  23  24
ATOM     24  C   UNL     1      64.087  26.296  23.007  1.00  0.00    -0.000 C 
BRANCH  24  25
ATOM     25  C   UNL     1      63.511  25.866  24.366  1.00  0.00    -0.000 C 
BRANCH  25  26
ATOM     26  C   UNL     1      62.921  27.044  25.160  1.00  0.00    -0.000 C 
BRANCH  26  27
ATOM     27  C   UNL     1      62.438  28.193  24.255  1.00  0.00    -0.000 C 
BRANCH  27  28
ATOM     28  C   UNL     1      61.912  29.439  24.996  1.00  0.00    -0.000 C 
BRANCH  28  29
ATOM     29  C   UNL     1      62.004  29.369  26.531  1.00  0.00    -0.003 C 
ATOM     30  C   UNL     1      63.351  29.850  27.068  1.00  0.00     0.004 C 
ENDBRANCH  28  29
ENDBRANCH  27  28
ENDBRANCH  26  27
ENDBRANCH  25  26
ENDBRANCH  24  25
ENDBRANCH  23  24
ENDBRANCH  22  23
ENDBRANCH  21  22
ENDBRANCH  20  21
ENDBRANCH  19  20
ENDBRANCH  18  19
ENDBRANCH  17  18
ENDBRANCH   1  17
TORSDOF 26
ENDMDL
MODEL 7
REMARK VINA RESULT:    -4.550      1.688      5.169
REMARK INTER + INTRA:         -14.904
REMARK INTER:                 -10.394
REMARK INTRA:                  -4.510
REMARK UNBOUND:                -3.438
REMARK SMILES CCCCCCCCCCCCCCCCCCCCCCCCCCCC(=O)[O-]
REMARK SMILES IDX 15 1 16 2 17 3 18 4 19 5 20 6 21 7 22 8 23 9 24 10 25 11
REMARK SMILES IDX 26 12 27 13 28 14 29 15 30 16 14 17 13 18 12 19 11 20 10 21
REMARK SMILES IDX 9 22 8 23 7 24 6 25 5 26 4 27 3 28 2 29 1 30
REMARK H PARENT
REMARK Flexibility Score: inf
ROOT
ATOM      1  C   UNL     1      63.653  30.087   8.925  1.00  0.00     0.000 C 
ENDROOT
BRANCH   1   2
ATOM      2  C   UNL     1      64.783  30.494   9.889  1.00  0.00     0.000 C 
BRANCH   2   3
ATOM      3  C   UNL     1      64.883  32.002  10.188  1.00  0.00     0.000 C 
BRANCH   3   4
ATOM      4  C   UNL     1      64.526  32.352  11.644  1.00  0.00     0.000 C 
BRANCH   4   5
ATOM      5  C   UNL     1      63.082  31.969  12.020  1.00  0.00     0.000 C 
BRANCH   5   6
ATOM      6  C   UNL     1      62.487  32.740  13.214  1.00  0.00     0.000 C 
BRANCH   6   7
ATOM      7  C   UNL     1      60.951  32.756  13.214  1.00  0.00     0.000 C 
BRANCH   7   8
ATOM      8  C   UNL     1      60.403  32.935  14.636  1.00  0.00     0.000 C 
BRANCH   8   9
ATOM      9  C   UNL     1      61.547  33.098  15.649  1.00  0.00     0.000 C 
BRANCH   9  10
ATOM     10  C   UNL     1      61.203  34.085  16.776  1.00  0.00     0.000 C 
BRANCH  10  11
ATOM     11  C   UNL     1      62.448  34.623  17.495  1.00  0.00     0.000 C 
BRANCH  11  12
ATOM     12  C   UNL     1      62.874  33.679  18.630  1.00  0.00     0.006 C 
BRANCH  12  13
ATOM     13  C   UNL     1      64.398  33.520  18.715  1.00  0.00     0.053 C 
BRANCH  13  14
ATOM     14  C   UNL     1      65.033  34.644  19.475  1.00  0.00     0.041 C 
ATOM     15  O   UNL     1      64.437  35.158  20.458  1.00  0.00    -0.550 OA
ATOM     16  O   UNL     1      66.267  35.143  19.079  1.00  0.00    -0.550 OA
ENDBRANCH  13  14
ENDBRANCH  12  13
ENDBRANCH  11  12
ENDBRANCH  10  11
ENDBRANCH   9  10
ENDBRANCH   8   9
ENDBRANCH   7   8
ENDBRANCH   6   7
ENDBRANCH   5   6
ENDBRANCH   4   5
ENDBRANCH   3   4
ENDBRANCH   2   3
ENDBRANCH   1   2
BRANCH   1  17
ATOM     17  C   UNL     1      63.060  28.707   9.244  1.00  0.00     0.000 C 
BRANCH  17  18
ATOM     18  C   UNL     1      61.545  28.690   8.992  1.00  0.00     0.000 C 
BRANCH  18  19
ATOM     19  C   UNL     1      60.745  29.259  10.180  1.00  0.00     0.000 C 
BRANCH  19  20
ATOM     20  C   UNL     1      61.127  28.650  11.543  1.00  0.00     0.000 C 
BRANCH  20  21
ATOM     21  C   UNL     1      60.179  29.046  12.697  1.00  0.00     0.000 C 
BRANCH  21  22
ATOM     22  C   UNL     1      60.879  29.139  14.066  1.00  0.00    -0.000 C 
BRANCH  22  23
ATOM     23  C   UNL     1      62.411  29.112  13.945  1.00  0.00    -0.000 C 
BRANCH  23  24
ATOM     24  C   UNL     1      63.059  30.032  14.990  1.00  0.00    -0.000 C 
BRANCH  24  25
ATOM     25  C   UNL     1      64.554  30.276  14.728  1.00  0.00    -0.000 C 
BRANCH  25  26
ATOM     26  C   UNL     1      65.188  31.234  15.752  1.00  0.00    -0.000 C 
BRANCH  26  27
ATOM     27  C   UNL     1      66.020  32.349  15.091  1.00  0.00    -0.000 C 
BRANCH  27  28
ATOM     28  C   UNL     1      65.718  33.778  15.587  1.00  0.00    -0.000 C 
BRANCH  28  29
ATOM     29  C   UNL     1      65.136  34.726  14.523  1.00  0.00    -0.003 C 
ATOM     30  C   UNL     1      66.194  35.255  13.556  1.00  0.00     0.004 C 
ENDBRANCH  28  29
ENDBRANCH  27  28
ENDBRANCH  26  27
ENDBRANCH  25  26
ENDBRANCH  24  25
ENDBRANCH  23  24
ENDBRANCH  22  23
ENDBRANCH  21  22
ENDBRANCH  20  21
ENDBRANCH  19  20
ENDBRANCH  18  19
ENDBRANCH  17  18
ENDBRANCH   1  17
TORSDOF 26
ENDMDL
MODEL 8
REMARK VINA RESULT:    -4.523      5.770     12.335
REMARK INTER + INTRA:         -14.835
REMARK INTER:                 -12.315
REMARK INTRA:                  -2.520
REMARK UNBOUND:                -3.438
REMARK SMILES CCCCCCCCCCCCCCCCCCCCCCCCCCCC(=O)[O-]
REMARK SMILES IDX 15 1 16 2 17 3 18 4 19 5 20 6 21 7 22 8 23 9 24 10 25 11
REMARK SMILES IDX 26 12 27 13 28 14 29 15 30 16 14 17 13 18 12 19 11 20 10 21
REMARK SMILES IDX 9 22 8 23 7 24 6 25 5 26 4 27 3 28 2 29 1 30
REMARK H PARENT
REMARK Flexibility Score: inf
ROOT
ATOM      1  C   UNL     1      64.411  31.928  23.496  1.00  0.00     0.000 C 
ENDROOT
BRANCH   1   2
ATOM      2  C   UNL     1      65.871  31.620  23.120  1.00  0.00     0.000 C 
BRANCH   2   3
ATOM      3  C   UNL     1      66.536  30.488  23.927  1.00  0.00     0.000 C 
BRANCH   3   4
ATOM      4  C   UNL     1      65.540  29.710  24.804  1.00  0.00     0.000 C 
BRANCH   4   5
ATOM      5  C   UNL     1      66.099  29.376  26.201  1.00  0.00     0.000 C 
BRANCH   5   6
ATOM      6  C   UNL     1      65.448  30.139  27.370  1.00  0.00     0.000 C 
BRANCH   6   7
ATOM      7  C   UNL     1      63.999  30.559  27.083  1.00  0.00     0.000 C 
BRANCH   7   8
ATOM      8  C   UNL     1      63.171  30.598  28.374  1.00  0.00     0.000 C 
BRANCH   8   9
ATOM      9  C   UNL     1      62.049  29.551  28.340  1.00  0.00     0.000 C 
BRANCH   9  10
ATOM     10  C   UNL     1      62.582  28.110  28.378  1.00  0.00     0.000 C 
BRANCH  10  11
ATOM     11  C   UNL     1      61.937  27.209  27.315  1.00  0.00     0.000 C 
BRANCH  11  12
ATOM     12  C   UNL     1      60.719  27.898  26.680  1.00  0.00     0.006 C 
BRANCH  12  13
ATOM     13  C   UNL     1      60.697  27.751  25.153  1.00  0.00     0.053 C 
BRANCH  13  14
ATOM     14  C   UNL     1      61.759  28.580  24.499  1.00  0.00     0.041 C 
ATOM     15  O   UNL     1      61.849  29.809  24.756  1.00  0.00    -0.550 OA
ATOM     16  O   UNL     1      62.629  28.002  23.584  1.00  0.00    -0.550 OA
ENDBRANCH  13  14
ENDBRANCH  12  13
ENDBRANCH  11  12
ENDBRANCH  10  11
ENDBRANCH   9  10
ENDBRANCH   8   9
ENDBRANCH   7   8
ENDBRANCH   6   7
ENDBRANCH   5   6
ENDBRANCH   4   5
ENDBRANCH   3   4
ENDBRANCH   2   3
ENDBRANCH   1   2
BRANCH   1  17
ATOM     17  C   UNL     1      63.835  33.130  22.732  1.00  0.00     0.000 C 
BRANCH  17  18
ATOM     18  C   UNL     1      64.719  33.489  21.529  1.00  0.00     0.000 C 
BRANCH  18  19
ATOM     19  C   UNL     1      64.024  34.467  20.560  1.00  0.00     0.000 C 
BRANCH  19  20
ATOM     20  C   UNL     1      63.499  33.806  19.271  1.00  0.00     0.000 C 
BRANCH  20  21
ATOM     21  C   UNL     1      61.964  33.867  19.112  1.00  0.00     0.000 C 
BRANCH  21  22
ATOM     22  C   UNL     1      61.490  33.771  17.651  1.00  0.00    -0.000 C 
BRANCH  22  23
ATOM     23  C   UNL     1      62.647  33.905  16.648  1.00  0.00    -0.000 C 
BRANCH  23  24
ATOM     24  C   UNL     1      62.323  33.174  15.337  1.00  0.00    -0.000 C 
BRANCH  24  25
ATOM     25  C   UNL     1      60.816  33.120  15.037  1.00  0.00    -0.000 C 
BRANCH  25  26
ATOM     26  C   UNL     1      60.305  31.686  14.817  1.00  0.00    -0.000 C 
BRANCH  26  27
ATOM     27  C   UNL     1      61.369  30.617  15.130  1.00  0.00    -0.000 C 
BRANCH  27  28
ATOM     28  C   UNL     1      61.466  29.465  14.109  1.00  0.00    -0.000 C 
BRANCH  28  29
ATOM     29  C   UNL     1      60.680  29.685  12.804  1.00  0.00    -0.003 C 
ATOM     30  C   UNL     1      59.498  28.728  12.654  1.00  0.00     0.004 C 
ENDBRANCH  28  29
ENDBRANCH  27  28
ENDBRANCH  26  27
ENDBRANCH  25  26
ENDBRANCH  24  25
ENDBRANCH  23  24
ENDBRANCH  22  23
ENDBRANCH  21  22
ENDBRANCH  20  21
ENDBRANCH  19  20
ENDBRANCH  18  19
ENDBRANCH  17  18
ENDBRANCH   1  17
TORSDOF 26
ENDMDL
MODEL 9
REMARK VINA RESULT:    -4.483      5.447     11.250
REMARK INTER + INTRA:         -14.735
REMARK INTER:                 -12.479
REMARK INTRA:                  -2.256
REMARK UNBOUND:                -3.438
REMARK SMILES CCCCCCCCCCCCCCCCCCCCCCCCCCCC(=O)[O-]
REMARK SMILES IDX 15 1 16 2 17 3 18 4 19 5 20 6 21 7 22 8 23 9 24 10 25 11
REMARK SMILES IDX 26 12 27 13 28 14 29 15 30 16 14 17 13 18 12 19 11 20 10 21
REMARK SMILES IDX 9 22 8 23 7 24 6 25 5 26 4 27 3 28 2 29 1 30
REMARK H PARENT
REMARK Flexibility Score: inf
ROOT
ATOM      1  C   UNL     1      64.002  33.601  21.479  1.00  0.00     0.000 C 
ENDROOT
BRANCH   1   2
ATOM      2  C   UNL     1      65.440  34.048  21.163  1.00  0.00     0.000 C 
BRANCH   2   3
ATOM      3  C   UNL     1      66.548  33.079  21.621  1.00  0.00     0.000 C 
BRANCH   3   4
ATOM      4  C   UNL     1      66.084  32.115  22.727  1.00  0.00     0.000 C 
BRANCH   4   5
ATOM      5  C   UNL     1      67.095  30.985  23.005  1.00  0.00     0.000 C 
BRANCH   5   6
ATOM      6  C   UNL     1      66.479  29.651  23.468  1.00  0.00     0.000 C 
BRANCH   6   7
ATOM      7  C   UNL     1      66.253  29.586  24.985  1.00  0.00     0.000 C 
BRANCH   7   8
ATOM      8  C   UNL     1      65.647  28.237  25.394  1.00  0.00     0.000 C 
BRANCH   8   9
ATOM      9  C   UNL     1      65.192  27.442  24.161  1.00  0.00     0.000 C 
BRANCH   9  10
ATOM     10  C   UNL     1      63.688  27.126  24.183  1.00  0.00     0.000 C 
BRANCH  10  11
ATOM     11  C   UNL     1      62.838  28.235  23.546  1.00  0.00     0.000 C 
BRANCH  11  12
ATOM     12  C   UNL     1      61.876  28.846  24.577  1.00  0.00     0.006 C 
BRANCH  12  13
ATOM     13  C   UNL     1      62.005  28.187  25.956  1.00  0.00     0.053 C 
BRANCH  13  14
ATOM     14  C   UNL     1      60.806  27.352  26.288  1.00  0.00     0.041 C 
ATOM     15  O   UNL     1      60.724  26.783  27.408  1.00  0.00    -0.550 OA
ATOM     16  O   UNL     1      59.796  27.180  25.351  1.00  0.00    -0.550 OA
ENDBRANCH  13  14
ENDBRANCH  12  13
ENDBRANCH  11  12
ENDBRANCH  10  11
ENDBRANCH   9  10
ENDBRANCH   8   9
ENDBRANCH   7   8
ENDBRANCH   6   7
ENDBRANCH   5   6
ENDBRANCH   4   5
ENDBRANCH   3   4
ENDBRANCH   2   3
ENDBRANCH   1   2
BRANCH   1  17
ATOM     17  C   UNL     1      63.019  33.883  20.333  1.00  0.00     0.000 C 
BRANCH  17  18
ATOM     18  C   UNL     1      63.742  33.872  18.977  1.00  0.00     0.000 C 
BRANCH  18  19
ATOM     19  C   UNL     1      62.858  34.411  17.835  1.00  0.00     0.000 C 
BRANCH  19  20
ATOM     20  C   UNL     1      61.653  33.512  17.496  1.00  0.00     0.000 C 
BRANCH  20  21
ATOM     21  C   UNL     1      61.208  33.588  16.019  1.00  0.00     0.000 C 
BRANCH  21  22
ATOM     22  C   UNL     1      61.688  32.398  15.167  1.00  0.00    -0.000 C 
BRANCH  22  23
ATOM     23  C   UNL     1      61.759  32.739  13.670  1.00  0.00    -0.000 C 
BRANCH  23  24
ATOM     24  C   UNL     1      60.522  32.210  12.929  1.00  0.00    -0.000 C 
BRANCH  24  25
ATOM     25  C   UNL     1      60.003  30.881  13.501  1.00  0.00    -0.000 C 
BRANCH  25  26
ATOM     26  C   UNL     1      59.888  29.779  12.434  1.00  0.00    -0.000 C 
BRANCH  26  27
ATOM     27  C   UNL     1      60.893  28.632  12.647  1.00  0.00    -0.000 C 
BRANCH  27  28
ATOM     28  C   UNL     1      62.105  28.975  13.537  1.00  0.00    -0.000 C 
BRANCH  28  29
ATOM     29  C   UNL     1      63.372  29.401  12.773  1.00  0.00    -0.003 C 
ATOM     30  C   UNL     1      63.171  29.432  11.259  1.00  0.00     0.004 C 
ENDBRANCH  28  29
ENDBRANCH  27  28
ENDBRANCH  26  27
ENDBRANCH  25  26
ENDBRANCH  24  25
ENDBRANCH  23  24
ENDBRANCH  22  23
ENDBRANCH  21  22
ENDBRANCH  20  21
ENDBRANCH  19  20
ENDBRANCH  18  19
ENDBRANCH  17  18
ENDBRANCH   1  17
TORSDOF 26
ENDMDL
