MODEL 1
REMARK VINA RESULT:    -5.900      0.000      0.000
REMARK INTER + INTRA:          -7.171
REMARK INTER:                  -6.935
REMARK INTRA:                  -0.236
REMARK UNBOUND:                -0.236
REMARK SMILES CCC=Cc1oc(O)c2ccc(O)cc12
REMARK SMILES IDX 7 1 6 2 5 3 15 4 14 5 12 6 11 7 10 8 9 9 8 10 4 12 3 13 2 14
REMARK SMILES IDX 1 15 13 16
REMARK H PARENT 8 11 13 17
REMARK Flexibility Score: inf
ROOT
ATOM      1  C   UNL     1      48.773  77.106  23.232  1.00  0.00     0.290 A 
ATOM      2  O   UNL     1      48.405  77.393  24.465  1.00  0.00    -0.425 OA
ATOM      3  C   UNL     1      49.433  77.193  25.273  1.00  0.00     0.138 A 
ATOM      4  C   UNL     1      50.514  76.756  24.525  1.00  0.00     0.035 A 
ATOM      5  C   UNL     1      51.816  76.409  24.887  1.00  0.00     0.059 A 
ATOM      6  C   UNL     1      52.696  75.994  23.866  1.00  0.00     0.116 A 
ATOM      7  C   UNL     1      52.253  75.940  22.524  1.00  0.00     0.047 A 
ATOM      8  C   UNL     1      50.933  76.298  22.190  1.00  0.00     0.020 A 
ATOM      9  C   UNL     1      50.090  76.701  23.223  1.00  0.00     0.067 A 
ENDROOT
BRANCH   1  10
ATOM     10  O   UNL     1      47.930  77.208  22.129  1.00  0.00    -0.480 OA
ATOM     11  H   UNL     1      47.690  76.395  21.574  1.00  0.00     0.297 HD
ENDBRANCH   1  10
BRANCH   3  12
ATOM     12  C   UNL     1      49.406  77.406  26.729  1.00  0.00     0.043 C 
ATOM     13  C   UNL     1      49.984  78.471  27.290  1.00  0.00    -0.023 C 
BRANCH  13  14
ATOM     14  C   UNL     1      49.969  78.682  28.777  1.00  0.00     0.024 C 
ATOM     15  C   UNL     1      51.226  79.405  29.249  1.00  0.00     0.008 C 
ENDBRANCH  13  14
ENDBRANCH   3  12
BRANCH   6  16
ATOM     16  O   UNL     1      54.008  75.635  24.167  1.00  0.00    -0.508 OA
ATOM     17  H   UNL     1      54.438  74.813  23.759  1.00  0.00     0.293 HD
ENDBRANCH   6  16
TORSDOF 4
ENDMDL
MODEL 2
REMARK VINA RESULT:    -5.609      2.193      5.624
REMARK INTER + INTRA:          -6.829
REMARK INTER:                  -6.579
REMARK INTRA:                  -0.249
REMARK UNBOUND:                -0.236
REMARK SMILES CCC=Cc1oc(O)c2ccc(O)cc12
REMARK SMILES IDX 7 1 6 2 5 3 15 4 14 5 12 6 11 7 10 8 9 9 8 10 4 12 3 13 2 14
REMARK SMILES IDX 1 15 13 16
REMARK H PARENT 8 11 13 17
REMARK Flexibility Score: inf
ROOT
ATOM      1  C   UNL     1      51.986  76.294  23.376  1.00  0.00     0.290 A 
ATOM      2  O   UNL     1      51.414  76.407  22.193  1.00  0.00    -0.425 OA
ATOM      3  C   UNL     1      50.151  76.758  22.364  1.00  0.00     0.138 A 
ATOM      4  C   UNL     1      49.897  76.879  23.720  1.00  0.00     0.035 A 
ATOM      5  C   UNL     1      48.742  77.220  24.423  1.00  0.00     0.059 A 
ATOM      6  C   UNL     1      48.812  77.253  25.832  1.00  0.00     0.116 A 
ATOM      7  C   UNL     1      50.026  76.946  26.491  1.00  0.00     0.047 A 
ATOM      8  C   UNL     1      51.175  76.606  25.753  1.00  0.00     0.020 A 
ATOM      9  C   UNL     1      51.070  76.582  24.364  1.00  0.00     0.067 A 
ENDROOT
BRANCH   1  10
ATOM     10  O   UNL     1      53.319  75.937  23.561  1.00  0.00    -0.480 OA
ATOM     11  H   UNL     1      54.040  76.243  22.918  1.00  0.00     0.297 HD
ENDBRANCH   1  10
BRANCH   3  12
ATOM     12  C   UNL     1      49.190  76.980  21.271  1.00  0.00     0.043 C 
ATOM     13  C   UNL     1      48.931  78.204  20.806  1.00  0.00    -0.023 C 
BRANCH  13  14
ATOM     14  C   UNL     1      47.940  78.431  19.701  1.00  0.00     0.024 C 
ATOM     15  C   UNL     1      48.360  77.713  18.421  1.00  0.00     0.008 C 
ENDBRANCH  13  14
ENDBRANCH   3  12
BRANCH   6  16
ATOM     16  O   UNL     1      47.691  77.587  26.588  1.00  0.00    -0.508 OA
ATOM     17  H   UNL     1      47.606  78.493  27.036  1.00  0.00     0.293 HD
ENDBRANCH   6  16
TORSDOF 4
ENDMDL
MODEL 3
REMARK VINA RESULT:    -5.562      1.643      3.495
REMARK INTER + INTRA:          -6.774
REMARK INTER:                  -6.537
REMARK INTRA:                  -0.237
REMARK UNBOUND:                -0.236
REMARK SMILES CCC=Cc1oc(O)c2ccc(O)cc12
REMARK SMILES IDX 7 1 6 2 5 3 15 4 14 5 12 6 11 7 10 8 9 9 8 10 4 12 3 13 2 14
REMARK SMILES IDX 1 15 13 16
REMARK H PARENT 8 11 13 17
REMARK Flexibility Score: inf
ROOT
ATOM      1  C   UNL     1      51.620  76.336  24.799  1.00  0.00     0.290 A 
ATOM      2  O   UNL     1      50.833  76.542  25.836  1.00  0.00    -0.425 OA
ATOM      3  C   UNL     1      49.644  76.919  25.397  1.00  0.00     0.138 A 
ATOM      4  C   UNL     1      49.665  76.957  24.013  1.00  0.00     0.035 A 
ATOM      5  C   UNL     1      48.686  77.286  23.076  1.00  0.00     0.059 A 
ATOM      6  C   UNL     1      49.033  77.225  21.710  1.00  0.00     0.116 A 
ATOM      7  C   UNL     1      50.338  76.839  21.324  1.00  0.00     0.047 A 
ATOM      8  C   UNL     1      51.304  76.512  22.293  1.00  0.00     0.020 A 
ATOM      9  C   UNL     1      50.928  76.584  23.633  1.00  0.00     0.067 A 
ENDROOT
BRANCH   1  10
ATOM     10  O   UNL     1      52.948  75.928  24.903  1.00  0.00    -0.480 OA
ATOM     11  H   UNL     1      53.207  75.119  25.454  1.00  0.00     0.297 HD
ENDBRANCH   1  10
BRANCH   3  12
ATOM     12  C   UNL     1      48.497  77.241  26.263  1.00  0.00     0.043 C 
ATOM     13  C   UNL     1      48.484  78.338  27.024  1.00  0.00    -0.023 C 
BRANCH  13  14
ATOM     14  C   UNL     1      47.320  78.660  27.918  1.00  0.00     0.024 C 
ATOM     15  C   UNL     1      46.629  77.391  28.409  1.00  0.00     0.008 C 
ENDBRANCH  13  14
ENDBRANCH   3  12
BRANCH   6  16
ATOM     16  O   UNL     1      48.096  77.542  20.729  1.00  0.00    -0.508 OA
ATOM     17  H   UNL     1      47.107  77.598  20.941  1.00  0.00     0.293 HD
ENDBRANCH   6  16
TORSDOF 4
ENDMDL
MODEL 4
REMARK VINA RESULT:    -5.225      8.371     11.502
REMARK INTER + INTRA:          -6.378
REMARK INTER:                  -6.169
REMARK INTRA:                  -0.208
REMARK UNBOUND:                -0.236
REMARK SMILES CCC=Cc1oc(O)c2ccc(O)cc12
REMARK SMILES IDX 7 1 6 2 5 3 15 4 14 5 12 6 11 7 10 8 9 9 8 10 4 12 3 13 2 14
REMARK SMILES IDX 1 15 13 16
REMARK H PARENT 8 11 13 17
REMARK Flexibility Score: inf
ROOT
ATOM      1  C   UNL     1      53.979  71.218  16.414  1.00  0.00     0.290 A 
ATOM      2  O   UNL     1      53.885  69.915  16.235  1.00  0.00    -0.425 OA
ATOM      3  C   UNL     1      53.698  69.337  17.410  1.00  0.00     0.138 A 
ATOM      4  C   UNL     1      53.669  70.313  18.392  1.00  0.00     0.035 A 
ATOM      5  C   UNL     1      53.502  70.236  19.775  1.00  0.00     0.059 A 
ATOM      6  C   UNL     1      53.522  71.441  20.509  1.00  0.00     0.116 A 
ATOM      7  C   UNL     1      53.708  72.676  19.845  1.00  0.00     0.047 A 
ATOM      8  C   UNL     1      53.873  72.720  18.448  1.00  0.00     0.020 A 
ATOM      9  C   UNL     1      53.849  71.512  17.754  1.00  0.00     0.067 A 
ENDROOT
BRANCH   1  10
ATOM     10  O   UNL     1      54.179  72.129  15.381  1.00  0.00    -0.480 OA
ATOM     11  H   UNL     1      55.111  72.366  15.062  1.00  0.00     0.297 HD
ENDBRANCH   1  10
BRANCH   3  12
ATOM     12  C   UNL     1      53.547  67.887  17.613  1.00  0.00     0.043 C 
ATOM     13  C   UNL     1      54.332  67.008  16.985  1.00  0.00    -0.023 C 
BRANCH  13  14
ATOM     14  C   UNL     1      54.170  65.528  17.182  1.00  0.00     0.024 C 
ATOM     15  C   UNL     1      52.734  65.086  16.915  1.00  0.00     0.008 C 
ENDBRANCH  13  14
ENDBRANCH   3  12
BRANCH   6  16
ATOM     16  O   UNL     1      53.360  71.427  21.893  1.00  0.00    -0.508 OA
ATOM     17  H   UNL     1      54.059  71.823  22.511  1.00  0.00     0.293 HD
ENDBRANCH   6  16
TORSDOF 4
ENDMDL
MODEL 5
REMARK VINA RESULT:    -5.127      2.204      5.133
REMARK INTER + INTRA:          -6.263
REMARK INTER:                  -6.045
REMARK INTRA:                  -0.218
REMARK UNBOUND:                -0.236
REMARK SMILES CCC=Cc1oc(O)c2ccc(O)cc12
REMARK SMILES IDX 7 1 6 2 5 3 15 4 14 5 12 6 11 7 10 8 9 9 8 10 4 12 3 13 2 14
REMARK SMILES IDX 1 15 13 16
REMARK H PARENT 8 11 13 17
REMARK Flexibility Score: inf
ROOT
ATOM      1  C   UNL     1      48.007  77.448  27.116  1.00  0.00     0.290 A 
ATOM      2  O   UNL     1      48.049  76.979  25.885  1.00  0.00    -0.425 OA
ATOM      3  C   UNL     1      49.261  77.179  25.396  1.00  0.00     0.138 A 
ATOM      4  C   UNL     1      50.036  77.807  26.357  1.00  0.00     0.035 A 
ATOM      5  C   UNL     1      51.364  78.233  26.348  1.00  0.00     0.059 A 
ATOM      6  C   UNL     1      51.866  78.853  27.512  1.00  0.00     0.116 A 
ATOM      7  C   UNL     1      51.032  79.026  28.642  1.00  0.00     0.047 A 
ATOM      8  C   UNL     1      49.696  78.584  28.620  1.00  0.00     0.020 A 
ATOM      9  C   UNL     1      49.233  77.978  27.454  1.00  0.00     0.067 A 
ENDROOT
BRANCH   1  10
ATOM     10  O   UNL     1      46.874  77.399  27.925  1.00  0.00    -0.480 OA
ATOM     11  H   UNL     1      46.114  78.057  27.805  1.00  0.00     0.297 HD
ENDBRANCH   1  10
BRANCH   3  12
ATOM     12  C   UNL     1      49.692  76.789  24.043  1.00  0.00     0.043 C 
ATOM     13  C   UNL     1      49.209  77.394  22.955  1.00  0.00    -0.023 C 
BRANCH  13  14
ATOM     14  C   UNL     1      49.638  76.986  21.574  1.00  0.00     0.024 C 
ATOM     15  C   UNL     1      48.920  77.804  20.505  1.00  0.00     0.008 C 
ENDBRANCH  13  14
ENDBRANCH   3  12
BRANCH   6  16
ATOM     16  O   UNL     1      53.185  79.299  27.562  1.00  0.00    -0.508 OA
ATOM     17  H   UNL     1      53.838  79.102  26.813  1.00  0.00     0.293 HD
ENDBRANCH   6  16
TORSDOF 4
ENDMDL
MODEL 6
REMARK VINA RESULT:    -5.093      8.906     11.145
REMARK INTER + INTRA:          -6.223
REMARK INTER:                  -5.963
REMARK INTRA:                  -0.260
REMARK UNBOUND:                -0.236
REMARK SMILES CCC=Cc1oc(O)c2ccc(O)cc12
REMARK SMILES IDX 7 1 6 2 5 3 15 4 14 5 12 6 11 7 10 8 9 9 8 10 4 12 3 13 2 14
REMARK SMILES IDX 1 15 13 16
REMARK H PARENT 8 11 13 17
REMARK Flexibility Score: inf
ROOT
ATOM      1  C   UNL     1      54.081  70.771  16.456  1.00  0.00     0.290 A 
ATOM      2  O   UNL     1      53.579  71.124  17.623  1.00  0.00    -0.425 OA
ATOM      3  C   UNL     1      53.479  70.049  18.386  1.00  0.00     0.138 A 
ATOM      4  C   UNL     1      53.938  68.951  17.677  1.00  0.00     0.035 A 
ATOM      5  C   UNL     1      54.045  67.602  18.018  1.00  0.00     0.059 A 
ATOM      6  C   UNL     1      54.564  66.716  17.050  1.00  0.00     0.116 A 
ATOM      7  C   UNL     1      54.958  67.201  15.781  1.00  0.00     0.047 A 
ATOM      8  C   UNL     1      54.839  68.568  15.468  1.00  0.00     0.020 A 
ATOM      9  C   UNL     1      54.322  69.414  16.446  1.00  0.00     0.067 A 
ENDROOT
BRANCH   1  10
ATOM     10  O   UNL     1      54.319  71.662  15.414  1.00  0.00    -0.480 OA
ATOM     11  H   UNL     1      55.261  71.879  15.112  1.00  0.00     0.297 HD
ENDBRANCH   1  10
BRANCH   3  12
ATOM     12  C   UNL     1      52.959  70.046  19.763  1.00  0.00     0.043 C 
ATOM     13  C   UNL     1      53.665  70.552  20.777  1.00  0.00    -0.023 C 
BRANCH  13  14
ATOM     14  C   UNL     1      53.141  70.536  22.184  1.00  0.00     0.024 C 
ATOM     15  C   UNL     1      52.027  69.506  22.351  1.00  0.00     0.008 C 
ENDBRANCH  13  14
ENDBRANCH   3  12
BRANCH   6  16
ATOM     16  O   UNL     1      54.694  65.358  17.333  1.00  0.00    -0.508 OA
ATOM     17  H   UNL     1      53.910  64.812  17.671  1.00  0.00     0.293 HD
ENDBRANCH   6  16
TORSDOF 4
ENDMDL
MODEL 7
REMARK VINA RESULT:    -5.071      8.432     11.277
REMARK INTER + INTRA:          -6.197
REMARK INTER:                  -5.956
REMARK INTRA:                  -0.241
REMARK UNBOUND:                -0.236
REMARK SMILES CCC=Cc1oc(O)c2ccc(O)cc12
REMARK SMILES IDX 7 1 6 2 5 3 15 4 14 5 12 6 11 7 10 8 9 9 8 10 4 12 3 13 2 14
REMARK SMILES IDX 1 15 13 16
REMARK H PARENT 8 11 13 17
REMARK Flexibility Score: inf
ROOT
ATOM      1  C   UNL     1      53.690  71.418  19.941  1.00  0.00     0.290 A 
ATOM      2  O   UNL     1      53.900  70.118  19.880  1.00  0.00    -0.425 OA
ATOM      3  C   UNL     1      54.247  69.801  18.644  1.00  0.00     0.138 A 
ATOM      4  C   UNL     1      54.262  70.951  17.872  1.00  0.00     0.035 A 
ATOM      5  C   UNL     1      54.557  71.164  16.526  1.00  0.00     0.059 A 
ATOM      6  C   UNL     1      54.478  72.484  16.034  1.00  0.00     0.116 A 
ATOM      7  C   UNL     1      54.111  73.544  16.896  1.00  0.00     0.047 A 
ATOM      8  C   UNL     1      53.820  73.297  18.250  1.00  0.00     0.020 A 
ATOM      9  C   UNL     1      53.906  71.982  18.703  1.00  0.00     0.067 A 
ENDROOT
BRANCH   1  10
ATOM     10  O   UNL     1      53.308  72.087  21.101  1.00  0.00    -0.480 OA
ATOM     11  H   UNL     1      53.906  72.105  21.918  1.00  0.00     0.297 HD
ENDBRANCH   1  10
BRANCH   3  12
ATOM     12  C   UNL     1      54.562  68.437  18.187  1.00  0.00     0.043 C 
ATOM     13  C   UNL     1      53.646  67.674  17.585  1.00  0.00    -0.023 C 
BRANCH  13  14
ATOM     14  C   UNL     1      53.963  66.278  17.132  1.00  0.00     0.024 C 
ATOM     15  C   UNL     1      52.716  65.397  17.131  1.00  0.00     0.008 C 
ENDBRANCH  13  14
ENDBRANCH   3  12
BRANCH   6  16
ATOM     16  O   UNL     1      54.762  72.758  14.697  1.00  0.00    -0.508 OA
ATOM     17  H   UNL     1      55.522  73.373  14.434  1.00  0.00     0.293 HD
ENDBRANCH   6  16
TORSDOF 4
ENDMDL
MODEL 8
REMARK VINA RESULT:    -5.051      3.011      4.507
REMARK INTER + INTRA:          -6.173
REMARK INTER:                  -5.958
REMARK INTRA:                  -0.215
REMARK UNBOUND:                -0.236
REMARK SMILES CCC=Cc1oc(O)c2ccc(O)cc12
REMARK SMILES IDX 7 1 6 2 5 3 15 4 14 5 12 6 11 7 10 8 9 9 8 10 4 12 3 13 2 14
REMARK SMILES IDX 1 15 13 16
REMARK H PARENT 8 11 13 17
REMARK Flexibility Score: inf
ROOT
ATOM      1  C   UNL     1      50.624  77.922  27.829  1.00  0.00     0.290 A 
ATOM      2  O   UNL     1      49.476  78.030  28.469  1.00  0.00    -0.425 OA
ATOM      3  C   UNL     1      48.496  77.720  27.638  1.00  0.00     0.138 A 
ATOM      4  C   UNL     1      49.036  77.396  26.405  1.00  0.00     0.035 A 
ATOM      5  C   UNL     1      48.445  77.004  25.204  1.00  0.00     0.059 A 
ATOM      6  C   UNL     1      49.291  76.742  24.106  1.00  0.00     0.116 A 
ATOM      7  C   UNL     1      50.693  76.878  24.241  1.00  0.00     0.047 A 
ATOM      8  C   UNL     1      51.260  77.274  25.466  1.00  0.00     0.020 A 
ATOM      9  C   UNL     1      50.395  77.526  26.529  1.00  0.00     0.067 A 
ENDROOT
BRANCH   1  10
ATOM     10  O   UNL     1      51.862  78.178  28.411  1.00  0.00    -0.480 OA
ATOM     11  H   UNL     1      52.639  77.538  28.296  1.00  0.00     0.297 HD
ENDBRANCH   1  10
BRANCH   3  12
ATOM     12  C   UNL     1      47.067  77.725  27.992  1.00  0.00     0.043 C 
ATOM     13  C   UNL     1      46.568  76.879  28.897  1.00  0.00    -0.023 C 
BRANCH  13  14
ATOM     14  C   UNL     1      45.107  76.876  29.248  1.00  0.00     0.024 C 
ATOM     15  C   UNL     1      44.662  75.509  29.762  1.00  0.00     0.008 C 
ENDBRANCH  13  14
ENDBRANCH   3  12
BRANCH   6  16
ATOM     16  O   UNL     1      48.758  76.347  22.882  1.00  0.00    -0.508 OA
ATOM     17  H   UNL     1      49.262  75.722  22.263  1.00  0.00     0.293 HD
ENDBRANCH   6  16
TORSDOF 4
ENDMDL
MODEL 9
REMARK VINA RESULT:    -4.907      1.902      2.956
REMARK INTER + INTRA:          -6.004
REMARK INTER:                  -5.733
REMARK INTRA:                  -0.271
REMARK UNBOUND:                -0.236
REMARK SMILES CCC=Cc1oc(O)c2ccc(O)cc12
REMARK SMILES IDX 7 1 6 2 5 3 15 4 14 5 12 6 11 7 10 8 9 9 8 10 4 12 3 13 2 14
REMARK SMILES IDX 1 15 13 16
REMARK H PARENT 8 11 13 17
REMARK Flexibility Score: inf
ROOT
ATOM      1  C   UNL     1      48.060  77.867  26.885  1.00  0.00     0.290 A 
ATOM      2  O   UNL     1      48.730  78.115  27.992  1.00  0.00    -0.425 OA
ATOM      3  C   UNL     1      50.010  77.862  27.779  1.00  0.00     0.138 A 
ATOM      4  C   UNL     1      50.172  77.430  26.474  1.00  0.00     0.035 A 
ATOM      5  C   UNL     1      51.304  77.040  25.756  1.00  0.00     0.059 A 
ATOM      6  C   UNL     1      51.129  76.645  24.413  1.00  0.00     0.116 A 
ATOM      7  C   UNL     1      49.840  76.651  23.832  1.00  0.00     0.047 A 
ATOM      8  C   UNL     1      48.718  77.051  24.581  1.00  0.00     0.020 A 
ATOM      9  C   UNL     1      48.926  77.434  25.905  1.00  0.00     0.067 A 
ENDROOT
BRANCH   1  10
ATOM     10  O   UNL     1      46.682  78.029  26.760  1.00  0.00    -0.480 OA
ATOM     11  H   UNL     1      46.278  78.927  26.521  1.00  0.00     0.297 HD
ENDBRANCH   1  10
BRANCH   3  12
ATOM     12  C   UNL     1      51.073  78.021  28.786  1.00  0.00     0.043 C 
ATOM     13  C   UNL     1      51.854  79.104  28.812  1.00  0.00    -0.023 C 
BRANCH  13  14
ATOM     14  C   UNL     1      52.947  79.259  29.831  1.00  0.00     0.024 C 
ATOM     15  C   UNL     1      53.200  77.953  30.578  1.00  0.00     0.008 C 
ENDBRANCH  13  14
ENDBRANCH   3  12
BRANCH   6  16
ATOM     16  O   UNL     1      52.222  76.245  23.647  1.00  0.00    -0.508 OA
ATOM     17  H   UNL     1      52.266  75.322  23.230  1.00  0.00     0.293 HD
ENDBRANCH   6  16
TORSDOF 4
ENDMDL
