MODEL 1
REMARK VINA RESULT:    -7.392      0.000      0.000
REMARK INTER + INTRA:          -9.234
REMARK INTER:                  -8.905
REMARK INTRA:                  -0.329
REMARK UNBOUND:                -0.329
REMARK SMILES Oc1cc(O)c2cc(O)c(-c3ccc(O)c(O)c3)[o+]c2c1.[Cl-]
REMARK SMILES IDX 10 1 19 2 20 3 21 4 2 5 3 6 4 7 6 8 7 9 8 10 11 11 12 12
REMARK SMILES IDX 13 13 14 14 18 15 16 16 15 17 17 19 9 21 1 23 5 25
REMARK H PARENT 15 18 17 20 9 22 1 24 5 26
REMARK Flexibility Score: inf
ROOT
ATOM      1  C   UNL     1      30.381  58.708  -1.043  1.00  0.00     0.402 A 
ATOM      2  O   UNL     1      29.761  57.847  -1.847  1.00  0.00    -0.202 OA
ATOM      3  C   UNL     1      29.926  57.832  -3.166  1.00  0.00     0.368 A 
ATOM      4  C   UNL     1      29.233  56.887  -3.927  1.00  0.00     0.162 A 
ATOM      5  C   UNL     1      29.389  56.845  -5.312  1.00  0.00     0.128 A 
ATOM      6  C   UNL     1      30.245  57.754  -5.945  1.00  0.00     0.093 A 
ATOM      7  C   UNL     1      30.952  58.710  -5.204  1.00  0.00     0.136 A 
ATOM      8  C   UNL     1      30.792  58.757  -3.796  1.00  0.00     0.125 A 
ATOM      9  C   UNL     1      31.449  59.690  -2.975  1.00  0.00     0.078 A 
ATOM     10  C   UNL     1      31.239  59.678  -1.593  1.00  0.00     0.223 A 
ENDROOT
BRANCH   1  11
ATOM     11  C   UNL     1      30.121  58.618   0.412  1.00  0.00     0.087 A 
ATOM     12  C   UNL     1      31.048  58.023   1.286  1.00  0.00     0.022 A 
ATOM     13  C   UNL     1      30.771  57.928   2.651  1.00  0.00     0.051 A 
ATOM     14  C   UNL     1      29.560  58.412   3.163  1.00  0.00     0.157 A 
ATOM     15  C   UNL     1      28.900  59.082   0.926  1.00  0.00     0.068 A 
ATOM     16  C   UNL     1      28.619  58.990   2.295  1.00  0.00     0.158 A 
BRANCH  14  17
ATOM     17  O   UNL     1      29.288  58.318   4.527  1.00  0.00    -0.504 OA
ATOM     18  H   UNL     1      29.957  57.923   5.177  1.00  0.00     0.293 HD
ENDBRANCH  14  17
BRANCH  16  19
ATOM     19  O   UNL     1      27.402  59.476   2.770  1.00  0.00    -0.504 OA
ATOM     20  H   UNL     1      27.340  60.046   3.605  1.00  0.00     0.293 HD
ENDBRANCH  16  19
ENDBRANCH   1  11
BRANCH  10  21
ATOM     21  O   UNL     1      31.852  60.635  -0.784  1.00  0.00    -0.500 OA
ATOM     22  H   UNL     1      32.731  61.067  -1.043  1.00  0.00     0.294 HD
ENDBRANCH  10  21
BRANCH   5  23
ATOM     23  O   UNL     1      28.690  55.895  -6.054  1.00  0.00    -0.507 OA
ATOM     24  H   UNL     1      27.866  55.436  -5.686  1.00  0.00     0.293 HD
ENDBRANCH   5  23
BRANCH   7  25
ATOM     25  O   UNL     1      31.788  59.580  -5.909  1.00  0.00    -0.507 OA
ATOM     26  H   UNL     1      32.323  59.322  -6.726  1.00  0.00     0.293 HD
ENDBRANCH   7  25
TORSDOF 6
ENDMDL
MODEL 2
REMARK VINA RESULT:    -7.378      2.086      7.382
REMARK INTER + INTRA:          -9.217
REMARK INTER:                  -9.363
REMARK INTRA:                   0.147
REMARK UNBOUND:                -0.329
REMARK SMILES Oc1cc(O)c2cc(O)c(-c3ccc(O)c(O)c3)[o+]c2c1.[Cl-]
REMARK SMILES IDX 10 1 19 2 20 3 21 4 2 5 3 6 4 7 6 8 7 9 8 10 11 11 12 12
REMARK SMILES IDX 13 13 14 14 18 15 16 16 15 17 17 19 9 21 1 23 5 25
REMARK H PARENT 15 18 17 20 9 22 1 24 5 26
REMARK Flexibility Score: inf
ROOT
ATOM      1  C   UNL     1      29.921  58.058  -4.870  1.00  0.00     0.402 A 
ATOM      2  O   UNL     1      29.373  57.651  -3.728  1.00  0.00    -0.202 OA
ATOM      3  C   UNL     1      29.815  58.026  -2.532  1.00  0.00     0.368 A 
ATOM      4  C   UNL     1      29.171  57.548  -1.388  1.00  0.00     0.162 A 
ATOM      5  C   UNL     1      29.611  57.928  -0.121  1.00  0.00     0.128 A 
ATOM      6  C   UNL     1      30.704  58.793   0.008  1.00  0.00     0.093 A 
ATOM      7  C   UNL     1      31.366  59.287  -1.123  1.00  0.00     0.136 A 
ATOM      8  C   UNL     1      30.923  58.900  -2.414  1.00  0.00     0.125 A 
ATOM      9  C   UNL     1      31.534  59.334  -3.603  1.00  0.00     0.078 A 
ATOM     10  C   UNL     1      31.043  58.906  -4.840  1.00  0.00     0.223 A 
ENDROOT
BRANCH   1  11
ATOM     11  C   UNL     1      29.331  57.576  -6.140  1.00  0.00     0.087 A 
ATOM     12  C   UNL     1      28.886  56.250  -6.283  1.00  0.00     0.022 A 
ATOM     13  C   UNL     1      28.353  55.811  -7.498  1.00  0.00     0.051 A 
ATOM     14  C   UNL     1      28.269  56.685  -8.590  1.00  0.00     0.157 A 
ATOM     15  C   UNL     1      29.263  58.441  -7.244  1.00  0.00     0.068 A 
ATOM     16  C   UNL     1      28.729  58.006  -8.462  1.00  0.00     0.158 A 
BRANCH  14  17
ATOM     17  O   UNL     1      27.734  56.244  -9.800  1.00  0.00    -0.504 OA
ATOM     18  H   UNL     1      28.067  56.600 -10.689  1.00  0.00     0.293 HD
ENDBRANCH  14  17
BRANCH  16  19
ATOM     19  O   UNL     1      28.665  58.898  -9.531  1.00  0.00    -0.504 OA
ATOM     20  H   UNL     1      29.405  58.967 -10.220  1.00  0.00     0.293 HD
ENDBRANCH  16  19
ENDBRANCH   1  11
BRANCH  10  21
ATOM     21  O   UNL     1      31.680  59.298  -6.018  1.00  0.00    -0.500 OA
ATOM     22  H   UNL     1      31.157  59.541  -6.851  1.00  0.00     0.294 HD
ENDBRANCH  10  21
BRANCH   5  23
ATOM     23  O   UNL     1      28.956  57.441   1.009  1.00  0.00    -0.507 OA
ATOM     24  H   UNL     1      28.892  57.985   1.860  1.00  0.00     0.293 HD
ENDBRANCH   5  23
BRANCH   7  25
ATOM     25  O   UNL     1      32.447  60.148  -0.912  1.00  0.00    -0.507 OA
ATOM     26  H   UNL     1      33.266  60.192  -1.500  1.00  0.00     0.293 HD
ENDBRANCH   7  25
TORSDOF 6
ENDMDL
MODEL 3
REMARK VINA RESULT:    -7.253      1.311      3.151
REMARK INTER + INTRA:          -9.066
REMARK INTER:                  -8.783
REMARK INTRA:                  -0.283
REMARK UNBOUND:                -0.329
REMARK SMILES Oc1cc(O)c2cc(O)c(-c3ccc(O)c(O)c3)[o+]c2c1.[Cl-]
REMARK SMILES IDX 10 1 19 2 20 3 21 4 2 5 3 6 4 7 6 8 7 9 8 10 11 11 12 12
REMARK SMILES IDX 13 13 14 14 18 15 16 16 15 17 17 19 9 21 1 23 5 25
REMARK H PARENT 15 18 17 20 9 22 1 24 5 26
REMARK Flexibility Score: inf
ROOT
ATOM      1  C   UNL     1      28.951  57.521  -1.165  1.00  0.00     0.402 A 
ATOM      2  O   UNL     1      29.798  58.207  -1.928  1.00  0.00    -0.202 OA
ATOM      3  C   UNL     1      29.922  58.014  -3.237  1.00  0.00     0.368 A 
ATOM      4  C   UNL     1      30.838  58.787  -3.955  1.00  0.00     0.162 A 
ATOM      5  C   UNL     1      30.986  58.609  -5.330  1.00  0.00     0.128 A 
ATOM      6  C   UNL     1      30.214  57.650  -5.996  1.00  0.00     0.093 A 
ATOM      7  C   UNL     1      29.288  56.863  -5.299  1.00  0.00     0.136 A 
ATOM      8  C   UNL     1      29.137  57.040  -3.900  1.00  0.00     0.125 A 
ATOM      9  C   UNL     1      28.244  56.287  -3.118  1.00  0.00     0.078 A 
ATOM     10  C   UNL     1      28.153  56.515  -1.741  1.00  0.00     0.223 A 
ENDROOT
BRANCH   1  11
ATOM     11  C   UNL     1      28.899  57.836   0.281  1.00  0.00     0.087 A 
ATOM     12  C   UNL     1      27.790  58.489   0.849  1.00  0.00     0.022 A 
ATOM     13  C   UNL     1      27.773  58.797   2.211  1.00  0.00     0.051 A 
ATOM     14  C   UNL     1      28.867  58.471   3.024  1.00  0.00     0.157 A 
ATOM     15  C   UNL     1      30.001  57.531   1.096  1.00  0.00     0.068 A 
ATOM     16  C   UNL     1      29.987  57.837   2.462  1.00  0.00     0.158 A 
BRANCH  14  17
ATOM     17  O   UNL     1      28.846  58.778   4.384  1.00  0.00    -0.504 OA
ATOM     18  H   UNL     1      29.648  59.186   4.849  1.00  0.00     0.293 HD
ENDBRANCH  14  17
BRANCH  16  19
ATOM     19  O   UNL     1      31.094  57.505   3.241  1.00  0.00    -0.504 OA
ATOM     20  H   UNL     1      32.042  57.575   2.888  1.00  0.00     0.293 HD
ENDBRANCH  16  19
ENDBRANCH   1  11
BRANCH  10  21
ATOM     21  O   UNL     1      27.303  55.735  -0.958  1.00  0.00    -0.500 OA
ATOM     22  H   UNL     1      26.565  56.147  -0.400  1.00  0.00     0.294 HD
ENDBRANCH  10  21
BRANCH   5  23
ATOM     23  O   UNL     1      31.905  59.389  -6.029  1.00  0.00    -0.507 OA
ATOM     24  H   UNL     1      32.800  59.018  -6.322  1.00  0.00     0.293 HD
ENDBRANCH   5  23
BRANCH   7  25
ATOM     25  O   UNL     1      28.553  55.930  -6.036  1.00  0.00    -0.507 OA
ATOM     26  H   UNL     1      28.126  56.118  -6.931  1.00  0.00     0.293 HD
ENDBRANCH   7  25
TORSDOF 6
ENDMDL
MODEL 4
REMARK VINA RESULT:    -6.998     13.228     14.552
REMARK INTER + INTRA:          -8.758
REMARK INTER:                  -8.602
REMARK INTRA:                  -0.156
REMARK UNBOUND:                -0.329
REMARK SMILES Oc1cc(O)c2cc(O)c(-c3ccc(O)c(O)c3)[o+]c2c1.[Cl-]
REMARK SMILES IDX 10 1 19 2 20 3 21 4 2 5 3 6 4 7 6 8 7 9 8 10 11 11 12 12
REMARK SMILES IDX 13 13 14 14 18 15 16 16 15 17 17 19 9 21 1 23 5 25
REMARK H PARENT 15 18 17 20 9 22 1 24 5 26
REMARK Flexibility Score: inf
ROOT
ATOM      1  C   UNL     1      39.819  63.671   6.920  1.00  0.00     0.402 A 
ATOM      2  O   UNL     1      39.163  62.539   7.165  1.00  0.00    -0.202 OA
ATOM      3  C   UNL     1      39.769  61.398   7.478  1.00  0.00     0.368 A 
ATOM      4  C   UNL     1      38.993  60.261   7.721  1.00  0.00     0.162 A 
ATOM      5  C   UNL     1      39.601  59.051   8.055  1.00  0.00     0.128 A 
ATOM      6  C   UNL     1      40.996  58.973   8.147  1.00  0.00     0.093 A 
ATOM      7  C   UNL     1      41.795  60.099   7.908  1.00  0.00     0.136 A 
ATOM      8  C   UNL     1      41.180  61.330   7.566  1.00  0.00     0.125 A 
ATOM      9  C   UNL     1      41.902  62.505   7.296  1.00  0.00     0.078 A 
ATOM     10  C   UNL     1      41.226  63.682   6.960  1.00  0.00     0.223 A 
ENDROOT
BRANCH   1  11
ATOM     11  C   UNL     1      39.030  64.879   6.591  1.00  0.00     0.087 A 
ATOM     12  C   UNL     1      38.105  65.420   7.502  1.00  0.00     0.022 A 
ATOM     13  C   UNL     1      37.354  66.547   7.161  1.00  0.00     0.051 A 
ATOM     14  C   UNL     1      37.504  67.143   5.902  1.00  0.00     0.157 A 
ATOM     15  C   UNL     1      39.161  65.467   5.323  1.00  0.00     0.068 A 
ATOM     16  C   UNL     1      38.411  66.598   4.978  1.00  0.00     0.158 A 
BRANCH  14  17
ATOM     17  O   UNL     1      36.755  68.270   5.566  1.00  0.00    -0.504 OA
ATOM     18  H   UNL     1      36.905  69.163   6.020  1.00  0.00     0.293 HD
ENDBRANCH  14  17
BRANCH  16  19
ATOM     19  O   UNL     1      38.580  67.163   3.714  1.00  0.00    -0.504 OA
ATOM     20  H   UNL     1      37.797  67.342   3.096  1.00  0.00     0.293 HD
ENDBRANCH  16  19
ENDBRANCH   1  11
BRANCH  10  21
ATOM     21  O   UNL     1      41.944  64.836   6.645  1.00  0.00    -0.500 OA
ATOM     22  H   UNL     1      42.628  64.849   5.898  1.00  0.00     0.294 HD
ENDBRANCH  10  21
BRANCH   5  23
ATOM     23  O   UNL     1      38.812  57.928   8.294  1.00  0.00    -0.507 OA
ATOM     24  H   UNL     1      39.222  57.016   8.452  1.00  0.00     0.293 HD
ENDBRANCH   5  23
BRANCH   7  25
ATOM     25  O   UNL     1      43.179  59.941   8.023  1.00  0.00    -0.507 OA
ATOM     26  H   UNL     1      43.748  60.383   8.730  1.00  0.00     0.293 HD
ENDBRANCH   7  25
TORSDOF 6
ENDMDL
MODEL 5
REMARK VINA RESULT:    -6.823     11.836     13.789
REMARK INTER + INTRA:          -8.548
REMARK INTER:                  -8.230
REMARK INTRA:                  -0.319
REMARK UNBOUND:                -0.329
REMARK SMILES Oc1cc(O)c2cc(O)c(-c3ccc(O)c(O)c3)[o+]c2c1.[Cl-]
REMARK SMILES IDX 10 1 19 2 20 3 21 4 2 5 3 6 4 7 6 8 7 9 8 10 11 11 12 12
REMARK SMILES IDX 13 13 14 14 18 15 16 16 15 17 17 19 9 21 1 23 5 25
REMARK H PARENT 15 18 17 20 9 22 1 24 5 26
REMARK Flexibility Score: inf
ROOT
ATOM      1  C   UNL     1      39.996  60.031   6.539  1.00  0.00     0.402 A 
ATOM      2  O   UNL     1      41.163  59.406   6.400  1.00  0.00    -0.202 OA
ATOM      3  C   UNL     1      41.269  58.137   6.019  1.00  0.00     0.368 A 
ATOM      4  C   UNL     1      42.540  57.568   5.897  1.00  0.00     0.162 A 
ATOM      5  C   UNL     1      42.682  56.240   5.497  1.00  0.00     0.128 A 
ATOM      6  C   UNL     1      41.547  55.471   5.214  1.00  0.00     0.093 A 
ATOM      7  C   UNL     1      40.263  56.019   5.327  1.00  0.00     0.136 A 
ATOM      8  C   UNL     1      40.114  57.368   5.738  1.00  0.00     0.125 A 
ATOM      9  C   UNL     1      38.867  57.996   5.892  1.00  0.00     0.078 A 
ATOM     10  C   UNL     1      38.799  59.330   6.305  1.00  0.00     0.223 A 
ENDROOT
BRANCH   1  11
ATOM     11  C   UNL     1      40.010  61.451   6.961  1.00  0.00     0.087 A 
ATOM     12  C   UNL     1      39.765  61.820   8.296  1.00  0.00     0.022 A 
ATOM     13  C   UNL     1      39.760  63.167   8.666  1.00  0.00     0.051 A 
ATOM     14  C   UNL     1      39.985  64.165   7.708  1.00  0.00     0.157 A 
ATOM     15  C   UNL     1      40.213  62.455   6.001  1.00  0.00     0.068 A 
ATOM     16  C   UNL     1      40.210  63.806   6.369  1.00  0.00     0.158 A 
BRANCH  14  17
ATOM     17  O   UNL     1      39.981  65.508   8.082  1.00  0.00    -0.504 OA
ATOM     18  H   UNL     1      40.684  66.155   7.744  1.00  0.00     0.293 HD
ENDBRANCH  14  17
BRANCH  16  19
ATOM     19  O   UNL     1      40.430  64.774   5.390  1.00  0.00    -0.504 OA
ATOM     20  H   UNL     1      41.225  65.402   5.424  1.00  0.00     0.293 HD
ENDBRANCH  16  19
ENDBRANCH   1  11
BRANCH  10  21
ATOM     21  O   UNL     1      37.560  59.938   6.506  1.00  0.00    -0.500 OA
ATOM     22  H   UNL     1      37.477  60.931   6.690  1.00  0.00     0.294 HD
ENDBRANCH  10  21
BRANCH   5  23
ATOM     23  O   UNL     1      43.957  55.690   5.381  1.00  0.00    -0.507 OA
ATOM     24  H   UNL     1      44.617  56.022   4.689  1.00  0.00     0.293 HD
ENDBRANCH   5  23
BRANCH   7  25
ATOM     25  O   UNL     1      39.180  55.188   5.025  1.00  0.00    -0.507 OA
ATOM     26  H   UNL     1      39.145  54.199   5.228  1.00  0.00     0.293 HD
ENDBRANCH   7  25
TORSDOF 6
ENDMDL
MODEL 6
REMARK VINA RESULT:    -6.572     12.077     14.718
REMARK INTER + INTRA:          -8.246
REMARK INTER:                  -8.100
REMARK INTRA:                  -0.146
REMARK UNBOUND:                -0.329
REMARK SMILES Oc1cc(O)c2cc(O)c(-c3ccc(O)c(O)c3)[o+]c2c1.[Cl-]
REMARK SMILES IDX 10 1 19 2 20 3 21 4 2 5 3 6 4 7 6 8 7 9 8 10 11 11 12 12
REMARK SMILES IDX 13 13 14 14 18 15 16 16 15 17 17 19 9 21 1 23 5 25
REMARK H PARENT 15 18 17 20 9 22 1 24 5 26
REMARK Flexibility Score: inf
ROOT
ATOM      1  C   UNL     1      40.542  61.902   6.563  1.00  0.00     0.402 A 
ATOM      2  O   UNL     1      41.525  62.151   5.701  1.00  0.00    -0.202 OA
ATOM      3  C   UNL     1      42.199  63.295   5.673  1.00  0.00     0.368 A 
ATOM      4  C   UNL     1      43.218  63.462   4.732  1.00  0.00     0.162 A 
ATOM      5  C   UNL     1      43.944  64.651   4.682  1.00  0.00     0.128 A 
ATOM      6  C   UNL     1      43.652  65.686   5.578  1.00  0.00     0.093 A 
ATOM      7  C   UNL     1      42.635  65.543   6.532  1.00  0.00     0.136 A 
ATOM      8  C   UNL     1      41.893  64.335   6.584  1.00  0.00     0.125 A 
ATOM      9  C   UNL     1      40.848  64.110   7.496  1.00  0.00     0.078 A 
ATOM     10  C   UNL     1      40.158  62.894   7.485  1.00  0.00     0.223 A 
ENDROOT
BRANCH   1  11
ATOM     11  C   UNL     1      39.874  60.582   6.500  1.00  0.00     0.087 A 
ATOM     12  C   UNL     1      39.179  60.168   5.349  1.00  0.00     0.022 A 
ATOM     13  C   UNL     1      38.536  58.928   5.321  1.00  0.00     0.051 A 
ATOM     14  C   UNL     1      38.565  58.090   6.444  1.00  0.00     0.157 A 
ATOM     15  C   UNL     1      39.882  59.748   7.630  1.00  0.00     0.068 A 
ATOM     16  C   UNL     1      39.240  58.504   7.604  1.00  0.00     0.158 A 
BRANCH  14  17
ATOM     17  O   UNL     1      37.924  56.852   6.411  1.00  0.00    -0.504 OA
ATOM     18  H   UNL     1      38.443  55.984   6.461  1.00  0.00     0.293 HD
ENDBRANCH  14  17
BRANCH  16  19
ATOM     19  O   UNL     1      39.282  57.697   8.740  1.00  0.00    -0.504 OA
ATOM     20  H   UNL     1      39.594  58.047   9.638  1.00  0.00     0.293 HD
ENDBRANCH  16  19
ENDBRANCH   1  11
BRANCH  10  21
ATOM     21  O   UNL     1      39.089  62.688   8.357  1.00  0.00    -0.500 OA
ATOM     22  H   UNL     1      38.347  62.032   8.145  1.00  0.00     0.294 HD
ENDBRANCH  10  21
BRANCH   5  23
ATOM     23  O   UNL     1      44.956  64.799   3.735  1.00  0.00    -0.507 OA
ATOM     24  H   UNL     1      44.781  65.225   2.834  1.00  0.00     0.293 HD
ENDBRANCH   5  23
BRANCH   7  25
ATOM     25  O   UNL     1      42.406  66.619   7.394  1.00  0.00    -0.507 OA
ATOM     26  H   UNL     1      42.892  66.766   8.267  1.00  0.00     0.293 HD
ENDBRANCH   7  25
TORSDOF 6
ENDMDL
MODEL 7
REMARK VINA RESULT:    -6.566      3.272      7.728
REMARK INTER + INTRA:          -8.239
REMARK INTER:                  -7.893
REMARK INTRA:                  -0.346
REMARK UNBOUND:                -0.329
REMARK SMILES Oc1cc(O)c2cc(O)c(-c3ccc(O)c(O)c3)[o+]c2c1.[Cl-]
REMARK SMILES IDX 10 1 19 2 20 3 21 4 2 5 3 6 4 7 6 8 7 9 8 10 11 11 12 12
REMARK SMILES IDX 13 13 14 14 18 15 16 16 15 17 17 19 9 21 1 23 5 25
REMARK H PARENT 15 18 17 20 9 22 1 24 5 26
REMARK Flexibility Score: inf
ROOT
ATOM      1  C   UNL     1      30.072  57.248   1.621  1.00  0.00     0.402 A 
ATOM      2  O   UNL     1      30.299  57.478   2.912  1.00  0.00    -0.202 OA
ATOM      3  C   UNL     1      29.608  56.899   3.888  1.00  0.00     0.368 A 
ATOM      4  C   UNL     1      29.923  57.202   5.216  1.00  0.00     0.162 A 
ATOM      5  C   UNL     1      29.217  56.607   6.261  1.00  0.00     0.128 A 
ATOM      6  C   UNL     1      28.187  55.702   5.981  1.00  0.00     0.093 A 
ATOM      7  C   UNL     1      27.853  55.381   4.659  1.00  0.00     0.136 A 
ATOM      8  C   UNL     1      28.568  55.986   3.593  1.00  0.00     0.125 A 
ATOM      9  C   UNL     1      28.293  55.735   2.238  1.00  0.00     0.078 A 
ATOM     10  C   UNL     1      29.037  56.373   1.241  1.00  0.00     0.223 A 
ENDROOT
BRANCH   1  11
ATOM     11  C   UNL     1      30.918  57.948   0.627  1.00  0.00     0.087 A 
ATOM     12  C   UNL     1      32.156  57.421   0.219  1.00  0.00     0.022 A 
ATOM     13  C   UNL     1      32.948  58.111  -0.703  1.00  0.00     0.051 A 
ATOM     14  C   UNL     1      32.522  59.341  -1.221  1.00  0.00     0.157 A 
ATOM     15  C   UNL     1      30.505  59.191   0.120  1.00  0.00     0.068 A 
ATOM     16  C   UNL     1      31.295  59.884  -0.805  1.00  0.00     0.158 A 
BRANCH  14  17
ATOM     17  O   UNL     1      33.313  60.025  -2.143  1.00  0.00    -0.504 OA
ATOM     18  H   UNL     1      32.904  60.583  -2.882  1.00  0.00     0.293 HD
ENDBRANCH  14  17
BRANCH  16  19
ATOM     19  O   UNL     1      30.845  61.108  -1.296  1.00  0.00    -0.504 OA
ATOM     20  H   UNL     1      29.897  61.433  -1.145  1.00  0.00     0.293 HD
ENDBRANCH  16  19
ENDBRANCH   1  11
BRANCH  10  21
ATOM     21  O   UNL     1      28.732  56.162  -0.103  1.00  0.00    -0.500 OA
ATOM     22  H   UNL     1      27.805  56.336  -0.473  1.00  0.00     0.294 HD
ENDBRANCH  10  21
BRANCH   5  23
ATOM     23  O   UNL     1      29.545  56.922   7.578  1.00  0.00    -0.507 OA
ATOM     24  H   UNL     1      28.967  57.540   8.135  1.00  0.00     0.293 HD
ENDBRANCH   5  23
BRANCH   7  25
ATOM     25  O   UNL     1      26.816  54.465   4.462  1.00  0.00    -0.507 OA
ATOM     26  H   UNL     1      26.942  53.467   4.383  1.00  0.00     0.293 HD
ENDBRANCH   7  25
TORSDOF 6
ENDMDL
MODEL 8
REMARK VINA RESULT:    -6.562     12.403     14.775
REMARK INTER + INTRA:          -8.234
REMARK INTER:                  -7.891
REMARK INTRA:                  -0.343
REMARK UNBOUND:                -0.329
REMARK SMILES Oc1cc(O)c2cc(O)c(-c3ccc(O)c(O)c3)[o+]c2c1.[Cl-]
REMARK SMILES IDX 10 1 19 2 20 3 21 4 2 5 3 6 4 7 6 8 7 9 8 10 11 11 12 12
REMARK SMILES IDX 13 13 14 14 18 15 16 16 15 17 17 19 9 21 1 23 5 25
REMARK H PARENT 15 18 17 20 9 22 1 24 5 26
REMARK Flexibility Score: inf
ROOT
ATOM      1  C   UNL     1      40.635  60.628   6.444  1.00  0.00     0.402 A 
ATOM      2  O   UNL     1      41.550  61.385   5.844  1.00  0.00    -0.202 OA
ATOM      3  C   UNL     1      41.663  62.693   6.048  1.00  0.00     0.368 A 
ATOM      4  C   UNL     1      42.659  63.404   5.374  1.00  0.00     0.162 A 
ATOM      5  C   UNL     1      42.803  64.776   5.572  1.00  0.00     0.128 A 
ATOM      6  C   UNL     1      41.945  65.448   6.450  1.00  0.00     0.093 A 
ATOM      7  C   UNL     1      40.939  64.759   7.139  1.00  0.00     0.136 A 
ATOM      8  C   UNL     1      40.788  63.363   6.938  1.00  0.00     0.125 A 
ATOM      9  C   UNL     1      39.799  62.593   7.574  1.00  0.00     0.078 A 
ATOM     10  C   UNL     1      39.709  61.221   7.323  1.00  0.00     0.223 A 
ENDROOT
BRANCH   1  11
ATOM     11  C   UNL     1      40.617  59.179   6.140  1.00  0.00     0.087 A 
ATOM     12  C   UNL     1      39.914  58.671   5.033  1.00  0.00     0.022 A 
ATOM     13  C   UNL     1      39.892  57.298   4.780  1.00  0.00     0.051 A 
ATOM     14  C   UNL     1      40.560  56.410   5.633  1.00  0.00     0.157 A 
ATOM     15  C   UNL     1      41.267  58.283   7.004  1.00  0.00     0.068 A 
ATOM     16  C   UNL     1      41.249  56.906   6.752  1.00  0.00     0.158 A 
BRANCH  14  17
ATOM     17  O   UNL     1      40.539  55.040   5.375  1.00  0.00    -0.504 OA
ATOM     18  H   UNL     1      40.761  54.361   6.092  1.00  0.00     0.293 HD
ENDBRANCH  14  17
BRANCH  16  19
ATOM     19  O   UNL     1      41.918  56.049   7.624  1.00  0.00    -0.504 OA
ATOM     20  H   UNL     1      42.894  56.181   7.866  1.00  0.00     0.293 HD
ENDBRANCH  16  19
ENDBRANCH   1  11
BRANCH  10  21
ATOM     21  O   UNL     1      38.697  60.466   7.916  1.00  0.00    -0.500 OA
ATOM     22  H   UNL     1      37.794  60.867   8.138  1.00  0.00     0.294 HD
ENDBRANCH  10  21
BRANCH   5  23
ATOM     23  O   UNL     1      43.802  65.468   4.890  1.00  0.00    -0.507 OA
ATOM     24  H   UNL     1      43.597  66.021   4.067  1.00  0.00     0.293 HD
ENDBRANCH   5  23
BRANCH   7  25
ATOM     25  O   UNL     1      40.125  65.500   8.000  1.00  0.00    -0.507 OA
ATOM     26  H   UNL     1      39.398  66.132   7.697  1.00  0.00     0.293 HD
ENDBRANCH   7  25
TORSDOF 6
ENDMDL
MODEL 9
REMARK VINA RESULT:    -6.540     11.573     13.943
REMARK INTER + INTRA:          -8.207
REMARK INTER:                  -7.856
REMARK INTRA:                  -0.351
REMARK UNBOUND:                -0.329
REMARK SMILES Oc1cc(O)c2cc(O)c(-c3ccc(O)c(O)c3)[o+]c2c1.[Cl-]
REMARK SMILES IDX 10 1 19 2 20 3 21 4 2 5 3 6 4 7 6 8 7 9 8 10 11 11 12 12
REMARK SMILES IDX 13 13 14 14 18 15 16 16 15 17 17 19 9 21 1 23 5 25
REMARK H PARENT 15 18 17 20 9 22 1 24 5 26
REMARK Flexibility Score: inf
ROOT
ATOM      1  C   UNL     1      40.992  60.000   6.863  1.00  0.00     0.402 A 
ATOM      2  O   UNL     1      40.099  59.335   6.134  1.00  0.00    -0.202 OA
ATOM      3  C   UNL     1      40.257  58.068   5.765  1.00  0.00     0.368 A 
ATOM      4  C   UNL     1      39.261  57.453   5.002  1.00  0.00     0.162 A 
ATOM      5  C   UNL     1      39.399  56.124   4.603  1.00  0.00     0.128 A 
ATOM      6  C   UNL     1      40.540  55.400   4.968  1.00  0.00     0.093 A 
ATOM      7  C   UNL     1      41.552  55.994   5.733  1.00  0.00     0.136 A 
ATOM      8  C   UNL     1      41.417  57.347   6.138  1.00  0.00     0.125 A 
ATOM      9  C   UNL     1      42.386  58.027   6.894  1.00  0.00     0.078 A 
ATOM     10  C   UNL     1      42.185  59.364   7.253  1.00  0.00     0.223 A 
ENDROOT
BRANCH   1  11
ATOM     11  C   UNL     1      40.696  61.407   7.219  1.00  0.00     0.087 A 
ATOM     12  C   UNL     1      40.123  61.743   8.459  1.00  0.00     0.022 A 
ATOM     13  C   UNL     1      39.831  63.075   8.763  1.00  0.00     0.051 A 
ATOM     14  C   UNL     1      40.093  64.088   7.832  1.00  0.00     0.157 A 
ATOM     15  C   UNL     1      40.937  62.423   6.281  1.00  0.00     0.068 A 
ATOM     16  C   UNL     1      40.647  63.759   6.583  1.00  0.00     0.158 A 
BRANCH  14  17
ATOM     17  O   UNL     1      39.803  65.416   8.140  1.00  0.00    -0.504 OA
ATOM     18  H   UNL     1      40.469  66.159   7.969  1.00  0.00     0.293 HD
ENDBRANCH  14  17
BRANCH  16  19
ATOM     19  O   UNL     1      40.914  64.742   5.632  1.00  0.00    -0.504 OA
ATOM     20  H   UNL     1      41.762  65.296   5.653  1.00  0.00     0.293 HD
ENDBRANCH  16  19
ENDBRANCH   1  11
BRANCH  10  21
ATOM     21  O   UNL     1      43.169  60.053   7.961  1.00  0.00    -0.500 OA
ATOM     22  H   UNL     1      43.164  61.064   8.033  1.00  0.00     0.294 HD
ENDBRANCH  10  21
BRANCH   5  23
ATOM     23  O   UNL     1      38.395  55.527   3.842  1.00  0.00    -0.507 OA
ATOM     24  H   UNL     1      37.724  54.891   4.255  1.00  0.00     0.293 HD
ENDBRANCH   5  23
BRANCH   7  25
ATOM     25  O   UNL     1      42.659  55.205   6.060  1.00  0.00    -0.507 OA
ATOM     26  H   UNL     1      42.826  54.278   5.696  1.00  0.00     0.293 HD
ENDBRANCH   7  25
TORSDOF 6
ENDMDL
