MODEL 1
REMARK VINA RESULT:    -6.601      0.000      0.000
REMARK INTER + INTRA:          -8.077
REMARK INTER:                  -7.759
REMARK INTRA:                  -0.318
REMARK UNBOUND:                -0.318
REMARK SMILES O=c1cc(-c2ccc(O)c(O)c2)oc2cc(O)cc(O)c12
REMARK SMILES IDX 4 1 3 2 2 3 1 4 21 5 19 6 18 7 16 8 15 9 14 10 13 11 5 12
REMARK SMILES IDX 6 13 7 14 8 15 12 16 10 17 9 18 11 20 20 22 17 24
REMARK H PARENT 9 19 11 21 20 23 17 25
REMARK Flexibility Score: inf
ROOT
ATOM      1  C   UNL     1      -0.705 -12.956 -36.304  1.00  0.00     0.138 A 
ATOM      2  C   UNL     1      -0.388 -11.664 -35.851  1.00  0.00     0.100 A 
ATOM      3  C   UNL     1       0.791 -11.458 -35.134  1.00  0.00     0.197 A 
ATOM      4  O   UNL     1       1.066 -10.296 -34.733  1.00  0.00    -0.289 OA
ATOM      5  C   UNL     1       1.648 -12.546 -34.877  1.00  0.00     0.107 A 
ATOM      6  C   UNL     1       2.861 -12.425 -34.158  1.00  0.00     0.134 A 
ATOM      7  C   UNL     1       3.662 -13.557 -33.950  1.00  0.00     0.093 A 
ATOM      8  C   UNL     1       3.275 -14.804 -34.445  1.00  0.00     0.123 A 
ATOM      9  C   UNL     1       2.078 -14.931 -35.157  1.00  0.00     0.094 A 
ATOM     10  C   UNL     1       1.265 -13.814 -35.375  1.00  0.00     0.146 A 
ATOM     11  O   UNL     1       0.131 -13.960 -36.053  1.00  0.00    -0.456 OA
ENDROOT
BRANCH   1  12
ATOM     12  C   UNL     1      -1.945 -13.234 -37.072  1.00  0.00     0.021 A 
ATOM     13  C   UNL     1      -2.766 -12.164 -37.470  1.00  0.00     0.016 A 
ATOM     14  C   UNL     1      -3.934 -12.398 -38.199  1.00  0.00     0.051 A 
ATOM     15  C   UNL     1      -4.297 -13.703 -38.555  1.00  0.00     0.157 A 
ATOM     16  C   UNL     1      -2.309 -14.543 -37.445  1.00  0.00     0.062 A 
ATOM     17  C   UNL     1      -3.478 -14.779 -38.177  1.00  0.00     0.158 A 
BRANCH  15  18
ATOM     18  O   UNL     1      -5.464 -13.933 -39.282  1.00  0.00    -0.504 OA
ATOM     19  H   UNL     1      -6.181 -13.223 -39.372  1.00  0.00     0.293 HD
ENDBRANCH  15  18
BRANCH  17  20
ATOM     20  O   UNL     1      -3.805 -16.089 -38.525  1.00  0.00    -0.504 OA
ATOM     21  H   UNL     1      -4.323 -16.309 -39.368  1.00  0.00     0.293 HD
ENDBRANCH  17  20
ENDBRANCH   1  12
BRANCH   6  22
ATOM     22  O   UNL     1       3.273 -11.192 -33.650  1.00  0.00    -0.507 OA
ATOM     23  H   UNL     1       2.781 -10.334 -33.871  1.00  0.00     0.293 HD
ENDBRANCH   6  22
BRANCH   8  24
ATOM     24  O   UNL     1       4.090 -15.913 -34.225  1.00  0.00    -0.508 OA
ATOM     25  H   UNL     1       5.032 -15.815 -33.865  1.00  0.00     0.293 HD
ENDBRANCH   8  24
TORSDOF 5
ENDMDL
MODEL 2
REMARK VINA RESULT:    -6.362      1.074      2.735
REMARK INTER + INTRA:          -7.796
REMARK INTER:                  -7.500
REMARK INTRA:                  -0.296
REMARK UNBOUND:                -0.318
REMARK SMILES O=c1cc(-c2ccc(O)c(O)c2)oc2cc(O)cc(O)c12
REMARK SMILES IDX 4 1 3 2 2 3 1 4 21 5 19 6 18 7 16 8 15 9 14 10 13 11 5 12
REMARK SMILES IDX 6 13 7 14 8 15 12 16 10 17 9 18 11 20 20 22 17 24
REMARK H PARENT 9 19 11 21 20 23 17 25
REMARK Flexibility Score: inf
ROOT
ATOM      1  C   UNL     1      -0.262 -14.361 -36.493  1.00  0.00     0.138 A 
ATOM      2  C   UNL     1       0.484 -15.551 -36.515  1.00  0.00     0.100 A 
ATOM      3  C   UNL     1       1.715 -15.601 -35.862  1.00  0.00     0.197 A 
ATOM      4  O   UNL     1       2.377 -16.674 -35.888  1.00  0.00    -0.289 OA
ATOM      5  C   UNL     1       2.193 -14.460 -35.188  1.00  0.00     0.107 A 
ATOM      6  C   UNL     1       3.431 -14.425 -34.503  1.00  0.00     0.134 A 
ATOM      7  C   UNL     1       3.831 -13.250 -33.850  1.00  0.00     0.093 A 
ATOM      8  C   UNL     1       3.021 -12.113 -33.870  1.00  0.00     0.123 A 
ATOM      9  C   UNL     1       1.796 -12.141 -34.545  1.00  0.00     0.094 A 
ATOM     10  C   UNL     1       1.379 -13.302 -35.202  1.00  0.00     0.146 A 
ATOM     11  O   UNL     1       0.212 -13.304 -35.838  1.00  0.00    -0.456 OA
ENDROOT
BRANCH   1  12
ATOM     12  C   UNL     1      -1.579 -14.250 -37.169  1.00  0.00     0.021 A 
ATOM     13  C   UNL     1      -2.206 -12.994 -37.261  1.00  0.00     0.016 A 
ATOM     14  C   UNL     1      -3.442 -12.861 -37.897  1.00  0.00     0.051 A 
ATOM     15  C   UNL     1      -4.069 -13.978 -38.464  1.00  0.00     0.157 A 
ATOM     16  C   UNL     1      -2.210 -15.366 -37.753  1.00  0.00     0.062 A 
ATOM     17  C   UNL     1      -3.448 -15.235 -38.393  1.00  0.00     0.158 A 
BRANCH  15  18
ATOM     18  O   UNL     1      -5.304 -13.842 -39.098  1.00  0.00    -0.504 OA
ATOM     19  H   UNL     1      -5.976 -14.600 -39.118  1.00  0.00     0.293 HD
ENDBRANCH  15  18
BRANCH  17  20
ATOM     20  O   UNL     1      -4.041 -16.364 -38.957  1.00  0.00    -0.504 OA
ATOM     21  H   UNL     1      -5.000 -16.624 -38.758  1.00  0.00     0.293 HD
ENDBRANCH  17  20
ENDBRANCH   1  12
BRANCH   6  22
ATOM     22  O   UNL     1       4.262 -15.546 -34.467  1.00  0.00    -0.507 OA
ATOM     23  H   UNL     1       5.207 -15.521 -34.832  1.00  0.00     0.293 HD
ENDBRANCH   6  22
BRANCH   8  24
ATOM     24  O   UNL     1       3.442 -10.958 -33.213  1.00  0.00    -0.508 OA
ATOM     25  H   UNL     1       3.427 -10.054 -33.668  1.00  0.00     0.293 HD
ENDBRANCH   8  24
TORSDOF 5
ENDMDL
MODEL 3
REMARK VINA RESULT:    -6.339      1.868      7.504
REMARK INTER + INTRA:          -7.769
REMARK INTER:                  -7.456
REMARK INTRA:                  -0.313
REMARK UNBOUND:                -0.318
REMARK SMILES O=c1cc(-c2ccc(O)c(O)c2)oc2cc(O)cc(O)c12
REMARK SMILES IDX 4 1 3 2 2 3 1 4 21 5 19 6 18 7 16 8 15 9 14 10 13 11 5 12
REMARK SMILES IDX 6 13 7 14 8 15 12 16 10 17 9 18 11 20 20 22 17 24
REMARK H PARENT 9 19 11 21 20 23 17 25
REMARK Flexibility Score: inf
ROOT
ATOM      1  C   UNL     1       1.376 -14.465 -35.318  1.00  0.00     0.138 A 
ATOM      2  C   UNL     1       0.824 -15.752 -35.435  1.00  0.00     0.100 A 
ATOM      3  C   UNL     1      -0.442 -15.906 -35.999  1.00  0.00     0.197 A 
ATOM      4  O   UNL     1      -0.929 -17.065 -36.100  1.00  0.00    -0.289 OA
ATOM      5  C   UNL     1      -1.148 -14.772 -36.446  1.00  0.00     0.107 A 
ATOM      6  C   UNL     1      -2.437 -14.841 -37.028  1.00  0.00     0.134 A 
ATOM      7  C   UNL     1      -3.071 -13.664 -37.454  1.00  0.00     0.093 A 
ATOM      8  C   UNL     1      -2.444 -12.424 -37.309  1.00  0.00     0.123 A 
ATOM      9  C   UNL     1      -1.170 -12.350 -36.734  1.00  0.00     0.094 A 
ATOM     10  C   UNL     1      -0.521 -13.512 -36.304  1.00  0.00     0.146 A 
ATOM     11  O   UNL     1       0.687 -13.415 -35.759  1.00  0.00    -0.456 OA
ENDROOT
BRANCH   1  12
ATOM     12  C   UNL     1       2.719 -14.240 -34.727  1.00  0.00     0.021 A 
ATOM     13  C   UNL     1       3.290 -15.232 -33.910  1.00  0.00     0.016 A 
ATOM     14  C   UNL     1       4.555 -15.049 -33.349  1.00  0.00     0.051 A 
ATOM     15  C   UNL     1       5.279 -13.876 -33.601  1.00  0.00     0.157 A 
ATOM     16  C   UNL     1       3.457 -13.069 -34.988  1.00  0.00     0.062 A 
ATOM     17  C   UNL     1       4.727 -12.884 -34.427  1.00  0.00     0.158 A 
BRANCH  15  18
ATOM     18  O   UNL     1       6.541 -13.695 -33.037  1.00  0.00    -0.504 OA
ATOM     19  H   UNL     1       7.296 -14.349 -33.206  1.00  0.00     0.293 HD
ENDBRANCH  15  18
BRANCH  17  20
ATOM     20  O   UNL     1       5.425 -11.709 -34.707  1.00  0.00    -0.504 OA
ATOM     21  H   UNL     1       6.434 -11.691 -34.792  1.00  0.00     0.293 HD
ENDBRANCH  17  20
ENDBRANCH   1  12
BRANCH   6  22
ATOM     22  O   UNL     1      -3.089 -16.065 -37.186  1.00  0.00    -0.507 OA
ATOM     23  H   UNL     1      -3.802 -16.375 -36.537  1.00  0.00     0.293 HD
ENDBRANCH   6  22
BRANCH   8  24
ATOM     24  O   UNL     1      -3.095 -11.271 -37.741  1.00  0.00    -0.508 OA
ATOM     25  H   UNL     1      -2.924 -10.878 -38.659  1.00  0.00     0.293 HD
ENDBRANCH   8  24
TORSDOF 5
ENDMDL
MODEL 4
REMARK VINA RESULT:    -6.290      1.451      6.936
REMARK INTER + INTRA:          -7.711
REMARK INTER:                  -7.425
REMARK INTRA:                  -0.286
REMARK UNBOUND:                -0.318
REMARK SMILES O=c1cc(-c2ccc(O)c(O)c2)oc2cc(O)cc(O)c12
REMARK SMILES IDX 4 1 3 2 2 3 1 4 21 5 19 6 18 7 16 8 15 9 14 10 13 11 5 12
REMARK SMILES IDX 6 13 7 14 8 15 12 16 10 17 9 18 11 20 20 22 17 24
REMARK H PARENT 9 19 11 21 20 23 17 25
REMARK Flexibility Score: inf
ROOT
ATOM      1  C   UNL     1       0.737 -13.289 -35.547  1.00  0.00     0.138 A 
ATOM      2  C   UNL     1       0.179 -12.002 -35.493  1.00  0.00     0.100 A 
ATOM      3  C   UNL     1      -1.064 -11.768 -36.082  1.00  0.00     0.197 A 
ATOM      4  O   UNL     1      -1.558 -10.609 -36.028  1.00  0.00    -0.289 OA
ATOM      5  C   UNL     1      -1.742 -12.826 -36.719  1.00  0.00     0.107 A 
ATOM      6  C   UNL     1      -3.004 -12.674 -37.342  1.00  0.00     0.134 A 
ATOM      7  C   UNL     1      -3.616 -13.780 -37.950  1.00  0.00     0.093 A 
ATOM      8  C   UNL     1      -2.993 -15.030 -37.949  1.00  0.00     0.123 A 
ATOM      9  C   UNL     1      -1.745 -15.186 -37.335  1.00  0.00     0.094 A 
ATOM     10  C   UNL     1      -1.118 -14.096 -36.723  1.00  0.00     0.146 A 
ATOM     11  O   UNL     1       0.067 -14.269 -36.148  1.00  0.00    -0.456 OA
ENDROOT
BRANCH   1  12
ATOM     12  C   UNL     1       2.056 -13.597 -34.937  1.00  0.00     0.021 A 
ATOM     13  C   UNL     1       2.278 -14.867 -34.374  1.00  0.00     0.016 A 
ATOM     14  C   UNL     1       3.511 -15.183 -33.800  1.00  0.00     0.051 A 
ATOM     15  C   UNL     1       4.549 -14.242 -33.788  1.00  0.00     0.157 A 
ATOM     16  C   UNL     1       3.107 -12.659 -34.932  1.00  0.00     0.062 A 
ATOM     17  C   UNL     1       4.345 -12.976 -34.358  1.00  0.00     0.158 A 
BRANCH  15  18
ATOM     18  O   UNL     1       5.778 -14.561 -33.212  1.00  0.00    -0.504 OA
ATOM     19  H   UNL     1       6.133 -14.059 -32.407  1.00  0.00     0.293 HD
ENDBRANCH  15  18
BRANCH  17  20
ATOM     20  O   UNL     1       5.361 -12.020 -34.372  1.00  0.00    -0.504 OA
ATOM     21  H   UNL     1       5.573 -11.472 -35.197  1.00  0.00     0.293 HD
ENDBRANCH  17  20
ENDBRANCH   1  12
BRANCH   6  22
ATOM     22  O   UNL     1      -3.651 -11.438 -37.360  1.00  0.00    -0.507 OA
ATOM     23  H   UNL     1      -3.147 -10.576 -37.534  1.00  0.00     0.293 HD
ENDBRANCH   6  22
BRANCH   8  24
ATOM     24  O   UNL     1      -3.623 -16.112 -38.560  1.00  0.00    -0.508 OA
ATOM     25  H   UNL     1      -4.160 -16.784 -38.024  1.00  0.00     0.293 HD
ENDBRANCH   8  24
TORSDOF 5
ENDMDL
MODEL 5
REMARK VINA RESULT:    -6.192      1.417      7.278
REMARK INTER + INTRA:          -7.596
REMARK INTER:                  -7.305
REMARK INTRA:                  -0.290
REMARK UNBOUND:                -0.318
REMARK SMILES O=c1cc(-c2ccc(O)c(O)c2)oc2cc(O)cc(O)c12
REMARK SMILES IDX 4 1 3 2 2 3 1 4 21 5 19 6 18 7 16 8 15 9 14 10 13 11 5 12
REMARK SMILES IDX 6 13 7 14 8 15 12 16 10 17 9 18 11 20 20 22 17 24
REMARK H PARENT 9 19 11 21 20 23 17 25
REMARK Flexibility Score: inf
ROOT
ATOM      1  C   UNL     1      -0.551 -13.335 -36.343  1.00  0.00     0.138 A 
ATOM      2  C   UNL     1      -0.764 -14.723 -36.391  1.00  0.00     0.100 A 
ATOM      3  C   UNL     1      -1.792 -15.231 -37.186  1.00  0.00     0.197 A 
ATOM      4  O   UNL     1      -1.976 -16.478 -37.223  1.00  0.00    -0.289 OA
ATOM      5  C   UNL     1      -2.599 -14.348 -37.930  1.00  0.00     0.107 A 
ATOM      6  C   UNL     1      -3.663 -14.780 -38.758  1.00  0.00     0.134 A 
ATOM      7  C   UNL     1      -4.415 -13.836 -39.472  1.00  0.00     0.093 A 
ATOM      8  C   UNL     1      -4.127 -12.473 -39.373  1.00  0.00     0.123 A 
ATOM      9  C   UNL     1      -3.077 -12.039 -38.556  1.00  0.00     0.094 A 
ATOM     10  C   UNL     1      -2.315 -12.965 -37.836  1.00  0.00     0.146 A 
ATOM     11  O   UNL     1      -1.324 -12.528 -37.065  1.00  0.00    -0.456 OA
ENDROOT
BRANCH   1  12
ATOM     12  C   UNL     1       0.528 -12.738 -35.516  1.00  0.00     0.021 A 
ATOM     13  C   UNL     1       0.398 -11.414 -35.061  1.00  0.00     0.016 A 
ATOM     14  C   UNL     1       1.395 -10.831 -34.276  1.00  0.00     0.051 A 
ATOM     15  C   UNL     1       2.535 -11.563 -33.922  1.00  0.00     0.157 A 
ATOM     16  C   UNL     1       1.672 -13.472 -35.146  1.00  0.00     0.062 A 
ATOM     17  C   UNL     1       2.672 -12.890 -34.358  1.00  0.00     0.158 A 
BRANCH  15  18
ATOM     18  O   UNL     1       3.530 -10.977 -33.140  1.00  0.00    -0.504 OA
ATOM     19  H   UNL     1       4.043 -11.510 -32.448  1.00  0.00     0.293 HD
ENDBRANCH  15  18
BRANCH  17  20
ATOM     20  O   UNL     1       3.790 -13.650 -34.014  1.00  0.00    -0.504 OA
ATOM     21  H   UNL     1       4.329 -13.465 -33.177  1.00  0.00     0.293 HD
ENDBRANCH  17  20
ENDBRANCH   1  12
BRANCH   6  22
ATOM     22  O   UNL     1      -3.974 -16.135 -38.876  1.00  0.00    -0.507 OA
ATOM     23  H   UNL     1      -4.530 -16.616 -38.179  1.00  0.00     0.293 HD
ENDBRANCH   6  22
BRANCH   8  24
ATOM     24  O   UNL     1      -4.890 -11.556 -40.094  1.00  0.00    -0.508 OA
ATOM     25  H   UNL     1      -5.668 -11.851 -40.670  1.00  0.00     0.293 HD
ENDBRANCH   8  24
TORSDOF 5
ENDMDL
MODEL 6
REMARK VINA RESULT:    -6.092      2.745      4.318
REMARK INTER + INTRA:          -7.478
REMARK INTER:                  -7.160
REMARK INTRA:                  -0.318
REMARK UNBOUND:                -0.318
REMARK SMILES O=c1cc(-c2ccc(O)c(O)c2)oc2cc(O)cc(O)c12
REMARK SMILES IDX 4 1 3 2 2 3 1 4 21 5 19 6 18 7 16 8 15 9 14 10 13 11 5 12
REMARK SMILES IDX 6 13 7 14 8 15 12 16 10 17 9 18 11 20 20 22 17 24
REMARK H PARENT 9 19 11 21 20 23 17 25
REMARK Flexibility Score: inf
ROOT
ATOM      1  C   UNL     1       0.482 -12.443 -35.498  1.00  0.00     0.138 A 
ATOM      2  C   UNL     1       0.102 -13.787 -35.648  1.00  0.00     0.100 A 
ATOM      3  C   UNL     1       1.029 -14.795 -35.379  1.00  0.00     0.197 A 
ATOM      4  O   UNL     1       0.679 -15.999 -35.517  1.00  0.00    -0.289 OA
ATOM      5  C   UNL     1       2.328 -14.452 -34.958  1.00  0.00     0.107 A 
ATOM      6  C   UNL     1       3.328 -15.412 -34.666  1.00  0.00     0.134 A 
ATOM      7  C   UNL     1       4.597 -14.988 -34.246  1.00  0.00     0.093 A 
ATOM      8  C   UNL     1       4.886 -13.628 -34.113  1.00  0.00     0.123 A 
ATOM      9  C   UNL     1       3.902 -12.675 -34.400  1.00  0.00     0.094 A 
ATOM     10  C   UNL     1       2.631 -13.077 -34.820  1.00  0.00     0.146 A 
ATOM     11  O   UNL     1       1.714 -12.152 -35.088  1.00  0.00    -0.456 OA
ENDROOT
BRANCH   1  12
ATOM     12  C   UNL     1      -0.461 -11.328 -35.768  1.00  0.00     0.021 A 
ATOM     13  C   UNL     1      -1.814 -11.615 -36.024  1.00  0.00     0.016 A 
ATOM     14  C   UNL     1      -2.723 -10.584 -36.274  1.00  0.00     0.051 A 
ATOM     15  C   UNL     1      -2.301  -9.249 -36.262  1.00  0.00     0.157 A 
ATOM     16  C   UNL     1      -0.046  -9.983 -35.745  1.00  0.00     0.062 A 
ATOM     17  C   UNL     1      -0.956  -8.948 -35.994  1.00  0.00     0.158 A 
BRANCH  15  18
ATOM     18  O   UNL     1      -3.210  -8.223 -36.514  1.00  0.00    -0.504 OA
ATOM     19  H   UNL     1      -3.124  -7.316 -36.070  1.00  0.00     0.293 HD
ENDBRANCH  15  18
BRANCH  17  20
ATOM     20  O   UNL     1      -0.505  -7.629 -35.964  1.00  0.00    -0.504 OA
ATOM     21  H   UNL     1       0.381  -7.354 -36.370  1.00  0.00     0.293 HD
ENDBRANCH  17  20
ENDBRANCH   1  12
BRANCH   6  22
ATOM     22  O   UNL     1       3.068 -16.777 -34.791  1.00  0.00    -0.507 OA
ATOM     23  H   UNL     1       3.530 -17.463 -34.205  1.00  0.00     0.293 HD
ENDBRANCH   6  22
BRANCH   8  24
ATOM     24  O   UNL     1       6.154 -13.233 -33.693  1.00  0.00    -0.508 OA
ATOM     25  H   UNL     1       6.976 -13.790 -33.894  1.00  0.00     0.293 HD
ENDBRANCH   8  24
TORSDOF 5
ENDMDL
MODEL 7
REMARK VINA RESULT:    -6.047      1.725      2.145
REMARK INTER + INTRA:          -7.425
REMARK INTER:                  -7.112
REMARK INTRA:                  -0.313
REMARK UNBOUND:                -0.318
REMARK SMILES O=c1cc(-c2ccc(O)c(O)c2)oc2cc(O)cc(O)c12
REMARK SMILES IDX 4 1 3 2 2 3 1 4 21 5 19 6 18 7 16 8 15 9 14 10 13 11 5 12
REMARK SMILES IDX 6 13 7 14 8 15 12 16 10 17 9 18 11 20 20 22 17 24
REMARK H PARENT 9 19 11 21 20 23 17 25
REMARK Flexibility Score: inf
ROOT
ATOM      1  C   UNL     1       0.503 -13.968 -36.497  1.00  0.00     0.138 A 
ATOM      2  C   UNL     1       0.223 -12.867 -35.670  1.00  0.00     0.100 A 
ATOM      3  C   UNL     1       1.256 -12.278 -34.940  1.00  0.00     0.197 A 
ATOM      4  O   UNL     1       0.995 -11.290 -34.201  1.00  0.00    -0.289 OA
ATOM      5  C   UNL     1       2.563 -12.793 -35.044  1.00  0.00     0.107 A 
ATOM      6  C   UNL     1       3.666 -12.256 -34.337  1.00  0.00     0.134 A 
ATOM      7  C   UNL     1       4.939 -12.822 -34.500  1.00  0.00     0.093 A 
ATOM      8  C   UNL     1       5.129 -13.912 -35.353  1.00  0.00     0.123 A 
ATOM      9  C   UNL     1       4.043 -14.447 -36.054  1.00  0.00     0.094 A 
ATOM     10  C   UNL     1       2.767 -13.897 -35.905  1.00  0.00     0.146 A 
ATOM     11  O   UNL     1       1.751 -14.424 -36.581  1.00  0.00    -0.456 OA
ENDROOT
BRANCH   1  12
ATOM     12  C   UNL     1      -0.555 -14.634 -37.298  1.00  0.00     0.021 A 
ATOM     13  C   UNL     1      -1.906 -14.430 -36.965  1.00  0.00     0.016 A 
ATOM     14  C   UNL     1      -2.921 -15.039 -37.706  1.00  0.00     0.051 A 
ATOM     15  C   UNL     1      -2.605 -15.854 -38.801  1.00  0.00     0.157 A 
ATOM     16  C   UNL     1      -0.246 -15.444 -38.408  1.00  0.00     0.062 A 
ATOM     17  C   UNL     1      -1.261 -16.055 -39.154  1.00  0.00     0.158 A 
BRANCH  15  18
ATOM     18  O   UNL     1      -3.621 -16.462 -39.538  1.00  0.00    -0.504 OA
ATOM     19  H   UNL     1      -4.034 -17.340 -39.248  1.00  0.00     0.293 HD
ENDBRANCH  15  18
BRANCH  17  20
ATOM     20  O   UNL     1      -0.914 -16.851 -40.245  1.00  0.00    -0.504 OA
ATOM     21  H   UNL     1      -0.593 -16.455 -41.120  1.00  0.00     0.293 HD
ENDBRANCH  17  20
ENDBRANCH   1  12
BRANCH   6  22
ATOM     22  O   UNL     1       3.506 -11.168 -33.478  1.00  0.00    -0.507 OA
ATOM     23  H   UNL     1       3.951 -11.138 -32.568  1.00  0.00     0.293 HD
ENDBRANCH   6  22
BRANCH   8  24
ATOM     24  O   UNL     1       6.404 -14.455 -35.498  1.00  0.00    -0.508 OA
ATOM     25  H   UNL     1       6.541 -15.416 -35.787  1.00  0.00     0.293 HD
ENDBRANCH   8  24
TORSDOF 5
ENDMDL
MODEL 8
REMARK VINA RESULT:    -6.028      4.510      7.361
REMARK INTER + INTRA:          -7.403
REMARK INTER:                  -7.122
REMARK INTRA:                  -0.281
REMARK UNBOUND:                -0.318
REMARK SMILES O=c1cc(-c2ccc(O)c(O)c2)oc2cc(O)cc(O)c12
REMARK SMILES IDX 4 1 3 2 2 3 1 4 21 5 19 6 18 7 16 8 15 9 14 10 13 11 5 12
REMARK SMILES IDX 6 13 7 14 8 15 12 16 10 17 9 18 11 20 20 22 17 24
REMARK H PARENT 9 19 11 21 20 23 17 25
REMARK Flexibility Score: inf
ROOT
ATOM      1  C   UNL     1      -4.255 -11.543 -40.509  1.00  0.00     0.138 A 
ATOM      2  C   UNL     1      -4.263 -12.647 -41.378  1.00  0.00     0.100 A 
ATOM      3  C   UNL     1      -3.962 -13.914 -40.878  1.00  0.00     0.197 A 
ATOM      4  O   UNL     1      -3.972 -14.899 -41.665  1.00  0.00    -0.289 OA
ATOM      5  C   UNL     1      -3.656 -14.069 -39.512  1.00  0.00     0.107 A 
ATOM      6  C   UNL     1      -3.338 -15.318 -38.925  1.00  0.00     0.134 A 
ATOM      7  C   UNL     1      -3.052 -15.389 -37.554  1.00  0.00     0.093 A 
ATOM      8  C   UNL     1      -3.077 -14.240 -36.761  1.00  0.00     0.123 A 
ATOM      9  C   UNL     1      -3.391 -13.003 -37.334  1.00  0.00     0.094 A 
ATOM     10  C   UNL     1      -3.680 -12.911 -38.699  1.00  0.00     0.146 A 
ATOM     11  O   UNL     1      -3.973 -11.725 -39.222  1.00  0.00    -0.456 OA
ENDROOT
BRANCH   1  12
ATOM     12  C   UNL     1      -4.570 -10.171 -40.984  1.00  0.00     0.021 A 
ATOM     13  C   UNL     1      -5.810  -9.919 -41.597  1.00  0.00     0.016 A 
ATOM     14  C   UNL     1      -6.133  -8.637 -42.046  1.00  0.00     0.051 A 
ATOM     15  C   UNL     1      -5.229  -7.581 -41.880  1.00  0.00     0.157 A 
ATOM     16  C   UNL     1      -3.670  -9.102 -40.809  1.00  0.00     0.062 A 
ATOM     17  C   UNL     1      -3.993  -7.815 -41.257  1.00  0.00     0.158 A 
BRANCH  15  18
ATOM     18  O   UNL     1      -5.554  -6.302 -42.331  1.00  0.00    -0.504 OA
ATOM     19  H   UNL     1      -5.083  -5.883 -43.125  1.00  0.00     0.293 HD
ENDBRANCH  15  18
BRANCH  17  20
ATOM     20  O   UNL     1      -3.075  -6.782 -41.067  1.00  0.00    -0.504 OA
ATOM     21  H   UNL     1      -2.594  -6.645 -40.187  1.00  0.00     0.293 HD
ENDBRANCH  17  20
ENDBRANCH   1  12
BRANCH   6  22
ATOM     22  O   UNL     1      -3.305 -16.483 -39.693  1.00  0.00    -0.507 OA
ATOM     23  H   UNL     1      -2.481 -16.750 -40.221  1.00  0.00     0.293 HD
ENDBRANCH   6  22
BRANCH   8  24
ATOM     24  O   UNL     1      -2.790 -14.338 -35.401  1.00  0.00    -0.508 OA
ATOM     25  H   UNL     1      -1.838 -14.421 -35.065  1.00  0.00     0.293 HD
ENDBRANCH   8  24
TORSDOF 5
ENDMDL
MODEL 9
REMARK VINA RESULT:    -5.907      4.127      6.376
REMARK INTER + INTRA:          -7.261
REMARK INTER:                  -6.961
REMARK INTRA:                  -0.301
REMARK UNBOUND:                -0.318
REMARK SMILES O=c1cc(-c2ccc(O)c(O)c2)oc2cc(O)cc(O)c12
REMARK SMILES IDX 4 1 3 2 2 3 1 4 21 5 19 6 18 7 16 8 15 9 14 10 13 11 5 12
REMARK SMILES IDX 6 13 7 14 8 15 12 16 10 17 9 18 11 20 20 22 17 24
REMARK H PARENT 9 19 11 21 20 23 17 25
REMARK Flexibility Score: inf
ROOT
ATOM      1  C   UNL     1      -2.358 -10.498 -37.932  1.00  0.00     0.138 A 
ATOM      2  C   UNL     1      -1.791 -10.051 -36.726  1.00  0.00     0.100 A 
ATOM      3  C   UNL     1      -1.364  -8.728 -36.619  1.00  0.00     0.197 A 
ATOM      4  O   UNL     1      -0.857  -8.336 -35.533  1.00  0.00    -0.289 OA
ATOM      5  C   UNL     1      -1.509  -7.858 -37.717  1.00  0.00     0.107 A 
ATOM      6  C   UNL     1      -1.100  -6.502 -37.692  1.00  0.00     0.134 A 
ATOM      7  C   UNL     1      -1.286  -5.700 -38.826  1.00  0.00     0.093 A 
ATOM      8  C   UNL     1      -1.868  -6.224 -39.983  1.00  0.00     0.123 A 
ATOM      9  C   UNL     1      -2.274  -7.562 -40.014  1.00  0.00     0.094 A 
ATOM     10  C   UNL     1      -2.098  -8.379 -38.893  1.00  0.00     0.146 A 
ATOM     11  O   UNL     1      -2.490  -9.648 -38.947  1.00  0.00    -0.456 OA
ENDROOT
BRANCH   1  12
ATOM     12  C   UNL     1      -2.832 -11.895 -38.104  1.00  0.00     0.021 A 
ATOM     13  C   UNL     1      -2.124 -12.945 -37.493  1.00  0.00     0.016 A 
ATOM     14  C   UNL     1      -2.552 -14.267 -37.633  1.00  0.00     0.051 A 
ATOM     15  C   UNL     1      -3.702 -14.563 -38.377  1.00  0.00     0.157 A 
ATOM     16  C   UNL     1      -3.994 -12.198 -38.839  1.00  0.00     0.062 A 
ATOM     17  C   UNL     1      -4.426 -13.522 -38.980  1.00  0.00     0.158 A 
BRANCH  15  18
ATOM     18  O   UNL     1      -4.126 -15.884 -38.516  1.00  0.00    -0.504 OA
ATOM     19  H   UNL     1      -3.962 -16.406 -39.368  1.00  0.00     0.293 HD
ENDBRANCH  15  18
BRANCH  17  20
ATOM     20  O   UNL     1      -5.581 -13.782 -39.717  1.00  0.00    -0.504 OA
ATOM     21  H   UNL     1      -6.504 -13.745 -39.302  1.00  0.00     0.293 HD
ENDBRANCH  17  20
ENDBRANCH   1  12
BRANCH   6  22
ATOM     22  O   UNL     1      -0.514  -5.951 -36.551  1.00  0.00    -0.507 OA
ATOM     23  H   UNL     1      -0.258  -4.972 -36.505  1.00  0.00     0.293 HD
ENDBRANCH   6  22
BRANCH   8  24
ATOM     24  O   UNL     1      -2.042  -5.404 -41.096  1.00  0.00    -0.508 OA
ATOM     25  H   UNL     1      -2.959  -5.234 -41.491  1.00  0.00     0.293 HD
ENDBRANCH   8  24
TORSDOF 5
ENDMDL
