MODEL 1
REMARK VINA RESULT:    -3.400      0.000      0.000
REMARK INTER + INTRA:          -5.540
REMARK INTER:                  -4.990
REMARK INTRA:                  -0.550
REMARK UNBOUND:                -0.550
REMARK SMILES O=C([O-])CCCCCCCC(=O)[O-]
REMARK SMILES IDX 7 1 6 2 5 3 4 4 2 5 1 6 3 7 8 8 9 9 10 10 11 11 12 12 13 13
REMARK H PARENT
REMARK Flexibility Score: inf
ROOT
ATOM      1  C   UNL     1     126.509  54.329  43.586  1.00  0.00     0.000 C 
ENDROOT
BRANCH   1   2
ATOM      2  C   UNL     1     125.904  55.529  42.847  1.00  0.00     0.000 C 
BRANCH   2   3
ATOM      3  C   UNL     1     124.541  55.909  43.437  1.00  0.00     0.006 C 
BRANCH   3   4
ATOM      4  C   UNL     1     124.697  56.538  44.824  1.00  0.00     0.053 C 
BRANCH   4   5
ATOM      5  C   UNL     1     124.613  58.028  44.736  1.00  0.00     0.041 C 
ATOM      6  O   UNL     1     123.625  58.638  45.223  1.00  0.00    -0.550 OA
ATOM      7  O   UNL     1     125.651  58.751  44.162  1.00  0.00    -0.550 OA
ENDBRANCH   4   5
ENDBRANCH   3   4
ENDBRANCH   2   3
ENDBRANCH   1   2
BRANCH   1   8
ATOM      8  C   UNL     1     125.746  53.040  43.259  1.00  0.00     0.000 C 
BRANCH   8   9
ATOM      9  C   UNL     1     125.335  52.304  44.544  1.00  0.00     0.006 C 
BRANCH   9  10
ATOM     10  C   UNL     1     126.160  52.752  45.759  1.00  0.00     0.053 C 
BRANCH  10  11
ATOM     11  C   UNL     1     126.537  51.594  46.632  1.00  0.00     0.041 C 
ATOM     12  O   UNL     1     125.698  50.687  46.877  1.00  0.00    -0.550 OA
ATOM     13  O   UNL     1     127.822  51.501  47.149  1.00  0.00    -0.550 OA
ENDBRANCH  10  11
ENDBRANCH   9  10
ENDBRANCH   8   9
ENDBRANCH   1   8
TORSDOF 8
ENDMDL
MODEL 2
REMARK VINA RESULT:    -3.393      0.493      6.038
REMARK INTER + INTRA:          -5.530
REMARK INTER:                  -4.973
REMARK INTRA:                  -0.557
REMARK UNBOUND:                -0.550
REMARK SMILES O=C([O-])CCCCCCCC(=O)[O-]
REMARK SMILES IDX 7 1 6 2 5 3 4 4 2 5 1 6 3 7 8 8 9 9 10 10 11 11 12 12 13 13
REMARK H PARENT
REMARK Flexibility Score: inf
ROOT
ATOM      1  C   UNL     1     126.470  54.162  43.372  1.00  0.00     0.000 C 
ENDROOT
BRANCH   1   2
ATOM      2  C   UNL     1     125.291  53.186  43.270  1.00  0.00     0.000 C 
BRANCH   2   3
ATOM      3  C   UNL     1     125.140  52.368  44.558  1.00  0.00     0.006 C 
BRANCH   3   4
ATOM      4  C   UNL     1     126.192  52.772  45.594  1.00  0.00     0.053 C 
BRANCH   4   5
ATOM      5  C   UNL     1     126.582  51.597  46.432  1.00  0.00     0.041 C 
ATOM      6  O   UNL     1     127.379  51.742  47.397  1.00  0.00    -0.550 OA
ATOM      7  O   UNL     1     126.027  50.348  46.182  1.00  0.00    -0.550 OA
ENDBRANCH   4   5
ENDBRANCH   3   4
ENDBRANCH   2   3
ENDBRANCH   1   2
BRANCH   1   8
ATOM      8  C   UNL     1     126.047  55.579  42.969  1.00  0.00     0.000 C 
BRANCH   8   9
ATOM      9  C   UNL     1     124.611  55.875  43.428  1.00  0.00     0.006 C 
BRANCH   9  10
ATOM     10  C   UNL     1     124.572  56.697  44.724  1.00  0.00     0.053 C 
BRANCH  10  11
ATOM     11  C   UNL     1     124.506  58.168  44.449  1.00  0.00     0.041 C 
ATOM     12  O   UNL     1     125.551  58.869  44.502  1.00  0.00    -0.550 OA
ATOM     13  O   UNL     1     123.298  58.758  44.103  1.00  0.00    -0.550 OA
ENDBRANCH  10  11
ENDBRANCH   9  10
ENDBRANCH   8   9
ENDBRANCH   1   8
TORSDOF 8
ENDMDL
MODEL 3
REMARK VINA RESULT:    -3.388     10.956     12.237
REMARK INTER + INTRA:          -5.522
REMARK INTER:                  -4.983
REMARK INTRA:                  -0.539
REMARK UNBOUND:                -0.550
REMARK SMILES O=C([O-])CCCCCCCC(=O)[O-]
REMARK SMILES IDX 7 1 6 2 5 3 4 4 2 5 1 6 3 7 8 8 9 9 10 10 11 11 12 12 13 13
REMARK H PARENT
REMARK Flexibility Score: inf
ROOT
ATOM      1  C   UNL     1     119.015  53.991  54.591  1.00  0.00     0.000 C 
ENDROOT
BRANCH   1   2
ATOM      2  C   UNL     1     119.211  52.564  54.064  1.00  0.00     0.000 C 
BRANCH   2   3
ATOM      3  C   UNL     1     117.889  51.787  54.075  1.00  0.00     0.006 C 
BRANCH   3   4
ATOM      4  C   UNL     1     116.700  52.725  54.296  1.00  0.00     0.053 C 
BRANCH   4   5
ATOM      5  C   UNL     1     115.769  52.676  53.127  1.00  0.00     0.041 C 
ATOM      6  O   UNL     1     115.257  51.583  52.769  1.00  0.00    -0.550 OA
ATOM      7  O   UNL     1     115.425  53.846  52.462  1.00  0.00    -0.550 OA
ENDBRANCH   4   5
ENDBRANCH   3   4
ENDBRANCH   2   3
ENDBRANCH   1   2
BRANCH   1   8
ATOM      8  C   UNL     1     119.654  54.160  55.974  1.00  0.00     0.000 C 
BRANCH   8   9
ATOM      9  C   UNL     1     120.885  53.253  56.125  1.00  0.00     0.006 C 
BRANCH   9  10
ATOM     10  C   UNL     1     122.199  54.013  55.896  1.00  0.00     0.053 C 
BRANCH  10  11
ATOM     11  C   UNL     1     122.795  53.703  54.557  1.00  0.00     0.041 C 
ATOM     12  O   UNL     1     122.956  52.506  54.198  1.00  0.00    -0.550 OA
ATOM     13  O   UNL     1     123.142  54.733  53.694  1.00  0.00    -0.550 OA
ENDBRANCH  10  11
ENDBRANCH   9  10
ENDBRANCH   8   9
ENDBRANCH   1   8
TORSDOF 8
ENDMDL
MODEL 4
REMARK VINA RESULT:    -3.371      1.926      4.908
REMARK INTER + INTRA:          -5.498
REMARK INTER:                  -4.644
REMARK INTRA:                  -0.854
REMARK UNBOUND:                -0.550
REMARK SMILES O=C([O-])CCCCCCCC(=O)[O-]
REMARK SMILES IDX 7 1 6 2 5 3 4 4 2 5 1 6 3 7 8 8 9 9 10 10 11 11 12 12 13 13
REMARK H PARENT
REMARK Flexibility Score: inf
ROOT
ATOM      1  C   UNL     1     125.376  53.289  43.259  1.00  0.00     0.000 C 
ENDROOT
BRANCH   1   2
ATOM      2  C   UNL     1     125.369  52.394  44.504  1.00  0.00     0.000 C 
BRANCH   2   3
ATOM      3  C   UNL     1     126.289  52.957  45.593  1.00  0.00     0.006 C 
BRANCH   3   4
ATOM      4  C   UNL     1     125.557  53.061  46.933  1.00  0.00     0.053 C 
BRANCH   4   5
ATOM      5  C   UNL     1     124.846  54.372  47.043  1.00  0.00     0.041 C 
ATOM      6  O   UNL     1     125.468  55.401  47.415  1.00  0.00    -0.550 OA
ATOM      7  O   UNL     1     123.507  54.469  46.686  1.00  0.00    -0.550 OA
ENDBRANCH   4   5
ENDBRANCH   3   4
ENDBRANCH   2   3
ENDBRANCH   1   2
BRANCH   1   8
ATOM      8  C   UNL     1     126.453  54.375  43.368  1.00  0.00     0.000 C 
BRANCH   8   9
ATOM      9  C   UNL     1     125.882  55.754  43.004  1.00  0.00     0.006 C 
BRANCH   9  10
ATOM     10  C   UNL     1     124.548  56.036  43.709  1.00  0.00     0.053 C 
BRANCH  10  11
ATOM     11  C   UNL     1     124.578  57.334  44.456  1.00  0.00     0.041 C 
ATOM     12  O   UNL     1     125.432  58.212  44.165  1.00  0.00    -0.550 OA
ATOM     13  O   UNL     1     123.642  57.586  45.450  1.00  0.00    -0.550 OA
ENDBRANCH  10  11
ENDBRANCH   9  10
ENDBRANCH   8   9
ENDBRANCH   1   8
TORSDOF 8
ENDMDL
MODEL 5
REMARK VINA RESULT:    -3.321     10.840     12.167
REMARK INTER + INTRA:          -5.424
REMARK INTER:                  -4.948
REMARK INTRA:                  -0.477
REMARK UNBOUND:                -0.550
REMARK SMILES O=C([O-])CCCCCCCC(=O)[O-]
REMARK SMILES IDX 7 1 6 2 5 3 4 4 2 5 1 6 3 7 8 8 9 9 10 10 11 11 12 12 13 13
REMARK H PARENT
REMARK Flexibility Score: inf
ROOT
ATOM      1  C   UNL     1     119.232  54.081  55.505  1.00  0.00     0.000 C 
ENDROOT
BRANCH   1   2
ATOM      2  C   UNL     1     120.520  53.405  55.990  1.00  0.00     0.000 C 
BRANCH   2   3
ATOM      3  C   UNL     1     121.748  54.271  55.682  1.00  0.00     0.006 C 
BRANCH   3   4
ATOM      4  C   UNL     1     122.662  53.588  54.662  1.00  0.00     0.053 C 
BRANCH   4   5
ATOM      5  C   UNL     1     122.739  54.392  53.404  1.00  0.00     0.041 C 
ATOM      6  O   UNL     1     121.961  54.146  52.445  1.00  0.00    -0.550 OA
ATOM      7  O   UNL     1     123.636  55.449  53.308  1.00  0.00    -0.550 OA
ENDBRANCH   4   5
ENDBRANCH   3   4
ENDBRANCH   2   3
ENDBRANCH   1   2
BRANCH   1   8
ATOM      8  C   UNL     1     118.870  53.622  54.088  1.00  0.00     0.000 C 
BRANCH   8   9
ATOM      9  C   UNL     1     118.119  52.283  54.119  1.00  0.00     0.006 C 
BRANCH   9  10
ATOM     10  C   UNL     1     116.677  52.437  54.622  1.00  0.00     0.053 C 
BRANCH  10  11
ATOM     11  C   UNL     1     115.699  52.527  53.490  1.00  0.00     0.041 C 
ATOM     12  O   UNL     1     115.155  53.627  53.210  1.00  0.00    -0.550 OA
ATOM     13  O   UNL     1     115.415  51.403  52.725  1.00  0.00    -0.550 OA
ENDBRANCH  10  11
ENDBRANCH   9  10
ENDBRANCH   8   9
ENDBRANCH   1   8
TORSDOF 8
ENDMDL
MODEL 6
REMARK VINA RESULT:    -3.301      2.049      5.665
REMARK INTER + INTRA:          -5.394
REMARK INTER:                  -4.672
REMARK INTRA:                  -0.722
REMARK UNBOUND:                -0.550
REMARK SMILES O=C([O-])CCCCCCCC(=O)[O-]
REMARK SMILES IDX 7 1 6 2 5 3 4 4 2 5 1 6 3 7 8 8 9 9 10 10 11 11 12 12 13 13
REMARK H PARENT
REMARK Flexibility Score: inf
ROOT
ATOM      1  C   UNL     1     126.634  54.057  43.655  1.00  0.00     0.000 C 
ENDROOT
BRANCH   1   2
ATOM      2  C   UNL     1     126.102  53.690  45.045  1.00  0.00     0.000 C 
BRANCH   2   3
ATOM      3  C   UNL     1     125.841  52.184  45.156  1.00  0.00     0.006 C 
BRANCH   3   4
ATOM      4  C   UNL     1     124.378  51.854  44.848  1.00  0.00     0.053 C 
BRANCH   4   5
ATOM      5  C   UNL     1     124.264  51.150  43.533  1.00  0.00     0.041 C 
ATOM      6  O   UNL     1     124.172  51.812  42.466  1.00  0.00    -0.550 OA
ATOM      7  O   UNL     1     124.312  49.763  43.480  1.00  0.00    -0.550 OA
ENDBRANCH   4   5
ENDBRANCH   3   4
ENDBRANCH   2   3
ENDBRANCH   1   2
BRANCH   1   8
ATOM      8  C   UNL     1     125.893  55.271  43.084  1.00  0.00     0.000 C 
BRANCH   8   9
ATOM      9  C   UNL     1     124.419  55.270  43.519  1.00  0.00     0.006 C 
BRANCH   9  10
ATOM     10  C   UNL     1     123.891  56.686  43.788  1.00  0.00     0.053 C 
BRANCH  10  11
ATOM     11  C   UNL     1     124.538  57.302  44.991  1.00  0.00     0.041 C 
ATOM     12  O   UNL     1     125.043  58.453  44.917  1.00  0.00    -0.550 OA
ATOM     13  O   UNL     1     124.555  56.619  46.199  1.00  0.00    -0.550 OA
ENDBRANCH  10  11
ENDBRANCH   9  10
ENDBRANCH   8   9
ENDBRANCH   1   8
TORSDOF 8
ENDMDL
MODEL 7
REMARK VINA RESULT:    -3.295     11.094     12.528
REMARK INTER + INTRA:          -5.386
REMARK INTER:                  -4.894
REMARK INTRA:                  -0.492
REMARK UNBOUND:                -0.550
REMARK SMILES O=C([O-])CCCCCCCC(=O)[O-]
REMARK SMILES IDX 7 1 6 2 5 3 4 4 2 5 1 6 3 7 8 8 9 9 10 10 11 11 12 12 13 13
REMARK H PARENT
REMARK Flexibility Score: inf
ROOT
ATOM      1  C   UNL     1     118.720  53.779  54.191  1.00  0.00     0.000 C 
ENDROOT
BRANCH   1   2
ATOM      2  C   UNL     1     119.221  54.098  55.605  1.00  0.00     0.000 C 
BRANCH   2   3
ATOM      3  C   UNL     1     120.497  53.311  55.928  1.00  0.00     0.006 C 
BRANCH   3   4
ATOM      4  C   UNL     1     121.743  54.176  55.724  1.00  0.00     0.053 C 
BRANCH   4   5
ATOM      5  C   UNL     1     122.464  53.773  54.478  1.00  0.00     0.041 C 
ATOM      6  O   UNL     1     123.254  54.575  53.914  1.00  0.00    -0.550 OA
ATOM      7  O   UNL     1     122.303  52.491  53.965  1.00  0.00    -0.550 OA
ENDBRANCH   4   5
ENDBRANCH   3   4
ENDBRANCH   2   3
ENDBRANCH   1   2
BRANCH   1   8
ATOM      8  C   UNL     1     118.143  52.361  54.118  1.00  0.00     0.000 C 
BRANCH   8   9
ATOM      9  C   UNL     1     116.694  52.331  54.627  1.00  0.00     0.006 C 
BRANCH   9  10
ATOM     10  C   UNL     1     115.737  53.099  53.705  1.00  0.00     0.053 C 
BRANCH  10  11
ATOM     11  C   UNL     1     115.511  52.376  52.412  1.00  0.00     0.041 C 
ATOM     12  O   UNL     1     115.206  51.155  52.415  1.00  0.00    -0.550 OA
ATOM     13  O   UNL     1     115.607  53.059  51.207  1.00  0.00    -0.550 OA
ENDBRANCH  10  11
ENDBRANCH   9  10
ENDBRANCH   8   9
ENDBRANCH   1   8
TORSDOF 8
ENDMDL
MODEL 8
REMARK VINA RESULT:    -3.258     11.364     12.404
REMARK INTER + INTRA:          -5.331
REMARK INTER:                  -4.870
REMARK INTRA:                  -0.461
REMARK UNBOUND:                -0.550
REMARK SMILES O=C([O-])CCCCCCCC(=O)[O-]
REMARK SMILES IDX 7 1 6 2 5 3 4 4 2 5 1 6 3 7 8 8 9 9 10 10 11 11 12 12 13 13
REMARK H PARENT
REMARK Flexibility Score: inf
ROOT
ATOM      1  C   UNL     1     118.356  52.986  53.557  1.00  0.00     0.000 C 
ENDROOT
BRANCH   1   2
ATOM      2  C   UNL     1     117.238  52.766  54.584  1.00  0.00     0.000 C 
BRANCH   2   3
ATOM      3  C   UNL     1     115.954  52.275  53.904  1.00  0.00     0.006 C 
BRANCH   3   4
ATOM      4  C   UNL     1     115.404  53.329  52.940  1.00  0.00     0.053 C 
BRANCH   4   5
ATOM      5  C   UNL     1     115.361  52.793  51.545  1.00  0.00     0.041 C 
ATOM      6  O   UNL     1     115.118  53.561  50.577  1.00  0.00    -0.550 OA
ATOM      7  O   UNL     1     115.640  51.453  51.306  1.00  0.00    -0.550 OA
ENDBRANCH   4   5
ENDBRANCH   3   4
ENDBRANCH   2   3
ENDBRANCH   1   2
BRANCH   1   8
ATOM      8  C   UNL     1     119.347  54.049  54.043  1.00  0.00     0.000 C 
BRANCH   8   9
ATOM      9  C   UNL     1     119.379  54.110  55.577  1.00  0.00     0.006 C 
BRANCH   9  10
ATOM     10  C   UNL     1     120.790  54.380  56.119  1.00  0.00     0.053 C 
BRANCH  10  11
ATOM     11  C   UNL     1     121.782  53.379  55.611  1.00  0.00     0.041 C 
ATOM     12  O   UNL     1     122.796  53.762  54.970  1.00  0.00    -0.550 OA
ATOM     13  O   UNL     1     121.603  52.027  55.873  1.00  0.00    -0.550 OA
ENDBRANCH  10  11
ENDBRANCH   9  10
ENDBRANCH   8   9
ENDBRANCH   1   8
TORSDOF 8
ENDMDL
MODEL 9
REMARK VINA RESULT:    -3.189     11.789     13.068
REMARK INTER + INTRA:          -5.231
REMARK INTER:                  -4.802
REMARK INTRA:                  -0.429
REMARK UNBOUND:                -0.550
REMARK SMILES O=C([O-])CCCCCCCC(=O)[O-]
REMARK SMILES IDX 7 1 6 2 5 3 4 4 2 5 1 6 3 7 8 8 9 9 10 10 11 11 12 12 13 13
REMARK H PARENT
REMARK Flexibility Score: inf
ROOT
ATOM      1  C   UNL     1     115.564  52.789  53.732  1.00  0.00     0.000 C 
ENDROOT
BRANCH   1   2
ATOM      2  C   UNL     1     116.673  52.586  54.772  1.00  0.00     0.000 C 
BRANCH   2   3
ATOM      3  C   UNL     1     118.043  52.969  54.199  1.00  0.00     0.006 C 
BRANCH   3   4
ATOM      4  C   UNL     1     118.809  53.877  55.165  1.00  0.00     0.053 C 
BRANCH   4   5
ATOM      5  C   UNL     1     120.223  53.415  55.309  1.00  0.00     0.041 C 
ATOM      6  O   UNL     1     120.571  52.290  54.864  1.00  0.00    -0.550 OA
ATOM      7  O   UNL     1     121.172  54.247  55.890  1.00  0.00    -0.550 OA
ENDBRANCH   4   5
ENDBRANCH   3   4
ENDBRANCH   2   3
ENDBRANCH   1   2
BRANCH   1   8
ATOM      8  C   UNL     1     115.528  51.629  52.732  1.00  0.00     0.000 C 
BRANCH   8   9
ATOM      9  C   UNL     1     115.721  52.135  51.294  1.00  0.00     0.006 C 
BRANCH   9  10
ATOM     10  C   UNL     1     115.658  53.666  51.204  1.00  0.00     0.053 C 
BRANCH  10  11
ATOM     11  C   UNL     1     114.834  54.122  50.039  1.00  0.00     0.041 C 
ATOM     12  O   UNL     1     114.426  55.311  49.980  1.00  0.00    -0.550 OA
ATOM     13  O   UNL     1     114.546  53.242  49.004  1.00  0.00    -0.550 OA
ENDBRANCH  10  11
ENDBRANCH   9  10
ENDBRANCH   8   9
ENDBRANCH   1   8
TORSDOF 8
ENDMDL
