MODEL 1
REMARK VINA RESULT:    -5.668      0.000      0.000
REMARK INTER + INTRA:         -19.062
REMARK INTER:                 -14.947
REMARK INTRA:                  -4.115
REMARK UNBOUND:                -4.115
REMARK SMILES CCCCCCCCCCCCCCCCCCCCCCCCCCCCCC(=O)[O-]
REMARK SMILES IDX 16 1 17 2 18 3 19 4 20 5 21 6 22 7 23 8 24 9 25 10 26 11
REMARK SMILES IDX 27 12 28 13 29 14 30 15 31 16 32 17 15 18 14 19 13 20 12 21
REMARK SMILES IDX 11 22 10 23 9 24 8 25 7 26 6 27 5 28 4 29 3 30 2 31 1 32
REMARK H PARENT
REMARK Flexibility Score: inf
ROOT
ATOM      1  C   UNL     1      -3.627 -32.116 -51.234  1.00  0.00     0.000 C 
ENDROOT
BRANCH   1   2
ATOM      2  C   UNL     1      -2.970 -33.503 -51.109  1.00  0.00     0.000 C 
BRANCH   2   3
ATOM      3  C   UNL     1      -1.580 -33.615 -51.761  1.00  0.00     0.000 C 
BRANCH   3   4
ATOM      4  C   UNL     1      -1.500 -32.884 -53.113  1.00  0.00     0.000 C 
BRANCH   4   5
ATOM      5  C   UNL     1      -0.427 -31.785 -53.124  1.00  0.00     0.000 C 
BRANCH   5   6
ATOM      6  C   UNL     1      -0.032 -31.329 -51.708  1.00  0.00     0.000 C 
BRANCH   6   7
ATOM      7  C   UNL     1      -0.194 -29.812 -51.506  1.00  0.00     0.000 C 
BRANCH   7   8
ATOM      8  C   UNL     1      -1.527 -29.231 -52.017  1.00  0.00     0.000 C 
BRANCH   8   9
ATOM      9  C   UNL     1      -1.399 -27.941 -52.853  1.00  0.00     0.000 C 
BRANCH   9  10
ATOM     10  C   UNL     1      -0.389 -26.914 -52.311  1.00  0.00     0.000 C 
BRANCH  10  11
ATOM     11  C   UNL     1      -0.431 -25.580 -53.073  1.00  0.00     0.000 C 
BRANCH  11  12
ATOM     12  C   UNL     1      -0.607 -25.809 -54.580  1.00  0.00     0.000 C 
BRANCH  12  13
ATOM     13  C   UNL     1      -1.710 -24.902 -55.145  1.00  0.00     0.006 C 
BRANCH  13  14
ATOM     14  C   UNL     1      -2.981 -24.924 -54.285  1.00  0.00     0.053 C 
BRANCH  14  15
ATOM     15  C   UNL     1      -3.868 -23.750 -54.566  1.00  0.00     0.041 C 
ATOM     16  O   UNL     1      -3.874 -23.217 -55.708  1.00  0.00    -0.550 OA
ATOM     17  O   UNL     1      -4.671 -23.227 -53.559  1.00  0.00    -0.550 OA
ENDBRANCH  14  15
ENDBRANCH  13  14
ENDBRANCH  12  13
ENDBRANCH  11  12
ENDBRANCH  10  11
ENDBRANCH   9  10
ENDBRANCH   8   9
ENDBRANCH   7   8
ENDBRANCH   6   7
ENDBRANCH   5   6
ENDBRANCH   4   5
ENDBRANCH   3   4
ENDBRANCH   2   3
ENDBRANCH   1   2
BRANCH   1  18
ATOM     18  C   UNL     1      -5.162 -32.193 -51.310  1.00  0.00     0.000 C 
BRANCH  18  19
ATOM     19  C   UNL     1      -5.730 -31.565 -52.595  1.00  0.00     0.000 C 
BRANCH  19  20
ATOM     20  C   UNL     1      -4.676 -31.149 -53.638  1.00  0.00     0.000 C 
BRANCH  20  21
ATOM     21  C   UNL     1      -4.496 -29.621 -53.773  1.00  0.00     0.000 C 
BRANCH  21  22
ATOM     22  C   UNL     1      -5.627 -28.974 -54.592  1.00  0.00     0.000 C 
BRANCH  22  23
ATOM     23  C   UNL     1      -5.890 -27.515 -54.188  1.00  0.00     0.000 C 
BRANCH  23  24
ATOM     24  C   UNL     1      -5.248 -27.149 -52.838  1.00  0.00    -0.000 C 
BRANCH  24  25
ATOM     25  C   UNL     1      -6.236 -27.282 -51.660  1.00  0.00    -0.000 C 
BRANCH  25  26
ATOM     26  C   UNL     1      -5.825 -28.344 -50.622  1.00  0.00    -0.000 C 
BRANCH  26  27
ATOM     27  C   UNL     1      -6.244 -28.034 -49.173  1.00  0.00    -0.000 C 
BRANCH  27  28
ATOM     28  C   UNL     1      -6.678 -29.256 -48.339  1.00  0.00    -0.000 C 
BRANCH  28  29
ATOM     29  C   UNL     1      -7.494 -30.277 -49.152  1.00  0.00    -0.000 C 
BRANCH  29  30
ATOM     30  C   UNL     1      -8.591 -30.964 -48.319  1.00  0.00    -0.000 C 
BRANCH  30  31
ATOM     31  C   UNL     1      -9.778 -30.061 -47.938  1.00  0.00    -0.003 C 
ATOM     32  C   UNL     1     -10.437 -30.462 -46.619  1.00  0.00     0.004 C 
ENDBRANCH  30  31
ENDBRANCH  29  30
ENDBRANCH  28  29
ENDBRANCH  27  28
ENDBRANCH  26  27
ENDBRANCH  25  26
ENDBRANCH  24  25
ENDBRANCH  23  24
ENDBRANCH  22  23
ENDBRANCH  21  22
ENDBRANCH  20  21
ENDBRANCH  19  20
ENDBRANCH  18  19
ENDBRANCH   1  18
TORSDOF 28
ENDMDL
MODEL 2
REMARK VINA RESULT:    -5.668      1.427      6.779
REMARK INTER + INTRA:         -19.061
REMARK INTER:                 -15.338
REMARK INTRA:                  -3.723
REMARK UNBOUND:                -4.115
REMARK SMILES CCCCCCCCCCCCCCCCCCCCCCCCCCCCCC(=O)[O-]
REMARK SMILES IDX 16 1 17 2 18 3 19 4 20 5 21 6 22 7 23 8 24 9 25 10 26 11
REMARK SMILES IDX 27 12 28 13 29 14 30 15 31 16 32 17 15 18 14 19 13 20 12 21
REMARK SMILES IDX 11 22 10 23 9 24 8 25 7 26 6 27 5 28 4 29 3 30 2 31 1 32
REMARK H PARENT
REMARK Flexibility Score: inf
ROOT
ATOM      1  C   UNL     1      -5.612 -32.236 -51.297  1.00  0.00     0.000 C 
ENDROOT
BRANCH   1   2
ATOM      2  C   UNL     1      -5.861 -31.513 -49.960  1.00  0.00     0.000 C 
BRANCH   2   3
ATOM      3  C   UNL     1      -7.345 -31.264 -49.634  1.00  0.00     0.000 C 
BRANCH   3   4
ATOM      4  C   UNL     1      -7.608 -29.834 -49.131  1.00  0.00     0.000 C 
BRANCH   4   5
ATOM      5  C   UNL     1      -6.312 -29.086 -48.783  1.00  0.00     0.000 C 
BRANCH   5   6
ATOM      6  C   UNL     1      -6.320 -27.627 -49.274  1.00  0.00     0.000 C 
BRANCH   6   7
ATOM      7  C   UNL     1      -6.256 -27.517 -50.808  1.00  0.00     0.000 C 
BRANCH   7   8
ATOM      8  C   UNL     1      -5.033 -28.198 -51.453  1.00  0.00     0.000 C 
BRANCH   8   9
ATOM      9  C   UNL     1      -5.344 -29.052 -52.699  1.00  0.00     0.000 C 
BRANCH   9  10
ATOM     10  C   UNL     1      -4.575 -28.650 -53.970  1.00  0.00     0.000 C 
BRANCH  10  11
ATOM     11  C   UNL     1      -4.464 -27.127 -54.141  1.00  0.00     0.000 C 
BRANCH  11  12
ATOM     12  C   UNL     1      -5.666 -26.568 -54.914  1.00  0.00     0.000 C 
BRANCH  12  13
ATOM     13  C   UNL     1      -5.286 -25.277 -55.655  1.00  0.00     0.006 C 
BRANCH  13  14
ATOM     14  C   UNL     1      -4.231 -24.458 -54.898  1.00  0.00     0.053 C 
BRANCH  14  15
ATOM     15  C   UNL     1      -4.845 -23.327 -54.132  1.00  0.00     0.041 C 
ATOM     16  O   UNL     1      -4.577 -22.133 -54.437  1.00  0.00    -0.550 OA
ATOM     17  O   UNL     1      -5.693 -23.590 -53.062  1.00  0.00    -0.550 OA
ENDBRANCH  14  15
ENDBRANCH  13  14
ENDBRANCH  12  13
ENDBRANCH  11  12
ENDBRANCH  10  11
ENDBRANCH   9  10
ENDBRANCH   8   9
ENDBRANCH   7   8
ENDBRANCH   6   7
ENDBRANCH   5   6
ENDBRANCH   4   5
ENDBRANCH   3   4
ENDBRANCH   2   3
ENDBRANCH   1   2
BRANCH   1  18
ATOM     18  C   UNL     1      -4.123 -32.549 -51.532  1.00  0.00     0.000 C 
BRANCH  18  19
ATOM     19  C   UNL     1      -3.634 -32.117 -52.925  1.00  0.00     0.000 C 
BRANCH  19  20
ATOM     20  C   UNL     1      -2.321 -32.777 -53.389  1.00  0.00     0.000 C 
BRANCH  20  21
ATOM     21  C   UNL     1      -1.243 -32.870 -52.289  1.00  0.00     0.000 C 
BRANCH  21  22
ATOM     22  C   UNL     1       0.057 -32.146 -52.686  1.00  0.00     0.000 C 
BRANCH  22  23
ATOM     23  C   UNL     1       0.440 -31.033 -51.700  1.00  0.00     0.000 C 
BRANCH  23  24
ATOM     24  C   UNL     1      -0.770 -30.187 -51.262  1.00  0.00    -0.000 C 
BRANCH  24  25
ATOM     25  C   UNL     1      -1.158 -29.126 -52.314  1.00  0.00    -0.000 C 
BRANCH  25  26
ATOM     26  C   UNL     1      -0.002 -28.729 -53.251  1.00  0.00    -0.000 C 
BRANCH  26  27
ATOM     27  C   UNL     1       0.062 -27.232 -53.608  1.00  0.00    -0.000 C 
BRANCH  27  28
ATOM     28  C   UNL     1      -0.830 -26.314 -52.750  1.00  0.00    -0.000 C 
BRANCH  28  29
ATOM     29  C   UNL     1      -0.020 -25.338 -51.877  1.00  0.00    -0.000 C 
BRANCH  29  30
ATOM     30  C   UNL     1       0.709 -24.263 -52.703  1.00  0.00    -0.000 C 
BRANCH  30  31
ATOM     31  C   UNL     1       2.124 -24.652 -53.168  1.00  0.00    -0.003 C 
ATOM     32  C   UNL     1       3.227 -24.054 -52.294  1.00  0.00     0.004 C 
ENDBRANCH  30  31
ENDBRANCH  29  30
ENDBRANCH  28  29
ENDBRANCH  27  28
ENDBRANCH  26  27
ENDBRANCH  25  26
ENDBRANCH  24  25
ENDBRANCH  23  24
ENDBRANCH  22  23
ENDBRANCH  21  22
ENDBRANCH  20  21
ENDBRANCH  19  20
ENDBRANCH  18  19
ENDBRANCH   1  18
TORSDOF 28
ENDMDL
MODEL 3
REMARK VINA RESULT:    -5.638      1.812      5.330
REMARK INTER + INTRA:         -18.983
REMARK INTER:                 -14.520
REMARK INTRA:                  -4.462
REMARK UNBOUND:                -4.115
REMARK SMILES CCCCCCCCCCCCCCCCCCCCCCCCCCCCCC(=O)[O-]
REMARK SMILES IDX 16 1 17 2 18 3 19 4 20 5 21 6 22 7 23 8 24 9 25 10 26 11
REMARK SMILES IDX 27 12 28 13 29 14 30 15 31 16 32 17 15 18 14 19 13 20 12 21
REMARK SMILES IDX 11 22 10 23 9 24 8 25 7 26 6 27 5 28 4 29 3 30 2 31 1 32
REMARK H PARENT
REMARK Flexibility Score: inf
ROOT
ATOM      1  C   UNL     1      -3.237 -29.098 -52.356  1.00  0.00     0.000 C 
ENDROOT
BRANCH   1   2
ATOM      2  C   UNL     1      -4.119 -29.465 -53.564  1.00  0.00     0.000 C 
BRANCH   2   3
ATOM      3  C   UNL     1      -5.505 -28.795 -53.572  1.00  0.00     0.000 C 
BRANCH   3   4
ATOM      4  C   UNL     1      -5.535 -27.487 -52.763  1.00  0.00     0.000 C 
BRANCH   4   5
ATOM      5  C   UNL     1      -5.324 -26.246 -53.644  1.00  0.00     0.000 C 
BRANCH   5   6
ATOM      6  C   UNL     1      -5.531 -26.541 -55.141  1.00  0.00     0.000 C 
BRANCH   6   7
ATOM      7  C   UNL     1      -5.209 -25.330 -56.035  1.00  0.00     0.000 C 
BRANCH   7   8
ATOM      8  C   UNL     1      -5.211 -23.972 -55.307  1.00  0.00     0.000 C 
BRANCH   8   9
ATOM      9  C   UNL     1      -3.852 -23.244 -55.279  1.00  0.00     0.000 C 
BRANCH   9  10
ATOM     10  C   UNL     1      -2.633 -24.134 -55.579  1.00  0.00     0.000 C 
BRANCH  10  11
ATOM     11  C   UNL     1      -2.060 -24.801 -54.319  1.00  0.00     0.000 C 
BRANCH  11  12
ATOM     12  C   UNL     1      -0.837 -25.665 -54.658  1.00  0.00     0.000 C 
BRANCH  12  13
ATOM     13  C   UNL     1       0.298 -25.425 -53.650  1.00  0.00     0.006 C 
BRANCH  13  14
ATOM     14  C   UNL     1      -0.228 -25.037 -52.261  1.00  0.00     0.053 C 
BRANCH  14  15
ATOM     15  C   UNL     1       0.262 -23.688 -51.834  1.00  0.00     0.041 C 
ATOM     16  O   UNL     1      -0.447 -22.664 -52.024  1.00  0.00    -0.550 OA
ATOM     17  O   UNL     1       1.516 -23.556 -51.248  1.00  0.00    -0.550 OA
ENDBRANCH  14  15
ENDBRANCH  13  14
ENDBRANCH  12  13
ENDBRANCH  11  12
ENDBRANCH  10  11
ENDBRANCH   9  10
ENDBRANCH   8   9
ENDBRANCH   7   8
ENDBRANCH   6   7
ENDBRANCH   5   6
ENDBRANCH   4   5
ENDBRANCH   3   4
ENDBRANCH   2   3
ENDBRANCH   1   2
BRANCH   1  18
ATOM     18  C   UNL     1      -1.847 -28.586 -52.772  1.00  0.00     0.000 C 
BRANCH  18  19
ATOM     19  C   UNL     1      -0.767 -28.860 -51.711  1.00  0.00     0.000 C 
BRANCH  19  20
ATOM     20  C   UNL     1      -0.726 -30.306 -51.180  1.00  0.00     0.000 C 
BRANCH  20  21
ATOM     21  C   UNL     1       0.401 -31.167 -51.790  1.00  0.00     0.000 C 
BRANCH  21  22
ATOM     22  C   UNL     1      -0.123 -32.509 -52.332  1.00  0.00     0.000 C 
BRANCH  22  23
ATOM     23  C   UNL     1      -1.066 -32.335 -53.532  1.00  0.00     0.000 C 
BRANCH  23  24
ATOM     24  C   UNL     1      -2.507 -32.780 -53.223  1.00  0.00    -0.000 C 
BRANCH  24  25
ATOM     25  C   UNL     1      -2.639 -33.417 -51.823  1.00  0.00    -0.000 C 
BRANCH  25  26
ATOM     26  C   UNL     1      -3.659 -32.708 -50.912  1.00  0.00    -0.000 C 
BRANCH  26  27
ATOM     27  C   UNL     1      -4.969 -32.287 -51.604  1.00  0.00    -0.000 C 
BRANCH  27  28
ATOM     28  C   UNL     1      -6.089 -31.813 -50.657  1.00  0.00    -0.000 C 
BRANCH  28  29
ATOM     29  C   UNL     1      -6.052 -30.296 -50.398  1.00  0.00    -0.000 C 
BRANCH  29  30
ATOM     30  C   UNL     1      -6.984 -29.863 -49.252  1.00  0.00    -0.000 C 
BRANCH  30  31
ATOM     31  C   UNL     1      -7.840 -30.993 -48.651  1.00  0.00    -0.003 C 
ATOM     32  C   UNL     1      -9.182 -30.503 -48.107  1.00  0.00     0.004 C 
ENDBRANCH  30  31
ENDBRANCH  29  30
ENDBRANCH  28  29
ENDBRANCH  27  28
ENDBRANCH  26  27
ENDBRANCH  25  26
ENDBRANCH  24  25
ENDBRANCH  23  24
ENDBRANCH  22  23
ENDBRANCH  21  22
ENDBRANCH  20  21
ENDBRANCH  19  20
ENDBRANCH  18  19
ENDBRANCH   1  18
TORSDOF 28
ENDMDL
MODEL 4
REMARK VINA RESULT:    -5.613      2.180      6.981
REMARK INTER + INTRA:         -18.917
REMARK INTER:                 -14.236
REMARK INTRA:                  -4.681
REMARK UNBOUND:                -4.115
REMARK SMILES CCCCCCCCCCCCCCCCCCCCCCCCCCCCCC(=O)[O-]
REMARK SMILES IDX 16 1 17 2 18 3 19 4 20 5 21 6 22 7 23 8 24 9 25 10 26 11
REMARK SMILES IDX 27 12 28 13 29 14 30 15 31 16 32 17 15 18 14 19 13 20 12 21
REMARK SMILES IDX 11 22 10 23 9 24 8 25 7 26 6 27 5 28 4 29 3 30 2 31 1 32
REMARK H PARENT
REMARK Flexibility Score: inf
ROOT
ATOM      1  C   UNL     1      -0.370 -28.992 -51.199  1.00  0.00     0.000 C 
ENDROOT
BRANCH   1   2
ATOM      2  C   UNL     1       0.067 -30.466 -51.281  1.00  0.00     0.000 C 
BRANCH   2   3
ATOM      3  C   UNL     1       0.484 -30.934 -52.688  1.00  0.00     0.000 C 
BRANCH   3   4
ATOM      4  C   UNL     1      -0.285 -32.185 -53.148  1.00  0.00     0.000 C 
BRANCH   4   5
ATOM      5  C   UNL     1      -0.673 -33.100 -51.976  1.00  0.00     0.000 C 
BRANCH   5   6
ATOM      6  C   UNL     1      -2.162 -33.489 -51.997  1.00  0.00     0.000 C 
BRANCH   6   7
ATOM      7  C   UNL     1      -3.095 -32.272 -51.875  1.00  0.00     0.000 C 
BRANCH   7   8
ATOM      8  C   UNL     1      -4.221 -32.213 -52.927  1.00  0.00     0.000 C 
BRANCH   8   9
ATOM      9  C   UNL     1      -5.621 -31.893 -52.366  1.00  0.00     0.000 C 
BRANCH   9  10
ATOM     10  C   UNL     1      -5.659 -31.564 -50.864  1.00  0.00     0.000 C 
BRANCH  10  11
ATOM     11  C   UNL     1      -6.985 -31.967 -50.200  1.00  0.00     0.000 C 
BRANCH  11  12
ATOM     12  C   UNL     1      -7.452 -30.898 -49.202  1.00  0.00     0.000 C 
BRANCH  12  13
ATOM     13  C   UNL     1      -6.890 -29.518 -49.576  1.00  0.00     0.006 C 
BRANCH  13  14
ATOM     14  C   UNL     1      -6.261 -28.799 -48.375  1.00  0.00     0.053 C 
BRANCH  14  15
ATOM     15  C   UNL     1      -6.738 -27.385 -48.257  1.00  0.00     0.041 C 
ATOM     16  O   UNL     1      -7.175 -26.950 -47.158  1.00  0.00    -0.550 OA
ATOM     17  O   UNL     1      -6.724 -26.550 -49.369  1.00  0.00    -0.550 OA
ENDBRANCH  14  15
ENDBRANCH  13  14
ENDBRANCH  12  13
ENDBRANCH  11  12
ENDBRANCH  10  11
ENDBRANCH   9  10
ENDBRANCH   8   9
ENDBRANCH   7   8
ENDBRANCH   6   7
ENDBRANCH   5   6
ENDBRANCH   4   5
ENDBRANCH   3   4
ENDBRANCH   2   3
ENDBRANCH   1   2
BRANCH   1  18
ATOM     18  C   UNL     1      -0.356 -28.294 -52.571  1.00  0.00     0.000 C 
BRANCH  18  19
ATOM     19  C   UNL     1      -1.745 -27.790 -53.000  1.00  0.00     0.000 C 
BRANCH  19  20
ATOM     20  C   UNL     1      -2.873 -28.836 -52.914  1.00  0.00     0.000 C 
BRANCH  20  21
ATOM     21  C   UNL     1      -4.009 -28.455 -51.942  1.00  0.00     0.000 C 
BRANCH  21  22
ATOM     22  C   UNL     1      -5.323 -28.137 -52.679  1.00  0.00     0.000 C 
BRANCH  22  23
ATOM     23  C   UNL     1      -5.240 -28.426 -54.186  1.00  0.00     0.000 C 
BRANCH  23  24
ATOM     24  C   UNL     1      -5.455 -27.166 -55.044  1.00  0.00    -0.000 C 
BRANCH  24  25
ATOM     25  C   UNL     1      -5.862 -25.940 -54.198  1.00  0.00    -0.000 C 
BRANCH  25  26
ATOM     26  C   UNL     1      -4.805 -24.819 -54.179  1.00  0.00    -0.000 C 
BRANCH  26  27
ATOM     27  C   UNL     1      -3.498 -25.144 -54.926  1.00  0.00    -0.000 C 
BRANCH  27  28
ATOM     28  C   UNL     1      -2.365 -24.116 -54.742  1.00  0.00    -0.000 C 
BRANCH  28  29
ATOM     29  C   UNL     1      -1.018 -24.767 -54.379  1.00  0.00    -0.000 C 
BRANCH  29  30
ATOM     30  C   UNL     1       0.049 -23.739 -53.963  1.00  0.00    -0.000 C 
BRANCH  30  31
ATOM     31  C   UNL     1       0.112 -23.446 -52.453  1.00  0.00    -0.003 C 
ATOM     32  C   UNL     1       0.018 -24.706 -51.594  1.00  0.00     0.004 C 
ENDBRANCH  30  31
ENDBRANCH  29  30
ENDBRANCH  28  29
ENDBRANCH  27  28
ENDBRANCH  26  27
ENDBRANCH  25  26
ENDBRANCH  24  25
ENDBRANCH  23  24
ENDBRANCH  22  23
ENDBRANCH  21  22
ENDBRANCH  20  21
ENDBRANCH  19  20
ENDBRANCH  18  19
ENDBRANCH   1  18
TORSDOF 28
ENDMDL
MODEL 5
REMARK VINA RESULT:    -5.537      1.928      7.225
REMARK INTER + INTRA:         -18.716
REMARK INTER:                 -14.667
REMARK INTRA:                  -4.049
REMARK UNBOUND:                -4.115
REMARK SMILES CCCCCCCCCCCCCCCCCCCCCCCCCCCCCC(=O)[O-]
REMARK SMILES IDX 16 1 17 2 18 3 19 4 20 5 21 6 22 7 23 8 24 9 25 10 26 11
REMARK SMILES IDX 27 12 28 13 29 14 30 15 31 16 32 17 15 18 14 19 13 20 12 21
REMARK SMILES IDX 11 22 10 23 9 24 8 25 7 26 6 27 5 28 4 29 3 30 2 31 1 32
REMARK H PARENT
REMARK Flexibility Score: inf
ROOT
ATOM      1  C   UNL     1      -4.714 -32.382 -51.978  1.00  0.00     0.000 C 
ENDROOT
BRANCH   1   2
ATOM      2  C   UNL     1      -6.094 -32.088 -51.359  1.00  0.00     0.000 C 
BRANCH   2   3
ATOM      3  C   UNL     1      -6.046 -31.523 -49.927  1.00  0.00     0.000 C 
BRANCH   3   4
ATOM      4  C   UNL     1      -7.446 -31.220 -49.365  1.00  0.00     0.000 C 
BRANCH   4   5
ATOM      5  C   UNL     1      -7.617 -29.743 -48.978  1.00  0.00     0.000 C 
BRANCH   5   6
ATOM      6  C   UNL     1      -6.280 -28.982 -48.942  1.00  0.00     0.000 C 
BRANCH   6   7
ATOM      7  C   UNL     1      -6.291 -27.719 -49.821  1.00  0.00     0.000 C 
BRANCH   7   8
ATOM      8  C   UNL     1      -5.914 -27.955 -51.297  1.00  0.00     0.000 C 
BRANCH   8   9
ATOM      9  C   UNL     1      -4.533 -28.604 -51.521  1.00  0.00     0.000 C 
BRANCH   9  10
ATOM     10  C   UNL     1      -4.302 -29.166 -52.935  1.00  0.00     0.000 C 
BRANCH  10  11
ATOM     11  C   UNL     1      -5.547 -29.055 -53.829  1.00  0.00     0.000 C 
BRANCH  11  12
ATOM     12  C   UNL     1      -5.360 -27.979 -54.907  1.00  0.00     0.000 C 
BRANCH  12  13
ATOM     13  C   UNL     1      -6.301 -26.790 -54.662  1.00  0.00     0.006 C 
BRANCH  13  14
ATOM     14  C   UNL     1      -5.588 -25.440 -54.819  1.00  0.00     0.053 C 
BRANCH  14  15
ATOM     15  C   UNL     1      -5.973 -24.748 -56.090  1.00  0.00     0.041 C 
ATOM     16  O   UNL     1      -5.145 -24.010 -56.689  1.00  0.00    -0.550 OA
ATOM     17  O   UNL     1      -7.258 -24.896 -56.601  1.00  0.00    -0.550 OA
ENDBRANCH  14  15
ENDBRANCH  13  14
ENDBRANCH  12  13
ENDBRANCH  11  12
ENDBRANCH  10  11
ENDBRANCH   9  10
ENDBRANCH   8   9
ENDBRANCH   7   8
ENDBRANCH   6   7
ENDBRANCH   5   6
ENDBRANCH   4   5
ENDBRANCH   3   4
ENDBRANCH   2   3
ENDBRANCH   1   2
BRANCH   1  18
ATOM     18  C   UNL     1      -3.699 -32.898 -50.942  1.00  0.00     0.000 C 
BRANCH  18  19
ATOM     19  C   UNL     1      -2.284 -33.061 -51.522  1.00  0.00     0.000 C 
BRANCH  19  20
ATOM     20  C   UNL     1      -2.081 -32.461 -52.926  1.00  0.00     0.000 C 
BRANCH  20  21
ATOM     21  C   UNL     1      -1.153 -31.227 -52.953  1.00  0.00     0.000 C 
BRANCH  21  22
ATOM     22  C   UNL     1      -0.911 -30.652 -51.545  1.00  0.00     0.000 C 
BRANCH  22  23
ATOM     23  C   UNL     1      -0.630 -29.142 -51.564  1.00  0.00     0.000 C 
BRANCH  23  24
ATOM     24  C   UNL     1      -0.520 -28.577 -52.992  1.00  0.00    -0.000 C 
BRANCH  24  25
ATOM     25  C   UNL     1      -1.361 -27.297 -53.185  1.00  0.00    -0.000 C 
BRANCH  25  26
ATOM     26  C   UNL     1      -0.703 -26.028 -52.611  1.00  0.00    -0.000 C 
BRANCH  26  27
ATOM     27  C   UNL     1       0.793 -25.864 -52.940  1.00  0.00    -0.000 C 
BRANCH  27  28
ATOM     28  C   UNL     1       1.098 -25.146 -54.269  1.00  0.00    -0.000 C 
BRANCH  28  29
ATOM     29  C   UNL     1       2.077 -23.970 -54.102  1.00  0.00    -0.000 C 
BRANCH  29  30
ATOM     30  C   UNL     1       1.633 -22.972 -53.017  1.00  0.00    -0.000 C 
BRANCH  30  31
ATOM     31  C   UNL     1       2.626 -22.792 -51.856  1.00  0.00    -0.003 C 
ATOM     32  C   UNL     1       3.816 -23.749 -51.931  1.00  0.00     0.004 C 
ENDBRANCH  30  31
ENDBRANCH  29  30
ENDBRANCH  28  29
ENDBRANCH  27  28
ENDBRANCH  26  27
ENDBRANCH  25  26
ENDBRANCH  24  25
ENDBRANCH  23  24
ENDBRANCH  22  23
ENDBRANCH  21  22
ENDBRANCH  20  21
ENDBRANCH  19  20
ENDBRANCH  18  19
ENDBRANCH   1  18
TORSDOF 28
ENDMDL
MODEL 6
REMARK VINA RESULT:    -5.537      2.199      7.003
REMARK INTER + INTRA:         -18.715
REMARK INTER:                 -14.835
REMARK INTRA:                  -3.880
REMARK UNBOUND:                -4.115
REMARK SMILES CCCCCCCCCCCCCCCCCCCCCCCCCCCCCC(=O)[O-]
REMARK SMILES IDX 16 1 17 2 18 3 19 4 20 5 21 6 22 7 23 8 24 9 25 10 26 11
REMARK SMILES IDX 27 12 28 13 29 14 30 15 31 16 32 17 15 18 14 19 13 20 12 21
REMARK SMILES IDX 11 22 10 23 9 24 8 25 7 26 6 27 5 28 4 29 3 30 2 31 1 32
REMARK H PARENT
REMARK Flexibility Score: inf
ROOT
ATOM      1  C   UNL     1      -1.470 -29.253 -52.459  1.00  0.00     0.000 C 
ENDROOT
BRANCH   1   2
ATOM      2  C   UNL     1      -0.724 -30.001 -51.339  1.00  0.00     0.000 C 
BRANCH   2   3
ATOM      3  C   UNL     1       0.476 -30.840 -51.817  1.00  0.00     0.000 C 
BRANCH   3   4
ATOM      4  C   UNL     1       0.161 -31.654 -53.084  1.00  0.00     0.000 C 
BRANCH   4   5
ATOM      5  C   UNL     1      -0.398 -33.049 -52.763  1.00  0.00     0.000 C 
BRANCH   5   6
ATOM      6  C   UNL     1      -1.711 -33.346 -53.509  1.00  0.00     0.000 C 
BRANCH   6   7
ATOM      7  C   UNL     1      -2.938 -32.716 -52.825  1.00  0.00     0.000 C 
BRANCH   7   8
ATOM      8  C   UNL     1      -3.013 -32.939 -51.302  1.00  0.00     0.000 C 
BRANCH   8   9
ATOM      9  C   UNL     1      -4.344 -32.517 -50.645  1.00  0.00     0.000 C 
BRANCH   9  10
ATOM     10  C   UNL     1      -5.323 -31.783 -51.578  1.00  0.00     0.000 C 
BRANCH  10  11
ATOM     11  C   UNL     1      -6.046 -30.618 -50.884  1.00  0.00     0.000 C 
BRANCH  11  12
ATOM     12  C   UNL     1      -7.014 -31.130 -49.809  1.00  0.00     0.000 C 
BRANCH  12  13
ATOM     13  C   UNL     1      -7.480 -29.981 -48.902  1.00  0.00     0.006 C 
BRANCH  13  14
ATOM     14  C   UNL     1      -6.304 -29.195 -48.305  1.00  0.00     0.053 C 
BRANCH  14  15
ATOM     15  C   UNL     1      -6.490 -27.715 -48.449  1.00  0.00     0.041 C 
ATOM     16  O   UNL     1      -6.528 -26.977 -47.428  1.00  0.00    -0.550 OA
ATOM     17  O   UNL     1      -6.648 -27.153 -49.711  1.00  0.00    -0.550 OA
ENDBRANCH  14  15
ENDBRANCH  13  14
ENDBRANCH  12  13
ENDBRANCH  11  12
ENDBRANCH  10  11
ENDBRANCH   9  10
ENDBRANCH   8   9
ENDBRANCH   7   8
ENDBRANCH   6   7
ENDBRANCH   5   6
ENDBRANCH   4   5
ENDBRANCH   3   4
ENDBRANCH   2   3
ENDBRANCH   1   2
BRANCH   1  18
ATOM     18  C   UNL     1      -2.982 -29.142 -52.192  1.00  0.00     0.000 C 
BRANCH  18  19
ATOM     19  C   UNL     1      -3.711 -28.275 -53.232  1.00  0.00     0.000 C 
BRANCH  19  20
ATOM     20  C   UNL     1      -5.114 -27.796 -52.814  1.00  0.00     0.000 C 
BRANCH  20  21
ATOM     21  C   UNL     1      -5.935 -27.178 -53.967  1.00  0.00     0.000 C 
BRANCH  21  22
ATOM     22  C   UNL     1      -5.040 -26.493 -55.016  1.00  0.00     0.000 C 
BRANCH  22  23
ATOM     23  C   UNL     1      -5.499 -25.065 -55.343  1.00  0.00     0.000 C 
BRANCH  23  24
ATOM     24  C   UNL     1      -4.482 -24.299 -56.208  1.00  0.00    -0.000 C 
BRANCH  24  25
ATOM     25  C   UNL     1      -4.038 -22.971 -55.558  1.00  0.00    -0.000 C 
BRANCH  25  26
ATOM     26  C   UNL     1      -2.525 -22.701 -55.667  1.00  0.00    -0.000 C 
BRANCH  26  27
ATOM     27  C   UNL     1      -1.666 -23.356 -54.569  1.00  0.00    -0.000 C 
BRANCH  27  28
ATOM     28  C   UNL     1      -1.354 -24.850 -54.783  1.00  0.00    -0.000 C 
BRANCH  28  29
ATOM     29  C   UNL     1      -1.493 -25.681 -53.495  1.00  0.00    -0.000 C 
BRANCH  29  30
ATOM     30  C   UNL     1      -0.160 -25.841 -52.741  1.00  0.00    -0.000 C 
BRANCH  30  31
ATOM     31  C   UNL     1       0.075 -24.818 -51.616  1.00  0.00    -0.003 C 
ATOM     32  C   UNL     1       1.307 -23.943 -51.850  1.00  0.00     0.004 C 
ENDBRANCH  30  31
ENDBRANCH  29  30
ENDBRANCH  28  29
ENDBRANCH  27  28
ENDBRANCH  26  27
ENDBRANCH  25  26
ENDBRANCH  24  25
ENDBRANCH  23  24
ENDBRANCH  22  23
ENDBRANCH  21  22
ENDBRANCH  20  21
ENDBRANCH  19  20
ENDBRANCH  18  19
ENDBRANCH   1  18
TORSDOF 28
ENDMDL
MODEL 7
REMARK VINA RESULT:    -5.516      1.384      3.365
REMARK INTER + INTRA:         -18.660
REMARK INTER:                 -14.461
REMARK INTRA:                  -4.199
REMARK UNBOUND:                -4.115
REMARK SMILES CCCCCCCCCCCCCCCCCCCCCCCCCCCCCC(=O)[O-]
REMARK SMILES IDX 16 1 17 2 18 3 19 4 20 5 21 6 22 7 23 8 24 9 25 10 26 11
REMARK SMILES IDX 27 12 28 13 29 14 30 15 31 16 32 17 15 18 14 19 13 20 12 21
REMARK SMILES IDX 11 22 10 23 9 24 8 25 7 26 6 27 5 28 4 29 3 30 2 31 1 32
REMARK H PARENT
REMARK Flexibility Score: inf
ROOT
ATOM      1  C   UNL     1      -0.609 -32.675 -53.187  1.00  0.00     0.000 C 
ENDROOT
BRANCH   1   2
ATOM      2  C   UNL     1       0.141 -32.030 -52.007  1.00  0.00     0.000 C 
BRANCH   2   3
ATOM      3  C   UNL     1       0.478 -30.540 -52.200  1.00  0.00     0.000 C 
BRANCH   3   4
ATOM      4  C   UNL     1      -0.554 -29.610 -51.539  1.00  0.00     0.000 C 
BRANCH   4   5
ATOM      5  C   UNL     1      -1.570 -29.050 -52.547  1.00  0.00     0.000 C 
BRANCH   5   6
ATOM      6  C   UNL     1      -1.298 -27.578 -52.906  1.00  0.00     0.000 C 
BRANCH   6   7
ATOM      7  C   UNL     1      -0.194 -26.949 -52.036  1.00  0.00     0.000 C 
BRANCH   7   8
ATOM      8  C   UNL     1       0.003 -25.434 -52.238  1.00  0.00     0.000 C 
BRANCH   8   9
ATOM      9  C   UNL     1      -0.736 -24.836 -53.453  1.00  0.00     0.000 C 
BRANCH   9  10
ATOM     10  C   UNL     1      -1.570 -23.579 -53.150  1.00  0.00     0.000 C 
BRANCH  10  11
ATOM     11  C   UNL     1      -2.497 -23.187 -54.311  1.00  0.00     0.000 C 
BRANCH  11  12
ATOM     12  C   UNL     1      -3.097 -24.429 -54.984  1.00  0.00     0.000 C 
BRANCH  12  13
ATOM     13  C   UNL     1      -4.549 -24.649 -54.531  1.00  0.00     0.006 C 
BRANCH  13  14
ATOM     14  C   UNL     1      -5.366 -25.445 -55.558  1.00  0.00     0.053 C 
BRANCH  14  15
ATOM     15  C   UNL     1      -6.160 -24.550 -56.458  1.00  0.00     0.041 C 
ATOM     16  O   UNL     1      -5.637 -23.510 -56.943  1.00  0.00    -0.550 OA
ATOM     17  O   UNL     1      -7.488 -24.847 -56.741  1.00  0.00    -0.550 OA
ENDBRANCH  14  15
ENDBRANCH  13  14
ENDBRANCH  12  13
ENDBRANCH  11  12
ENDBRANCH  10  11
ENDBRANCH   9  10
ENDBRANCH   8   9
ENDBRANCH   7   8
ENDBRANCH   6   7
ENDBRANCH   5   6
ENDBRANCH   4   5
ENDBRANCH   3   4
ENDBRANCH   2   3
ENDBRANCH   1   2
BRANCH   1  18
ATOM     18  C   UNL     1      -1.828 -33.498 -52.735  1.00  0.00     0.000 C 
BRANCH  18  19
ATOM     19  C   UNL     1      -2.094 -33.392 -51.223  1.00  0.00     0.000 C 
BRANCH  19  20
ATOM     20  C   UNL     1      -3.462 -32.796 -50.841  1.00  0.00     0.000 C 
BRANCH  20  21
ATOM     21  C   UNL     1      -3.985 -31.738 -51.837  1.00  0.00     0.000 C 
BRANCH  21  22
ATOM     22  C   UNL     1      -5.288 -32.183 -52.526  1.00  0.00     0.000 C 
BRANCH  22  23
ATOM     23  C   UNL     1      -5.840 -31.121 -53.489  1.00  0.00     0.000 C 
BRANCH  23  24
ATOM     24  C   UNL     1      -4.747 -30.175 -54.018  1.00  0.00    -0.000 C 
BRANCH  24  25
ATOM     25  C   UNL     1      -5.167 -28.691 -53.945  1.00  0.00    -0.000 C 
BRANCH  25  26
ATOM     26  C   UNL     1      -4.893 -28.034 -52.579  1.00  0.00    -0.000 C 
BRANCH  26  27
ATOM     27  C   UNL     1      -6.009 -27.106 -52.066  1.00  0.00    -0.000 C 
BRANCH  27  28
ATOM     28  C   UNL     1      -6.397 -27.299 -50.588  1.00  0.00    -0.000 C 
BRANCH  28  29
ATOM     29  C   UNL     1      -6.028 -28.693 -50.049  1.00  0.00    -0.000 C 
BRANCH  29  30
ATOM     30  C   UNL     1      -6.640 -28.979 -48.666  1.00  0.00    -0.000 C 
BRANCH  30  31
ATOM     31  C   UNL     1      -7.597 -30.184 -48.616  1.00  0.00    -0.003 C 
ATOM     32  C   UNL     1      -7.315 -31.217 -49.707  1.00  0.00     0.004 C 
ENDBRANCH  30  31
ENDBRANCH  29  30
ENDBRANCH  28  29
ENDBRANCH  27  28
ENDBRANCH  26  27
ENDBRANCH  25  26
ENDBRANCH  24  25
ENDBRANCH  23  24
ENDBRANCH  22  23
ENDBRANCH  21  22
ENDBRANCH  20  21
ENDBRANCH  19  20
ENDBRANCH  18  19
ENDBRANCH   1  18
TORSDOF 28
ENDMDL
MODEL 8
REMARK VINA RESULT:    -5.512      2.742      7.760
REMARK INTER + INTRA:         -18.650
REMARK INTER:                 -14.772
REMARK INTRA:                  -3.878
REMARK UNBOUND:                -4.115
REMARK SMILES CCCCCCCCCCCCCCCCCCCCCCCCCCCCCC(=O)[O-]
REMARK SMILES IDX 16 1 17 2 18 3 19 4 20 5 21 6 22 7 23 8 24 9 25 10 26 11
REMARK SMILES IDX 27 12 28 13 29 14 30 15 31 16 32 17 15 18 14 19 13 20 12 21
REMARK SMILES IDX 11 22 10 23 9 24 8 25 7 26 6 27 5 28 4 29 3 30 2 31 1 32
REMARK H PARENT
REMARK Flexibility Score: inf
ROOT
ATOM      1  C   UNL     1      -4.073 -28.465 -53.304  1.00  0.00     0.000 C 
ENDROOT
BRANCH   1   2
ATOM      2  C   UNL     1      -2.853 -28.783 -52.420  1.00  0.00     0.000 C 
BRANCH   2   3
ATOM      3  C   UNL     1      -1.595 -27.955 -52.743  1.00  0.00     0.000 C 
BRANCH   3   4
ATOM      4  C   UNL     1      -0.293 -28.692 -52.383  1.00  0.00     0.000 C 
BRANCH   4   5
ATOM      5  C   UNL     1      -0.512 -29.792 -51.332  1.00  0.00     0.000 C 
BRANCH   5   6
ATOM      6  C   UNL     1       0.067 -31.150 -51.768  1.00  0.00     0.000 C 
BRANCH   6   7
ATOM      7  C   UNL     1      -0.459 -31.606 -53.141  1.00  0.00     0.000 C 
BRANCH   7   8
ATOM      8  C   UNL     1      -1.452 -32.783 -53.094  1.00  0.00     0.000 C 
BRANCH   8   9
ATOM      9  C   UNL     1      -2.758 -32.504 -52.323  1.00  0.00     0.000 C 
BRANCH   9  10
ATOM     10  C   UNL     1      -3.937 -32.035 -53.194  1.00  0.00     0.000 C 
BRANCH  10  11
ATOM     11  C   UNL     1      -5.301 -32.278 -52.530  1.00  0.00     0.000 C 
BRANCH  11  12
ATOM     12  C   UNL     1      -5.237 -32.012 -51.020  1.00  0.00     0.000 C 
BRANCH  12  13
ATOM     13  C   UNL     1      -6.280 -30.963 -50.605  1.00  0.00     0.006 C 
BRANCH  13  14
ATOM     14  C   UNL     1      -6.314 -30.744 -49.086  1.00  0.00     0.053 C 
BRANCH  14  15
ATOM     15  C   UNL     1      -7.387 -29.780 -48.684  1.00  0.00     0.041 C 
ATOM     16  O   UNL     1      -8.595 -30.140 -48.674  1.00  0.00    -0.550 OA
ATOM     17  O   UNL     1      -7.057 -28.473 -48.344  1.00  0.00    -0.550 OA
ENDBRANCH  14  15
ENDBRANCH  13  14
ENDBRANCH  12  13
ENDBRANCH  11  12
ENDBRANCH  10  11
ENDBRANCH   9  10
ENDBRANCH   8   9
ENDBRANCH   7   8
ENDBRANCH   6   7
ENDBRANCH   5   6
ENDBRANCH   4   5
ENDBRANCH   3   4
ENDBRANCH   2   3
ENDBRANCH   1   2
BRANCH   1  18
ATOM     18  C   UNL     1      -5.270 -27.936 -52.493  1.00  0.00     0.000 C 
BRANCH  18  19
ATOM     19  C   UNL     1      -5.981 -26.756 -53.178  1.00  0.00     0.000 C 
BRANCH  19  20
ATOM     20  C   UNL     1      -6.322 -26.974 -54.665  1.00  0.00     0.000 C 
BRANCH  20  21
ATOM     21  C   UNL     1      -5.653 -25.958 -55.616  1.00  0.00     0.000 C 
BRANCH  21  22
ATOM     22  C   UNL     1      -5.602 -24.543 -55.013  1.00  0.00     0.000 C 
BRANCH  22  23
ATOM     23  C   UNL     1      -4.175 -23.979 -54.947  1.00  0.00     0.000 C 
BRANCH  23  24
ATOM     24  C   UNL     1      -3.185 -24.947 -54.274  1.00  0.00    -0.000 C 
BRANCH  24  25
ATOM     25  C   UNL     1      -1.844 -25.040 -55.033  1.00  0.00    -0.000 C 
BRANCH  25  26
ATOM     26  C   UNL     1      -0.628 -24.583 -54.203  1.00  0.00    -0.000 C 
BRANCH  26  27
ATOM     27  C   UNL     1      -0.963 -23.693 -52.993  1.00  0.00    -0.000 C 
BRANCH  27  28
ATOM     28  C   UNL     1      -0.044 -23.875 -51.769  1.00  0.00    -0.000 C 
BRANCH  28  29
ATOM     29  C   UNL     1       1.288 -24.564 -52.118  1.00  0.00    -0.000 C 
BRANCH  29  30
ATOM     30  C   UNL     1       2.516 -23.723 -51.725  1.00  0.00    -0.000 C 
BRANCH  30  31
ATOM     31  C   UNL     1       3.758 -23.936 -52.609  1.00  0.00    -0.003 C 
ATOM     32  C   UNL     1       3.607 -25.106 -53.581  1.00  0.00     0.004 C 
ENDBRANCH  30  31
ENDBRANCH  29  30
ENDBRANCH  28  29
ENDBRANCH  27  28
ENDBRANCH  26  27
ENDBRANCH  25  26
ENDBRANCH  24  25
ENDBRANCH  23  24
ENDBRANCH  22  23
ENDBRANCH  21  22
ENDBRANCH  20  21
ENDBRANCH  19  20
ENDBRANCH  18  19
ENDBRANCH   1  18
TORSDOF 28
ENDMDL
MODEL 9
REMARK VINA RESULT:    -5.511      3.038      7.752
REMARK INTER + INTRA:         -18.647
REMARK INTER:                 -13.909
REMARK INTRA:                  -4.737
REMARK UNBOUND:                -4.115
REMARK SMILES CCCCCCCCCCCCCCCCCCCCCCCCCCCCCC(=O)[O-]
REMARK SMILES IDX 16 1 17 2 18 3 19 4 20 5 21 6 22 7 23 8 24 9 25 10 26 11
REMARK SMILES IDX 27 12 28 13 29 14 30 15 31 16 32 17 15 18 14 19 13 20 12 21
REMARK SMILES IDX 11 22 10 23 9 24 8 25 7 26 6 27 5 28 4 29 3 30 2 31 1 32
REMARK H PARENT
REMARK Flexibility Score: inf
ROOT
ATOM      1  C   UNL     1      -1.239 -29.080 -52.180  1.00  0.00     0.000 C 
ENDROOT
BRANCH   1   2
ATOM      2  C   UNL     1      -0.593 -30.149 -51.280  1.00  0.00     0.000 C 
BRANCH   2   3
ATOM      3  C   UNL     1       0.202 -31.229 -52.038  1.00  0.00     0.000 C 
BRANCH   3   4
ATOM      4  C   UNL     1      -0.496 -31.676 -53.335  1.00  0.00     0.000 C 
BRANCH   4   5
ATOM      5  C   UNL     1      -1.484 -32.829 -53.104  1.00  0.00     0.000 C 
BRANCH   5   6
ATOM      6  C   UNL     1      -2.951 -32.365 -53.127  1.00  0.00     0.000 C 
BRANCH   6   7
ATOM      7  C   UNL     1      -3.601 -32.377 -51.732  1.00  0.00     0.000 C 
BRANCH   7   8
ATOM      8  C   UNL     1      -4.820 -31.447 -51.579  1.00  0.00     0.000 C 
BRANCH   8   9
ATOM      9  C   UNL     1      -5.193 -30.647 -52.843  1.00  0.00     0.000 C 
BRANCH   9  10
ATOM     10  C   UNL     1      -4.899 -29.138 -52.766  1.00  0.00     0.000 C 
BRANCH  10  11
ATOM     11  C   UNL     1      -4.847 -28.616 -51.322  1.00  0.00     0.000 C 
BRANCH  11  12
ATOM     12  C   UNL     1      -6.243 -28.213 -50.828  1.00  0.00     0.000 C 
BRANCH  12  13
ATOM     13  C   UNL     1      -6.312 -28.250 -49.294  1.00  0.00     0.006 C 
BRANCH  13  14
ATOM     14  C   UNL     1      -6.332 -29.683 -48.745  1.00  0.00     0.053 C 
BRANCH  14  15
ATOM     15  C   UNL     1      -7.656 -30.348 -48.963  1.00  0.00     0.041 C 
ATOM     16  O   UNL     1      -8.714 -29.814 -48.534  1.00  0.00    -0.550 OA
ATOM     17  O   UNL     1      -7.721 -31.573 -49.617  1.00  0.00    -0.550 OA
ENDBRANCH  14  15
ENDBRANCH  13  14
ENDBRANCH  12  13
ENDBRANCH  11  12
ENDBRANCH  10  11
ENDBRANCH   9  10
ENDBRANCH   8   9
ENDBRANCH   7   8
ENDBRANCH   6   7
ENDBRANCH   5   6
ENDBRANCH   4   5
ENDBRANCH   3   4
ENDBRANCH   2   3
ENDBRANCH   1   2
BRANCH   1  18
ATOM     18  C   UNL     1      -0.381 -27.807 -52.297  1.00  0.00     0.000 C 
BRANCH  18  19
ATOM     19  C   UNL     1      -0.063 -27.432 -53.755  1.00  0.00     0.000 C 
BRANCH  19  20
ATOM     20  C   UNL     1       1.082 -28.236 -54.400  1.00  0.00     0.000 C 
BRANCH  20  21
ATOM     21  C   UNL     1       2.322 -27.387 -54.753  1.00  0.00     0.000 C 
BRANCH  21  22
ATOM     22  C   UNL     1       1.942 -26.049 -55.412  1.00  0.00     0.000 C 
BRANCH  22  23
ATOM     23  C   UNL     1       2.893 -24.907 -55.022  1.00  0.00     0.000 C 
BRANCH  23  24
ATOM     24  C   UNL     1       3.837 -25.289 -53.868  1.00  0.00    -0.000 C 
BRANCH  24  25
ATOM     25  C   UNL     1       3.556 -24.479 -52.584  1.00  0.00    -0.000 C 
BRANCH  25  26
ATOM     26  C   UNL     1       2.222 -23.710 -52.615  1.00  0.00    -0.000 C 
BRANCH  26  27
ATOM     27  C   UNL     1       1.072 -24.366 -51.829  1.00  0.00    -0.000 C 
BRANCH  27  28
ATOM     28  C   UNL     1      -0.334 -23.822 -52.145  1.00  0.00    -0.000 C 
BRANCH  28  29
ATOM     29  C   UNL     1      -0.648 -23.809 -53.652  1.00  0.00    -0.000 C 
BRANCH  29  30
ATOM     30  C   UNL     1      -2.158 -23.760 -53.947  1.00  0.00    -0.000 C 
BRANCH  30  31
ATOM     31  C   UNL     1      -2.666 -24.848 -54.909  1.00  0.00    -0.003 C 
ATOM     32  C   UNL     1      -3.368 -26.001 -54.192  1.00  0.00     0.004 C 
ENDBRANCH  30  31
ENDBRANCH  29  30
ENDBRANCH  28  29
ENDBRANCH  27  28
ENDBRANCH  26  27
ENDBRANCH  25  26
ENDBRANCH  24  25
ENDBRANCH  23  24
ENDBRANCH  22  23
ENDBRANCH  21  22
ENDBRANCH  20  21
ENDBRANCH  19  20
ENDBRANCH  18  19
ENDBRANCH   1  18
TORSDOF 28
ENDMDL
