MODEL 1
REMARK VINA RESULT:    -6.034      0.000      0.000
REMARK INTER + INTRA:          -9.083
REMARK INTER:                  -8.150
REMARK INTRA:                  -0.933
REMARK UNBOUND:                -0.933
REMARK SMILES O=c1c(-c2ccc(O)cc2)coc2c([C@H]3O[C@H](CO)[C@H](O)[C@@H](O)[C@@H]3O)c(O)ccc12
REMARK SMILES IDX 3 1 11 2 12 3 13 4 30 5 2 6 1 7 29 8 28 9 26 10 14 11 4 12
REMARK SMILES IDX 5 13 6 14 7 15 10 16 9 17 8 18 15 20 24 21 16 22 22 23 17 24
REMARK SMILES IDX 20 25 25 26 23 28 18 30 19 31 21 33 27 35
REMARK H PARENT 8 19 25 27 23 29 19 32 21 34 27 36
REMARK Flexibility Score: inf
ROOT
ATOM      1  C   UNL     1      10.903  -6.408 -10.555  1.00  0.00     0.065 A 
ATOM      2  C   UNL     1      11.685  -5.233 -10.688  1.00  0.00     0.208 A 
ATOM      3  O   UNL     1      12.978  -5.407 -11.101  1.00  0.00    -0.463 OA
ATOM      4  C   UNL     1      13.459  -6.615 -11.593  1.00  0.00     0.147 A 
ATOM      5  C   UNL     1      12.768  -7.772 -11.177  1.00  0.00     0.066 A 
ATOM      6  C   UNL     1      11.604  -7.619 -10.400  1.00  0.00     0.200 A 
ATOM      7  O   UNL     1      11.076  -8.590  -9.804  1.00  0.00    -0.288 OA
ATOM      8  C   UNL     1      13.038  -9.011 -11.773  1.00  0.00     0.020 A 
ATOM      9  C   UNL     1      13.944  -9.084 -12.818  1.00  0.00     0.047 A 
ATOM     10  C   UNL     1      14.759  -7.970 -13.158  1.00  0.00     0.125 A 
ATOM     11  C   UNL     1      14.526  -6.688 -12.533  1.00  0.00     0.069 A 
ENDROOT
BRANCH   1  12
ATOM     12  C   UNL     1       9.548  -6.460 -11.283  1.00  0.00    -0.011 A 
ATOM     13  C   UNL     1       8.721  -7.539 -10.900  1.00  0.00     0.013 A 
ATOM     14  C   UNL     1       7.998  -7.404  -9.707  1.00  0.00     0.047 A 
ATOM     15  C   UNL     1       7.846  -6.112  -9.166  1.00  0.00     0.115 A 
ATOM     16  C   UNL     1       8.817  -5.235 -11.200  1.00  0.00     0.013 A 
ATOM     17  C   UNL     1       8.203  -5.004  -9.966  1.00  0.00     0.047 A 
BRANCH  15  18
ATOM     18  O   UNL     1       7.443  -5.948  -7.835  1.00  0.00    -0.508 OA
ATOM     19  H   UNL     1       6.458  -5.989  -7.580  1.00  0.00     0.293 HD
ENDBRANCH  15  18
ENDBRANCH   1  12
BRANCH  11  20
ATOM     20  C   UNL     1      15.569  -5.561 -12.613  1.00  0.00     0.188 C 
ATOM     21  C   UNL     1      15.437  -4.549 -13.828  1.00  0.00     0.179 C 
ATOM     22  O   UNL     1      16.811  -6.263 -12.465  1.00  0.00    -0.362 OA
ATOM     23  C   UNL     1      16.258  -4.942 -15.084  1.00  0.00     0.177 C 
ATOM     24  C   UNL     1      17.907  -5.843 -13.237  1.00  0.00     0.176 C 
ATOM     25  C   UNL     1      17.558  -5.734 -14.742  1.00  0.00     0.177 C 
BRANCH  21  26
ATOM     26  O   UNL     1      15.784  -3.236 -13.396  1.00  0.00    -0.387 OA
ATOM     27  H   UNL     1      14.957  -2.766 -13.086  1.00  0.00     0.211 HD
ENDBRANCH  21  26
BRANCH  23  28
ATOM     28  O   UNL     1      15.443  -5.625 -15.995  1.00  0.00    -0.387 OA
ATOM     29  H   UNL     1      15.368  -5.002 -16.784  1.00  0.00     0.211 HD
ENDBRANCH  23  28
BRANCH  24  30
ATOM     30  C   UNL     1      18.790  -4.787 -12.499  1.00  0.00     0.191 C 
BRANCH  30  31
ATOM     31  O   UNL     1      18.766  -3.555 -13.208  1.00  0.00    -0.394 OA
ATOM     32  H   UNL     1      17.787  -3.294 -13.208  1.00  0.00     0.210 HD
ENDBRANCH  30  31
ENDBRANCH  24  30
BRANCH  25  33
ATOM     33  O   UNL     1      18.678  -5.222 -15.443  1.00  0.00    -0.388 OA
ATOM     34  H   UNL     1      18.929  -5.883 -16.151  1.00  0.00     0.211 HD
ENDBRANCH  25  33
ENDBRANCH  11  20
BRANCH  10  35
ATOM     35  O   UNL     1      15.793  -8.170 -14.069  1.00  0.00    -0.507 OA
ATOM     36  H   UNL     1      16.430  -8.926 -13.938  1.00  0.00     0.293 HD
ENDBRANCH  10  35
TORSDOF 9
ENDMDL
MODEL 2
REMARK VINA RESULT:    -6.025      5.493      7.520
REMARK INTER + INTRA:          -9.072
REMARK INTER:                  -8.589
REMARK INTRA:                  -0.483
REMARK UNBOUND:                -0.933
REMARK SMILES O=c1c(-c2ccc(O)cc2)coc2c([C@H]3O[C@H](CO)[C@H](O)[C@@H](O)[C@@H]3O)c(O)ccc12
REMARK SMILES IDX 3 1 11 2 12 3 13 4 30 5 2 6 1 7 29 8 28 9 26 10 14 11 4 12
REMARK SMILES IDX 5 13 6 14 7 15 10 16 9 17 8 18 15 20 24 21 16 22 22 23 17 24
REMARK SMILES IDX 20 25 25 26 23 28 18 30 19 31 21 33 27 35
REMARK H PARENT 8 19 25 27 23 29 19 32 21 34 27 36
REMARK Flexibility Score: inf
ROOT
ATOM      1  C   UNL     1      17.285  -1.887 -10.932  1.00  0.00     0.065 A 
ATOM      2  C   UNL     1      17.043  -3.272 -10.739  1.00  0.00     0.208 A 
ATOM      3  O   UNL     1      16.822  -4.014 -11.867  1.00  0.00    -0.463 OA
ATOM      4  C   UNL     1      17.046  -3.525 -13.149  1.00  0.00     0.147 A 
ATOM      5  C   UNL     1      16.995  -2.124 -13.296  1.00  0.00     0.066 A 
ATOM      6  C   UNL     1      16.833  -1.331 -12.144  1.00  0.00     0.200 A 
ATOM      7  O   UNL     1      16.547  -0.111 -12.217  1.00  0.00    -0.288 OA
ATOM      8  C   UNL     1      17.408  -1.520 -14.492  1.00  0.00     0.020 A 
ATOM      9  C   UNL     1      17.926  -2.304 -15.509  1.00  0.00     0.047 A 
ATOM     10  C   UNL     1      17.853  -3.722 -15.449  1.00  0.00     0.125 A 
ATOM     11  C   UNL     1      17.397  -4.371 -14.240  1.00  0.00     0.069 A 
ENDROOT
BRANCH   1  12
ATOM     12  C   UNL     1      18.550  -1.282 -10.301  1.00  0.00    -0.011 A 
ATOM     13  C   UNL     1      18.298  -0.324  -9.293  1.00  0.00     0.013 A 
ATOM     14  C   UNL     1      17.972  -0.803  -8.017  1.00  0.00     0.047 A 
ATOM     15  C   UNL     1      18.264  -2.149  -7.718  1.00  0.00     0.115 A 
ATOM     16  C   UNL     1      19.464  -2.267  -9.815  1.00  0.00     0.013 A 
ATOM     17  C   UNL     1      19.089  -2.869  -8.611  1.00  0.00     0.047 A 
BRANCH  15  18
ATOM     18  O   UNL     1      17.670  -2.772  -6.614  1.00  0.00    -0.508 OA
ATOM     19  H   UNL     1      18.239  -3.238  -5.910  1.00  0.00     0.293 HD
ENDBRANCH  15  18
ENDBRANCH   1  12
BRANCH  11  20
ATOM     20  C   UNL     1      16.988  -5.853 -14.236  1.00  0.00     0.188 C 
ATOM     21  C   UNL     1      18.143  -6.912 -13.986  1.00  0.00     0.179 C 
ATOM     22  O   UNL     1      16.223  -5.977 -15.443  1.00  0.00    -0.362 OA
ATOM     23  C   UNL     1      18.816  -7.448 -15.277  1.00  0.00     0.177 C 
ATOM     24  C   UNL     1      16.367  -7.151 -16.201  1.00  0.00     0.176 C 
ATOM     25  C   UNL     1      17.850  -7.479 -16.502  1.00  0.00     0.177 C 
BRANCH  21  26
ATOM     26  O   UNL     1      17.640  -7.991 -13.202  1.00  0.00    -0.387 OA
ATOM     27  H   UNL     1      18.262  -8.771 -13.283  1.00  0.00     0.211 HD
ENDBRANCH  21  26
BRANCH  23  28
ATOM     28  O   UNL     1      19.987  -6.728 -15.541  1.00  0.00    -0.387 OA
ATOM     29  H   UNL     1      19.815  -5.814 -15.155  1.00  0.00     0.211 HD
ENDBRANCH  23  28
BRANCH  24  30
ATOM     30  C   UNL     1      15.324  -8.247 -15.813  1.00  0.00     0.191 C 
BRANCH  30  31
ATOM     31  O   UNL     1      14.047  -7.908 -16.339  1.00  0.00    -0.394 OA
ATOM     32  H   UNL     1      13.858  -6.994 -15.944  1.00  0.00     0.210 HD
ENDBRANCH  30  31
ENDBRANCH  24  30
BRANCH  25  33
ATOM     33  O   UNL     1      17.923  -8.716 -17.190  1.00  0.00    -0.388 OA
ATOM     34  H   UNL     1      18.343  -8.550 -18.082  1.00  0.00     0.211 HD
ENDBRANCH  25  33
ENDBRANCH  11  20
BRANCH  10  35
ATOM     35  O   UNL     1      18.193  -4.444 -16.590  1.00  0.00    -0.507 OA
ATOM     36  H   UNL     1      17.498  -4.979 -17.065  1.00  0.00     0.293 HD
ENDBRANCH  10  35
TORSDOF 9
ENDMDL
MODEL 3
REMARK VINA RESULT:    -5.950      4.462      6.904
REMARK INTER + INTRA:          -8.970
REMARK INTER:                  -7.810
REMARK INTRA:                  -1.160
REMARK UNBOUND:                -0.933
REMARK SMILES O=c1c(-c2ccc(O)cc2)coc2c([C@H]3O[C@H](CO)[C@H](O)[C@@H](O)[C@@H]3O)c(O)ccc12
REMARK SMILES IDX 3 1 11 2 12 3 13 4 30 5 2 6 1 7 29 8 28 9 26 10 14 11 4 12
REMARK SMILES IDX 5 13 6 14 7 15 10 16 9 17 8 18 15 20 24 21 16 22 22 23 17 24
REMARK SMILES IDX 20 25 25 26 23 28 18 30 19 31 21 33 27 35
REMARK H PARENT 8 19 25 27 23 29 19 32 21 34 27 36
REMARK Flexibility Score: inf
ROOT
ATOM      1  C   UNL     1      18.206  -1.802 -11.121  1.00  0.00     0.065 A 
ATOM      2  C   UNL     1      18.942  -2.052 -12.308  1.00  0.00     0.208 A 
ATOM      3  O   UNL     1      18.717  -3.255 -12.920  1.00  0.00    -0.463 OA
ATOM      4  C   UNL     1      17.673  -4.101 -12.564  1.00  0.00     0.147 A 
ATOM      5  C   UNL     1      17.182  -3.960 -11.250  1.00  0.00     0.066 A 
ATOM      6  C   UNL     1      17.697  -2.926 -10.445  1.00  0.00     0.200 A 
ATOM      7  O   UNL     1      17.485  -2.885  -9.208  1.00  0.00    -0.288 OA
ATOM      8  C   UNL     1      16.004  -4.613 -10.859  1.00  0.00     0.020 A 
ATOM      9  C   UNL     1      15.289  -5.348 -11.789  1.00  0.00     0.047 A 
ATOM     10  C   UNL     1      15.832  -5.628 -13.073  1.00  0.00     0.125 A 
ATOM     11  C   UNL     1      17.064  -4.996 -13.489  1.00  0.00     0.069 A 
ENDROOT
BRANCH   1  12
ATOM     12  C   UNL     1      17.399  -0.495 -11.036  1.00  0.00    -0.011 A 
ATOM     13  C   UNL     1      17.870   0.537 -11.879  1.00  0.00     0.013 A 
ATOM     14  C   UNL     1      17.508   0.480 -13.231  1.00  0.00     0.047 A 
ATOM     15  C   UNL     1      16.433  -0.356 -13.596  1.00  0.00     0.115 A 
ATOM     16  C   UNL     1      15.997  -0.685 -11.240  1.00  0.00     0.013 A 
ATOM     17  C   UNL     1      15.623  -0.891 -12.570  1.00  0.00     0.047 A 
BRANCH  15  18
ATOM     18  O   UNL     1      16.244  -0.717 -14.935  1.00  0.00    -0.508 OA
ATOM     19  H   UNL     1      16.090  -0.007 -15.649  1.00  0.00     0.293 HD
ENDBRANCH  15  18
ENDBRANCH   1  12
BRANCH  11  20
ATOM     20  C   UNL     1      17.853  -5.512 -14.705  1.00  0.00     0.188 C 
ATOM     21  C   UNL     1      17.294  -5.118 -16.137  1.00  0.00     0.179 C 
ATOM     22  O   UNL     1      18.013  -6.907 -14.415  1.00  0.00    -0.362 OA
ATOM     23  C   UNL     1      16.318  -6.153 -16.755  1.00  0.00     0.177 C 
ATOM     24  C   UNL     1      17.908  -7.821 -15.477  1.00  0.00     0.176 C 
ATOM     25  C   UNL     1      16.613  -7.617 -16.303  1.00  0.00     0.177 C 
BRANCH  21  26
ATOM     26  O   UNL     1      18.383  -4.870 -17.023  1.00  0.00    -0.387 OA
ATOM     27  H   UNL     1      19.066  -5.593 -16.912  1.00  0.00     0.211 HD
ENDBRANCH  21  26
BRANCH  23  28
ATOM     28  O   UNL     1      14.995  -5.775 -16.501  1.00  0.00    -0.387 OA
ATOM     29  H   UNL     1      15.002  -4.769 -16.565  1.00  0.00     0.211 HD
ENDBRANCH  23  28
BRANCH  24  30
ATOM     30  C   UNL     1      19.288  -8.133 -16.138  1.00  0.00     0.191 C 
BRANCH  30  31
ATOM     31  O   UNL     1      19.311  -7.634 -17.470  1.00  0.00    -0.394 OA
ATOM     32  H   UNL     1      18.346  -7.381 -17.650  1.00  0.00     0.210 HD
ENDBRANCH  30  31
ENDBRANCH  24  30
BRANCH  25  33
ATOM     33  O   UNL     1      16.618  -8.510 -17.403  1.00  0.00    -0.388 OA
ATOM     34  H   UNL     1      16.552  -9.442 -17.046  1.00  0.00     0.211 HD
ENDBRANCH  25  33
ENDBRANCH  11  20
BRANCH  10  35
ATOM     35  O   UNL     1      15.164  -6.545 -13.879  1.00  0.00    -0.507 OA
ATOM     36  H   UNL     1      15.598  -6.883 -14.712  1.00  0.00     0.293 HD
ENDBRANCH  10  35
TORSDOF 9
ENDMDL
MODEL 4
REMARK VINA RESULT:    -5.950      4.275      8.428
REMARK INTER + INTRA:          -8.970
REMARK INTER:                  -8.561
REMARK INTRA:                  -0.409
REMARK UNBOUND:                -0.933
REMARK SMILES O=c1c(-c2ccc(O)cc2)coc2c([C@H]3O[C@H](CO)[C@H](O)[C@@H](O)[C@@H]3O)c(O)ccc12
REMARK SMILES IDX 3 1 11 2 12 3 13 4 30 5 2 6 1 7 29 8 28 9 26 10 14 11 4 12
REMARK SMILES IDX 5 13 6 14 7 15 10 16 9 17 8 18 15 20 24 21 16 22 22 23 17 24
REMARK SMILES IDX 20 25 25 26 23 28 18 30 19 31 21 33 27 35
REMARK H PARENT 8 19 25 27 23 29 19 32 21 34 27 36
REMARK Flexibility Score: inf
ROOT
ATOM      1  C   UNL     1      18.043  -1.947 -14.827  1.00  0.00     0.065 A 
ATOM      2  C   UNL     1      18.121  -3.139 -15.591  1.00  0.00     0.208 A 
ATOM      3  O   UNL     1      17.640  -4.275 -14.998  1.00  0.00    -0.463 OA
ATOM      4  C   UNL     1      16.902  -4.258 -13.820  1.00  0.00     0.147 A 
ATOM      5  C   UNL     1      17.101  -3.143 -12.980  1.00  0.00     0.066 A 
ATOM      6  C   UNL     1      17.931  -2.099 -13.432  1.00  0.00     0.200 A 
ATOM      7  O   UNL     1      18.339  -1.198 -12.658  1.00  0.00    -0.288 OA
ATOM      8  C   UNL     1      16.263  -2.925 -11.878  1.00  0.00     0.020 A 
ATOM      9  C   UNL     1      15.195  -3.778 -11.654  1.00  0.00     0.047 A 
ATOM     10  C   UNL     1      15.057  -4.986 -12.391  1.00  0.00     0.125 A 
ATOM     11  C   UNL     1      15.932  -5.253 -13.510  1.00  0.00     0.069 A 
ENDROOT
BRANCH   1  12
ATOM     12  C   UNL     1      17.364  -0.724 -15.466  1.00  0.00    -0.011 A 
ATOM     13  C   UNL     1      17.612   0.497 -14.797  1.00  0.00     0.013 A 
ATOM     14  C   UNL     1      18.837   1.130 -15.048  1.00  0.00     0.047 A 
ATOM     15  C   UNL     1      19.568   0.733 -16.186  1.00  0.00     0.115 A 
ATOM     16  C   UNL     1      17.653  -0.582 -16.857  1.00  0.00     0.013 A 
ATOM     17  C   UNL     1      18.928  -0.087 -17.142  1.00  0.00     0.047 A 
BRANCH  15  18
ATOM     18  O   UNL     1      20.922   1.070 -16.306  1.00  0.00    -0.508 OA
ATOM     19  H   UNL     1      21.211   2.042 -16.396  1.00  0.00     0.293 HD
ENDBRANCH  15  18
ENDBRANCH   1  12
BRANCH  11  20
ATOM     20  C   UNL     1      16.044  -6.662 -14.116  1.00  0.00     0.188 C 
ATOM     21  C   UNL     1      17.324  -7.511 -13.719  1.00  0.00     0.179 C 
ATOM     22  O   UNL     1      15.807  -6.430 -15.512  1.00  0.00    -0.362 OA
ATOM     23  C   UNL     1      18.522  -7.362 -14.692  1.00  0.00     0.177 C 
ATOM     24  C   UNL     1      16.564  -7.161 -16.442  1.00  0.00     0.176 C 
ATOM     25  C   UNL     1      18.085  -7.075 -16.162  1.00  0.00     0.177 C 
BRANCH  21  26
ATOM     26  O   UNL     1      16.963  -8.882 -13.578  1.00  0.00    -0.387 OA
ATOM     27  H   UNL     1      17.795  -9.436 -13.530  1.00  0.00     0.211 HD
ENDBRANCH  21  26
BRANCH  23  28
ATOM     28  O   UNL     1      19.418  -6.402 -14.207  1.00  0.00    -0.387 OA
ATOM     29  H   UNL     1      19.681  -5.867 -15.019  1.00  0.00     0.211 HD
ENDBRANCH  23  28
BRANCH  24  30
ATOM     30  C   UNL     1      15.862  -8.487 -16.877  1.00  0.00     0.191 C 
BRANCH  30  31
ATOM     31  O   UNL     1      16.030  -8.689 -18.275  1.00  0.00    -0.394 OA
ATOM     32  H   UNL     1      16.804  -8.080 -18.515  1.00  0.00     0.210 HD
ENDBRANCH  30  31
ENDBRANCH  24  30
BRANCH  25  33
ATOM     33  O   UNL     1      18.775  -7.903 -17.081  1.00  0.00    -0.388 OA
ATOM     34  H   UNL     1      19.281  -7.313 -17.710  1.00  0.00     0.211 HD
ENDBRANCH  25  33
ENDBRANCH  11  20
BRANCH  10  35
ATOM     35  O   UNL     1      14.092  -5.899 -11.975  1.00  0.00    -0.507 OA
ATOM     36  H   UNL     1      13.246  -5.573 -11.558  1.00  0.00     0.293 HD
ENDBRANCH  10  35
TORSDOF 9
ENDMDL
MODEL 5
REMARK VINA RESULT:    -5.894      5.350      7.965
REMARK INTER + INTRA:          -8.895
REMARK INTER:                  -8.118
REMARK INTRA:                  -0.777
REMARK UNBOUND:                -0.933
REMARK SMILES O=c1c(-c2ccc(O)cc2)coc2c([C@H]3O[C@H](CO)[C@H](O)[C@@H](O)[C@@H]3O)c(O)ccc12
REMARK SMILES IDX 3 1 11 2 12 3 13 4 30 5 2 6 1 7 29 8 28 9 26 10 14 11 4 12
REMARK SMILES IDX 5 13 6 14 7 15 10 16 9 17 8 18 15 20 24 21 16 22 22 23 17 24
REMARK SMILES IDX 20 25 25 26 23 28 18 30 19 31 21 33 27 35
REMARK H PARENT 8 19 25 27 23 29 19 32 21 34 27 36
REMARK Flexibility Score: inf
ROOT
ATOM      1  C   UNL     1      17.142  -6.036 -14.671  1.00  0.00     0.065 A 
ATOM      2  C   UNL     1      17.476  -6.324 -13.322  1.00  0.00     0.208 A 
ATOM      3  O   UNL     1      17.953  -5.279 -12.578  1.00  0.00    -0.463 OA
ATOM      4  C   UNL     1      17.905  -3.959 -13.010  1.00  0.00     0.147 A 
ATOM      5  C   UNL     1      17.849  -3.765 -14.405  1.00  0.00     0.066 A 
ATOM      6  C   UNL     1      17.739  -4.895 -15.239  1.00  0.00     0.200 A 
ATOM      7  O   UNL     1      17.919  -4.820 -16.479  1.00  0.00    -0.288 OA
ATOM      8  C   UNL     1      17.590  -2.494 -14.936  1.00  0.00     0.020 A 
ATOM      9  C   UNL     1      17.327  -1.437 -14.080  1.00  0.00     0.047 A 
ATOM     10  C   UNL     1      17.520  -1.567 -12.678  1.00  0.00     0.125 A 
ATOM     11  C   UNL     1      17.823  -2.860 -12.107  1.00  0.00     0.069 A 
ENDROOT
BRANCH   1  12
ATOM     12  C   UNL     1      15.737  -6.424 -15.164  1.00  0.00    -0.011 A 
ATOM     13  C   UNL     1      15.497  -6.134 -16.526  1.00  0.00     0.013 A 
ATOM     14  C   UNL     1      16.004  -7.033 -17.474  1.00  0.00     0.047 A 
ATOM     15  C   UNL     1      16.386  -8.316 -17.034  1.00  0.00     0.115 A 
ATOM     16  C   UNL     1      15.400  -7.785 -14.891  1.00  0.00     0.013 A 
ATOM     17  C   UNL     1      16.009  -8.718 -15.733  1.00  0.00     0.047 A 
BRANCH  15  18
ATOM     18  O   UNL     1      17.198  -9.125 -17.838  1.00  0.00    -0.508 OA
ATOM     19  H   UNL     1      16.927 -10.082 -18.056  1.00  0.00     0.293 HD
ENDBRANCH  15  18
ENDBRANCH   1  12
BRANCH  11  20
ATOM     20  C   UNL     1      18.362  -2.993 -10.673  1.00  0.00     0.188 C 
ATOM     21  C   UNL     1      17.285  -3.067  -9.509  1.00  0.00     0.179 C 
ATOM     22  O   UNL     1      19.345  -1.951 -10.603  1.00  0.00    -0.362 OA
ATOM     23  C   UNL     1      16.916  -1.696  -8.886  1.00  0.00     0.177 C 
ATOM     24  C   UNL     1      19.455  -1.222  -9.406  1.00  0.00     0.176 C 
ATOM     25  C   UNL     1      18.090  -0.669  -8.927  1.00  0.00     0.177 C 
BRANCH  21  26
ATOM     26  O   UNL     1      17.734  -3.969  -8.501  1.00  0.00    -0.387 OA
ATOM     27  H   UNL     1      18.732  -4.025  -8.533  1.00  0.00     0.211 HD
ENDBRANCH  21  26
BRANCH  23  28
ATOM     28  O   UNL     1      15.752  -1.196  -9.481  1.00  0.00    -0.387 OA
ATOM     29  H   UNL     1      15.043  -1.291  -8.771  1.00  0.00     0.211 HD
ENDBRANCH  23  28
BRANCH  24  30
ATOM     30  C   UNL     1      20.506  -1.834  -8.427  1.00  0.00     0.191 C 
BRANCH  30  31
ATOM     31  O   UNL     1      19.853  -2.336  -7.267  1.00  0.00    -0.394 OA
ATOM     32  H   UNL     1      20.209  -1.754  -6.518  1.00  0.00     0.210 HD
ENDBRANCH  30  31
ENDBRANCH  24  30
BRANCH  25  33
ATOM     33  O   UNL     1      18.262  -0.025  -7.677  1.00  0.00    -0.388 OA
ATOM     34  H   UNL     1      17.612  -0.426  -7.031  1.00  0.00     0.211 HD
ENDBRANCH  25  33
ENDBRANCH  11  20
BRANCH  10  35
ATOM     35  O   UNL     1      17.447  -0.416 -11.898  1.00  0.00    -0.507 OA
ATOM     36  H   UNL     1      17.081   0.426 -12.289  1.00  0.00     0.293 HD
ENDBRANCH  10  35
TORSDOF 9
ENDMDL
MODEL 6
REMARK VINA RESULT:    -5.833      8.839     10.573
REMARK INTER + INTRA:          -8.812
REMARK INTER:                  -7.779
REMARK INTRA:                  -1.033
REMARK UNBOUND:                -0.933
REMARK SMILES O=c1c(-c2ccc(O)cc2)coc2c([C@H]3O[C@H](CO)[C@H](O)[C@@H](O)[C@@H]3O)c(O)ccc12
REMARK SMILES IDX 3 1 11 2 12 3 13 4 30 5 2 6 1 7 29 8 28 9 26 10 14 11 4 12
REMARK SMILES IDX 5 13 6 14 7 15 10 16 9 17 8 18 15 20 24 21 16 22 22 23 17 24
REMARK SMILES IDX 20 25 25 26 23 28 18 30 19 31 21 33 27 35
REMARK H PARENT 8 19 25 27 23 29 19 32 21 34 27 36
REMARK Flexibility Score: inf
ROOT
ATOM      1  C   UNL     1      13.068   3.827  -5.988  1.00  0.00     0.065 A 
ATOM      2  C   UNL     1      12.082   3.696  -7.000  1.00  0.00     0.208 A 
ATOM      3  O   UNL     1      12.541   3.474  -8.270  1.00  0.00    -0.463 OA
ATOM      4  C   UNL     1      13.865   3.155  -8.550  1.00  0.00     0.147 A 
ATOM      5  C   UNL     1      14.818   3.574  -7.600  1.00  0.00     0.066 A 
ATOM      6  C   UNL     1      14.364   4.175  -6.410  1.00  0.00     0.200 A 
ATOM      7  O   UNL     1      15.146   4.778  -5.635  1.00  0.00    -0.288 OA
ATOM      8  C   UNL     1      16.144   3.128  -7.680  1.00  0.00     0.020 A 
ATOM      9  C   UNL     1      16.502   2.221  -8.664  1.00  0.00     0.047 A 
ATOM     10  C   UNL     1      15.605   1.896  -9.719  1.00  0.00     0.125 A 
ATOM     11  C   UNL     1      14.241   2.373  -9.679  1.00  0.00     0.069 A 
ENDROOT
BRANCH   1  12
ATOM     12  C   UNL     1      12.942   2.934  -4.741  1.00  0.00    -0.011 A 
ATOM     13  C   UNL     1      13.434   3.520  -3.552  1.00  0.00     0.013 A 
ATOM     14  C   UNL     1      12.603   4.437  -2.896  1.00  0.00     0.047 A 
ATOM     15  C   UNL     1      11.233   4.449  -3.230  1.00  0.00     0.115 A 
ATOM     16  C   UNL     1      11.617   2.445  -4.529  1.00  0.00     0.013 A 
ATOM     17  C   UNL     1      10.724   3.386  -4.008  1.00  0.00     0.047 A 
BRANCH  15  18
ATOM     18  O   UNL     1      10.431   5.540  -2.875  1.00  0.00    -0.508 OA
ATOM     19  H   UNL     1      10.842   6.380  -2.471  1.00  0.00     0.293 HD
ENDBRANCH  15  18
ENDBRANCH   1  12
BRANCH  11  20
ATOM     20  C   UNL     1      13.347   2.334 -10.930  1.00  0.00     0.188 C 
ATOM     21  C   UNL     1      12.632   0.955 -11.255  1.00  0.00     0.179 C 
ATOM     22  O   UNL     1      14.189   2.901 -11.944  1.00  0.00    -0.362 OA
ATOM     23  C   UNL     1      13.429   0.026 -12.207  1.00  0.00     0.177 C 
ATOM     24  C   UNL     1      14.139   2.346 -13.233  1.00  0.00     0.176 C 
ATOM     25  C   UNL     1      14.322   0.808 -13.219  1.00  0.00     0.177 C 
BRANCH  21  26
ATOM     26  O   UNL     1      11.329   1.204 -11.776  1.00  0.00    -0.387 OA
ATOM     27  H   UNL     1      10.876   0.329 -11.955  1.00  0.00     0.211 HD
ENDBRANCH  21  26
BRANCH  23  28
ATOM     28  O   UNL     1      14.160  -0.908 -11.464  1.00  0.00    -0.387 OA
ATOM     29  H   UNL     1      14.949  -1.136 -12.049  1.00  0.00     0.211 HD
ENDBRANCH  23  28
BRANCH  24  30
ATOM     30  C   UNL     1      13.101   3.062 -14.154  1.00  0.00     0.191 C 
BRANCH  30  31
ATOM     31  O   UNL     1      12.092   2.143 -14.553  1.00  0.00    -0.394 OA
ATOM     32  H   UNL     1      12.595   1.271 -14.677  1.00  0.00     0.210 HD
ENDBRANCH  30  31
ENDBRANCH  24  30
BRANCH  25  33
ATOM     33  O   UNL     1      14.173   0.310 -14.537  1.00  0.00    -0.388 OA
ATOM     34  H   UNL     1      14.182  -0.689 -14.494  1.00  0.00     0.211 HD
ENDBRANCH  25  33
ENDBRANCH  11  20
BRANCH  10  35
ATOM     35  O   UNL     1      16.096   1.150 -10.787  1.00  0.00    -0.507 OA
ATOM     36  H   UNL     1      15.535   0.429 -11.188  1.00  0.00     0.293 HD
ENDBRANCH  10  35
TORSDOF 9
ENDMDL
MODEL 7
REMARK VINA RESULT:    -5.828      3.974      6.697
REMARK INTER + INTRA:          -8.806
REMARK INTER:                  -7.977
REMARK INTRA:                  -0.828
REMARK UNBOUND:                -0.933
REMARK SMILES O=c1c(-c2ccc(O)cc2)coc2c([C@H]3O[C@H](CO)[C@H](O)[C@@H](O)[C@@H]3O)c(O)ccc12
REMARK SMILES IDX 3 1 11 2 12 3 13 4 30 5 2 6 1 7 29 8 28 9 26 10 14 11 4 12
REMARK SMILES IDX 5 13 6 14 7 15 10 16 9 17 8 18 15 20 24 21 16 22 22 23 17 24
REMARK SMILES IDX 20 25 25 26 23 28 18 30 19 31 21 33 27 35
REMARK H PARENT 8 19 25 27 23 29 19 32 21 34 27 36
REMARK Flexibility Score: inf
ROOT
ATOM      1  C   UNL     1      18.194  -1.807 -12.399  1.00  0.00     0.065 A 
ATOM      2  C   UNL     1      18.281  -2.546 -13.606  1.00  0.00     0.208 A 
ATOM      3  O   UNL     1      17.699  -3.785 -13.605  1.00  0.00    -0.463 OA
ATOM      4  C   UNL     1      16.864  -4.226 -12.584  1.00  0.00     0.147 A 
ATOM      5  C   UNL     1      17.042  -3.611 -11.328  1.00  0.00     0.066 A 
ATOM      6  C   UNL     1      17.956  -2.544 -11.224  1.00  0.00     0.200 A 
ATOM      7  O   UNL     1      18.337  -2.109 -10.110  1.00  0.00    -0.288 OA
ATOM      8  C   UNL     1      16.123  -3.831 -10.293  1.00  0.00     0.020 A 
ATOM      9  C   UNL     1      15.002  -4.608 -10.530  1.00  0.00     0.047 A 
ATOM     10  C   UNL     1      14.871  -5.356 -11.732  1.00  0.00     0.125 A 
ATOM     11  C   UNL     1      15.825  -5.175 -12.802  1.00  0.00     0.069 A 
ENDROOT
BRANCH   1  12
ATOM     12  C   UNL     1      17.630  -0.378 -12.468  1.00  0.00    -0.011 A 
ATOM     13  C   UNL     1      17.038  -0.044 -13.708  1.00  0.00     0.013 A 
ATOM     14  C   UNL     1      15.733  -0.498 -13.940  1.00  0.00     0.047 A 
ATOM     15  C   UNL     1      14.971  -0.924 -12.833  1.00  0.00     0.115 A 
ATOM     16  C   UNL     1      16.727  -0.076 -11.403  1.00  0.00     0.013 A 
ATOM     17  C   UNL     1      15.456  -0.639 -11.537  1.00  0.00     0.047 A 
BRANCH  15  18
ATOM     18  O   UNL     1      13.816  -1.691 -13.026  1.00  0.00    -0.508 OA
ATOM     19  H   UNL     1      12.968  -1.270 -13.401  1.00  0.00     0.293 HD
ENDBRANCH  15  18
ENDBRANCH   1  12
BRANCH  11  20
ATOM     20  C   UNL     1      15.923  -6.181 -13.962  1.00  0.00     0.188 C 
ATOM     21  C   UNL     1      17.146  -7.193 -13.929  1.00  0.00     0.179 C 
ATOM     22  O   UNL     1      15.780  -5.349 -15.121  1.00  0.00    -0.362 OA
ATOM     23  C   UNL     1      18.405  -6.704 -14.690  1.00  0.00     0.177 C 
ATOM     24  C   UNL     1      16.566  -5.642 -16.248  1.00  0.00     0.176 C 
ATOM     25  C   UNL     1      18.069  -5.778 -15.899  1.00  0.00     0.177 C 
BRANCH  21  26
ATOM     26  O   UNL     1      16.727  -8.463 -14.420  1.00  0.00    -0.387 OA
ATOM     27  H   UNL     1      17.005  -8.551 -15.378  1.00  0.00     0.211 HD
ENDBRANCH  21  26
BRANCH  23  28
ATOM     28  O   UNL     1      19.304  -6.108 -13.797  1.00  0.00    -0.387 OA
ATOM     29  H   UNL     1      18.803  -5.317 -13.425  1.00  0.00     0.211 HD
ENDBRANCH  23  28
BRANCH  24  30
ATOM     30  C   UNL     1      15.844  -6.600 -17.248  1.00  0.00     0.191 C 
BRANCH  30  31
ATOM     31  O   UNL     1      16.543  -7.837 -17.325  1.00  0.00    -0.394 OA
ATOM     32  H   UNL     1      17.351  -7.695 -16.730  1.00  0.00     0.210 HD
ENDBRANCH  30  31
ENDBRANCH  24  30
BRANCH  25  33
ATOM     33  O   UNL     1      18.783  -6.159 -17.061  1.00  0.00    -0.388 OA
ATOM     34  H   UNL     1      19.527  -5.504 -17.197  1.00  0.00     0.211 HD
ENDBRANCH  25  33
ENDBRANCH  11  20
BRANCH  10  35
ATOM     35  O   UNL     1      13.832  -6.279 -11.818  1.00  0.00    -0.507 OA
ATOM     36  H   UNL     1      13.503  -6.735 -10.994  1.00  0.00     0.293 HD
ENDBRANCH  10  35
TORSDOF 9
ENDMDL
MODEL 8
REMARK VINA RESULT:    -5.790      5.098      9.230
REMARK INTER + INTRA:          -8.754
REMARK INTER:                  -7.397
REMARK INTRA:                  -1.357
REMARK UNBOUND:                -0.933
REMARK SMILES O=c1c(-c2ccc(O)cc2)coc2c([C@H]3O[C@H](CO)[C@H](O)[C@@H](O)[C@@H]3O)c(O)ccc12
REMARK SMILES IDX 3 1 11 2 12 3 13 4 30 5 2 6 1 7 29 8 28 9 26 10 14 11 4 12
REMARK SMILES IDX 5 13 6 14 7 15 10 16 9 17 8 18 15 20 24 21 16 22 22 23 17 24
REMARK SMILES IDX 20 25 25 26 23 28 18 30 19 31 21 33 27 35
REMARK H PARENT 8 19 25 27 23 29 19 32 21 34 27 36
REMARK Flexibility Score: inf
ROOT
ATOM      1  C   UNL     1      21.270  -0.297  -8.486  1.00  0.00     0.065 A 
ATOM      2  C   UNL     1      21.123  -0.281  -9.897  1.00  0.00     0.208 A 
ATOM      3  O   UNL     1      20.316  -1.247 -10.434  1.00  0.00    -0.463 OA
ATOM      4  C   UNL     1      19.491  -2.059  -9.664  1.00  0.00     0.147 A 
ATOM      5  C   UNL     1      19.878  -2.236  -8.320  1.00  0.00     0.066 A 
ATOM      6  C   UNL     1      20.983  -1.512  -7.835  1.00  0.00     0.200 A 
ATOM      7  O   UNL     1      21.524  -1.789  -6.736  1.00  0.00    -0.288 OA
ATOM      8  C   UNL     1      19.014  -2.860  -7.410  1.00  0.00     0.020 A 
ATOM      9  C   UNL     1      17.749  -3.247  -7.823  1.00  0.00     0.047 A 
ATOM     10  C   UNL     1      17.388  -3.215  -9.198  1.00  0.00     0.125 A 
ATOM     11  C   UNL     1      18.277  -2.609 -10.164  1.00  0.00     0.069 A 
ENDROOT
BRANCH   1  12
ATOM     12  C   UNL     1      20.986   1.005  -7.717  1.00  0.00    -0.011 A 
ATOM     13  C   UNL     1      20.972   2.167  -8.523  1.00  0.00     0.013 A 
ATOM     14  C   UNL     1      19.807   2.426  -9.258  1.00  0.00     0.047 A 
ATOM     15  C   UNL     1      18.625   1.753  -8.887  1.00  0.00     0.115 A 
ATOM     16  C   UNL     1      19.795   0.947  -6.930  1.00  0.00     0.013 A 
ATOM     17  C   UNL     1      18.608   1.057  -7.658  1.00  0.00     0.047 A 
BRANCH  15  18
ATOM     18  O   UNL     1      17.537   1.703  -9.767  1.00  0.00    -0.508 OA
ATOM     19  H   UNL     1      16.754   1.076  -9.591  1.00  0.00     0.293 HD
ENDBRANCH  15  18
ENDBRANCH   1  12
BRANCH  11  20
ATOM     20  C   UNL     1      18.093  -2.844 -11.673  1.00  0.00     0.188 C 
ATOM     21  C   UNL     1      17.082  -1.881 -12.427  1.00  0.00     0.179 C 
ATOM     22  O   UNL     1      17.850  -4.255 -11.750  1.00  0.00    -0.362 OA
ATOM     23  C   UNL     1      15.627  -2.412 -12.508  1.00  0.00     0.177 C 
ATOM     24  C   UNL     1      16.898  -4.714 -12.675  1.00  0.00     0.176 C 
ATOM     25  C   UNL     1      15.545  -3.970 -12.546  1.00  0.00     0.177 C 
BRANCH  21  26
ATOM     26  O   UNL     1      17.581  -1.592 -13.731  1.00  0.00    -0.387 OA
ATOM     27  H   UNL     1      17.197  -2.249 -14.381  1.00  0.00     0.211 HD
ENDBRANCH  21  26
BRANCH  23  28
ATOM     28  O   UNL     1      14.859  -1.864 -11.475  1.00  0.00    -0.387 OA
ATOM     29  H   UNL     1      14.322  -1.135 -11.917  1.00  0.00     0.211 HD
ENDBRANCH  23  28
BRANCH  24  30
ATOM     30  C   UNL     1      17.530  -5.076 -14.056  1.00  0.00     0.191 C 
BRANCH  30  31
ATOM     31  O   UNL     1      17.068  -4.173 -15.053  1.00  0.00    -0.394 OA
ATOM     32  H   UNL     1      17.188  -3.261 -14.627  1.00  0.00     0.210 HD
ENDBRANCH  30  31
ENDBRANCH  24  30
BRANCH  25  33
ATOM     33  O   UNL     1      14.668  -4.420 -13.563  1.00  0.00    -0.388 OA
ATOM     34  H   UNL     1      15.018  -5.289 -13.913  1.00  0.00     0.211 HD
ENDBRANCH  25  33
ENDBRANCH  11  20
BRANCH  10  35
ATOM     35  O   UNL     1      16.189  -3.814  -9.573  1.00  0.00    -0.507 OA
ATOM     36  H   UNL     1      15.992  -4.751  -9.292  1.00  0.00     0.293 HD
ENDBRANCH  10  35
TORSDOF 9
ENDMDL
MODEL 9
REMARK VINA RESULT:    -5.763      5.166      8.266
REMARK INTER + INTRA:          -8.718
REMARK INTER:                  -7.435
REMARK INTRA:                  -1.283
REMARK UNBOUND:                -0.933
REMARK SMILES O=c1c(-c2ccc(O)cc2)coc2c([C@H]3O[C@H](CO)[C@H](O)[C@@H](O)[C@@H]3O)c(O)ccc12
REMARK SMILES IDX 3 1 11 2 12 3 13 4 30 5 2 6 1 7 29 8 28 9 26 10 14 11 4 12
REMARK SMILES IDX 5 13 6 14 7 15 10 16 9 17 8 18 15 20 24 21 16 22 22 23 17 24
REMARK SMILES IDX 20 25 25 26 23 28 18 30 19 31 21 33 27 35
REMARK H PARENT 8 19 25 27 23 29 19 32 21 34 27 36
REMARK Flexibility Score: inf
ROOT
ATOM      1  C   UNL     1      16.446  -2.753 -13.660  1.00  0.00     0.065 A 
ATOM      2  C   UNL     1      17.720  -2.213 -13.971  1.00  0.00     0.208 A 
ATOM      3  O   UNL     1      18.480  -1.801 -12.910  1.00  0.00    -0.463 OA
ATOM      4  C   UNL     1      18.158  -2.093 -11.590  1.00  0.00     0.147 A 
ATOM      5  C   UNL     1      16.797  -2.353 -11.327  1.00  0.00     0.066 A 
ATOM      6  C   UNL     1      15.900  -2.404 -12.411  1.00  0.00     0.200 A 
ATOM      7  O   UNL     1      14.656  -2.396 -12.239  1.00  0.00    -0.288 OA
ATOM      8  C   UNL     1      16.399  -2.857 -10.082  1.00  0.00     0.020 A 
ATOM      9  C   UNL     1      17.357  -3.159  -9.128  1.00  0.00     0.047 A 
ATOM     10  C   UNL     1      18.713  -2.772  -9.308  1.00  0.00     0.125 A 
ATOM     11  C   UNL     1      19.144  -2.216 -10.570  1.00  0.00     0.069 A 
ENDROOT
BRANCH   1  12
ATOM     12  C   UNL     1      16.093  -4.139 -14.228  1.00  0.00    -0.011 A 
ATOM     13  C   UNL     1      17.010  -4.627 -15.186  1.00  0.00     0.013 A 
ATOM     14  C   UNL     1      18.196  -5.200 -14.708  1.00  0.00     0.047 A 
ATOM     15  C   UNL     1      18.249  -5.584 -13.353  1.00  0.00     0.115 A 
ATOM     16  C   UNL     1      15.878  -5.125 -13.216  1.00  0.00     0.013 A 
ATOM     17  C   UNL     1      17.043  -5.610 -12.617  1.00  0.00     0.047 A 
BRANCH  15  18
ATOM     18  O   UNL     1      19.482  -5.838 -12.740  1.00  0.00    -0.508 OA
ATOM     19  H   UNL     1      19.543  -5.982 -11.733  1.00  0.00     0.293 HD
ENDBRANCH  15  18
ENDBRANCH   1  12
BRANCH  11  20
ATOM     20  C   UNL     1      20.492  -1.486 -10.701  1.00  0.00     0.188 C 
ATOM     21  C   UNL     1      21.736  -2.359 -11.158  1.00  0.00     0.179 C 
ATOM     22  O   UNL     1      20.596  -0.780  -9.457  1.00  0.00    -0.362 OA
ATOM     23  C   UNL     1      22.559  -2.965  -9.992  1.00  0.00     0.177 C 
ATOM     24  C   UNL     1      21.858  -0.700  -8.845  1.00  0.00     0.176 C 
ATOM     25  C   UNL     1      22.533  -2.086  -8.702  1.00  0.00     0.177 C 
BRANCH  21  26
ATOM     26  O   UNL     1      22.575  -1.585 -12.011  1.00  0.00    -0.387 OA
ATOM     27  H   UNL     1      22.557  -0.631 -11.709  1.00  0.00     0.211 HD
ENDBRANCH  21  26
BRANCH  23  28
ATOM     28  O   UNL     1      22.148  -4.280  -9.747  1.00  0.00    -0.387 OA
ATOM     29  H   UNL     1      22.690  -4.572  -8.949  1.00  0.00     0.211 HD
ENDBRANCH  23  28
BRANCH  24  30
ATOM     30  C   UNL     1      22.646   0.582  -9.263  1.00  0.00     0.191 C 
BRANCH  30  31
ATOM     31  O   UNL     1      23.826   0.216  -9.969  1.00  0.00    -0.394 OA
ATOM     32  H   UNL     1      24.532   0.154  -9.244  1.00  0.00     0.210 HD
ENDBRANCH  30  31
ENDBRANCH  24  30
BRANCH  25  33
ATOM     33  O   UNL     1      23.831  -1.918  -8.161  1.00  0.00    -0.388 OA
ATOM     34  H   UNL     1      24.297  -2.803  -8.194  1.00  0.00     0.211 HD
ENDBRANCH  25  33
ENDBRANCH  11  20
BRANCH  10  35
ATOM     35  O   UNL     1      19.581  -2.911  -8.228  1.00  0.00    -0.507 OA
ATOM     36  H   UNL     1      20.531  -3.171  -8.384  1.00  0.00     0.293 HD
ENDBRANCH  10  35
TORSDOF 9
ENDMDL
