MODEL 1
REMARK VINA RESULT:    -5.358      0.000      0.000
REMARK INTER + INTRA:         -11.358
REMARK INTER:                  -9.430
REMARK INTRA:                  -1.928
REMARK UNBOUND:                -1.928
REMARK SMILES CCCCCCC=CCCCCCCCC(=O)[O-]
REMARK SMILES IDX 10 1 11 2 12 3 13 4 14 5 15 6 16 7 17 8 18 9 9 10 8 11 7 12
REMARK SMILES IDX 6 13 5 14 4 15 3 16 2 17 1 18
REMARK H PARENT
REMARK Flexibility Score: inf
ROOT
ATOM      1  C   UNL     1      21.276  22.902   9.498  1.00  0.00     0.004 C 
ENDROOT
BRANCH   1   2
ATOM      2  C   UNL     1      20.730  22.059   8.332  1.00  0.00     0.000 C 
BRANCH   2   3
ATOM      3  C   UNL     1      20.709  22.827   6.999  1.00  0.00     0.000 C 
BRANCH   3   4
ATOM      4  C   UNL     1      19.551  22.464   6.051  1.00  0.00     0.000 C 
BRANCH   4   5
ATOM      5  C   UNL     1      19.914  21.500   4.906  1.00  0.00     0.006 C 
BRANCH   5   6
ATOM      6  C   UNL     1      21.425  21.261   4.746  1.00  0.00     0.053 C 
BRANCH   6   7
ATOM      7  C   UNL     1      21.825  19.862   5.104  1.00  0.00     0.041 C 
ATOM      8  O   UNL     1      23.040  19.541   5.154  1.00  0.00    -0.550 OA
ATOM      9  O   UNL     1      20.852  18.901   5.350  1.00  0.00    -0.550 OA
ENDBRANCH   6   7
ENDBRANCH   5   6
ENDBRANCH   4   5
ENDBRANCH   3   4
ENDBRANCH   2   3
ENDBRANCH   1   2
BRANCH   1  10
ATOM     10  C   UNL     1      20.213  23.171  10.574  1.00  0.00     0.027 C 
BRANCH  10  11
ATOM     11  C   UNL     1      19.183  22.068  10.623  1.00  0.00    -0.031 C 
ATOM     12  C   UNL     1      17.864  22.225  10.401  1.00  0.00    -0.031 C 
BRANCH  12  13
ATOM     13  C   UNL     1      17.185  23.513   9.991  1.00  0.00     0.027 C 
BRANCH  13  14
ATOM     14  C   UNL     1      16.984  23.663   8.473  1.00  0.00     0.004 C 
BRANCH  14  15
ATOM     15  C   UNL     1      17.336  25.066   7.955  1.00  0.00     0.000 C 
BRANCH  15  16
ATOM     16  C   UNL     1      18.656  25.559   8.566  1.00  0.00    -0.000 C 
BRANCH  16  17
ATOM     17  C   UNL     1      18.707  27.087   8.705  1.00  0.00    -0.003 C 
ATOM     18  C   UNL     1      17.333  27.704   8.970  1.00  0.00     0.004 C 
ENDBRANCH  16  17
ENDBRANCH  15  16
ENDBRANCH  14  15
ENDBRANCH  13  14
ENDBRANCH  12  13
ENDBRANCH  10  11
ENDBRANCH   1  10
TORSDOF 13
ENDMDL
MODEL 2
REMARK VINA RESULT:    -5.310      1.175      2.379
REMARK INTER + INTRA:         -11.272
REMARK INTER:                  -9.347
REMARK INTRA:                  -1.925
REMARK UNBOUND:                -1.928
REMARK SMILES CCCCCCC=CCCCCCCCC(=O)[O-]
REMARK SMILES IDX 10 1 11 2 12 3 13 4 14 5 15 6 16 7 17 8 18 9 9 10 8 11 7 12
REMARK SMILES IDX 6 13 5 14 4 15 3 16 2 17 1 18
REMARK H PARENT
REMARK Flexibility Score: inf
ROOT
ATOM      1  C   UNL     1      21.373  22.706   7.223  1.00  0.00     0.004 C 
ENDROOT
BRANCH   1   2
ATOM      2  C   UNL     1      20.016  22.500   6.527  1.00  0.00     0.000 C 
BRANCH   2   3
ATOM      3  C   UNL     1      20.126  21.659   5.243  1.00  0.00     0.000 C 
BRANCH   3   4
ATOM      4  C   UNL     1      21.559  21.279   4.829  1.00  0.00     0.000 C 
BRANCH   4   5
ATOM      5  C   UNL     1      21.782  19.787   4.516  1.00  0.00     0.006 C 
BRANCH   5   6
ATOM      6  C   UNL     1      21.999  18.913   5.763  1.00  0.00     0.053 C 
BRANCH   6   7
ATOM      7  C   UNL     1      23.370  19.075   6.345  1.00  0.00     0.041 C 
ATOM      8  O   UNL     1      23.531  19.689   7.432  1.00  0.00    -0.550 OA
ATOM      9  O   UNL     1      24.476  18.576   5.669  1.00  0.00    -0.550 OA
ENDBRANCH   6   7
ENDBRANCH   5   6
ENDBRANCH   4   5
ENDBRANCH   3   4
ENDBRANCH   2   3
ENDBRANCH   1   2
BRANCH   1  10
ATOM     10  C   UNL     1      21.434  22.023   8.599  1.00  0.00     0.027 C 
BRANCH  10  11
ATOM     11  C   UNL     1      21.437  23.034   9.719  1.00  0.00    -0.031 C 
ATOM     12  C   UNL     1      20.433  23.229  10.595  1.00  0.00    -0.031 C 
BRANCH  12  13
ATOM     13  C   UNL     1      19.154  22.423  10.664  1.00  0.00     0.027 C 
BRANCH  13  14
ATOM     14  C   UNL     1      17.873  23.259  10.505  1.00  0.00     0.004 C 
BRANCH  14  15
ATOM     15  C   UNL     1      17.422  23.396   9.042  1.00  0.00     0.000 C 
BRANCH  15  16
ATOM     16  C   UNL     1      17.302  24.874   8.643  1.00  0.00    -0.000 C 
BRANCH  16  17
ATOM     17  C   UNL     1      18.667  25.525   8.375  1.00  0.00    -0.003 C 
ATOM     18  C   UNL     1      18.932  26.735   9.272  1.00  0.00     0.004 C 
ENDBRANCH  16  17
ENDBRANCH  15  16
ENDBRANCH  14  15
ENDBRANCH  13  14
ENDBRANCH  12  13
ENDBRANCH  10  11
ENDBRANCH   1  10
TORSDOF 13
ENDMDL
MODEL 3
REMARK VINA RESULT:    -5.268      3.574      5.878
REMARK INTER + INTRA:         -11.200
REMARK INTER:                  -8.899
REMARK INTRA:                  -2.301
REMARK UNBOUND:                -1.928
REMARK SMILES CCCCCCC=CCCCCCCCC(=O)[O-]
REMARK SMILES IDX 10 1 11 2 12 3 13 4 14 5 15 6 16 7 17 8 18 9 9 10 8 11 7 12
REMARK SMILES IDX 6 13 5 14 4 15 3 16 2 17 1 18
REMARK H PARENT
REMARK Flexibility Score: inf
ROOT
ATOM      1  C   UNL     1      17.196  20.711   9.815  1.00  0.00     0.004 C 
ENDROOT
BRANCH   1   2
ATOM      2  C   UNL     1      18.036  21.355  10.932  1.00  0.00     0.000 C 
BRANCH   2   3
ATOM      3  C   UNL     1      18.423  22.812  10.621  1.00  0.00     0.000 C 
BRANCH   3   4
ATOM      4  C   UNL     1      17.249  23.738  10.252  1.00  0.00     0.000 C 
BRANCH   4   5
ATOM      5  C   UNL     1      17.417  24.525   8.939  1.00  0.00     0.006 C 
BRANCH   5   6
ATOM      6  C   UNL     1      18.698  25.376   8.881  1.00  0.00     0.053 C 
BRANCH   6   7
ATOM      7  C   UNL     1      18.421  26.840   9.036  1.00  0.00     0.041 C 
ATOM      8  O   UNL     1      19.370  27.664   9.096  1.00  0.00    -0.550 OA
ATOM      9  O   UNL     1      17.112  27.293   9.148  1.00  0.00    -0.550 OA
ENDBRANCH   6   7
ENDBRANCH   5   6
ENDBRANCH   4   5
ENDBRANCH   3   4
ENDBRANCH   2   3
ENDBRANCH   1   2
BRANCH   1  10
ATOM     10  C   UNL     1      18.003  20.499   8.524  1.00  0.00     0.027 C 
BRANCH  10  11
ATOM     11  C   UNL     1      17.100  20.388   7.320  1.00  0.00    -0.031 C 
ATOM     12  C   UNL     1      17.060  21.259   6.294  1.00  0.00    -0.031 C 
BRANCH  12  13
ATOM     13  C   UNL     1      17.960  22.462   6.122  1.00  0.00     0.027 C 
BRANCH  13  14
ATOM     14  C   UNL     1      19.171  22.218   5.206  1.00  0.00     0.004 C 
BRANCH  14  15
ATOM     15  C   UNL     1      20.427  21.776   5.973  1.00  0.00     0.000 C 
BRANCH  15  16
ATOM     16  C   UNL     1      20.719  22.731   7.140  1.00  0.00    -0.000 C 
BRANCH  16  17
ATOM     17  C   UNL     1      21.385  22.023   8.329  1.00  0.00    -0.003 C 
ATOM     18  C   UNL     1      21.719  22.978   9.476  1.00  0.00     0.004 C 
ENDBRANCH  16  17
ENDBRANCH  15  16
ENDBRANCH  14  15
ENDBRANCH  13  14
ENDBRANCH  12  13
ENDBRANCH  10  11
ENDBRANCH   1  10
TORSDOF 13
ENDMDL
MODEL 4
REMARK VINA RESULT:    -5.190      3.619      6.049
REMARK INTER + INTRA:         -11.062
REMARK INTER:                  -8.653
REMARK INTRA:                  -2.409
REMARK UNBOUND:                -1.928
REMARK SMILES CCCCCCC=CCCCCCCCC(=O)[O-]
REMARK SMILES IDX 10 1 11 2 12 3 13 4 14 5 15 6 16 7 17 8 18 9 9 10 8 11 7 12
REMARK SMILES IDX 6 13 5 14 4 15 3 16 2 17 1 18
REMARK H PARENT
REMARK Flexibility Score: inf
ROOT
ATOM      1  C   UNL     1      20.475  22.952   9.814  1.00  0.00     0.004 C 
ENDROOT
BRANCH   1   2
ATOM      2  C   UNL     1      19.379  21.882   9.666  1.00  0.00     0.000 C 
BRANCH   2   3
ATOM      3  C   UNL     1      18.012  22.352  10.197  1.00  0.00     0.000 C 
BRANCH   3   4
ATOM      4  C   UNL     1      17.854  23.876  10.343  1.00  0.00     0.000 C 
BRANCH   4   5
ATOM      5  C   UNL     1      17.169  24.585   9.159  1.00  0.00     0.006 C 
BRANCH   5   6
ATOM      6  C   UNL     1      18.084  25.566   8.405  1.00  0.00     0.053 C 
BRANCH   6   7
ATOM      7  C   UNL     1      18.039  26.949   8.981  1.00  0.00     0.041 C 
ATOM      8  O   UNL     1      16.935  27.520   9.178  1.00  0.00    -0.550 OA
ATOM      9  O   UNL     1      19.220  27.622   9.269  1.00  0.00    -0.550 OA
ENDBRANCH   6   7
ENDBRANCH   5   6
ENDBRANCH   4   5
ENDBRANCH   3   4
ENDBRANCH   2   3
ENDBRANCH   1   2
BRANCH   1  10
ATOM     10  C   UNL     1      21.557  22.834   8.729  1.00  0.00     0.027 C 
BRANCH  10  11
ATOM     11  C   UNL     1      21.714  21.409   8.257  1.00  0.00    -0.031 C 
ATOM     12  C   UNL     1      21.562  20.988   6.987  1.00  0.00    -0.031 C 
BRANCH  12  13
ATOM     13  C   UNL     1      21.282  21.873   5.792  1.00  0.00     0.027 C 
BRANCH  13  14
ATOM     14  C   UNL     1      19.823  21.833   5.307  1.00  0.00     0.004 C 
BRANCH  14  15
ATOM     15  C   UNL     1      18.917  22.834   6.040  1.00  0.00     0.000 C 
BRANCH  15  16
ATOM     16  C   UNL     1      17.548  22.209   6.346  1.00  0.00    -0.000 C 
BRANCH  16  17
ATOM     17  C   UNL     1      17.524  20.693   6.102  1.00  0.00    -0.003 C 
ATOM     18  C   UNL     1      17.352  19.888   7.392  1.00  0.00     0.004 C 
ENDBRANCH  16  17
ENDBRANCH  15  16
ENDBRANCH  14  15
ENDBRANCH  13  14
ENDBRANCH  12  13
ENDBRANCH  10  11
ENDBRANCH   1  10
TORSDOF 13
ENDMDL
MODEL 5
REMARK VINA RESULT:    -5.152      1.717      2.247
REMARK INTER + INTRA:         -10.994
REMARK INTER:                  -8.882
REMARK INTRA:                  -2.112
REMARK UNBOUND:                -1.928
REMARK SMILES CCCCCCC=CCCCCCCCC(=O)[O-]
REMARK SMILES IDX 10 1 11 2 12 3 13 4 14 5 15 6 16 7 17 8 18 9 9 10 8 11 7 12
REMARK SMILES IDX 6 13 5 14 4 15 3 16 2 17 1 18
REMARK H PARENT
REMARK Flexibility Score: inf
ROOT
ATOM      1  C   UNL     1      21.363  23.216   8.765  1.00  0.00     0.004 C 
ENDROOT
BRANCH   1   2
ATOM      2  C   UNL     1      20.573  23.118   7.448  1.00  0.00     0.000 C 
BRANCH   2   3
ATOM      3  C   UNL     1      21.110  22.023   6.510  1.00  0.00     0.000 C 
BRANCH   3   4
ATOM      4  C   UNL     1      20.182  21.651   5.339  1.00  0.00     0.000 C 
BRANCH   4   5
ATOM      5  C   UNL     1      18.759  22.237   5.412  1.00  0.00     0.006 C 
BRANCH   5   6
ATOM      6  C   UNL     1      17.802  21.440   6.315  1.00  0.00     0.053 C 
BRANCH   6   7
ATOM      7  C   UNL     1      18.010  19.961   6.205  1.00  0.00     0.041 C 
ATOM      8  O   UNL     1      18.518  19.318   7.161  1.00  0.00    -0.550 OA
ATOM      9  O   UNL     1      17.674  19.295   5.033  1.00  0.00    -0.550 OA
ENDBRANCH   6   7
ENDBRANCH   5   6
ENDBRANCH   4   5
ENDBRANCH   3   4
ENDBRANCH   2   3
ENDBRANCH   1   2
BRANCH   1  10
ATOM     10  C   UNL     1      20.535  22.765   9.978  1.00  0.00     0.027 C 
BRANCH  10  11
ATOM     11  C   UNL     1      19.444  21.803   9.577  1.00  0.00    -0.031 C 
ATOM     12  C   UNL     1      18.199  21.778  10.092  1.00  0.00    -0.031 C 
BRANCH  12  13
ATOM     13  C   UNL     1      17.645  22.754  11.106  1.00  0.00     0.027 C 
BRANCH  13  14
ATOM     14  C   UNL     1      16.961  23.985  10.488  1.00  0.00     0.004 C 
BRANCH  14  15
ATOM     15  C   UNL     1      16.906  23.936   8.953  1.00  0.00     0.000 C 
BRANCH  15  16
ATOM     16  C   UNL     1      17.604  25.160   8.341  1.00  0.00    -0.000 C 
BRANCH  16  17
ATOM     17  C   UNL     1      18.499  25.894   9.350  1.00  0.00    -0.003 C 
ATOM     18  C   UNL     1      19.036  27.220   8.810  1.00  0.00     0.004 C 
ENDBRANCH  16  17
ENDBRANCH  15  16
ENDBRANCH  14  15
ENDBRANCH  13  14
ENDBRANCH  12  13
ENDBRANCH  10  11
ENDBRANCH   1  10
TORSDOF 13
ENDMDL
MODEL 6
REMARK VINA RESULT:    -5.145      2.184      3.190
REMARK INTER + INTRA:         -10.983
REMARK INTER:                  -8.685
REMARK INTRA:                  -2.298
REMARK UNBOUND:                -1.928
REMARK SMILES CCCCCCC=CCCCCCCCC(=O)[O-]
REMARK SMILES IDX 10 1 11 2 12 3 13 4 14 5 15 6 16 7 17 8 18 9 9 10 8 11 7 12
REMARK SMILES IDX 6 13 5 14 4 15 3 16 2 17 1 18
REMARK H PARENT
REMARK Flexibility Score: inf
ROOT
ATOM      1  C   UNL     1      17.868  20.126   6.661  1.00  0.00     0.004 C 
ENDROOT
BRANCH   1   2
ATOM      2  C   UNL     1      17.307  21.537   6.418  1.00  0.00     0.000 C 
BRANCH   2   3
ATOM      3  C   UNL     1      18.410  22.589   6.206  1.00  0.00     0.000 C 
BRANCH   3   4
ATOM      4  C   UNL     1      19.635  22.102   5.409  1.00  0.00     0.000 C 
BRANCH   4   5
ATOM      5  C   UNL     1      20.938  21.966   6.221  1.00  0.00     0.006 C 
BRANCH   5   6
ATOM      6  C   UNL     1      20.970  22.823   7.499  1.00  0.00     0.053 C 
BRANCH   6   7
ATOM      7  C   UNL     1      21.855  22.240   8.557  1.00  0.00     0.041 C 
ATOM      8  O   UNL     1      21.992  22.824   9.664  1.00  0.00    -0.550 OA
ATOM      9  O   UNL     1      22.556  21.067   8.310  1.00  0.00    -0.550 OA
ENDBRANCH   6   7
ENDBRANCH   5   6
ENDBRANCH   4   5
ENDBRANCH   3   4
ENDBRANCH   2   3
ENDBRANCH   1   2
BRANCH   1  10
ATOM     10  C   UNL     1      18.277  19.903   8.125  1.00  0.00     0.027 C 
BRANCH  10  11
ATOM     11  C   UNL     1      17.165  20.277   9.074  1.00  0.00    -0.031 C 
ATOM     12  C   UNL     1      17.297  21.074  10.153  1.00  0.00    -0.031 C 
BRANCH  12  13
ATOM     13  C   UNL     1      18.559  21.797  10.566  1.00  0.00     0.027 C 
BRANCH  13  14
ATOM     14  C   UNL     1      18.566  23.297  10.224  1.00  0.00     0.004 C 
BRANCH  14  15
ATOM     15  C   UNL     1      17.221  23.796   9.676  1.00  0.00     0.000 C 
BRANCH  15  16
ATOM     16  C   UNL     1      17.426  24.978   8.717  1.00  0.00    -0.000 C 
BRANCH  16  17
ATOM     17  C   UNL     1      18.840  25.570   8.805  1.00  0.00    -0.003 C 
ATOM     18  C   UNL     1      18.853  27.094   8.680  1.00  0.00     0.004 C 
ENDBRANCH  16  17
ENDBRANCH  15  16
ENDBRANCH  14  15
ENDBRANCH  13  14
ENDBRANCH  12  13
ENDBRANCH  10  11
ENDBRANCH   1  10
TORSDOF 13
ENDMDL
MODEL 7
REMARK VINA RESULT:    -5.141      3.313      5.754
REMARK INTER + INTRA:         -10.976
REMARK INTER:                  -9.064
REMARK INTRA:                  -1.912
REMARK UNBOUND:                -1.928
REMARK SMILES CCCCCCC=CCCCCCCCC(=O)[O-]
REMARK SMILES IDX 10 1 11 2 12 3 13 4 14 5 15 6 16 7 17 8 18 9 9 10 8 11 7 12
REMARK SMILES IDX 6 13 5 14 4 15 3 16 2 17 1 18
REMARK H PARENT
REMARK Flexibility Score: inf
ROOT
ATOM      1  C   UNL     1      19.438  21.581   6.065  1.00  0.00     0.004 C 
ENDROOT
BRANCH   1   2
ATOM      2  C   UNL     1      18.571  22.806   5.729  1.00  0.00     0.000 C 
BRANCH   2   3
ATOM      3  C   UNL     1      17.179  22.749   6.383  1.00  0.00     0.000 C 
BRANCH   3   4
ATOM      4  C   UNL     1      16.896  23.853   7.419  1.00  0.00     0.000 C 
BRANCH   4   5
ATOM      5  C   UNL     1      18.085  24.780   7.737  1.00  0.00     0.006 C 
BRANCH   5   6
ATOM      6  C   UNL     1      17.684  26.092   8.433  1.00  0.00     0.053 C 
BRANCH   6   7
ATOM      7  C   UNL     1      18.818  26.704   9.197  1.00  0.00     0.041 C 
ATOM      8  O   UNL     1      19.480  27.652   8.700  1.00  0.00    -0.550 OA
ATOM      9  O   UNL     1      19.167  26.205  10.446  1.00  0.00    -0.550 OA
ENDBRANCH   6   7
ENDBRANCH   5   6
ENDBRANCH   4   5
ENDBRANCH   3   4
ENDBRANCH   2   3
ENDBRANCH   1   2
BRANCH   1  10
ATOM     10  C   UNL     1      20.931  21.931   6.171  1.00  0.00     0.027 C 
BRANCH  10  11
ATOM     11  C   UNL     1      21.582  21.230   7.338  1.00  0.00    -0.031 C 
ATOM     12  C   UNL     1      21.765  21.762   8.562  1.00  0.00    -0.031 C 
BRANCH  12  13
ATOM     13  C   UNL     1      21.285  23.123   9.013  1.00  0.00     0.027 C 
BRANCH  13  14
ATOM     14  C   UNL     1      20.518  23.112  10.346  1.00  0.00     0.004 C 
BRANCH  14  15
ATOM     15  C   UNL     1      19.028  22.772  10.180  1.00  0.00     0.000 C 
BRANCH  15  16
ATOM     16  C   UNL     1      18.732  21.352  10.683  1.00  0.00    -0.000 C 
BRANCH  16  17
ATOM     17  C   UNL     1      17.269  20.942  10.462  1.00  0.00    -0.003 C 
ATOM     18  C   UNL     1      17.028  20.326   9.083  1.00  0.00     0.004 C 
ENDBRANCH  16  17
ENDBRANCH  15  16
ENDBRANCH  14  15
ENDBRANCH  13  14
ENDBRANCH  12  13
ENDBRANCH  10  11
ENDBRANCH   1  10
TORSDOF 13
ENDMDL
MODEL 8
REMARK VINA RESULT:    -5.117      3.496      5.685
REMARK INTER + INTRA:         -10.933
REMARK INTER:                  -8.464
REMARK INTRA:                  -2.468
REMARK UNBOUND:                -1.928
REMARK SMILES CCCCCCC=CCCCCCCCC(=O)[O-]
REMARK SMILES IDX 10 1 11 2 12 3 13 4 14 5 15 6 16 7 17 8 18 9 9 10 8 11 7 12
REMARK SMILES IDX 6 13 5 14 4 15 3 16 2 17 1 18
REMARK H PARENT
REMARK Flexibility Score: inf
ROOT
ATOM      1  C   UNL     1      20.406  22.077   7.274  1.00  0.00     0.004 C 
ENDROOT
BRANCH   1   2
ATOM      2  C   UNL     1      19.634  23.405   7.200  1.00  0.00     0.000 C 
BRANCH   2   3
ATOM      3  C   UNL     1      18.304  23.281   6.436  1.00  0.00     0.000 C 
BRANCH   3   4
ATOM      4  C   UNL     1      17.117  24.037   7.060  1.00  0.00     0.000 C 
BRANCH   4   5
ATOM      5  C   UNL     1      17.392  24.679   8.433  1.00  0.00     0.006 C 
BRANCH   5   6
ATOM      6  C   UNL     1      17.626  26.198   8.376  1.00  0.00     0.053 C 
BRANCH   6   7
ATOM      7  C   UNL     1      18.776  26.633   9.233  1.00  0.00     0.041 C 
ATOM      8  O   UNL     1      19.018  26.043  10.318  1.00  0.00    -0.550 OA
ATOM      9  O   UNL     1      19.561  27.713   8.849  1.00  0.00    -0.550 OA
ENDBRANCH   6   7
ENDBRANCH   5   6
ENDBRANCH   4   5
ENDBRANCH   3   4
ENDBRANCH   2   3
ENDBRANCH   1   2
BRANCH   1  10
ATOM     10  C   UNL     1      20.718  21.661   8.720  1.00  0.00     0.027 C 
BRANCH  10  11
ATOM     11  C   UNL     1      20.568  22.820   9.674  1.00  0.00    -0.031 C 
ATOM     12  C   UNL     1      19.723  22.862  10.722  1.00  0.00    -0.031 C 
BRANCH  12  13
ATOM     13  C   UNL     1      18.828  21.731  11.179  1.00  0.00     0.027 C 
BRANCH  13  14
ATOM     14  C   UNL     1      17.449  21.704  10.499  1.00  0.00     0.004 C 
BRANCH  14  15
ATOM     15  C   UNL     1      17.101  20.334   9.898  1.00  0.00     0.000 C 
BRANCH  15  16
ATOM     16  C   UNL     1      17.094  20.396   8.363  1.00  0.00    -0.000 C 
BRANCH  16  17
ATOM     17  C   UNL     1      17.736  19.158   7.720  1.00  0.00    -0.003 C 
ATOM     18  C   UNL     1      18.211  19.414   6.289  1.00  0.00     0.004 C 
ENDBRANCH  16  17
ENDBRANCH  15  16
ENDBRANCH  14  15
ENDBRANCH  13  14
ENDBRANCH  12  13
ENDBRANCH  10  11
ENDBRANCH   1  10
TORSDOF 13
ENDMDL
MODEL 9
REMARK VINA RESULT:    -4.969      1.636      3.421
REMARK INTER + INTRA:         -10.673
REMARK INTER:                  -8.107
REMARK INTRA:                  -2.565
REMARK UNBOUND:                -1.928
REMARK SMILES CCCCCCC=CCCCCCCCC(=O)[O-]
REMARK SMILES IDX 10 1 11 2 12 3 13 4 14 5 15 6 16 7 17 8 18 9 9 10 8 11 7 12
REMARK SMILES IDX 6 13 5 14 4 15 3 16 2 17 1 18
REMARK H PARENT
REMARK Flexibility Score: inf
ROOT
ATOM      1  C   UNL     1      20.555  23.102  10.245  1.00  0.00     0.004 C 
ENDROOT
BRANCH   1   2
ATOM      2  C   UNL     1      21.381  23.201   8.951  1.00  0.00     0.000 C 
BRANCH   2   3
ATOM      3  C   UNL     1      21.181  21.990   8.022  1.00  0.00     0.000 C 
BRANCH   3   4
ATOM      4  C   UNL     1      21.347  22.283   6.519  1.00  0.00     0.000 C 
BRANCH   4   5
ATOM      5  C   UNL     1      21.008  21.112   5.578  1.00  0.00     0.006 C 
BRANCH   5   6
ATOM      6  C   UNL     1      21.300  19.725   6.176  1.00  0.00     0.053 C 
BRANCH   6   7
ATOM      7  C   UNL     1      22.716  19.291   5.950  1.00  0.00     0.041 C 
ATOM      8  O   UNL     1      23.568  19.395   6.872  1.00  0.00    -0.550 OA
ATOM      9  O   UNL     1      23.105  18.802   4.710  1.00  0.00    -0.550 OA
ENDBRANCH   6   7
ENDBRANCH   5   6
ENDBRANCH   4   5
ENDBRANCH   3   4
ENDBRANCH   2   3
ENDBRANCH   1   2
BRANCH   1  10
ATOM     10  C   UNL     1      19.140  23.677  10.082  1.00  0.00     0.027 C 
BRANCH  10  11
ATOM     11  C   UNL     1      19.156  24.978   9.317  1.00  0.00    -0.031 C 
ATOM     12  C   UNL     1      18.427  25.242   8.216  1.00  0.00    -0.031 C 
BRANCH  12  13
ATOM     13  C   UNL     1      17.405  24.318   7.591  1.00  0.00     0.027 C 
BRANCH  13  14
ATOM     14  C   UNL     1      17.956  23.453   6.445  1.00  0.00     0.004 C 
BRANCH  14  15
ATOM     15  C   UNL     1      17.515  21.984   6.534  1.00  0.00     0.000 C 
BRANCH  15  16
ATOM     16  C   UNL     1      17.087  21.627   7.964  1.00  0.00    -0.000 C 
BRANCH  16  17
ATOM     17  C   UNL     1      17.916  20.480   8.560  1.00  0.00    -0.003 C 
ATOM     18  C   UNL     1      17.990  19.261   7.637  1.00  0.00     0.004 C 
ENDBRANCH  16  17
ENDBRANCH  15  16
ENDBRANCH  14  15
ENDBRANCH  13  14
ENDBRANCH  12  13
ENDBRANCH  10  11
ENDBRANCH   1  10
TORSDOF 13
ENDMDL
