MODEL 1
REMARK VINA RESULT:    -3.803      0.000      0.000
REMARK INTER + INTRA:          -4.505
REMARK INTER:                  -4.469
REMARK INTRA:                  -0.036
REMARK UNBOUND:                -0.036
REMARK SMILES O=C([O-])CCC(=O)[O-]
REMARK SMILES IDX 4 1 2 2 1 3 3 4 5 5 6 6 7 7 8 8
REMARK H PARENT
REMARK Flexibility Score: inf
ROOT
ATOM      1  C   UNL     1     -13.871   2.201  -9.443  1.00  0.00     0.059 C 
ENDROOT
BRANCH   1   2
ATOM      2  C   UNL     1     -13.875   0.728  -9.714  1.00  0.00     0.042 C 
ATOM      3  O   UNL     1     -14.881   0.032  -9.417  1.00  0.00    -0.550 OA
ATOM      4  O   UNL     1     -12.751   0.117 -10.257  1.00  0.00    -0.550 OA
ENDBRANCH   1   2
BRANCH   1   5
ATOM      5  C   UNL     1     -12.457   2.788  -9.524  1.00  0.00     0.059 C 
BRANCH   5   6
ATOM      6  C   UNL     1     -12.279   3.929  -8.569  1.00  0.00     0.042 C 
ATOM      7  O   UNL     1     -13.236   4.714  -8.335  1.00  0.00    -0.550 OA
ATOM      8  O   UNL     1     -11.069   4.101  -7.909  1.00  0.00    -0.550 OA
ENDBRANCH   5   6
ENDBRANCH   1   5
TORSDOF 3
ENDMDL
MODEL 2
REMARK VINA RESULT:    -3.795      0.152      4.208
REMARK INTER + INTRA:          -4.497
REMARK INTER:                  -4.464
REMARK INTRA:                  -0.033
REMARK UNBOUND:                -0.036
REMARK SMILES O=C([O-])CCC(=O)[O-]
REMARK SMILES IDX 4 1 2 2 1 3 3 4 5 5 6 6 7 7 8 8
REMARK H PARENT
REMARK Flexibility Score: inf
ROOT
ATOM      1  C   UNL     1     -12.265   2.675  -9.465  1.00  0.00     0.059 C 
ENDROOT
BRANCH   1   2
ATOM      2  C   UNL     1     -12.084   3.883  -8.597  1.00  0.00     0.042 C 
ATOM      3  O   UNL     1     -11.006   4.055  -7.969  1.00  0.00    -0.550 OA
ATOM      4  O   UNL     1     -13.121   4.795  -8.448  1.00  0.00    -0.550 OA
ENDBRANCH   1   2
BRANCH   1   5
ATOM      5  C   UNL     1     -13.724   2.206  -9.485  1.00  0.00     0.059 C 
BRANCH   5   6
ATOM      6  C   UNL     1     -13.824   0.724  -9.681  1.00  0.00     0.042 C 
ATOM      7  O   UNL     1     -14.869   0.109  -9.340  1.00  0.00    -0.550 OA
ATOM      8  O   UNL     1     -12.779   0.029 -10.275  1.00  0.00    -0.550 OA
ENDBRANCH   5   6
ENDBRANCH   1   5
TORSDOF 3
ENDMDL
MODEL 3
REMARK VINA RESULT:    -3.424      7.274      8.242
REMARK INTER + INTRA:          -4.060
REMARK INTER:                  -4.001
REMARK INTRA:                  -0.059
REMARK UNBOUND:                -0.036
REMARK SMILES O=C([O-])CCC(=O)[O-]
REMARK SMILES IDX 4 1 2 2 1 3 3 4 5 5 6 6 7 7 8 8
REMARK H PARENT
REMARK Flexibility Score: inf
ROOT
ATOM      1  C   UNL     1     -10.160  -4.301  -6.639  1.00  0.00     0.059 C 
ENDROOT
BRANCH   1   2
ATOM      2  C   UNL     1     -10.473  -5.615  -5.993  1.00  0.00     0.042 C 
ATOM      3  O   UNL     1     -11.400  -5.699  -5.145  1.00  0.00    -0.550 OA
ATOM      4  O   UNL     1      -9.715  -6.739  -6.296  1.00  0.00    -0.550 OA
ENDBRANCH   1   2
BRANCH   1   5
ATOM      5  C   UNL     1     -10.130  -4.414  -8.168  1.00  0.00     0.059 C 
BRANCH   5   6
ATOM      6  C   UNL     1      -9.035  -3.580  -8.761  1.00  0.00     0.042 C 
ATOM      7  O   UNL     1      -7.963  -3.398  -8.126  1.00  0.00    -0.550 OA
ATOM      8  O   UNL     1      -9.185  -3.038 -10.031  1.00  0.00    -0.550 OA
ENDBRANCH   5   6
ENDBRANCH   1   5
TORSDOF 3
ENDMDL
MODEL 4
REMARK VINA RESULT:    -3.419      7.311      8.610
REMARK INTER + INTRA:          -4.054
REMARK INTER:                  -3.991
REMARK INTRA:                  -0.063
REMARK UNBOUND:                -0.036
REMARK SMILES O=C([O-])CCC(=O)[O-]
REMARK SMILES IDX 4 1 2 2 1 3 3 4 5 5 6 6 7 7 8 8
REMARK H PARENT
REMARK Flexibility Score: inf
ROOT
ATOM      1  C   UNL     1     -10.240  -4.450  -8.128  1.00  0.00     0.059 C 
ENDROOT
BRANCH   1   2
ATOM      2  C   UNL     1      -9.131  -3.691  -8.789  1.00  0.00     0.042 C 
ATOM      3  O   UNL     1      -8.051  -3.485  -8.175  1.00  0.00    -0.550 OA
ATOM      4  O   UNL     1      -9.305  -3.174 -10.067  1.00  0.00    -0.550 OA
ENDBRANCH   1   2
BRANCH   1   5
ATOM      5  C   UNL     1     -10.202  -4.293  -6.603  1.00  0.00     0.059 C 
BRANCH   5   6
ATOM      6  C   UNL     1     -10.498  -5.588  -5.909  1.00  0.00     0.042 C 
ATOM      7  O   UNL     1     -11.453  -5.665  -5.092  1.00  0.00    -0.550 OA
ATOM      8  O   UNL     1      -9.744  -6.719  -6.196  1.00  0.00    -0.550 OA
ENDBRANCH   5   6
ENDBRANCH   1   5
TORSDOF 3
ENDMDL
MODEL 5
REMARK VINA RESULT:    -3.409      3.122      4.231
REMARK INTER + INTRA:          -4.043
REMARK INTER:                  -4.005
REMARK INTRA:                  -0.037
REMARK UNBOUND:                -0.036
REMARK SMILES O=C([O-])CCC(=O)[O-]
REMARK SMILES IDX 4 1 2 2 1 3 3 4 5 5 6 6 7 7 8 8
REMARK H PARENT
REMARK Flexibility Score: inf
ROOT
ATOM      1  C   UNL     1     -10.708  -0.718  -9.747  1.00  0.00     0.059 C 
ENDROOT
BRANCH   1   2
ATOM      2  C   UNL     1     -10.372  -2.088  -9.240  1.00  0.00     0.042 C 
ATOM      3  O   UNL     1     -10.682  -3.106  -9.914  1.00  0.00    -0.550 OA
ATOM      4  O   UNL     1      -9.756  -2.242  -8.005  1.00  0.00    -0.550 OA
ENDBRANCH   1   2
BRANCH   1   5
ATOM      5  C   UNL     1     -12.109  -0.673 -10.367  1.00  0.00     0.059 C 
BRANCH   5   6
ATOM      6  C   UNL     1     -12.867   0.544  -9.928  1.00  0.00     0.042 C 
ATOM      7  O   UNL     1     -14.126   0.546  -9.946  1.00  0.00    -0.550 OA
ATOM      8  O   UNL     1     -12.182   1.658  -9.461  1.00  0.00    -0.550 OA
ENDBRANCH   5   6
ENDBRANCH   1   5
TORSDOF 3
ENDMDL
MODEL 6
REMARK VINA RESULT:    -3.299     15.210     16.517
REMARK INTER + INTRA:          -3.913
REMARK INTER:                  -3.740
REMARK INTRA:                  -0.173
REMARK UNBOUND:                -0.036
REMARK SMILES O=C([O-])CCC(=O)[O-]
REMARK SMILES IDX 4 1 2 2 1 3 3 4 5 5 6 6 7 7 8 8
REMARK H PARENT
REMARK Flexibility Score: inf
ROOT
ATOM      1  C   UNL     1     -10.391   5.516   5.360  1.00  0.00     0.059 C 
ENDROOT
BRANCH   1   2
ATOM      2  C   UNL     1     -11.793   6.009   5.550  1.00  0.00     0.042 C 
ATOM      3  O   UNL     1     -12.015   7.239   5.703  1.00  0.00    -0.550 OA
ATOM      4  O   UNL     1     -12.848   5.108   5.599  1.00  0.00    -0.550 OA
ENDBRANCH   1   2
BRANCH   1   5
ATOM      5  C   UNL     1      -9.493   5.895   6.544  1.00  0.00     0.059 C 
BRANCH   5   6
ATOM      6  C   UNL     1     -10.038   5.372   7.838  1.00  0.00     0.042 C 
ATOM      7  O   UNL     1     -10.313   6.166   8.776  1.00  0.00    -0.550 OA
ATOM      8  O   UNL     1     -10.279   4.013   7.993  1.00  0.00    -0.550 OA
ENDBRANCH   5   6
ENDBRANCH   1   5
TORSDOF 3
ENDMDL
MODEL 7
REMARK VINA RESULT:    -3.270     15.231     16.667
REMARK INTER + INTRA:          -3.879
REMARK INTER:                  -3.702
REMARK INTRA:                  -0.177
REMARK UNBOUND:                -0.036
REMARK SMILES O=C([O-])CCC(=O)[O-]
REMARK SMILES IDX 4 1 2 2 1 3 3 4 5 5 6 6 7 7 8 8
REMARK H PARENT
REMARK Flexibility Score: inf
ROOT
ATOM      1  C   UNL     1      -9.478   6.028   6.922  1.00  0.00     0.059 C 
ENDROOT
BRANCH   1   2
ATOM      2  C   UNL     1     -10.223   5.292   7.994  1.00  0.00     0.042 C 
ATOM      3  O   UNL     1     -10.240   4.033   8.002  1.00  0.00    -0.550 OA
ATOM      4  O   UNL     1     -10.931   5.996   8.959  1.00  0.00    -0.550 OA
ENDBRANCH   1   2
BRANCH   1   5
ATOM      5  C   UNL     1     -10.060   5.742   5.532  1.00  0.00     0.059 C 
BRANCH   5   6
ATOM      6  C   UNL     1     -11.510   6.112   5.455  1.00  0.00     0.042 C 
ATOM      7  O   UNL     1     -12.362   5.258   5.093  1.00  0.00    -0.550 OA
ATOM      8  O   UNL     1     -11.923   7.386   5.821  1.00  0.00    -0.550 OA
ENDBRANCH   5   6
ENDBRANCH   1   5
TORSDOF 3
ENDMDL
MODEL 8
REMARK VINA RESULT:    -3.219     15.353     16.530
REMARK INTER + INTRA:          -3.820
REMARK INTER:                  -3.684
REMARK INTRA:                  -0.136
REMARK UNBOUND:                -0.036
REMARK SMILES O=C([O-])CCC(=O)[O-]
REMARK SMILES IDX 4 1 2 2 1 3 3 4 5 5 6 6 7 7 8 8
REMARK H PARENT
REMARK Flexibility Score: inf
ROOT
ATOM      1  C   UNL     1     -12.049   4.249   7.006  1.00  0.00     0.059 C 
ENDROOT
BRANCH   1   2
ATOM      2  C   UNL     1     -12.158   4.956   5.689  1.00  0.00     0.042 C 
ATOM      3  O   UNL     1     -13.251   5.472   5.337  1.00  0.00    -0.550 OA
ATOM      4  O   UNL     1     -11.065   5.008   4.834  1.00  0.00    -0.550 OA
ENDBRANCH   1   2
BRANCH   1   5
ATOM      5  C   UNL     1     -10.630   4.340   7.580  1.00  0.00     0.059 C 
BRANCH   5   6
ATOM      6  C   UNL     1     -10.349   5.701   8.141  1.00  0.00     0.042 C 
ATOM      7  O   UNL     1     -11.009   6.130   9.124  1.00  0.00    -0.550 OA
ATOM      8  O   UNL     1      -9.333   6.479   7.602  1.00  0.00    -0.550 OA
ENDBRANCH   5   6
ENDBRANCH   1   5
TORSDOF 3
ENDMDL
MODEL 9
REMARK VINA RESULT:    -3.215     16.090     16.750
REMARK INTER + INTRA:          -3.815
REMARK INTER:                  -3.708
REMARK INTRA:                  -0.107
REMARK UNBOUND:                -0.036
REMARK SMILES O=C([O-])CCC(=O)[O-]
REMARK SMILES IDX 4 1 2 2 1 3 3 4 5 5 6 6 7 7 8 8
REMARK H PARENT
REMARK Flexibility Score: inf
ROOT
ATOM      1  C   UNL     1     -11.375   6.148   7.750  1.00  0.00     0.059 C 
ENDROOT
BRANCH   1   2
ATOM      2  C   UNL     1     -12.123   4.960   7.227  1.00  0.00     0.042 C 
ATOM      3  O   UNL     1     -12.160   3.892   7.894  1.00  0.00    -0.550 OA
ATOM      4  O   UNL     1     -12.743   5.018   5.986  1.00  0.00    -0.550 OA
ENDBRANCH   1   2
BRANCH   1   5
ATOM      5  C   UNL     1      -9.862   5.896   7.779  1.00  0.00     0.059 C 
BRANCH   5   6
ATOM      6  C   UNL     1      -9.168   6.584   6.643  1.00  0.00     0.042 C 
ATOM      7  O   UNL     1      -8.364   7.527   6.870  1.00  0.00    -0.550 OA
ATOM      8  O   UNL     1      -9.378   6.157   5.338  1.00  0.00    -0.550 OA
ENDBRANCH   5   6
ENDBRANCH   1   5
TORSDOF 3
ENDMDL
