MODEL 1
REMARK VINA RESULT:    -4.275      0.000      0.000
REMARK INTER + INTRA:          -9.371
REMARK INTER:                  -7.524
REMARK INTRA:                  -1.847
REMARK UNBOUND:                -1.847
REMARK SMILES CCCCCCC=CCCCCCCCC(=O)[O-]
REMARK SMILES IDX 10 1 11 2 12 3 13 4 14 5 15 6 16 7 17 8 18 9 9 10 8 11 7 12
REMARK SMILES IDX 6 13 5 14 4 15 3 16 2 17 1 18
REMARK H PARENT
REMARK Flexibility Score: inf
ROOT
ATOM      1  C   UNL     1       6.518   3.285   8.790  1.00  0.00     0.004 C 
ENDROOT
BRANCH   1   2
ATOM      2  C   UNL     1       7.856   4.037   8.849  1.00  0.00     0.000 C 
BRANCH   2   3
ATOM      3  C   UNL     1       9.022   3.106   8.487  1.00  0.00     0.000 C 
BRANCH   3   4
ATOM      4  C   UNL     1       8.746   2.272   7.224  1.00  0.00     0.000 C 
BRANCH   4   5
ATOM      5  C   UNL     1       9.116   3.020   5.931  1.00  0.00     0.006 C 
BRANCH   5   6
ATOM      6  C   UNL     1       7.885   3.618   5.237  1.00  0.00     0.053 C 
BRANCH   6   7
ATOM      7  C   UNL     1       8.041   5.089   4.998  1.00  0.00     0.041 C 
ATOM      8  O   UNL     1       8.634   5.505   3.968  1.00  0.00    -0.550 OA
ATOM      9  O   UNL     1       7.558   6.001   5.928  1.00  0.00    -0.550 OA
ENDBRANCH   6   7
ENDBRANCH   5   6
ENDBRANCH   4   5
ENDBRANCH   3   4
ENDBRANCH   2   3
ENDBRANCH   1   2
BRANCH   1  10
ATOM     10  C   UNL     1       5.468   4.033   7.954  1.00  0.00     0.027 C 
BRANCH  10  11
ATOM     11  C   UNL     1       5.123   5.376   8.551  1.00  0.00    -0.031 C 
ATOM     12  C   UNL     1       4.099   5.590   9.397  1.00  0.00    -0.031 C 
BRANCH  12  13
ATOM     13  C   UNL     1       3.188   4.497   9.900  1.00  0.00     0.027 C 
BRANCH  13  14
ATOM     14  C   UNL     1       1.779   4.633   9.306  1.00  0.00     0.004 C 
BRANCH  14  15
ATOM     15  C   UNL     1       1.674   4.079   7.873  1.00  0.00     0.000 C 
BRANCH  15  16
ATOM     16  C   UNL     1       1.536   2.550   7.774  1.00  0.00    -0.000 C 
BRANCH  16  17
ATOM     17  C   UNL     1       2.503   1.926   6.758  1.00  0.00    -0.003 C 
ATOM     18  C   UNL     1       2.918   2.944   5.698  1.00  0.00     0.004 C 
ENDBRANCH  16  17
ENDBRANCH  15  16
ENDBRANCH  14  15
ENDBRANCH  13  14
ENDBRANCH  12  13
ENDBRANCH  10  11
ENDBRANCH   1  10
TORSDOF 13
ENDMDL
MODEL 2
REMARK VINA RESULT:    -4.273     10.757     13.856
REMARK INTER + INTRA:          -9.367
REMARK INTER:                  -6.893
REMARK INTRA:                  -2.474
REMARK UNBOUND:                -1.847
REMARK SMILES CCCCCCC=CCCCCCCCC(=O)[O-]
REMARK SMILES IDX 10 1 11 2 12 3 13 4 14 5 15 6 16 7 17 8 18 9 9 10 8 11 7 12
REMARK SMILES IDX 6 13 5 14 4 15 3 16 2 17 1 18
REMARK H PARENT
REMARK Flexibility Score: inf
ROOT
ATOM      1  C   UNL     1      -3.579  -4.886   8.116  1.00  0.00     0.004 C 
ENDROOT
BRANCH   1   2
ATOM      2  C   UNL     1      -4.585  -4.656   9.254  1.00  0.00     0.000 C 
BRANCH   2   3
ATOM      3  C   UNL     1      -6.024  -4.866   8.762  1.00  0.00     0.000 C 
BRANCH   3   4
ATOM      4  C   UNL     1      -6.888  -3.601   8.898  1.00  0.00     0.000 C 
BRANCH   4   5
ATOM      5  C   UNL     1      -7.791  -3.369   7.674  1.00  0.00     0.006 C 
BRANCH   5   6
ATOM      6  C   UNL     1      -7.131  -3.838   6.371  1.00  0.00     0.053 C 
BRANCH   6   7
ATOM      7  C   UNL     1      -7.985  -4.828   5.638  1.00  0.00     0.041 C 
ATOM      8  O   UNL     1      -7.882  -6.059   5.883  1.00  0.00    -0.550 OA
ATOM      9  O   UNL     1      -8.874  -4.393   4.663  1.00  0.00    -0.550 OA
ENDBRANCH   6   7
ENDBRANCH   5   6
ENDBRANCH   4   5
ENDBRANCH   3   4
ENDBRANCH   2   3
ENDBRANCH   1   2
BRANCH   1  10
ATOM     10  C   UNL     1      -2.132  -4.964   8.628  1.00  0.00     0.027 C 
BRANCH  10  11
ATOM     11  C   UNL     1      -1.862  -3.952   9.714  1.00  0.00    -0.031 C 
ATOM     12  C   UNL     1      -1.215  -2.787   9.523  1.00  0.00    -0.031 C 
BRANCH  12  13
ATOM     13  C   UNL     1      -0.719  -2.319   8.177  1.00  0.00     0.027 C 
BRANCH  13  14
ATOM     14  C   UNL     1      -1.551  -1.137   7.661  1.00  0.00     0.004 C 
BRANCH  14  15
ATOM     15  C   UNL     1      -2.778  -1.577   6.841  1.00  0.00     0.000 C 
BRANCH  15  16
ATOM     16  C   UNL     1      -4.139  -1.281   7.495  1.00  0.00    -0.000 C 
BRANCH  16  17
ATOM     17  C   UNL     1      -4.031  -0.349   8.710  1.00  0.00    -0.003 C 
ATOM     18  C   UNL     1      -4.465  -1.062   9.988  1.00  0.00     0.004 C 
ENDBRANCH  16  17
ENDBRANCH  15  16
ENDBRANCH  14  15
ENDBRANCH  13  14
ENDBRANCH  12  13
ENDBRANCH  10  11
ENDBRANCH   1  10
TORSDOF 13
ENDMDL
MODEL 3
REMARK VINA RESULT:    -4.196      1.474      2.557
REMARK INTER + INTRA:          -9.231
REMARK INTER:                  -7.311
REMARK INTRA:                  -1.920
REMARK UNBOUND:                -1.847
REMARK SMILES CCCCCCC=CCCCCCCCC(=O)[O-]
REMARK SMILES IDX 10 1 11 2 12 3 13 4 14 5 15 6 16 7 17 8 18 9 9 10 8 11 7 12
REMARK SMILES IDX 6 13 5 14 4 15 3 16 2 17 1 18
REMARK H PARENT
REMARK Flexibility Score: inf
ROOT
ATOM      1  C   UNL     1       7.824   1.206   9.981  1.00  0.00     0.004 C 
ENDROOT
BRANCH   1   2
ATOM      2  C   UNL     1       8.999   2.001   9.394  1.00  0.00     0.000 C 
BRANCH   2   3
ATOM      3  C   UNL     1       8.701   3.507   9.403  1.00  0.00     0.000 C 
BRANCH   3   4
ATOM      4  C   UNL     1       8.641   4.110   7.990  1.00  0.00     0.000 C 
BRANCH   4   5
ATOM      5  C   UNL     1       8.977   3.082   6.895  1.00  0.00     0.006 C 
BRANCH   5   6
ATOM      6  C   UNL     1       9.015   3.716   5.498  1.00  0.00     0.053 C 
BRANCH   6   7
ATOM      7  C   UNL     1       7.847   4.626   5.267  1.00  0.00     0.041 C 
ATOM      8  O   UNL     1       6.683   4.155   5.183  1.00  0.00    -0.550 OA
ATOM      9  O   UNL     1       8.049   5.992   5.115  1.00  0.00    -0.550 OA
ENDBRANCH   6   7
ENDBRANCH   5   6
ENDBRANCH   4   5
ENDBRANCH   3   4
ENDBRANCH   2   3
ENDBRANCH   1   2
BRANCH   1  10
ATOM     10  C   UNL     1       6.700   0.990   8.956  1.00  0.00     0.027 C 
BRANCH  10  11
ATOM     11  C   UNL     1       5.345   1.345   9.519  1.00  0.00    -0.031 C 
ATOM     12  C   UNL     1       4.656   2.454   9.196  1.00  0.00    -0.031 C 
BRANCH  12  13
ATOM     13  C   UNL     1       5.131   3.467   8.184  1.00  0.00     0.027 C 
BRANCH  13  14
ATOM     14  C   UNL     1       5.076   4.890   8.758  1.00  0.00     0.004 C 
BRANCH  14  15
ATOM     15  C   UNL     1       3.654   5.321   9.163  1.00  0.00     0.000 C 
BRANCH  15  16
ATOM     16  C   UNL     1       2.629   5.346   8.015  1.00  0.00    -0.000 C 
BRANCH  16  17
ATOM     17  C   UNL     1       1.435   4.412   8.258  1.00  0.00    -0.003 C 
ATOM     18  C   UNL     1       1.505   3.187   7.349  1.00  0.00     0.004 C 
ENDBRANCH  16  17
ENDBRANCH  15  16
ENDBRANCH  14  15
ENDBRANCH  13  14
ENDBRANCH  12  13
ENDBRANCH  10  11
ENDBRANCH   1  10
TORSDOF 13
ENDMDL
MODEL 4
REMARK VINA RESULT:    -4.182     10.108     13.307
REMARK INTER + INTRA:          -9.208
REMARK INTER:                  -7.446
REMARK INTRA:                  -1.762
REMARK UNBOUND:                -1.847
REMARK SMILES CCCCCCC=CCCCCCCCC(=O)[O-]
REMARK SMILES IDX 10 1 11 2 12 3 13 4 14 5 15 6 16 7 17 8 18 9 9 10 8 11 7 12
REMARK SMILES IDX 6 13 5 14 4 15 3 16 2 17 1 18
REMARK H PARENT
REMARK Flexibility Score: inf
ROOT
ATOM      1  C   UNL     1      -4.293  -4.859   9.323  1.00  0.00     0.004 C 
ENDROOT
BRANCH   1   2
ATOM      2  C   UNL     1      -3.331  -4.839   8.126  1.00  0.00     0.000 C 
BRANCH   2   3
ATOM      3  C   UNL     1      -1.876  -4.704   8.596  1.00  0.00     0.000 C 
BRANCH   3   4
ATOM      4  C   UNL     1      -1.309  -3.292   8.374  1.00  0.00     0.000 C 
BRANCH   4   5
ATOM      5  C   UNL     1      -1.291  -2.454   9.665  1.00  0.00     0.006 C 
BRANCH   5   6
ATOM      6  C   UNL     1      -2.530  -1.556   9.788  1.00  0.00     0.053 C 
BRANCH   6   7
ATOM      7  C   UNL     1      -2.467  -0.388   8.852  1.00  0.00     0.041 C 
ATOM      8  O   UNL     1      -1.500   0.416   8.905  1.00  0.00    -0.550 OA
ATOM      9  O   UNL     1      -3.493  -0.171   7.940  1.00  0.00    -0.550 OA
ENDBRANCH   6   7
ENDBRANCH   5   6
ENDBRANCH   4   5
ENDBRANCH   3   4
ENDBRANCH   2   3
ENDBRANCH   1   2
BRANCH   1  10
ATOM     10  C   UNL     1      -5.634  -4.181   9.001  1.00  0.00     0.027 C 
BRANCH  10  11
ATOM     11  C   UNL     1      -6.706  -5.185   8.654  1.00  0.00    -0.031 C 
ATOM     12  C   UNL     1      -7.462  -5.136   7.543  1.00  0.00    -0.031 C 
BRANCH  12  13
ATOM     13  C   UNL     1      -7.299  -4.089   6.468  1.00  0.00     0.027 C 
BRANCH  13  14
ATOM     14  C   UNL     1      -8.401  -3.024   6.561  1.00  0.00     0.004 C 
BRANCH  14  15
ATOM     15  C   UNL     1      -8.028  -1.851   7.486  1.00  0.00     0.000 C 
BRANCH  15  16
ATOM     16  C   UNL     1      -9.060  -1.531   8.582  1.00  0.00    -0.000 C 
BRANCH  16  17
ATOM     17  C   UNL     1      -8.916  -2.427   9.821  1.00  0.00    -0.003 C 
ATOM     18  C   UNL     1     -10.073  -3.418   9.918  1.00  0.00     0.004 C 
ENDBRANCH  16  17
ENDBRANCH  15  16
ENDBRANCH  14  15
ENDBRANCH  13  14
ENDBRANCH  12  13
ENDBRANCH  10  11
ENDBRANCH   1  10
TORSDOF 13
ENDMDL
MODEL 5
REMARK VINA RESULT:    -4.158     11.369     14.382
REMARK INTER + INTRA:          -9.164
REMARK INTER:                  -7.053
REMARK INTRA:                  -2.111
REMARK UNBOUND:                -1.847
REMARK SMILES CCCCCCC=CCCCCCCCC(=O)[O-]
REMARK SMILES IDX 10 1 11 2 12 3 13 4 14 5 15 6 16 7 17 8 18 9 9 10 8 11 7 12
REMARK SMILES IDX 6 13 5 14 4 15 3 16 2 17 1 18
REMARK H PARENT
REMARK Flexibility Score: inf
ROOT
ATOM      1  C   UNL     1      -8.573  -3.366   8.010  1.00  0.00     0.004 C 
ENDROOT
BRANCH   1   2
ATOM      2  C   UNL     1      -7.656  -4.117   8.986  1.00  0.00     0.000 C 
BRANCH   2   3
ATOM      3  C   UNL     1      -6.260  -3.478   9.028  1.00  0.00     0.000 C 
BRANCH   3   4
ATOM      4  C   UNL     1      -5.170  -4.395   8.450  1.00  0.00     0.000 C 
BRANCH   4   5
ATOM      5  C   UNL     1      -4.172  -4.872   9.519  1.00  0.00     0.006 C 
BRANCH   5   6
ATOM      6  C   UNL     1      -3.561  -3.703  10.303  1.00  0.00     0.053 C 
BRANCH   6   7
ATOM      7  C   UNL     1      -2.427  -3.065   9.559  1.00  0.00     0.041 C 
ATOM      8  O   UNL     1      -2.616  -2.011   8.898  1.00  0.00    -0.550 OA
ATOM      9  O   UNL     1      -1.168  -3.653   9.573  1.00  0.00    -0.550 OA
ENDBRANCH   6   7
ENDBRANCH   5   6
ENDBRANCH   4   5
ENDBRANCH   3   4
ENDBRANCH   2   3
ENDBRANCH   1   2
BRANCH   1  10
ATOM     10  C   UNL     1      -9.926  -3.008   8.645  1.00  0.00     0.027 C 
BRANCH  10  11
ATOM     11  C   UNL     1      -9.883  -3.089  10.151  1.00  0.00    -0.031 C 
ATOM     12  C   UNL     1      -9.627  -2.046  10.961  1.00  0.00    -0.031 C 
BRANCH  12  13
ATOM     13  C   UNL     1      -9.399  -0.640  10.464  1.00  0.00     0.027 C 
BRANCH  13  14
ATOM     14  C   UNL     1      -7.900  -0.322  10.373  1.00  0.00     0.004 C 
BRANCH  14  15
ATOM     15  C   UNL     1      -7.474   0.178   8.980  1.00  0.00     0.000 C 
BRANCH  15  16
ATOM     16  C   UNL     1      -8.633   0.471   8.011  1.00  0.00    -0.000 C 
BRANCH  16  17
ATOM     17  C   UNL     1      -8.301   0.115   6.555  1.00  0.00    -0.003 C 
ATOM     18  C   UNL     1      -6.933  -0.556   6.452  1.00  0.00     0.004 C 
ENDBRANCH  16  17
ENDBRANCH  15  16
ENDBRANCH  14  15
ENDBRANCH  13  14
ENDBRANCH  12  13
ENDBRANCH  10  11
ENDBRANCH   1  10
TORSDOF 13
ENDMDL
MODEL 6
REMARK VINA RESULT:    -4.139     11.301     14.500
REMARK INTER + INTRA:          -9.132
REMARK INTER:                  -7.031
REMARK INTRA:                  -2.102
REMARK UNBOUND:                -1.847
REMARK SMILES CCCCCCC=CCCCCCCCC(=O)[O-]
REMARK SMILES IDX 10 1 11 2 12 3 13 4 14 5 15 6 16 7 17 8 18 9 9 10 8 11 7 12
REMARK SMILES IDX 6 13 5 14 4 15 3 16 2 17 1 18
REMARK H PARENT
REMARK Flexibility Score: inf
ROOT
ATOM      1  C   UNL     1      -5.721  -1.193   9.226  1.00  0.00     0.004 C 
ENDROOT
BRANCH   1   2
ATOM      2  C   UNL     1      -6.658  -0.751   8.093  1.00  0.00     0.000 C 
BRANCH   2   3
ATOM      3  C   UNL     1      -8.127  -0.980   8.476  1.00  0.00     0.000 C 
BRANCH   3   4
ATOM      4  C   UNL     1      -8.303  -2.112   9.502  1.00  0.00     0.000 C 
BRANCH   4   5
ATOM      5  C   UNL     1      -8.764  -3.429   8.855  1.00  0.00     0.006 C 
BRANCH   5   6
ATOM      6  C   UNL     1      -8.556  -3.431   7.335  1.00  0.00     0.053 C 
BRANCH   6   7
ATOM      7  C   UNL     1      -7.557  -4.464   6.911  1.00  0.00     0.041 C 
ATOM      8  O   UNL     1      -7.485  -5.564   7.517  1.00  0.00    -0.550 OA
ATOM      9  O   UNL     1      -6.684  -4.198   5.862  1.00  0.00    -0.550 OA
ENDBRANCH   6   7
ENDBRANCH   5   6
ENDBRANCH   4   5
ENDBRANCH   3   4
ENDBRANCH   2   3
ENDBRANCH   1   2
BRANCH   1  10
ATOM     10  C   UNL     1      -4.712  -2.255   8.764  1.00  0.00     0.027 C 
BRANCH  10  11
ATOM     11  C   UNL     1      -5.001  -3.609   9.364  1.00  0.00    -0.031 C 
ATOM     12  C   UNL     1      -4.383  -4.748   9.003  1.00  0.00    -0.031 C 
BRANCH  12  13
ATOM     13  C   UNL     1      -3.277  -4.808   7.978  1.00  0.00     0.027 C 
BRANCH  13  14
ATOM     14  C   UNL     1      -1.905  -4.955   8.651  1.00  0.00     0.004 C 
BRANCH  14  15
ATOM     15  C   UNL     1      -1.186  -3.609   8.851  1.00  0.00     0.000 C 
BRANCH  15  16
ATOM     16  C   UNL     1      -0.831  -3.270  10.310  1.00  0.00    -0.000 C 
BRANCH  16  17
ATOM     17  C   UNL     1      -1.839  -2.317  10.967  1.00  0.00    -0.003 C 
ATOM     18  C   UNL     1      -2.578  -3.005  12.112  1.00  0.00     0.004 C 
ENDBRANCH  16  17
ENDBRANCH  15  16
ENDBRANCH  14  15
ENDBRANCH  13  14
ENDBRANCH  12  13
ENDBRANCH  10  11
ENDBRANCH   1  10
TORSDOF 13
ENDMDL
MODEL 7
REMARK VINA RESULT:    -4.124     10.853     13.020
REMARK INTER + INTRA:          -9.106
REMARK INTER:                  -6.774
REMARK INTRA:                  -2.332
REMARK UNBOUND:                -1.847
REMARK SMILES CCCCCCC=CCCCCCCCC(=O)[O-]
REMARK SMILES IDX 10 1 11 2 12 3 13 4 14 5 15 6 16 7 17 8 18 9 9 10 8 11 7 12
REMARK SMILES IDX 6 13 5 14 4 15 3 16 2 17 1 18
REMARK H PARENT
REMARK Flexibility Score: inf
ROOT
ATOM      1  C   UNL     1      -1.145  -3.553   8.354  1.00  0.00     0.004 C 
ENDROOT
BRANCH   1   2
ATOM      2  C   UNL     1      -1.852  -4.840   8.803  1.00  0.00     0.000 C 
BRANCH   2   3
ATOM      3  C   UNL     1      -3.324  -4.836   8.369  1.00  0.00     0.000 C 
BRANCH   3   4
ATOM      4  C   UNL     1      -4.294  -4.723   9.558  1.00  0.00     0.000 C 
BRANCH   4   5
ATOM      5  C   UNL     1      -5.601  -4.002   9.187  1.00  0.00     0.006 C 
BRANCH   5   6
ATOM      6  C   UNL     1      -5.918  -4.112   7.689  1.00  0.00     0.053 C 
BRANCH   6   7
ATOM      7  C   UNL     1      -7.307  -4.620   7.450  1.00  0.00     0.041 C 
ATOM      8  O   UNL     1      -7.526  -5.467   6.545  1.00  0.00    -0.550 OA
ATOM      9  O   UNL     1      -8.366  -4.133   8.207  1.00  0.00    -0.550 OA
ENDBRANCH   6   7
ENDBRANCH   5   6
ENDBRANCH   4   5
ENDBRANCH   3   4
ENDBRANCH   2   3
ENDBRANCH   1   2
BRANCH   1  10
ATOM     10  C   UNL     1      -2.021  -2.707   7.418  1.00  0.00     0.027 C 
BRANCH  10  11
ATOM     11  C   UNL     1      -1.811  -1.228   7.631  1.00  0.00    -0.031 C 
ATOM     12  C   UNL     1      -2.546  -0.468   8.464  1.00  0.00    -0.031 C 
BRANCH  12  13
ATOM     13  C   UNL     1      -3.650  -1.014   9.335  1.00  0.00     0.027 C 
BRANCH  13  14
ATOM     14  C   UNL     1      -3.382  -0.719  10.818  1.00  0.00     0.004 C 
BRANCH  14  15
ATOM     15  C   UNL     1      -1.887  -0.776  11.182  1.00  0.00     0.000 C 
BRANCH  15  16
ATOM     16  C   UNL     1      -1.392  -2.142  11.690  1.00  0.00    -0.000 C 
BRANCH  16  17
ATOM     17  C   UNL     1      -2.523  -3.024  12.236  1.00  0.00    -0.003 C 
ATOM     18  C   UNL     1      -2.499  -3.065  13.762  1.00  0.00     0.004 C 
ENDBRANCH  16  17
ENDBRANCH  15  16
ENDBRANCH  14  15
ENDBRANCH  13  14
ENDBRANCH  12  13
ENDBRANCH  10  11
ENDBRANCH   1  10
TORSDOF 13
ENDMDL
MODEL 8
REMARK VINA RESULT:    -4.093      2.441      5.441
REMARK INTER + INTRA:          -9.051
REMARK INTER:                  -6.913
REMARK INTRA:                  -2.137
REMARK UNBOUND:                -1.847
REMARK SMILES CCCCCCC=CCCCCCCCC(=O)[O-]
REMARK SMILES IDX 10 1 11 2 12 3 13 4 14 5 15 6 16 7 17 8 18 9 9 10 8 11 7 12
REMARK SMILES IDX 6 13 5 14 4 15 3 16 2 17 1 18
REMARK H PARENT
REMARK Flexibility Score: inf
ROOT
ATOM      1  C   UNL     1       9.662   3.035  10.000  1.00  0.00     0.004 C 
ENDROOT
BRANCH   1   2
ATOM      2  C   UNL     1       9.187   3.876   8.806  1.00  0.00     0.000 C 
BRANCH   2   3
ATOM      3  C   UNL     1       7.660   4.031   8.820  1.00  0.00     0.000 C 
BRANCH   3   4
ATOM      4  C   UNL     1       7.187   5.319   8.125  1.00  0.00     0.000 C 
BRANCH   4   5
ATOM      5  C   UNL     1       5.713   5.644   8.422  1.00  0.00     0.006 C 
BRANCH   5   6
ATOM      6  C   UNL     1       4.882   4.379   8.676  1.00  0.00     0.053 C 
BRANCH   6   7
ATOM      7  C   UNL     1       4.003   4.047   7.508  1.00  0.00     0.041 C 
ATOM      8  O   UNL     1       3.419   4.963   6.873  1.00  0.00    -0.550 OA
ATOM      9  O   UNL     1       3.806   2.721   7.141  1.00  0.00    -0.550 OA
ENDBRANCH   6   7
ENDBRANCH   5   6
ENDBRANCH   4   5
ENDBRANCH   3   4
ENDBRANCH   2   3
ENDBRANCH   1   2
BRANCH   1  10
ATOM     10  C   UNL     1       8.645   1.950  10.387  1.00  0.00     0.027 C 
BRANCH  10  11
ATOM     11  C   UNL     1       9.136   0.565  10.040  1.00  0.00    -0.031 C 
ATOM     12  C   UNL     1       8.752  -0.127   8.952  1.00  0.00    -0.031 C 
BRANCH  12  13
ATOM     13  C   UNL     1       7.811   0.419   7.906  1.00  0.00     0.027 C 
BRANCH  13  14
ATOM     14  C   UNL     1       8.473   0.434   6.521  1.00  0.00     0.004 C 
BRANCH  14  15
ATOM     15  C   UNL     1       8.423   1.817   5.846  1.00  0.00     0.000 C 
BRANCH  15  16
ATOM     16  C   UNL     1       7.018   2.433   5.725  1.00  0.00    -0.000 C 
BRANCH  16  17
ATOM     17  C   UNL     1       6.892   3.413   4.550  1.00  0.00    -0.003 C 
ATOM     18  C   UNL     1       7.896   4.555   4.678  1.00  0.00     0.004 C 
ENDBRANCH  16  17
ENDBRANCH  15  16
ENDBRANCH  14  15
ENDBRANCH  13  14
ENDBRANCH  12  13
ENDBRANCH  10  11
ENDBRANCH   1  10
TORSDOF 13
ENDMDL
MODEL 9
REMARK VINA RESULT:    -4.081     13.291     15.338
REMARK INTER + INTRA:          -9.029
REMARK INTER:                  -6.624
REMARK INTRA:                  -2.405
REMARK UNBOUND:                -1.847
REMARK SMILES CCCCCCC=CCCCCCCCC(=O)[O-]
REMARK SMILES IDX 10 1 11 2 12 3 13 4 14 5 15 6 16 7 17 8 18 9 9 10 8 11 7 12
REMARK SMILES IDX 6 13 5 14 4 15 3 16 2 17 1 18
REMARK H PARENT
REMARK Flexibility Score: inf
ROOT
ATOM      1  C   UNL     1      -4.652  -3.175   7.840  1.00  0.00     0.004 C 
ENDROOT
BRANCH   1   2
ATOM      2  C   UNL     1      -5.042  -1.717   7.555  1.00  0.00     0.000 C 
BRANCH   2   3
ATOM      3  C   UNL     1      -5.363  -1.517   6.067  1.00  0.00     0.000 C 
BRANCH   3   4
ATOM      4  C   UNL     1      -5.803  -2.818   5.375  1.00  0.00     0.000 C 
BRANCH   4   5
ATOM      5  C   UNL     1      -7.171  -2.685   4.683  1.00  0.00     0.006 C 
BRANCH   5   6
ATOM      6  C   UNL     1      -7.447  -3.845   3.718  1.00  0.00     0.053 C 
BRANCH   6   7
ATOM      7  C   UNL     1      -8.524  -4.752   4.230  1.00  0.00     0.041 C 
ATOM      8  O   UNL     1      -8.231  -5.734   4.962  1.00  0.00    -0.550 OA
ATOM      9  O   UNL     1      -9.849  -4.529   3.875  1.00  0.00    -0.550 OA
ENDBRANCH   6   7
ENDBRANCH   5   6
ENDBRANCH   4   5
ENDBRANCH   3   4
ENDBRANCH   2   3
ENDBRANCH   1   2
BRANCH   1  10
ATOM     10  C   UNL     1      -5.401  -3.749   9.052  1.00  0.00     0.027 C 
BRANCH  10  11
ATOM     11  C   UNL     1      -6.235  -4.952   8.683  1.00  0.00    -0.031 C 
ATOM     12  C   UNL     1      -7.516  -4.893   8.278  1.00  0.00    -0.031 C 
BRANCH  12  13
ATOM     13  C   UNL     1      -8.273  -3.601   8.090  1.00  0.00     0.027 C 
BRANCH  13  14
ATOM     14  C   UNL     1      -9.367  -3.441   9.155  1.00  0.00     0.004 C 
BRANCH  14  15
ATOM     15  C   UNL     1      -9.180  -2.185  10.026  1.00  0.00     0.000 C 
BRANCH  15  16
ATOM     16  C   UNL     1      -8.076  -1.223   9.553  1.00  0.00    -0.000 C 
BRANCH  16  17
ATOM     17  C   UNL     1      -8.631   0.058   8.915  1.00  0.00    -0.003 C 
ATOM     18  C   UNL     1      -8.504   0.012   7.394  1.00  0.00     0.004 C 
ENDBRANCH  16  17
ENDBRANCH  15  16
ENDBRANCH  14  15
ENDBRANCH  13  14
ENDBRANCH  12  13
ENDBRANCH  10  11
ENDBRANCH   1  10
TORSDOF 13
ENDMDL
