MODEL 1
REMARK VINA RESULT:    -3.824      0.000      0.000
REMARK INTER + INTRA:          -4.608
REMARK INTER:                  -4.494
REMARK INTRA:                  -0.114
REMARK UNBOUND:                -0.114
REMARK SMILES CCCCC(=O)[O-]
REMARK SMILES IDX 4 1 5 2 6 3 7 4 3 5 2 6 1 7
REMARK H PARENT
REMARK Flexibility Score: inf
ROOT
ATOM      1  C   UNL     1      -3.181  35.347  98.468  1.00  0.00     0.053 C 
ENDROOT
BRANCH   1   2
ATOM      2  C   UNL     1      -3.389  36.664  97.783  1.00  0.00     0.041 C 
ATOM      3  O   UNL     1      -3.557  36.709  96.537  1.00  0.00    -0.550 OA
ATOM      4  O   UNL     1      -3.364  37.842  98.518  1.00  0.00    -0.550 OA
ENDBRANCH   1   2
BRANCH   1   5
ATOM      5  C   UNL     1      -4.431  34.461  98.392  1.00  0.00     0.006 C 
BRANCH   5   6
ATOM      6  C   UNL     1      -5.662  35.139  99.013  1.00  0.00    -0.003 C 
ATOM      7  C   UNL     1      -5.445  35.420 100.496  1.00  0.00     0.004 C 
ENDBRANCH   5   6
ENDBRANCH   1   5
TORSDOF 3
ENDMDL
MODEL 2
REMARK VINA RESULT:    -3.788      1.886      2.624
REMARK INTER + INTRA:          -4.566
REMARK INTER:                  -4.474
REMARK INTRA:                  -0.091
REMARK UNBOUND:                -0.114
REMARK SMILES CCCCC(=O)[O-]
REMARK SMILES IDX 4 1 5 2 6 3 7 4 3 5 2 6 1 7
REMARK H PARENT
REMARK Flexibility Score: inf
ROOT
ATOM      1  C   UNL     1      -5.017  36.079  97.461  1.00  0.00     0.053 C 
ENDROOT
BRANCH   1   2
ATOM      2  C   UNL     1      -5.634  37.404  97.786  1.00  0.00     0.041 C 
ATOM      3  O   UNL     1      -5.199  38.087  98.749  1.00  0.00    -0.550 OA
ATOM      4  O   UNL     1      -6.713  37.870  97.044  1.00  0.00    -0.550 OA
ENDBRANCH   1   2
BRANCH   1   5
ATOM      5  C   UNL     1      -5.338  35.023  98.528  1.00  0.00     0.006 C 
BRANCH   5   6
ATOM      6  C   UNL     1      -4.077  34.319  99.048  1.00  0.00    -0.003 C 
ATOM      7  C   UNL     1      -2.817  35.077  98.641  1.00  0.00     0.004 C 
ENDBRANCH   5   6
ENDBRANCH   1   5
TORSDOF 3
ENDMDL
MODEL 3
REMARK VINA RESULT:    -3.778      1.502      2.075
REMARK INTER + INTRA:          -4.554
REMARK INTER:                  -4.458
REMARK INTRA:                  -0.096
REMARK UNBOUND:                -0.114
REMARK SMILES CCCCC(=O)[O-]
REMARK SMILES IDX 4 1 5 2 6 3 7 4 3 5 2 6 1 7
REMARK H PARENT
REMARK Flexibility Score: inf
ROOT
ATOM      1  C   UNL     1      -3.268  36.473  97.727  1.00  0.00     0.053 C 
ENDROOT
BRANCH   1   2
ATOM      2  C   UNL     1      -3.813  37.567  98.593  1.00  0.00     0.041 C 
ATOM      3  O   UNL     1      -3.044  38.225  99.341  1.00  0.00    -0.550 OA
ATOM      4  O   UNL     1      -5.176  37.838  98.597  1.00  0.00    -0.550 OA
ENDBRANCH   1   2
BRANCH   1   5
ATOM      5  C   UNL     1      -2.775  35.281  98.557  1.00  0.00     0.006 C 
BRANCH   5   6
ATOM      6  C   UNL     1      -3.915  34.592  99.320  1.00  0.00    -0.003 C 
ATOM      7  C   UNL     1      -5.056  34.215  98.381  1.00  0.00     0.004 C 
ENDBRANCH   5   6
ENDBRANCH   1   5
TORSDOF 3
ENDMDL
MODEL 4
REMARK VINA RESULT:    -3.770      1.455      2.406
REMARK INTER + INTRA:          -4.545
REMARK INTER:                  -4.427
REMARK INTRA:                  -0.117
REMARK UNBOUND:                -0.114
REMARK SMILES CCCCC(=O)[O-]
REMARK SMILES IDX 4 1 5 2 6 3 7 4 3 5 2 6 1 7
REMARK H PARENT
REMARK Flexibility Score: inf
ROOT
ATOM      1  C   UNL     1      -5.639  35.333  98.808  1.00  0.00     0.053 C 
ENDROOT
BRANCH   1   2
ATOM      2  C   UNL     1      -5.423  36.574  97.996  1.00  0.00     0.041 C 
ATOM      3  O   UNL     1      -5.393  37.700  98.557  1.00  0.00    -0.550 OA
ATOM      4  O   UNL     1      -5.287  36.488  96.616  1.00  0.00    -0.550 OA
ENDBRANCH   1   2
BRANCH   1   5
ATOM      5  C   UNL     1      -4.502  34.321  98.616  1.00  0.00     0.006 C 
BRANCH   5   6
ATOM      6  C   UNL     1      -3.126  34.925  98.934  1.00  0.00    -0.003 C 
ATOM      7  C   UNL     1      -2.994  35.240 100.421  1.00  0.00     0.004 C 
ENDBRANCH   5   6
ENDBRANCH   1   5
TORSDOF 3
ENDMDL
MODEL 5
REMARK VINA RESULT:    -3.726      2.205      3.213
REMARK INTER + INTRA:          -4.493
REMARK INTER:                  -4.404
REMARK INTRA:                  -0.089
REMARK UNBOUND:                -0.114
REMARK SMILES CCCCC(=O)[O-]
REMARK SMILES IDX 4 1 5 2 6 3 7 4 3 5 2 6 1 7
REMARK H PARENT
REMARK Flexibility Score: inf
ROOT
ATOM      1  C   UNL     1      -3.678  34.748  99.986  1.00  0.00     0.053 C 
ENDROOT
BRANCH   1   2
ATOM      2  C   UNL     1      -5.050  35.335 100.121  1.00  0.00     0.041 C 
ATOM      3  O   UNL     1      -5.960  35.011  99.314  1.00  0.00    -0.550 OA
ATOM      4  O   UNL     1      -5.314  36.266 101.118  1.00  0.00    -0.550 OA
ENDBRANCH   1   2
BRANCH   1   5
ATOM      5  C   UNL     1      -3.063  35.047  98.613  1.00  0.00     0.006 C 
BRANCH   5   6
ATOM      6  C   UNL     1      -3.141  36.537  98.252  1.00  0.00    -0.003 C 
ATOM      7  C   UNL     1      -3.588  36.731  96.807  1.00  0.00     0.004 C 
ENDBRANCH   5   6
ENDBRANCH   1   5
TORSDOF 3
ENDMDL
MODEL 6
REMARK VINA RESULT:    -3.692      2.335      2.958
REMARK INTER + INTRA:          -4.453
REMARK INTER:                  -4.355
REMARK INTRA:                  -0.098
REMARK UNBOUND:                -0.114
REMARK SMILES CCCCC(=O)[O-]
REMARK SMILES IDX 4 1 5 2 6 3 7 4 3 5 2 6 1 7
REMARK H PARENT
REMARK Flexibility Score: inf
ROOT
ATOM      1  C   UNL     1      -2.854  35.674 100.695  1.00  0.00     0.053 C 
ENDROOT
BRANCH   1   2
ATOM      2  C   UNL     1      -3.769  36.825 100.985  1.00  0.00     0.041 C 
ATOM      3  O   UNL     1      -3.343  38.007 100.911  1.00  0.00    -0.550 OA
ATOM      4  O   UNL     1      -5.083  36.589 101.370  1.00  0.00    -0.550 OA
ENDBRANCH   1   2
BRANCH   1   5
ATOM      5  C   UNL     1      -2.969  35.208  99.238  1.00  0.00     0.006 C 
BRANCH   5   6
ATOM      6  C   UNL     1      -4.070  34.154  99.051  1.00  0.00    -0.003 C 
ATOM      7  C   UNL     1      -5.274  34.740  98.321  1.00  0.00     0.004 C 
ENDBRANCH   5   6
ENDBRANCH   1   5
TORSDOF 3
ENDMDL
MODEL 7
REMARK VINA RESULT:    -3.629      2.284      3.243
REMARK INTER + INTRA:          -4.379
REMARK INTER:                  -4.270
REMARK INTRA:                  -0.109
REMARK UNBOUND:                -0.114
REMARK SMILES CCCCC(=O)[O-]
REMARK SMILES IDX 4 1 5 2 6 3 7 4 3 5 2 6 1 7
REMARK H PARENT
REMARK Flexibility Score: inf
ROOT
ATOM      1  C   UNL     1      -2.840  35.238  98.365  1.00  0.00     0.053 C 
ENDROOT
BRANCH   1   2
ATOM      2  C   UNL     1      -4.006  34.562  99.018  1.00  0.00     0.041 C 
ATOM      3  O   UNL     1      -3.979  34.303 100.250  1.00  0.00    -0.550 OA
ATOM      4  O   UNL     1      -5.109  34.187  98.260  1.00  0.00    -0.550 OA
ENDBRANCH   1   2
BRANCH   1   5
ATOM      5  C   UNL     1      -3.273  36.474  97.565  1.00  0.00     0.006 C 
BRANCH   5   6
ATOM      6  C   UNL     1      -3.514  37.694  98.466  1.00  0.00    -0.003 C 
ATOM      7  C   UNL     1      -4.911  38.269  98.252  1.00  0.00     0.004 C 
ENDBRANCH   5   6
ENDBRANCH   1   5
TORSDOF 3
ENDMDL
MODEL 8
REMARK VINA RESULT:    -3.589      1.985      2.736
REMARK INTER + INTRA:          -4.332
REMARK INTER:                  -4.198
REMARK INTRA:                  -0.135
REMARK UNBOUND:                -0.114
REMARK SMILES CCCCC(=O)[O-]
REMARK SMILES IDX 4 1 5 2 6 3 7 4 3 5 2 6 1 7
REMARK H PARENT
REMARK Flexibility Score: inf
ROOT
ATOM      1  C   UNL     1      -4.904  36.742 100.935  1.00  0.00     0.053 C 
ENDROOT
BRANCH   1   2
ATOM      2  C   UNL     1      -3.524  37.030 100.428  1.00  0.00     0.041 C 
ATOM      3  O   UNL     1      -3.251  38.158  99.940  1.00  0.00    -0.550 OA
ATOM      4  O   UNL     1      -2.549  36.041 100.464  1.00  0.00    -0.550 OA
ENDBRANCH   1   2
BRANCH   1   5
ATOM      5  C   UNL     1      -5.395  35.357 100.496  1.00  0.00     0.006 C 
BRANCH   5   6
ATOM      6  C   UNL     1      -5.694  35.296  98.991  1.00  0.00    -0.003 C 
ATOM      7  C   UNL     1      -4.877  34.201  98.313  1.00  0.00     0.004 C 
ENDBRANCH   5   6
ENDBRANCH   1   5
TORSDOF 3
ENDMDL
MODEL 9
REMARK VINA RESULT:    -3.576      1.732      2.150
REMARK INTER + INTRA:          -4.317
REMARK INTER:                  -4.202
REMARK INTRA:                  -0.114
REMARK UNBOUND:                -0.114
REMARK SMILES CCCCC(=O)[O-]
REMARK SMILES IDX 4 1 5 2 6 3 7 4 3 5 2 6 1 7
REMARK H PARENT
REMARK Flexibility Score: inf
ROOT
ATOM      1  C   UNL     1      -2.846  35.219  98.604  1.00  0.00     0.053 C 
ENDROOT
BRANCH   1   2
ATOM      2  C   UNL     1      -3.857  36.029  97.851  1.00  0.00     0.041 C 
ATOM      3  O   UNL     1      -5.067  36.011  98.196  1.00  0.00    -0.550 OA
ATOM      4  O   UNL     1      -3.466  36.777  96.746  1.00  0.00    -0.550 OA
ENDBRANCH   1   2
BRANCH   1   5
ATOM      5  C   UNL     1      -3.298  34.939 100.043  1.00  0.00     0.006 C 
BRANCH   5   6
ATOM      6  C   UNL     1      -2.869  36.050 101.013  1.00  0.00    -0.003 C 
ATOM      7  C   UNL     1      -4.078  36.814 101.544  1.00  0.00     0.004 C 
ENDBRANCH   5   6
ENDBRANCH   1   5
TORSDOF 3
ENDMDL
