MODEL 1
REMARK VINA RESULT:    -6.444      0.000      0.000
REMARK INTER + INTRA:          -8.205
REMARK INTER:                  -7.951
REMARK INTRA:                  -0.253
REMARK UNBOUND:                -0.253
REMARK SMILES O=C1c2c(O)cc(O)cc2O[C@H](c2cc(O)c(O)c(O)c2)[C@H]1O
REMARK SMILES IDX 12 1 22 2 2 3 1 4 3 5 4 6 6 7 7 8 9 9 10 10 11 11 13 12
REMARK SMILES IDX 14 13 15 14 21 15 17 16 19 17 16 18 18 20 20 22 23 24 5 26
REMARK SMILES IDX 8 28
REMARK H PARENT 16 19 18 21 20 23 23 25 5 27 8 29
REMARK Flexibility Score: inf
ROOT
ATOM      1  C   UNL     1      68.923 -13.802  33.717  1.00  0.00     0.240 C 
ATOM      2  C   UNL     1      69.644 -13.567  32.374  1.00  0.00     0.231 C 
ATOM      3  C   UNL     1      71.073 -14.036  32.487  1.00  0.00     0.202 C 
ATOM      4  O   UNL     1      72.006 -13.318  32.036  1.00  0.00    -0.291 OA
ATOM      5  C   UNL     1      71.348 -15.323  33.175  1.00  0.00     0.105 A 
ATOM      6  C   UNL     1      72.554 -16.059  33.034  1.00  0.00     0.133 A 
ATOM      7  C   UNL     1      72.743 -17.226  33.784  1.00  0.00     0.093 A 
ATOM      8  C   UNL     1      71.737 -17.708  34.623  1.00  0.00     0.123 A 
ATOM      9  C   UNL     1      70.528 -17.014  34.727  1.00  0.00     0.093 A 
ATOM     10  C   UNL     1      70.334 -15.825  34.020  1.00  0.00     0.138 A 
ATOM     11  O   UNL     1      69.115 -15.148  34.158  1.00  0.00    -0.481 OA
ENDROOT
BRANCH   1  12
ATOM     12  C   UNL     1      67.446 -13.509  33.597  1.00  0.00     0.003 A 
ATOM     13  C   UNL     1      66.958 -12.223  33.868  1.00  0.00     0.058 A 
ATOM     14  C   UNL     1      65.594 -11.938  33.731  1.00  0.00     0.161 A 
ATOM     15  C   UNL     1      66.554 -14.502  33.164  1.00  0.00     0.058 A 
ATOM     16  C   UNL     1      64.700 -12.935  33.312  1.00  0.00     0.200 A 
ATOM     17  C   UNL     1      65.189 -14.231  33.022  1.00  0.00     0.161 A 
BRANCH  14  18
ATOM     18  O   UNL     1      65.114 -10.659  34.010  1.00  0.00    -0.504 OA
ATOM     19  H   UNL     1      65.693  -9.836  33.884  1.00  0.00     0.293 HD
ENDBRANCH  14  18
BRANCH  16  20
ATOM     20  O   UNL     1      63.349 -12.599  33.196  1.00  0.00    -0.502 OA
ATOM     21  H   UNL     1      62.860 -12.516  32.317  1.00  0.00     0.293 HD
ENDBRANCH  16  20
BRANCH  17  22
ATOM     22  O   UNL     1      64.361 -15.271  32.591  1.00  0.00    -0.504 OA
ATOM     23  H   UNL     1      64.694 -16.099  32.118  1.00  0.00     0.293 HD
ENDBRANCH  17  22
ENDBRANCH   1  12
BRANCH   2  24
ATOM     24  O   UNL     1      69.574 -12.215  31.988  1.00  0.00    -0.381 OA
ATOM     25  H   UNL     1      69.186 -11.705  32.747  1.00  0.00     0.211 HD
ENDBRANCH   2  24
BRANCH   6  26
ATOM     26  O   UNL     1      73.570 -15.699  32.145  1.00  0.00    -0.507 OA
ATOM     27  H   UNL     1      73.729 -16.148  31.255  1.00  0.00     0.293 HD
ENDBRANCH   6  26
BRANCH   8  28
ATOM     28  O   UNL     1      71.946 -18.882  35.343  1.00  0.00    -0.508 OA
ATOM     29  H   UNL     1      72.549 -19.618  34.992  1.00  0.00     0.293 HD
ENDBRANCH   8  28
TORSDOF 7
ENDMDL
MODEL 2
REMARK VINA RESULT:    -6.397     12.090     14.633
REMARK INTER + INTRA:          -8.146
REMARK INTER:                  -7.757
REMARK INTRA:                  -0.389
REMARK UNBOUND:                -0.253
REMARK SMILES O=C1c2c(O)cc(O)cc2O[C@H](c2cc(O)c(O)c(O)c2)[C@H]1O
REMARK SMILES IDX 12 1 22 2 2 3 1 4 3 5 4 6 6 7 7 8 9 9 10 10 11 11 13 12
REMARK SMILES IDX 14 13 15 14 21 15 17 16 19 17 16 18 18 20 20 22 23 24 5 26
REMARK SMILES IDX 8 28
REMARK H PARENT 16 19 18 21 20 23 23 25 5 27 8 29
REMARK Flexibility Score: inf
ROOT
ATOM      1  C   UNL     1      80.783 -16.275  42.047  1.00  0.00     0.240 C 
ATOM      2  C   UNL     1      81.282 -16.615  40.627  1.00  0.00     0.231 C 
ATOM      3  C   UNL     1      82.025 -17.926  40.660  1.00  0.00     0.202 C 
ATOM      4  O   UNL     1      83.125 -18.039  40.055  1.00  0.00    -0.291 OA
ATOM      5  C   UNL     1      81.457 -19.047  41.453  1.00  0.00     0.105 A 
ATOM      6  C   UNL     1      81.825 -20.408  41.282  1.00  0.00     0.133 A 
ATOM      7  C   UNL     1      81.283 -21.380  42.132  1.00  0.00     0.093 A 
ATOM      8  C   UNL     1      80.341 -21.038  43.104  1.00  0.00     0.123 A 
ATOM      9  C   UNL     1      79.938 -19.707  43.241  1.00  0.00     0.093 A 
ATOM     10  C   UNL     1      80.497 -18.714  42.433  1.00  0.00     0.138 A 
ATOM     11  O   UNL     1      80.081 -17.387  42.608  1.00  0.00    -0.481 OA
ENDROOT
BRANCH   1  12
ATOM     12  C   UNL     1      79.886 -15.061  42.029  1.00  0.00     0.003 A 
ATOM     13  C   UNL     1      78.669 -15.092  41.332  1.00  0.00     0.058 A 
ATOM     14  C   UNL     1      77.820 -13.979  41.336  1.00  0.00     0.161 A 
ATOM     15  C   UNL     1      80.230 -13.908  42.751  1.00  0.00     0.058 A 
ATOM     16  C   UNL     1      78.171 -12.822  42.046  1.00  0.00     0.200 A 
ATOM     17  C   UNL     1      79.390 -12.789  42.764  1.00  0.00     0.161 A 
BRANCH  14  18
ATOM     18  O   UNL     1      76.616 -14.015  40.633  1.00  0.00    -0.504 OA
ATOM     19  H   UNL     1      76.482 -14.633  39.840  1.00  0.00     0.293 HD
ENDBRANCH  14  18
BRANCH  16  20
ATOM     20  O   UNL     1      77.289 -11.739  42.013  1.00  0.00    -0.502 OA
ATOM     21  H   UNL     1      76.301 -11.819  41.820  1.00  0.00     0.293 HD
ENDBRANCH  16  20
BRANCH  17  22
ATOM     22  O   UNL     1      79.802 -11.675  43.502  1.00  0.00    -0.504 OA
ATOM     23  H   UNL     1      80.726 -11.272  43.447  1.00  0.00     0.293 HD
ENDBRANCH  17  22
ENDBRANCH   1  12
BRANCH   2  24
ATOM     24  O   UNL     1      82.084 -15.580  40.108  1.00  0.00    -0.381 OA
ATOM     25  H   UNL     1      81.478 -14.901  39.710  1.00  0.00     0.211 HD
ENDBRANCH   2  24
BRANCH   6  26
ATOM     26  O   UNL     1      82.685 -20.847  40.273  1.00  0.00    -0.507 OA
ATOM     27  H   UNL     1      82.388 -21.384  39.471  1.00  0.00     0.293 HD
ENDBRANCH   6  26
BRANCH   8  28
ATOM     28  O   UNL     1      79.805 -22.031  43.921  1.00  0.00    -0.508 OA
ATOM     29  H   UNL     1      79.913 -23.014  43.700  1.00  0.00     0.293 HD
ENDBRANCH   8  28
TORSDOF 7
ENDMDL
MODEL 3
REMARK VINA RESULT:    -6.394      1.590      7.034
REMARK INTER + INTRA:          -8.142
REMARK INTER:                  -7.804
REMARK INTRA:                  -0.338
REMARK UNBOUND:                -0.253
REMARK SMILES O=C1c2c(O)cc(O)cc2O[C@H](c2cc(O)c(O)c(O)c2)[C@H]1O
REMARK SMILES IDX 12 1 22 2 2 3 1 4 3 5 4 6 6 7 7 8 9 9 10 10 11 11 13 12
REMARK SMILES IDX 14 13 15 14 21 15 17 16 19 17 16 18 18 20 20 22 23 24 5 26
REMARK SMILES IDX 8 28
REMARK H PARENT 16 19 18 21 20 23 23 25 5 27 8 29
REMARK Flexibility Score: inf
ROOT
ATOM      1  C   UNL     1      68.251 -14.170  33.047  1.00  0.00     0.240 C 
ATOM      2  C   UNL     1      67.651 -13.243  34.125  1.00  0.00     0.231 C 
ATOM      3  C   UNL     1      66.270 -12.813  33.700  1.00  0.00     0.202 C 
ATOM      4  O   UNL     1      65.927 -11.606  33.813  1.00  0.00    -0.291 OA
ATOM      5  C   UNL     1      65.358 -13.827  33.112  1.00  0.00     0.105 A 
ATOM      6  C   UNL     1      63.950 -13.672  33.018  1.00  0.00     0.133 A 
ATOM      7  C   UNL     1      63.188 -14.658  32.379  1.00  0.00     0.093 A 
ATOM      8  C   UNL     1      63.786 -15.819  31.886  1.00  0.00     0.123 A 
ATOM      9  C   UNL     1      65.166 -15.999  32.021  1.00  0.00     0.093 A 
ATOM     10  C   UNL     1      65.951 -15.010  32.617  1.00  0.00     0.138 A 
ATOM     11  O   UNL     1      67.333 -15.218  32.724  1.00  0.00    -0.481 OA
ENDROOT
BRANCH   1  12
ATOM     12  C   UNL     1      69.560 -14.763  33.510  1.00  0.00     0.003 A 
ATOM     13  C   UNL     1      69.568 -15.886  34.349  1.00  0.00     0.058 A 
ATOM     14  C   UNL     1      70.779 -16.458  34.758  1.00  0.00     0.161 A 
ATOM     15  C   UNL     1      70.781 -14.232  33.066  1.00  0.00     0.058 A 
ATOM     16  C   UNL     1      72.000 -15.918  34.326  1.00  0.00     0.200 A 
ATOM     17  C   UNL     1      71.999 -14.793  33.467  1.00  0.00     0.161 A 
BRANCH  14  18
ATOM     18  O   UNL     1      70.780 -17.570  35.599  1.00  0.00    -0.504 OA
ATOM     19  H   UNL     1      71.078 -18.483  35.272  1.00  0.00     0.293 HD
ENDBRANCH  14  18
BRANCH  16  20
ATOM     20  O   UNL     1      73.178 -16.524  34.768  1.00  0.00    -0.502 OA
ATOM     21  H   UNL     1      73.631 -16.310  35.645  1.00  0.00     0.293 HD
ENDBRANCH  16  20
BRANCH  17  22
ATOM     22  O   UNL     1      73.173 -14.208  32.989  1.00  0.00    -0.504 OA
ATOM     23  H   UNL     1      73.882 -14.705  32.468  1.00  0.00     0.293 HD
ENDBRANCH  17  22
ENDBRANCH   1  12
BRANCH   2  24
ATOM     24  O   UNL     1      68.486 -12.134  34.364  1.00  0.00    -0.381 OA
ATOM     25  H   UNL     1      68.771 -12.171  35.314  1.00  0.00     0.211 HD
ENDBRANCH   2  24
BRANCH   6  26
ATOM     26  O   UNL     1      63.261 -12.589  33.570  1.00  0.00    -0.507 OA
ATOM     27  H   UNL     1      63.626 -12.004  34.307  1.00  0.00     0.293 HD
ENDBRANCH   6  26
BRANCH   8  28
ATOM     28  O   UNL     1      63.000 -16.790  31.272  1.00  0.00    -0.508 OA
ATOM     29  H   UNL     1      63.319 -17.747  31.176  1.00  0.00     0.293 HD
ENDBRANCH   8  28
TORSDOF 7
ENDMDL
MODEL 4
REMARK VINA RESULT:    -6.390      3.696      5.557
REMARK INTER + INTRA:          -8.138
REMARK INTER:                  -7.916
REMARK INTRA:                  -0.222
REMARK UNBOUND:                -0.253
REMARK SMILES O=C1c2c(O)cc(O)cc2O[C@H](c2cc(O)c(O)c(O)c2)[C@H]1O
REMARK SMILES IDX 12 1 22 2 2 3 1 4 3 5 4 6 6 7 7 8 9 9 10 10 11 11 13 12
REMARK SMILES IDX 14 13 15 14 21 15 17 16 19 17 16 18 18 20 20 22 23 24 5 26
REMARK SMILES IDX 8 28
REMARK H PARENT 16 19 18 21 20 23 23 25 5 27 8 29
REMARK Flexibility Score: inf
ROOT
ATOM      1  C   UNL     1      64.994 -13.559  35.305  1.00  0.00     0.240 C 
ATOM      2  C   UNL     1      64.671 -15.008  34.882  1.00  0.00     0.231 C 
ATOM      3  C   UNL     1      65.358 -15.310  33.574  1.00  0.00     0.202 C 
ATOM      4  O   UNL     1      64.727 -15.900  32.657  1.00  0.00    -0.291 OA
ATOM      5  C   UNL     1      66.760 -14.857  33.385  1.00  0.00     0.105 A 
ATOM      6  C   UNL     1      67.637 -15.376  32.396  1.00  0.00     0.133 A 
ATOM      7  C   UNL     1      68.918 -14.828  32.254  1.00  0.00     0.093 A 
ATOM      8  C   UNL     1      69.365 -13.820  33.109  1.00  0.00     0.123 A 
ATOM      9  C   UNL     1      68.523 -13.341  34.117  1.00  0.00     0.093 A 
ATOM     10  C   UNL     1      67.227 -13.843  34.250  1.00  0.00     0.138 A 
ATOM     11  O   UNL     1      66.404 -13.329  35.262  1.00  0.00    -0.481 OA
ENDROOT
BRANCH   1  12
ATOM     12  C   UNL     1      64.471 -13.271  36.692  1.00  0.00     0.003 A 
ATOM     13  C   UNL     1      64.007 -11.988  37.018  1.00  0.00     0.058 A 
ATOM     14  C   UNL     1      63.494 -11.722  38.294  1.00  0.00     0.161 A 
ATOM     15  C   UNL     1      64.393 -14.291  37.652  1.00  0.00     0.058 A 
ATOM     16  C   UNL     1      63.430 -12.738  39.258  1.00  0.00     0.200 A 
ATOM     17  C   UNL     1      63.882 -14.039  38.930  1.00  0.00     0.161 A 
BRANCH  14  18
ATOM     18  O   UNL     1      63.042 -10.442  38.614  1.00  0.00    -0.504 OA
ATOM     19  H   UNL     1      62.413  -9.934  38.003  1.00  0.00     0.293 HD
ENDBRANCH  14  18
BRANCH  16  20
ATOM     20  O   UNL     1      62.914 -12.418  40.516  1.00  0.00    -0.502 OA
ATOM     21  H   UNL     1      62.771 -13.089  41.257  1.00  0.00     0.293 HD
ENDBRANCH  16  20
BRANCH  17  22
ATOM     22  O   UNL     1      63.840 -15.103  39.835  1.00  0.00    -0.504 OA
ATOM     23  H   UNL     1      63.017 -15.659  40.016  1.00  0.00     0.293 HD
ENDBRANCH  17  22
ENDBRANCH   1  12
BRANCH   2  24
ATOM     24  O   UNL     1      63.281 -15.215  34.794  1.00  0.00    -0.381 OA
ATOM     25  H   UNL     1      63.129 -16.188  34.668  1.00  0.00     0.211 HD
ENDBRANCH   2  24
BRANCH   6  26
ATOM     26  O   UNL     1      67.303 -16.448  31.565  1.00  0.00    -0.507 OA
ATOM     27  H   UNL     1      66.996 -16.347  30.609  1.00  0.00     0.293 HD
ENDBRANCH   6  26
BRANCH   8  28
ATOM     28  O   UNL     1      70.651 -13.308  32.955  1.00  0.00    -0.508 OA
ATOM     29  H   UNL     1      71.266 -13.172  33.750  1.00  0.00     0.293 HD
ENDBRANCH   8  28
TORSDOF 7
ENDMDL
MODEL 5
REMARK VINA RESULT:    -6.225      1.409      7.233
REMARK INTER + INTRA:          -7.934
REMARK INTER:                  -7.766
REMARK INTRA:                  -0.168
REMARK UNBOUND:                -0.253
REMARK SMILES O=C1c2c(O)cc(O)cc2O[C@H](c2cc(O)c(O)c(O)c2)[C@H]1O
REMARK SMILES IDX 12 1 22 2 2 3 1 4 3 5 4 6 6 7 7 8 9 9 10 10 11 11 13 12
REMARK SMILES IDX 14 13 15 14 21 15 17 16 19 17 16 18 18 20 20 22 23 24 5 26
REMARK SMILES IDX 8 28
REMARK H PARENT 16 19 18 21 20 23 23 25 5 27 8 29
REMARK Flexibility Score: inf
ROOT
ATOM      1  C   UNL     1      68.274 -15.888  34.010  1.00  0.00     0.240 C 
ATOM      2  C   UNL     1      67.618 -16.536  32.773  1.00  0.00     0.231 C 
ATOM      3  C   UNL     1      66.183 -16.084  32.676  1.00  0.00     0.202 C 
ATOM      4  O   UNL     1      65.277 -16.923  32.427  1.00  0.00    -0.291 OA
ATOM      5  C   UNL     1      65.870 -14.654  32.923  1.00  0.00     0.105 A 
ATOM      6  C   UNL     1      64.667 -14.020  32.511  1.00  0.00     0.133 A 
ATOM      7  C   UNL     1      64.437 -12.683  32.859  1.00  0.00     0.093 A 
ATOM      8  C   UNL     1      65.400 -11.947  33.553  1.00  0.00     0.123 A 
ATOM      9  C   UNL     1      66.607 -12.553  33.916  1.00  0.00     0.093 A 
ATOM     10  C   UNL     1      66.840 -13.897  33.617  1.00  0.00     0.138 A 
ATOM     11  O   UNL     1      68.055 -14.475  34.008  1.00  0.00    -0.481 OA
ENDROOT
BRANCH   1  12
ATOM     12  C   UNL     1      69.756 -16.174  34.050  1.00  0.00     0.003 A 
ATOM     13  C   UNL     1      70.674 -15.206  33.616  1.00  0.00     0.058 A 
ATOM     14  C   UNL     1      72.050 -15.455  33.677  1.00  0.00     0.161 A 
ATOM     15  C   UNL     1      70.236 -17.387  34.567  1.00  0.00     0.058 A 
ATOM     16  C   UNL     1      72.529 -16.673  34.181  1.00  0.00     0.200 A 
ATOM     17  C   UNL     1      71.609 -17.649  34.634  1.00  0.00     0.161 A 
BRANCH  14  18
ATOM     18  O   UNL     1      72.957 -14.490  33.237  1.00  0.00    -0.504 OA
ATOM     19  H   UNL     1      72.656 -13.688  32.695  1.00  0.00     0.293 HD
ENDBRANCH  14  18
BRANCH  16  20
ATOM     20  O   UNL     1      73.911 -16.871  34.216  1.00  0.00    -0.502 OA
ATOM     21  H   UNL     1      74.484 -17.009  33.396  1.00  0.00     0.293 HD
ENDBRANCH  16  20
BRANCH  17  22
ATOM     22  O   UNL     1      72.012 -18.880  35.158  1.00  0.00    -0.504 OA
ATOM     23  H   UNL     1      72.685 -18.985  35.903  1.00  0.00     0.293 HD
ENDBRANCH  17  22
ENDBRANCH   1  12
BRANCH   2  24
ATOM     24  O   UNL     1      67.714 -17.941  32.824  1.00  0.00    -0.381 OA
ATOM     25  H   UNL     1      67.897 -18.263  31.902  1.00  0.00     0.211 HD
ENDBRANCH   2  24
BRANCH   6  26
ATOM     26  O   UNL     1      63.696 -14.654  31.733  1.00  0.00    -0.507 OA
ATOM     27  H   UNL     1      63.706 -14.675  30.724  1.00  0.00     0.293 HD
ENDBRANCH   6  26
BRANCH   8  28
ATOM     28  O   UNL     1      65.151 -10.614  33.868  1.00  0.00    -0.508 OA
ATOM     29  H   UNL     1      65.078  -9.904  33.147  1.00  0.00     0.293 HD
ENDBRANCH   8  28
TORSDOF 7
ENDMDL
MODEL 6
REMARK VINA RESULT:    -6.179      1.487      7.417
REMARK INTER + INTRA:          -7.878
REMARK INTER:                  -7.510
REMARK INTRA:                  -0.367
REMARK UNBOUND:                -0.253
REMARK SMILES O=C1c2c(O)cc(O)cc2O[C@H](c2cc(O)c(O)c(O)c2)[C@H]1O
REMARK SMILES IDX 12 1 22 2 2 3 1 4 3 5 4 6 6 7 7 8 9 9 10 10 11 11 13 12
REMARK SMILES IDX 14 13 15 14 21 15 17 16 19 17 16 18 18 20 20 22 23 24 5 26
REMARK SMILES IDX 8 28
REMARK H PARENT 16 19 18 21 20 23 23 25 5 27 8 29
REMARK Flexibility Score: inf
ROOT
ATOM      1  C   UNL     1      68.039 -16.071  33.709  1.00  0.00     0.240 C 
ATOM      2  C   UNL     1      67.264 -16.655  32.510  1.00  0.00     0.231 C 
ATOM      3  C   UNL     1      65.856 -16.116  32.516  1.00  0.00     0.202 C 
ATOM      4  O   UNL     1      64.885 -16.895  32.317  1.00  0.00    -0.291 OA
ATOM      5  C   UNL     1      65.648 -14.674  32.806  1.00  0.00     0.105 A 
ATOM      6  C   UNL     1      64.461 -13.962  32.486  1.00  0.00     0.133 A 
ATOM      7  C   UNL     1      64.337 -12.620  32.867  1.00  0.00     0.093 A 
ATOM      8  C   UNL     1      65.387 -11.957  33.505  1.00  0.00     0.123 A 
ATOM      9  C   UNL     1      66.576 -12.640  33.777  1.00  0.00     0.093 A 
ATOM     10  C   UNL     1      66.706 -13.990  33.443  1.00  0.00     0.138 A 
ATOM     11  O   UNL     1      67.907 -14.648  33.743  1.00  0.00    -0.481 OA
ENDROOT
BRANCH   1  12
ATOM     12  C   UNL     1      69.500 -16.447  33.644  1.00  0.00     0.003 A 
ATOM     13  C   UNL     1      70.022 -17.407  34.523  1.00  0.00     0.058 A 
ATOM     14  C   UNL     1      71.369 -17.780  34.449  1.00  0.00     0.161 A 
ATOM     15  C   UNL     1      70.341 -15.881  32.673  1.00  0.00     0.058 A 
ATOM     16  C   UNL     1      72.212 -17.204  33.487  1.00  0.00     0.200 A 
ATOM     17  C   UNL     1      71.689 -16.245  32.587  1.00  0.00     0.161 A 
BRANCH  14  18
ATOM     18  O   UNL     1      71.883 -18.730  35.331  1.00  0.00    -0.504 OA
ATOM     19  H   UNL     1      72.251 -18.467  36.239  1.00  0.00     0.293 HD
ENDBRANCH  14  18
BRANCH  16  20
ATOM     20  O   UNL     1      73.549 -17.609  33.459  1.00  0.00    -0.502 OA
ATOM     21  H   UNL     1      74.102 -17.679  32.617  1.00  0.00     0.293 HD
ENDBRANCH  16  20
BRANCH  17  22
ATOM     22  O   UNL     1      72.465 -15.636  31.597  1.00  0.00    -0.504 OA
ATOM     23  H   UNL     1      73.121 -16.130  31.010  1.00  0.00     0.293 HD
ENDBRANCH  17  22
ENDBRANCH   1  12
BRANCH   2  24
ATOM     24  O   UNL     1      67.277 -18.064  32.533  1.00  0.00    -0.381 OA
ATOM     25  H   UNL     1      66.359 -18.376  32.317  1.00  0.00     0.211 HD
ENDBRANCH   2  24
BRANCH   6  26
ATOM     26  O   UNL     1      63.404 -14.522  31.765  1.00  0.00    -0.507 OA
ATOM     27  H   UNL     1      63.163 -14.262  30.820  1.00  0.00     0.293 HD
ENDBRANCH   6  26
BRANCH   8  28
ATOM     28  O   UNL     1      65.242 -10.617  33.856  1.00  0.00    -0.508 OA
ATOM     29  H   UNL     1      65.992  -9.949  33.719  1.00  0.00     0.293 HD
ENDBRANCH   8  28
TORSDOF 7
ENDMDL
MODEL 7
REMARK VINA RESULT:    -6.026      3.481      6.414
REMARK INTER + INTRA:          -7.689
REMARK INTER:                  -7.428
REMARK INTRA:                  -0.261
REMARK UNBOUND:                -0.253
REMARK SMILES O=C1c2c(O)cc(O)cc2O[C@H](c2cc(O)c(O)c(O)c2)[C@H]1O
REMARK SMILES IDX 12 1 22 2 2 3 1 4 3 5 4 6 6 7 7 8 9 9 10 10 11 11 13 12
REMARK SMILES IDX 14 13 15 14 21 15 17 16 19 17 16 18 18 20 20 22 23 24 5 26
REMARK SMILES IDX 8 28
REMARK H PARENT 16 19 18 21 20 23 23 25 5 27 8 29
REMARK Flexibility Score: inf
ROOT
ATOM      1  C   UNL     1      67.766 -15.883  31.887  1.00  0.00     0.240 C 
ATOM      2  C   UNL     1      69.075 -15.235  32.383  1.00  0.00     0.231 C 
ATOM      3  C   UNL     1      68.765 -13.897  33.005  1.00  0.00     0.202 C 
ATOM      4  O   UNL     1      69.479 -12.896  32.728  1.00  0.00    -0.291 OA
ATOM      5  C   UNL     1      67.585 -13.785  33.900  1.00  0.00     0.105 A 
ATOM      6  C   UNL     1      67.388 -12.728  34.828  1.00  0.00     0.133 A 
ATOM      7  C   UNL     1      66.205 -12.676  35.575  1.00  0.00     0.093 A 
ATOM      8  C   UNL     1      65.243 -13.682  35.463  1.00  0.00     0.123 A 
ATOM      9  C   UNL     1      65.456 -14.751  34.588  1.00  0.00     0.093 A 
ATOM     10  C   UNL     1      66.609 -14.801  33.802  1.00  0.00     0.138 A 
ATOM     11  O   UNL     1      66.783 -15.880  32.925  1.00  0.00    -0.481 OA
ENDROOT
BRANCH   1  12
ATOM     12  C   UNL     1      68.006 -17.297  31.415  1.00  0.00     0.003 A 
ATOM     13  C   UNL     1      68.950 -18.106  32.064  1.00  0.00     0.058 A 
ATOM     14  C   UNL     1      69.157 -19.428  31.649  1.00  0.00     0.161 A 
ATOM     15  C   UNL     1      67.254 -17.836  30.360  1.00  0.00     0.058 A 
ATOM     16  C   UNL     1      68.415 -19.961  30.585  1.00  0.00     0.200 A 
ATOM     17  C   UNL     1      67.450 -19.155  29.935  1.00  0.00     0.161 A 
BRANCH  14  18
ATOM     18  O   UNL     1      70.102 -20.225  32.294  1.00  0.00    -0.504 OA
ATOM     19  H   UNL     1      70.899 -20.608  31.798  1.00  0.00     0.293 HD
ENDBRANCH  14  18
BRANCH  16  20
ATOM     20  O   UNL     1      68.664 -21.283  30.209  1.00  0.00    -0.502 OA
ATOM     21  H   UNL     1      69.576 -21.716  30.233  1.00  0.00     0.293 HD
ENDBRANCH  16  20
BRANCH  17  22
ATOM     22  O   UNL     1      66.668 -19.619  28.875  1.00  0.00    -0.504 OA
ATOM     23  H   UNL     1      66.027 -20.397  28.944  1.00  0.00     0.293 HD
ENDBRANCH  17  22
ENDBRANCH   1  12
BRANCH   2  24
ATOM     24  O   UNL     1      70.011 -15.113  31.337  1.00  0.00    -0.381 OA
ATOM     25  H   UNL     1      70.363 -16.021  31.142  1.00  0.00     0.211 HD
ENDBRANCH   2  24
BRANCH   6  26
ATOM     26  O   UNL     1      68.342 -11.736  35.071  1.00  0.00    -0.507 OA
ATOM     27  H   UNL     1      68.559 -10.991  34.426  1.00  0.00     0.293 HD
ENDBRANCH   6  26
BRANCH   8  28
ATOM     28  O   UNL     1      64.084 -13.613  36.233  1.00  0.00    -0.508 OA
ATOM     29  H   UNL     1      64.123 -13.519  37.241  1.00  0.00     0.293 HD
ENDBRANCH   8  28
TORSDOF 7
ENDMDL
MODEL 8
REMARK VINA RESULT:    -6.015      1.541      6.986
REMARK INTER + INTRA:          -7.675
REMARK INTER:                  -7.730
REMARK INTRA:                   0.055
REMARK UNBOUND:                -0.253
REMARK SMILES O=C1c2c(O)cc(O)cc2O[C@H](c2cc(O)c(O)c(O)c2)[C@H]1O
REMARK SMILES IDX 12 1 22 2 2 3 1 4 3 5 4 6 6 7 7 8 9 9 10 10 11 11 13 12
REMARK SMILES IDX 14 13 15 14 21 15 17 16 19 17 16 18 18 20 20 22 23 24 5 26
REMARK SMILES IDX 8 28
REMARK H PARENT 16 19 18 21 20 23 23 25 5 27 8 29
REMARK Flexibility Score: inf
ROOT
ATOM      1  C   UNL     1      68.926 -15.011  33.113  1.00  0.00     0.240 C 
ATOM      2  C   UNL     1      69.271 -13.547  33.457  1.00  0.00     0.231 C 
ATOM      3  C   UNL     1      68.059 -12.682  33.221  1.00  0.00     0.202 C 
ATOM      4  O   UNL     1      68.181 -11.582  32.619  1.00  0.00    -0.291 OA
ATOM      5  C   UNL     1      66.732 -13.177  33.670  1.00  0.00     0.105 A 
ATOM      6  C   UNL     1      65.595 -12.348  33.858  1.00  0.00     0.133 A 
ATOM      7  C   UNL     1      64.370 -12.926  34.214  1.00  0.00     0.093 A 
ATOM      8  C   UNL     1      64.266 -14.299  34.445  1.00  0.00     0.123 A 
ATOM      9  C   UNL     1      65.395 -15.112  34.311  1.00  0.00     0.093 A 
ATOM     10  C   UNL     1      66.617 -14.563  33.916  1.00  0.00     0.138 A 
ATOM     11  O   UNL     1      67.725 -15.411  33.778  1.00  0.00    -0.481 OA
ENDROOT
BRANCH   1  12
ATOM     12  C   UNL     1      70.055 -15.938  33.498  1.00  0.00     0.003 A 
ATOM     13  C   UNL     1      70.041 -17.277  33.083  1.00  0.00     0.058 A 
ATOM     14  C   UNL     1      71.099 -18.134  33.413  1.00  0.00     0.161 A 
ATOM     15  C   UNL     1      71.154 -15.460  34.229  1.00  0.00     0.058 A 
ATOM     16  C   UNL     1      72.190 -17.659  34.155  1.00  0.00     0.200 A 
ATOM     17  C   UNL     1      72.217 -16.305  34.565  1.00  0.00     0.161 A 
BRANCH  14  18
ATOM     18  O   UNL     1      71.074 -19.467  33.003  1.00  0.00    -0.504 OA
ATOM     19  H   UNL     1      70.550 -20.169  33.513  1.00  0.00     0.293 HD
ENDBRANCH  14  18
BRANCH  16  20
ATOM     20  O   UNL     1      73.216 -18.557  34.461  1.00  0.00    -0.502 OA
ATOM     21  H   UNL     1      74.198 -18.357  34.338  1.00  0.00     0.293 HD
ENDBRANCH  16  20
BRANCH  17  22
ATOM     22  O   UNL     1      73.274 -15.759  35.298  1.00  0.00    -0.504 OA
ATOM     23  H   UNL     1      74.211 -16.137  35.306  1.00  0.00     0.293 HD
ENDBRANCH  17  22
ENDBRANCH   1  12
BRANCH   2  24
ATOM     24  O   UNL     1      70.378 -13.097  32.712  1.00  0.00    -0.381 OA
ATOM     25  H   UNL     1      70.902 -13.896  32.440  1.00  0.00     0.211 HD
ENDBRANCH   2  24
BRANCH   6  26
ATOM     26  O   UNL     1      65.636 -10.956  33.741  1.00  0.00    -0.507 OA
ATOM     27  H   UNL     1      66.024 -10.467  32.949  1.00  0.00     0.293 HD
ENDBRANCH   6  26
BRANCH   8  28
ATOM     28  O   UNL     1      63.039 -14.842  34.817  1.00  0.00    -0.508 OA
ATOM     29  H   UNL     1      62.395 -14.336  35.415  1.00  0.00     0.293 HD
ENDBRANCH   8  28
TORSDOF 7
ENDMDL
MODEL 9
REMARK VINA RESULT:    -5.779      2.336      3.256
REMARK INTER + INTRA:          -7.383
REMARK INTER:                  -7.003
REMARK INTRA:                  -0.380
REMARK UNBOUND:                -0.253
REMARK SMILES O=C1c2c(O)cc(O)cc2O[C@H](c2cc(O)c(O)c(O)c2)[C@H]1O
REMARK SMILES IDX 12 1 22 2 2 3 1 4 3 5 4 6 6 7 7 8 9 9 10 10 11 11 13 12
REMARK SMILES IDX 14 13 15 14 21 15 17 16 19 17 16 18 18 20 20 22 23 24 5 26
REMARK SMILES IDX 8 28
REMARK H PARENT 16 19 18 21 20 23 23 25 5 27 8 29
REMARK Flexibility Score: inf
ROOT
ATOM      1  C   UNL     1      67.964 -15.368  32.844  1.00  0.00     0.240 C 
ATOM      2  C   UNL     1      67.311 -16.576  32.139  1.00  0.00     0.231 C 
ATOM      3  C   UNL     1      68.390 -17.478  31.596  1.00  0.00     0.202 C 
ATOM      4  O   UNL     1      68.291 -17.940  30.427  1.00  0.00    -0.291 OA
ATOM      5  C   UNL     1      69.574 -17.763  32.445  1.00  0.00     0.105 A 
ATOM      6  C   UNL     1      70.459 -18.855  32.237  1.00  0.00     0.133 A 
ATOM      7  C   UNL     1      71.589 -18.992  33.052  1.00  0.00     0.093 A 
ATOM      8  C   UNL     1      71.826 -18.106  34.105  1.00  0.00     0.123 A 
ATOM      9  C   UNL     1      70.930 -17.060  34.345  1.00  0.00     0.093 A 
ATOM     10  C   UNL     1      69.819 -16.878  33.518  1.00  0.00     0.138 A 
ATOM     11  O   UNL     1      68.950 -15.810  33.780  1.00  0.00    -0.481 OA
ENDROOT
BRANCH   1  12
ATOM     12  C   UNL     1      66.927 -14.530  33.552  1.00  0.00     0.003 A 
ATOM     13  C   UNL     1      66.066 -15.117  34.491  1.00  0.00     0.058 A 
ATOM     14  C   UNL     1      65.122 -14.339  35.172  1.00  0.00     0.161 A 
ATOM     15  C   UNL     1      66.847 -13.148  33.322  1.00  0.00     0.058 A 
ATOM     16  C   UNL     1      65.032 -12.960  34.930  1.00  0.00     0.200 A 
ATOM     17  C   UNL     1      65.908 -12.358  33.996  1.00  0.00     0.161 A 
BRANCH  14  18
ATOM     18  O   UNL     1      64.263 -14.931  36.098  1.00  0.00    -0.504 OA
ATOM     19  H   UNL     1      63.830 -15.830  35.920  1.00  0.00     0.293 HD
ENDBRANCH  14  18
BRANCH  16  20
ATOM     20  O   UNL     1      64.070 -12.232  35.634  1.00  0.00    -0.502 OA
ATOM     21  H   UNL     1      64.197 -11.280  35.947  1.00  0.00     0.293 HD
ENDBRANCH  16  20
BRANCH  17  22
ATOM     22  O   UNL     1      65.884 -10.991  33.710  1.00  0.00    -0.504 OA
ATOM     23  H   UNL     1      65.179 -10.354  34.052  1.00  0.00     0.293 HD
ENDBRANCH  17  22
ENDBRANCH   1  12
BRANCH   2  24
ATOM     24  O   UNL     1      66.430 -16.156  31.123  1.00  0.00    -0.381 OA
ATOM     25  H   UNL     1      66.233 -15.194  31.274  1.00  0.00     0.211 HD
ENDBRANCH   2  24
BRANCH   6  26
ATOM     26  O   UNL     1      70.243 -19.840  31.270  1.00  0.00    -0.507 OA
ATOM     27  H   UNL     1      70.548 -20.797  31.361  1.00  0.00     0.293 HD
ENDBRANCH   6  26
BRANCH   8  28
ATOM     28  O   UNL     1      72.948 -18.280  34.911  1.00  0.00    -0.508 OA
ATOM     29  H   UNL     1      73.807 -18.675  34.544  1.00  0.00     0.293 HD
ENDBRANCH   8  28
TORSDOF 7
ENDMDL
