MODEL 1
REMARK VINA RESULT:    -4.598      0.000      0.000
REMARK INTER + INTRA:         -10.210
REMARK INTER:                  -8.362
REMARK INTRA:                  -1.848
REMARK UNBOUND:                -1.848
REMARK SMILES CCCCCCCCCCCCCC[C@H](C)C(=O)[O-]
REMARK SMILES IDX 9 1 10 2 11 3 12 4 13 5 14 6 15 7 16 8 17 9 18 10 19 11 8 12
REMARK SMILES IDX 7 13 6 14 5 15 4 16 3 17 2 18 1 19
REMARK H PARENT
REMARK Flexibility Score: inf
ROOT
ATOM      1  C   UNL     1      58.050  -3.632  31.905  1.00  0.00     0.000 C 
ENDROOT
BRANCH   1   2
ATOM      2  C   UNL     1      59.214  -2.698  31.548  1.00  0.00     0.000 C 
BRANCH   2   3
ATOM      3  C   UNL     1      59.390  -2.598  30.025  1.00  0.00     0.000 C 
BRANCH   3   4
ATOM      4  C   UNL     1      60.020  -1.264  29.589  1.00  0.00     0.000 C 
BRANCH   4   5
ATOM      5  C   UNL     1      60.829  -1.392  28.288  1.00  0.00     0.001 C 
BRANCH   5   6
ATOM      6  C   UNL     1      62.091  -2.268  28.432  1.00  0.00     0.009 C 
BRANCH   6   7
ATOM      7  C   UNL     1      62.117  -3.592  27.626  1.00  0.00     0.032 C 
ATOM      8  C   UNL     1      62.659  -4.774  28.443  1.00  0.00     0.014 C 
BRANCH   7   9
ATOM      9  C   UNL     1      62.816  -3.444  26.297  1.00  0.00     0.044 C 
ATOM     10  O   UNL     1      63.411  -4.431  25.790  1.00  0.00    -0.550 OA
ATOM     11  O   UNL     1      62.833  -2.225  25.627  1.00  0.00    -0.550 OA
ENDBRANCH   7   9
ENDBRANCH   6   7
ENDBRANCH   5   6
ENDBRANCH   4   5
ENDBRANCH   3   4
ENDBRANCH   2   3
ENDBRANCH   1   2
BRANCH   1  12
ATOM     12  C   UNL     1      57.453  -4.273  30.643  1.00  0.00     0.000 C 
BRANCH  12  13
ATOM     13  C   UNL     1      55.928  -4.443  30.733  1.00  0.00    -0.000 C 
BRANCH  13  14
ATOM     14  C   UNL     1      55.292  -3.530  31.797  1.00  0.00    -0.000 C 
BRANCH  14  15
ATOM     15  C   UNL     1      54.524  -2.349  31.183  1.00  0.00    -0.000 C 
BRANCH  15  16
ATOM     16  C   UNL     1      55.285  -1.018  31.313  1.00  0.00    -0.000 C 
BRANCH  16  17
ATOM     17  C   UNL     1      56.158  -0.715  30.084  1.00  0.00    -0.000 C 
BRANCH  17  18
ATOM     18  C   UNL     1      57.020   0.543  30.266  1.00  0.00    -0.003 C 
ATOM     19  C   UNL     1      57.160   1.306  28.951  1.00  0.00     0.004 C 
ENDBRANCH  17  18
ENDBRANCH  16  17
ENDBRANCH  15  16
ENDBRANCH  14  15
ENDBRANCH  13  14
ENDBRANCH  12  13
ENDBRANCH   1  12
TORSDOF 14
ENDMDL
MODEL 2
REMARK VINA RESULT:    -4.571      1.283      2.512
REMARK INTER + INTRA:         -10.161
REMARK INTER:                  -8.157
REMARK INTRA:                  -2.004
REMARK UNBOUND:                -1.848
REMARK SMILES CCCCCCCCCCCCCC[C@H](C)C(=O)[O-]
REMARK SMILES IDX 9 1 10 2 11 3 12 4 13 5 14 6 15 7 16 8 17 9 18 10 19 11 8 12
REMARK SMILES IDX 7 13 6 14 5 15 4 16 3 17 2 18 1 19
REMARK H PARENT
REMARK Flexibility Score: inf
ROOT
ATOM      1  C   UNL     1      55.933  -4.550  30.741  1.00  0.00     0.000 C 
ENDROOT
BRANCH   1   2
ATOM      2  C   UNL     1      57.443  -4.280  30.781  1.00  0.00     0.000 C 
BRANCH   2   3
ATOM      3  C   UNL     1      57.833  -3.533  32.066  1.00  0.00     0.000 C 
BRANCH   3   4
ATOM      4  C   UNL     1      59.202  -2.840  31.954  1.00  0.00     0.000 C 
BRANCH   4   5
ATOM      5  C   UNL     1      59.937  -3.194  30.652  1.00  0.00     0.001 C 
BRANCH   5   6
ATOM      6  C   UNL     1      61.360  -2.604  30.569  1.00  0.00     0.009 C 
BRANCH   6   7
ATOM      7  C   UNL     1      61.705  -1.789  29.296  1.00  0.00     0.032 C 
ATOM      8  C   UNL     1      60.479  -1.090  28.689  1.00  0.00     0.014 C 
BRANCH   7   9
ATOM      9  C   UNL     1      62.464  -2.604  28.278  1.00  0.00     0.044 C 
ATOM     10  O   UNL     1      63.675  -2.346  28.048  1.00  0.00    -0.550 OA
ATOM     11  O   UNL     1      61.842  -3.627  27.570  1.00  0.00    -0.550 OA
ENDBRANCH   7   9
ENDBRANCH   6   7
ENDBRANCH   5   6
ENDBRANCH   4   5
ENDBRANCH   3   4
ENDBRANCH   2   3
ENDBRANCH   1   2
BRANCH   1  12
ATOM     12  C   UNL     1      55.263  -4.120  32.056  1.00  0.00     0.000 C 
BRANCH  12  13
ATOM     13  C   UNL     1      54.108  -3.131  31.833  1.00  0.00    -0.000 C 
BRANCH  13  14
ATOM     14  C   UNL     1      54.595  -1.752  31.350  1.00  0.00    -0.000 C 
BRANCH  14  15
ATOM     15  C   UNL     1      53.894  -1.295  30.061  1.00  0.00    -0.000 C 
BRANCH  15  16
ATOM     16  C   UNL     1      54.850  -1.245  28.857  1.00  0.00    -0.000 C 
BRANCH  16  17
ATOM     17  C   UNL     1      56.328  -1.184  29.279  1.00  0.00    -0.000 C 
BRANCH  17  18
ATOM     18  C   UNL     1      56.982   0.165  28.945  1.00  0.00    -0.003 C 
ATOM     19  C   UNL     1      57.136   1.024  30.197  1.00  0.00     0.004 C 
ENDBRANCH  17  18
ENDBRANCH  16  17
ENDBRANCH  15  16
ENDBRANCH  14  15
ENDBRANCH  13  14
ENDBRANCH  12  13
ENDBRANCH   1  12
TORSDOF 14
ENDMDL
MODEL 3
REMARK VINA RESULT:    -4.512      1.711      3.624
REMARK INTER + INTRA:         -10.054
REMARK INTER:                  -8.013
REMARK INTRA:                  -2.041
REMARK UNBOUND:                -1.848
REMARK SMILES CCCCCCCCCCCCCC[C@H](C)C(=O)[O-]
REMARK SMILES IDX 9 1 10 2 11 3 12 4 13 5 14 6 15 7 16 8 17 9 18 10 19 11 8 12
REMARK SMILES IDX 7 13 6 14 5 15 4 16 3 17 2 18 1 19
REMARK H PARENT
REMARK Flexibility Score: inf
ROOT
ATOM      1  C   UNL     1      56.061   0.346  28.370  1.00  0.00     0.000 C 
ENDROOT
BRANCH   1   2
ATOM      2  C   UNL     1      57.053   1.046  29.309  1.00  0.00     0.000 C 
BRANCH   2   3
ATOM      3  C   UNL     1      58.311   0.189  29.515  1.00  0.00     0.000 C 
BRANCH   3   4
ATOM      4  C   UNL     1      58.538  -0.184  30.990  1.00  0.00     0.000 C 
BRANCH   4   5
ATOM      5  C   UNL     1      59.715  -1.154  31.178  1.00  0.00     0.001 C 
BRANCH   5   6
ATOM      6  C   UNL     1      60.247  -1.741  29.854  1.00  0.00     0.009 C 
BRANCH   6   7
ATOM      7  C   UNL     1      61.545  -2.585  29.936  1.00  0.00     0.032 C 
ATOM      8  C   UNL     1      62.138  -2.624  31.352  1.00  0.00     0.014 C 
BRANCH   7   9
ATOM      9  C   UNL     1      62.562  -2.180  28.898  1.00  0.00     0.044 C 
ATOM     10  O   UNL     1      63.575  -1.515  29.241  1.00  0.00    -0.550 OA
ATOM     11  O   UNL     1      62.392  -2.512  27.558  1.00  0.00    -0.550 OA
ENDBRANCH   7   9
ENDBRANCH   6   7
ENDBRANCH   5   6
ENDBRANCH   4   5
ENDBRANCH   3   4
ENDBRANCH   2   3
ENDBRANCH   1   2
BRANCH   1  12
ATOM     12  C   UNL     1      55.899  -1.134  28.747  1.00  0.00     0.000 C 
BRANCH  12  13
ATOM     13  C   UNL     1      54.427  -1.578  28.774  1.00  0.00    -0.000 C 
BRANCH  13  14
ATOM     14  C   UNL     1      53.732  -1.240  30.105  1.00  0.00    -0.000 C 
BRANCH  14  15
ATOM     15  C   UNL     1      54.582  -1.613  31.329  1.00  0.00    -0.000 C 
BRANCH  15  16
ATOM     16  C   UNL     1      54.183  -2.971  31.932  1.00  0.00    -0.000 C 
BRANCH  16  17
ATOM     17  C   UNL     1      55.256  -4.051  31.715  1.00  0.00    -0.000 C 
BRANCH  17  18
ATOM     18  C   UNL     1      56.676  -3.470  31.657  1.00  0.00    -0.003 C 
ATOM     19  C   UNL     1      57.468  -4.072  30.500  1.00  0.00     0.004 C 
ENDBRANCH  17  18
ENDBRANCH  16  17
ENDBRANCH  15  16
ENDBRANCH  14  15
ENDBRANCH  13  14
ENDBRANCH  12  13
ENDBRANCH   1  12
TORSDOF 14
ENDMDL
MODEL 4
REMARK VINA RESULT:    -4.435      2.830      6.441
REMARK INTER + INTRA:          -9.913
REMARK INTER:                  -8.166
REMARK INTRA:                  -1.747
REMARK UNBOUND:                -1.848
REMARK SMILES CCCCCCCCCCCCCC[C@H](C)C(=O)[O-]
REMARK SMILES IDX 9 1 10 2 11 3 12 4 13 5 14 6 15 7 16 8 17 9 18 10 19 11 8 12
REMARK SMILES IDX 7 13 6 14 5 15 4 16 3 17 2 18 1 19
REMARK H PARENT
REMARK Flexibility Score: inf
ROOT
ATOM      1  C   UNL     1      57.437  -4.248  30.526  1.00  0.00     0.000 C 
ENDROOT
BRANCH   1   2
ATOM      2  C   UNL     1      55.930  -4.512  30.649  1.00  0.00     0.000 C 
BRANCH   2   3
ATOM      3  C   UNL     1      55.384  -3.967  31.977  1.00  0.00     0.000 C 
BRANCH   3   4
ATOM      4  C   UNL     1      54.280  -2.915  31.776  1.00  0.00     0.000 C 
BRANCH   4   5
ATOM      5  C   UNL     1      54.583  -1.958  30.612  1.00  0.00     0.001 C 
BRANCH   5   6
ATOM      6  C   UNL     1      55.458  -0.754  31.018  1.00  0.00     0.009 C 
BRANCH   6   7
ATOM      7  C   UNL     1      56.746  -0.517  30.188  1.00  0.00     0.032 C 
ATOM      8  C   UNL     1      57.913   0.006  31.040  1.00  0.00     0.014 C 
BRANCH   7   9
ATOM      9  C   UNL     1      56.497   0.336  28.969  1.00  0.00     0.044 C 
ATOM     10  O   UNL     1      55.721  -0.074  28.066  1.00  0.00    -0.550 OA
ATOM     11  O   UNL     1      57.130   1.566  28.812  1.00  0.00    -0.550 OA
ENDBRANCH   7   9
ENDBRANCH   6   7
ENDBRANCH   5   6
ENDBRANCH   4   5
ENDBRANCH   3   4
ENDBRANCH   2   3
ENDBRANCH   1   2
BRANCH   1  12
ATOM     12  C   UNL     1      58.020  -3.761  31.861  1.00  0.00     0.000 C 
BRANCH  12  13
ATOM     13  C   UNL     1      59.412  -3.129  31.702  1.00  0.00    -0.000 C 
BRANCH  13  14
ATOM     14  C   UNL     1      59.897  -3.129  30.241  1.00  0.00    -0.000 C 
BRANCH  14  15
ATOM     15  C   UNL     1      60.868  -1.976  29.939  1.00  0.00    -0.000 C 
BRANCH  15  16
ATOM     16  C   UNL     1      62.298  -2.467  29.656  1.00  0.00    -0.000 C 
BRANCH  16  17
ATOM     17  C   UNL     1      62.637  -2.461  28.155  1.00  0.00    -0.000 C 
BRANCH  17  18
ATOM     18  C   UNL     1      62.491  -3.848  27.510  1.00  0.00    -0.003 C 
ATOM     19  C   UNL     1      63.084  -3.862  26.104  1.00  0.00     0.004 C 
ENDBRANCH  17  18
ENDBRANCH  16  17
ENDBRANCH  15  16
ENDBRANCH  14  15
ENDBRANCH  13  14
ENDBRANCH  12  13
ENDBRANCH   1  12
TORSDOF 14
ENDMDL
MODEL 5
REMARK VINA RESULT:    -4.336      1.252      2.227
REMARK INTER + INTRA:          -9.733
REMARK INTER:                  -8.089
REMARK INTRA:                  -1.644
REMARK UNBOUND:                -1.848
REMARK SMILES CCCCCCCCCCCCCC[C@H](C)C(=O)[O-]
REMARK SMILES IDX 9 1 10 2 11 3 12 4 13 5 14 6 15 7 16 8 17 9 18 10 19 11 8 12
REMARK SMILES IDX 7 13 6 14 5 15 4 16 3 17 2 18 1 19
REMARK H PARENT
REMARK Flexibility Score: inf
ROOT
ATOM      1  C   UNL     1      56.003  -4.214  30.823  1.00  0.00     0.000 C 
ENDROOT
BRANCH   1   2
ATOM      2  C   UNL     1      57.482  -3.875  31.053  1.00  0.00     0.000 C 
BRANCH   2   3
ATOM      3  C   UNL     1      58.191  -3.583  29.721  1.00  0.00     0.000 C 
BRANCH   3   4
ATOM      4  C   UNL     1      59.709  -3.820  29.795  1.00  0.00     0.000 C 
BRANCH   4   5
ATOM      5  C   UNL     1      60.426  -3.463  28.484  1.00  0.00     0.001 C 
BRANCH   5   6
ATOM      6  C   UNL     1      61.963  -3.558  28.577  1.00  0.00     0.009 C 
BRANCH   6   7
ATOM      7  C   UNL     1      62.713  -4.008  27.298  1.00  0.00     0.032 C 
ATOM      8  C   UNL     1      63.684  -5.170  27.557  1.00  0.00     0.014 C 
BRANCH   7   9
ATOM      9  C   UNL     1      63.375  -2.857  26.581  1.00  0.00     0.044 C 
ATOM     10  O   UNL     1      64.465  -2.396  27.012  1.00  0.00    -0.550 OA
ATOM     11  O   UNL     1      62.790  -2.278  25.460  1.00  0.00    -0.550 OA
ENDBRANCH   7   9
ENDBRANCH   6   7
ENDBRANCH   5   6
ENDBRANCH   4   5
ENDBRANCH   3   4
ENDBRANCH   2   3
ENDBRANCH   1   2
BRANCH   1  12
ATOM     12  C   UNL     1      55.106  -3.456  31.813  1.00  0.00     0.000 C 
BRANCH  12  13
ATOM     13  C   UNL     1      54.295  -2.338  31.138  1.00  0.00    -0.000 C 
BRANCH  13  14
ATOM     14  C   UNL     1      55.143  -1.087  30.844  1.00  0.00    -0.000 C 
BRANCH  14  15
ATOM     15  C   UNL     1      55.554  -0.983  29.366  1.00  0.00    -0.000 C 
BRANCH  15  16
ATOM     16  C   UNL     1      56.634   0.085  29.128  1.00  0.00    -0.000 C 
BRANCH  16  17
ATOM     17  C   UNL     1      57.311   0.540  30.432  1.00  0.00    -0.000 C 
BRANCH  17  18
ATOM     18  C   UNL     1      58.671  -0.137  30.660  1.00  0.00    -0.003 C 
ATOM     19  C   UNL     1      58.848  -0.529  32.125  1.00  0.00     0.004 C 
ENDBRANCH  17  18
ENDBRANCH  16  17
ENDBRANCH  15  16
ENDBRANCH  14  15
ENDBRANCH  13  14
ENDBRANCH  12  13
ENDBRANCH   1  12
TORSDOF 14
ENDMDL
MODEL 6
REMARK VINA RESULT:    -4.307      2.413      6.927
REMARK INTER + INTRA:          -9.680
REMARK INTER:                  -7.879
REMARK INTRA:                  -1.801
REMARK UNBOUND:                -1.848
REMARK SMILES CCCCCCCCCCCCCC[C@H](C)C(=O)[O-]
REMARK SMILES IDX 9 1 10 2 11 3 12 4 13 5 14 6 15 7 16 8 17 9 18 10 19 11 8 12
REMARK SMILES IDX 7 13 6 14 5 15 4 16 3 17 2 18 1 19
REMARK H PARENT
REMARK Flexibility Score: inf
ROOT
ATOM      1  C   UNL     1      58.635  -3.764  29.509  1.00  0.00     0.000 C 
ENDROOT
BRANCH   1   2
ATOM      2  C   UNL     1      58.018  -3.815  30.913  1.00  0.00     0.000 C 
BRANCH   2   3
ATOM      3  C   UNL     1      56.581  -3.273  30.902  1.00  0.00     0.000 C 
BRANCH   3   4
ATOM      4  C   UNL     1      56.135  -2.809  29.504  1.00  0.00     0.000 C 
BRANCH   4   5
ATOM      5  C   UNL     1      55.662  -1.347  29.492  1.00  0.00     0.001 C 
BRANCH   5   6
ATOM      6  C   UNL     1      56.187  -0.520  30.685  1.00  0.00     0.009 C 
BRANCH   6   7
ATOM      7  C   UNL     1      57.320   0.494  30.386  1.00  0.00     0.032 C 
ATOM      8  C   UNL     1      57.094   1.268  29.079  1.00  0.00     0.014 C 
BRANCH   7   9
ATOM      9  C   UNL     1      58.690  -0.135  30.452  1.00  0.00     0.044 C 
ATOM     10  O   UNL     1      59.356  -0.294  29.395  1.00  0.00    -0.550 OA
ATOM     11  O   UNL     1      59.225  -0.565  31.662  1.00  0.00    -0.550 OA
ENDBRANCH   7   9
ENDBRANCH   6   7
ENDBRANCH   5   6
ENDBRANCH   4   5
ENDBRANCH   3   4
ENDBRANCH   2   3
ENDBRANCH   1   2
BRANCH   1  12
ATOM     12  C   UNL     1      60.168  -3.829  29.580  1.00  0.00     0.000 C 
BRANCH  12  13
ATOM     13  C   UNL     1      60.839  -3.327  28.291  1.00  0.00    -0.000 C 
BRANCH  13  14
ATOM     14  C   UNL     1      62.029  -2.390  28.570  1.00  0.00    -0.000 C 
BRANCH  14  15
ATOM     15  C   UNL     1      63.151  -2.532  27.530  1.00  0.00    -0.000 C 
BRANCH  15  16
ATOM     16  C   UNL     1      62.760  -3.453  26.361  1.00  0.00    -0.000 C 
BRANCH  16  17
ATOM     17  C   UNL     1      63.730  -4.633  26.190  1.00  0.00    -0.000 C 
BRANCH  17  18
ATOM     18  C   UNL     1      64.216  -5.199  27.532  1.00  0.00    -0.003 C 
ATOM     19  C   UNL     1      63.227  -6.221  28.086  1.00  0.00     0.004 C 
ENDBRANCH  17  18
ENDBRANCH  16  17
ENDBRANCH  15  16
ENDBRANCH  14  15
ENDBRANCH  13  14
ENDBRANCH  12  13
ENDBRANCH   1  12
TORSDOF 14
ENDMDL
MODEL 7
REMARK VINA RESULT:    -4.305      3.106      7.228
REMARK INTER + INTRA:          -9.677
REMARK INTER:                  -7.840
REMARK INTRA:                  -1.837
REMARK UNBOUND:                -1.848
REMARK SMILES CCCCCCCCCCCCCC[C@H](C)C(=O)[O-]
REMARK SMILES IDX 9 1 10 2 11 3 12 4 13 5 14 6 15 7 16 8 17 9 18 10 19 11 8 12
REMARK SMILES IDX 7 13 6 14 5 15 4 16 3 17 2 18 1 19
REMARK H PARENT
REMARK Flexibility Score: inf
ROOT
ATOM      1  C   UNL     1      58.958  -3.986  29.712  1.00  0.00     0.000 C 
ENDROOT
BRANCH   1   2
ATOM      2  C   UNL     1      59.225  -3.508  31.145  1.00  0.00     0.000 C 
BRANCH   2   3
ATOM      3  C   UNL     1      57.960  -3.628  32.009  1.00  0.00     0.000 C 
BRANCH   3   4
ATOM      4  C   UNL     1      56.755  -4.168  31.220  1.00  0.00     0.000 C 
BRANCH   4   5
ATOM      5  C   UNL     1      55.493  -3.311  31.414  1.00  0.00     0.001 C 
BRANCH   5   6
ATOM      6  C   UNL     1      55.683  -1.836  31.005  1.00  0.00     0.009 C 
BRANCH   6   7
ATOM      7  C   UNL     1      56.166  -1.570  29.556  1.00  0.00     0.032 C 
ATOM      8  C   UNL     1      57.369  -0.617  29.497  1.00  0.00     0.014 C 
BRANCH   7   9
ATOM      9  C   UNL     1      55.044  -1.135  28.645  1.00  0.00     0.044 C 
ATOM     10  O   UNL     1      53.896  -1.633  28.786  1.00  0.00    -0.550 OA
ATOM     11  O   UNL     1      55.261  -0.206  27.632  1.00  0.00    -0.550 OA
ENDBRANCH   7   9
ENDBRANCH   6   7
ENDBRANCH   5   6
ENDBRANCH   4   5
ENDBRANCH   3   4
ENDBRANCH   2   3
ENDBRANCH   1   2
BRANCH   1  12
ATOM     12  C   UNL     1      60.071  -3.522  28.760  1.00  0.00     0.000 C 
BRANCH  12  13
ATOM     13  C   UNL     1      61.245  -2.863  29.503  1.00  0.00    -0.000 C 
BRANCH  13  14
ATOM     14  C   UNL     1      62.014  -1.861  28.623  1.00  0.00    -0.000 C 
BRANCH  14  15
ATOM     15  C   UNL     1      62.359  -2.432  27.238  1.00  0.00    -0.000 C 
BRANCH  15  16
ATOM     16  C   UNL     1      63.501  -3.461  27.292  1.00  0.00    -0.000 C 
BRANCH  16  17
ATOM     17  C   UNL     1      63.364  -4.551  26.216  1.00  0.00    -0.000 C 
BRANCH  17  18
ATOM     18  C   UNL     1      63.441  -5.970  26.799  1.00  0.00    -0.003 C 
ATOM     19  C   UNL     1      63.119  -5.967  28.291  1.00  0.00     0.004 C 
ENDBRANCH  17  18
ENDBRANCH  16  17
ENDBRANCH  15  16
ENDBRANCH  14  15
ENDBRANCH  13  14
ENDBRANCH  12  13
ENDBRANCH   1  12
TORSDOF 14
ENDMDL
MODEL 8
REMARK VINA RESULT:    -4.304      1.117      2.834
REMARK INTER + INTRA:          -9.675
REMARK INTER:                  -7.943
REMARK INTRA:                  -1.732
REMARK UNBOUND:                -1.848
REMARK SMILES CCCCCCCCCCCCCC[C@H](C)C(=O)[O-]
REMARK SMILES IDX 9 1 10 2 11 3 12 4 13 5 14 6 15 7 16 8 17 9 18 10 19 11 8 12
REMARK SMILES IDX 7 13 6 14 5 15 4 16 3 17 2 18 1 19
REMARK H PARENT
REMARK Flexibility Score: inf
ROOT
ATOM      1  C   UNL     1      58.249   0.253  30.122  1.00  0.00     0.000 C 
ENDROOT
BRANCH   1   2
ATOM      2  C   UNL     1      58.897  -0.574  31.240  1.00  0.00     0.000 C 
BRANCH   2   3
ATOM      3  C   UNL     1      59.991  -1.495  30.679  1.00  0.00     0.000 C 
BRANCH   3   4
ATOM      4  C   UNL     1      59.972  -1.567  29.142  1.00  0.00     0.000 C 
BRANCH   4   5
ATOM      5  C   UNL     1      60.475  -2.918  28.609  1.00  0.00     0.001 C 
BRANCH   5   6
ATOM      6  C   UNL     1      61.867  -2.838  27.947  1.00  0.00     0.009 C 
BRANCH   6   7
ATOM      7  C   UNL     1      62.626  -4.176  27.756  1.00  0.00     0.032 C 
ATOM      8  C   UNL     1      63.680  -4.422  28.845  1.00  0.00     0.014 C 
BRANCH   7   9
ATOM      9  C   UNL     1      63.192  -4.324  26.365  1.00  0.00     0.044 C 
ATOM     10  O   UNL     1      64.110  -5.158  26.149  1.00  0.00    -0.550 OA
ATOM     11  O   UNL     1      62.731  -3.537  25.315  1.00  0.00    -0.550 OA
ENDBRANCH   7   9
ENDBRANCH   6   7
ENDBRANCH   5   6
ENDBRANCH   4   5
ENDBRANCH   3   4
ENDBRANCH   2   3
ENDBRANCH   1   2
BRANCH   1  12
ATOM     12  C   UNL     1      56.718   0.132  30.166  1.00  0.00     0.000 C 
BRANCH  12  13
ATOM     13  C   UNL     1      56.189  -0.993  29.262  1.00  0.00    -0.000 C 
BRANCH  13  14
ATOM     14  C   UNL     1      54.904  -1.638  29.812  1.00  0.00    -0.000 C 
BRANCH  14  15
ATOM     15  C   UNL     1      54.852  -1.639  31.348  1.00  0.00    -0.000 C 
BRANCH  15  16
ATOM     16  C   UNL     1      54.352  -2.976  31.920  1.00  0.00    -0.000 C 
BRANCH  16  17
ATOM     17  C   UNL     1      55.243  -4.162  31.513  1.00  0.00    -0.000 C 
BRANCH  17  18
ATOM     18  C   UNL     1      56.729  -3.915  31.812  1.00  0.00    -0.003 C 
ATOM     19  C   UNL     1      57.592  -4.227  30.593  1.00  0.00     0.004 C 
ENDBRANCH  17  18
ENDBRANCH  16  17
ENDBRANCH  15  16
ENDBRANCH  14  15
ENDBRANCH  13  14
ENDBRANCH  12  13
ENDBRANCH   1  12
TORSDOF 14
ENDMDL
MODEL 9
REMARK VINA RESULT:    -4.207      1.412      2.607
REMARK INTER + INTRA:          -9.499
REMARK INTER:                  -7.463
REMARK INTRA:                  -2.036
REMARK UNBOUND:                -1.848
REMARK SMILES CCCCCCCCCCCCCC[C@H](C)C(=O)[O-]
REMARK SMILES IDX 9 1 10 2 11 3 12 4 13 5 14 6 15 7 16 8 17 9 18 10 19 11 8 12
REMARK SMILES IDX 7 13 6 14 5 15 4 16 3 17 2 18 1 19
REMARK H PARENT
REMARK Flexibility Score: inf
ROOT
ATOM      1  C   UNL     1      58.103  -3.489  31.555  1.00  0.00     0.000 C 
ENDROOT
BRANCH   1   2
ATOM      2  C   UNL     1      58.096  -3.939  30.088  1.00  0.00     0.000 C 
BRANCH   2   3
ATOM      3  C   UNL     1      59.529  -4.076  29.550  1.00  0.00     0.000 C 
BRANCH   3   4
ATOM      4  C   UNL     1      59.990  -2.832  28.771  1.00  0.00     0.000 C 
BRANCH   4   5
ATOM      5  C   UNL     1      61.225  -2.168  29.399  1.00  0.00     0.001 C 
BRANCH   5   6
ATOM      6  C   UNL     1      62.488  -2.260  28.517  1.00  0.00     0.009 C 
BRANCH   6   7
ATOM      7  C   UNL     1      62.560  -3.448  27.524  1.00  0.00     0.032 C 
ATOM      8  C   UNL     1      63.150  -4.717  28.159  1.00  0.00     0.014 C 
BRANCH   7   9
ATOM      9  C   UNL     1      63.248  -3.079  26.233  1.00  0.00     0.044 C 
ATOM     10  O   UNL     1      64.284  -2.364  26.258  1.00  0.00    -0.550 OA
ATOM     11  O   UNL     1      62.745  -3.500  25.006  1.00  0.00    -0.550 OA
ENDBRANCH   7   9
ENDBRANCH   6   7
ENDBRANCH   5   6
ENDBRANCH   4   5
ENDBRANCH   3   4
ENDBRANCH   2   3
ENDBRANCH   1   2
BRANCH   1  12
ATOM     12  C   UNL     1      57.499  -2.084  31.702  1.00  0.00     0.000 C 
BRANCH  12  13
ATOM     13  C   UNL     1      58.572  -0.989  31.809  1.00  0.00    -0.000 C 
BRANCH  13  14
ATOM     14  C   UNL     1      58.249   0.243  30.944  1.00  0.00    -0.000 C 
BRANCH  14  15
ATOM     15  C   UNL     1      57.896  -0.128  29.494  1.00  0.00    -0.000 C 
BRANCH  15  16
ATOM     16  C   UNL     1      56.711   0.688  28.949  1.00  0.00    -0.000 C 
BRANCH  16  17
ATOM     17  C   UNL     1      55.771  -0.154  28.069  1.00  0.00    -0.000 C 
BRANCH  17  18
ATOM     18  C   UNL     1      55.372  -1.481  28.731  1.00  0.00    -0.003 C 
ATOM     19  C   UNL     1      54.366  -1.252  29.856  1.00  0.00     0.004 C 
ENDBRANCH  17  18
ENDBRANCH  16  17
ENDBRANCH  15  16
ENDBRANCH  14  15
ENDBRANCH  13  14
ENDBRANCH  12  13
ENDBRANCH   1  12
TORSDOF 14
ENDMDL
