MODEL 1
REMARK VINA RESULT:    -3.180      0.000      0.000
REMARK INTER + INTRA:         -14.608
REMARK INTER:                  -8.386
REMARK INTRA:                  -6.222
REMARK UNBOUND:                -6.222
REMARK SMILES CCCCCCCCCCCCCCCCCCCCCCCCCCCCCC(=O)[O-]
REMARK SMILES IDX 16 1 17 2 18 3 19 4 20 5 21 6 22 7 23 8 24 9 25 10 26 11
REMARK SMILES IDX 27 12 28 13 29 14 30 15 31 16 32 17 15 18 14 19 13 20 12 21
REMARK SMILES IDX 11 22 10 23 9 24 8 25 7 26 6 27 5 28 4 29 3 30 2 31 1 32
REMARK H PARENT
REMARK Flexibility Score: inf
ROOT
ATOM      1  C   UNL     1      -3.488  -2.932  34.136  1.00  0.00     0.000 C 
ENDROOT
BRANCH   1   2
ATOM      2  C   UNL     1      -2.604  -3.168  35.371  1.00  0.00     0.000 C 
BRANCH   2   3
ATOM      3  C   UNL     1      -1.567  -2.053  35.582  1.00  0.00     0.000 C 
BRANCH   3   4
ATOM      4  C   UNL     1      -1.648  -1.422  36.981  1.00  0.00     0.000 C 
BRANCH   4   5
ATOM      5  C   UNL     1      -1.977   0.074  36.891  1.00  0.00     0.000 C 
BRANCH   5   6
ATOM      6  C   UNL     1      -3.169   0.322  35.955  1.00  0.00     0.000 C 
BRANCH   6   7
ATOM      7  C   UNL     1      -2.878   1.380  34.875  1.00  0.00     0.000 C 
BRANCH   7   8
ATOM      8  C   UNL     1      -2.939   0.836  33.432  1.00  0.00     0.000 C 
BRANCH   8   9
ATOM      9  C   UNL     1      -1.622   0.172  32.990  1.00  0.00     0.000 C 
BRANCH   9  10
ATOM     10  C   UNL     1      -0.410   1.110  33.123  1.00  0.00     0.000 C 
BRANCH  10  11
ATOM     11  C   UNL     1       0.769   0.458  33.867  1.00  0.00     0.000 C 
BRANCH  11  12
ATOM     12  C   UNL     1       1.020   1.104  35.241  1.00  0.00     0.000 C 
BRANCH  12  13
ATOM     13  C   UNL     1       2.104   0.366  36.045  1.00  0.00     0.006 C 
BRANCH  13  14
ATOM     14  C   UNL     1       1.977  -1.159  35.927  1.00  0.00     0.053 C 
BRANCH  14  15
ATOM     15  C   UNL     1       3.236  -1.790  35.417  1.00  0.00     0.041 C 
ATOM     16  O   UNL     1       4.280  -1.787  36.123  1.00  0.00    -0.550 OA
ATOM     17  O   UNL     1       3.264  -2.360  34.149  1.00  0.00    -0.550 OA
ENDBRANCH  14  15
ENDBRANCH  13  14
ENDBRANCH  12  13
ENDBRANCH  11  12
ENDBRANCH  10  11
ENDBRANCH   9  10
ENDBRANCH   8   9
ENDBRANCH   7   8
ENDBRANCH   6   7
ENDBRANCH   5   6
ENDBRANCH   4   5
ENDBRANCH   3   4
ENDBRANCH   2   3
ENDBRANCH   1   2
BRANCH   1  18
ATOM     18  C   UNL     1      -4.914  -2.541  34.545  1.00  0.00     0.000 C 
BRANCH  18  19
ATOM     19  C   UNL     1      -5.357  -3.314  35.793  1.00  0.00     0.000 C 
BRANCH  19  20
ATOM     20  C   UNL     1      -5.924  -2.365  36.859  1.00  0.00     0.000 C 
BRANCH  20  21
ATOM     21  C   UNL     1      -4.990  -2.207  38.068  1.00  0.00     0.000 C 
BRANCH  21  22
ATOM     22  C   UNL     1      -5.212  -0.888  38.823  1.00  0.00     0.000 C 
BRANCH  22  23
ATOM     23  C   UNL     1      -6.473  -0.172  38.316  1.00  0.00     0.000 C 
BRANCH  23  24
ATOM     24  C   UNL     1      -6.200   1.275  37.864  1.00  0.00    -0.000 C 
BRANCH  24  25
ATOM     25  C   UNL     1      -7.156   1.805  36.780  1.00  0.00    -0.000 C 
BRANCH  25  26
ATOM     26  C   UNL     1      -6.549   1.753  35.371  1.00  0.00    -0.000 C 
BRANCH  26  27
ATOM     27  C   UNL     1      -6.942   0.455  34.650  1.00  0.00    -0.000 C 
BRANCH  27  28
ATOM     28  C   UNL     1      -6.526   0.438  33.170  1.00  0.00    -0.000 C 
BRANCH  28  29
ATOM     29  C   UNL     1      -6.687   1.806  32.471  1.00  0.00    -0.000 C 
BRANCH  29  30
ATOM     30  C   UNL     1      -8.124   2.033  31.970  1.00  0.00    -0.000 C 
BRANCH  30  31
ATOM     31  C   UNL     1      -8.904   3.033  32.837  1.00  0.00    -0.003 C 
ATOM     32  C   UNL     1     -10.108   2.401  33.534  1.00  0.00     0.004 C 
ENDBRANCH  30  31
ENDBRANCH  29  30
ENDBRANCH  28  29
ENDBRANCH  27  28
ENDBRANCH  26  27
ENDBRANCH  25  26
ENDBRANCH  24  25
ENDBRANCH  23  24
ENDBRANCH  22  23
ENDBRANCH  21  22
ENDBRANCH  20  21
ENDBRANCH  19  20
ENDBRANCH  18  19
ENDBRANCH   1  18
TORSDOF 28
ENDMDL
MODEL 2
REMARK VINA RESULT:    -3.168      3.310      7.829
REMARK INTER + INTRA:         -14.575
REMARK INTER:                  -8.797
REMARK INTRA:                  -5.777
REMARK UNBOUND:                -6.222
REMARK SMILES CCCCCCCCCCCCCCCCCCCCCCCCCCCCCC(=O)[O-]
REMARK SMILES IDX 16 1 17 2 18 3 19 4 20 5 21 6 22 7 23 8 24 9 25 10 26 11
REMARK SMILES IDX 27 12 28 13 29 14 30 15 31 16 32 17 15 18 14 19 13 20 12 21
REMARK SMILES IDX 11 22 10 23 9 24 8 25 7 26 6 27 5 28 4 29 3 30 2 31 1 32
REMARK H PARENT
REMARK Flexibility Score: inf
ROOT
ATOM      1  C   UNL     1      -2.176  -2.150  34.844  1.00  0.00     0.000 C 
ENDROOT
BRANCH   1   2
ATOM      2  C   UNL     1      -3.410  -2.885  34.296  1.00  0.00     0.000 C 
BRANCH   2   3
ATOM      3  C   UNL     1      -4.058  -3.814  35.334  1.00  0.00     0.000 C 
BRANCH   3   4
ATOM      4  C   UNL     1      -5.362  -3.241  35.912  1.00  0.00     0.000 C 
BRANCH   4   5
ATOM      5  C   UNL     1      -5.114  -2.574  37.272  1.00  0.00     0.000 C 
BRANCH   5   6
ATOM      6  C   UNL     1      -5.706  -1.157  37.308  1.00  0.00     0.000 C 
BRANCH   6   7
ATOM      7  C   UNL     1      -4.782  -0.136  37.994  1.00  0.00     0.000 C 
BRANCH   7   8
ATOM      8  C   UNL     1      -3.350  -0.655  38.245  1.00  0.00     0.000 C 
BRANCH   8   9
ATOM      9  C   UNL     1      -2.269   0.296  37.698  1.00  0.00     0.000 C 
BRANCH   9  10
ATOM     10  C   UNL     1      -2.849   1.399  36.797  1.00  0.00     0.000 C 
BRANCH  10  11
ATOM     11  C   UNL     1      -2.070   1.562  35.479  1.00  0.00     0.000 C 
BRANCH  11  12
ATOM     12  C   UNL     1      -2.936   1.241  34.248  1.00  0.00     0.000 C 
BRANCH  12  13
ATOM     13  C   UNL     1      -4.440   1.250  34.571  1.00  0.00     0.006 C 
BRANCH  13  14
ATOM     14  C   UNL     1      -5.184   0.085  33.905  1.00  0.00     0.053 C 
BRANCH  14  15
ATOM     15  C   UNL     1      -6.404   0.545  33.168  1.00  0.00     0.041 C 
ATOM     16  O   UNL     1      -7.551   0.202  33.560  1.00  0.00    -0.550 OA
ATOM     17  O   UNL     1      -6.273   1.334  32.029  1.00  0.00    -0.550 OA
ENDBRANCH  14  15
ENDBRANCH  13  14
ENDBRANCH  12  13
ENDBRANCH  11  12
ENDBRANCH  10  11
ENDBRANCH   9  10
ENDBRANCH   8   9
ENDBRANCH   7   8
ENDBRANCH   6   7
ENDBRANCH   5   6
ENDBRANCH   4   5
ENDBRANCH   3   4
ENDBRANCH   2   3
ENDBRANCH   1   2
BRANCH   1  18
ATOM     18  C   UNL     1      -1.558  -2.913  36.022  1.00  0.00     0.000 C 
BRANCH  18  19
ATOM     19  C   UNL     1      -0.079  -2.548  36.196  1.00  0.00     0.000 C 
BRANCH  19  20
ATOM     20  C   UNL     1       0.282  -1.298  35.380  1.00  0.00     0.000 C 
BRANCH  20  21
ATOM     21  C   UNL     1       1.173  -0.319  36.160  1.00  0.00     0.000 C 
BRANCH  21  22
ATOM     22  C   UNL     1       1.765   0.785  35.271  1.00  0.00     0.000 C 
BRANCH  22  23
ATOM     23  C   UNL     1       2.850   0.218  34.343  1.00  0.00     0.000 C 
BRANCH  23  24
ATOM     24  C   UNL     1       3.809  -0.749  35.063  1.00  0.00    -0.000 C 
BRANCH  24  25
ATOM     25  C   UNL     1       4.174  -2.013  34.264  1.00  0.00    -0.000 C 
BRANCH  25  26
ATOM     26  C   UNL     1       3.077  -2.432  33.275  1.00  0.00    -0.000 C 
BRANCH  26  27
ATOM     27  C   UNL     1       3.679  -2.811  31.914  1.00  0.00    -0.000 C 
BRANCH  27  28
ATOM     28  C   UNL     1       3.722  -1.633  30.926  1.00  0.00    -0.000 C 
BRANCH  28  29
ATOM     29  C   UNL     1       2.380  -1.391  30.201  1.00  0.00    -0.000 C 
BRANCH  29  30
ATOM     30  C   UNL     1       1.805   0.005  30.502  1.00  0.00    -0.000 C 
BRANCH  30  31
ATOM     31  C   UNL     1       0.275  -0.001  30.640  1.00  0.00    -0.003 C 
ATOM     32  C   UNL     1      -0.190   0.045  32.095  1.00  0.00     0.004 C 
ENDBRANCH  30  31
ENDBRANCH  29  30
ENDBRANCH  28  29
ENDBRANCH  27  28
ENDBRANCH  26  27
ENDBRANCH  25  26
ENDBRANCH  24  25
ENDBRANCH  23  24
ENDBRANCH  22  23
ENDBRANCH  21  22
ENDBRANCH  20  21
ENDBRANCH  19  20
ENDBRANCH  18  19
ENDBRANCH   1  18
TORSDOF 28
ENDMDL
MODEL 3
REMARK VINA RESULT:    -3.146      3.295      7.063
REMARK INTER + INTRA:         -14.518
REMARK INTER:                  -7.740
REMARK INTRA:                  -6.778
REMARK UNBOUND:                -6.222
REMARK SMILES CCCCCCCCCCCCCCCCCCCCCCCCCCCCCC(=O)[O-]
REMARK SMILES IDX 16 1 17 2 18 3 19 4 20 5 21 6 22 7 23 8 24 9 25 10 26 11
REMARK SMILES IDX 27 12 28 13 29 14 30 15 31 16 32 17 15 18 14 19 13 20 12 21
REMARK SMILES IDX 11 22 10 23 9 24 8 25 7 26 6 27 5 28 4 29 3 30 2 31 1 32
REMARK H PARENT
REMARK Flexibility Score: inf
ROOT
ATOM      1  C   UNL     1      -3.392  -1.265  34.568  1.00  0.00     0.000 C 
ENDROOT
BRANCH   1   2
ATOM      2  C   UNL     1      -4.764  -1.913  34.323  1.00  0.00     0.000 C 
BRANCH   2   3
ATOM      3  C   UNL     1      -5.746  -1.685  35.483  1.00  0.00     0.000 C 
BRANCH   3   4
ATOM      4  C   UNL     1      -5.701  -2.809  36.530  1.00  0.00     0.000 C 
BRANCH   4   5
ATOM      5  C   UNL     1      -4.979  -2.346  37.803  1.00  0.00     0.000 C 
BRANCH   5   6
ATOM      6  C   UNL     1      -5.478  -0.964  38.248  1.00  0.00     0.000 C 
BRANCH   6   7
ATOM      7  C   UNL     1      -4.373  -0.102  38.887  1.00  0.00     0.000 C 
BRANCH   7   8
ATOM      8  C   UNL     1      -2.977  -0.307  38.261  1.00  0.00     0.000 C 
BRANCH   8   9
ATOM      9  C   UNL     1      -2.546   0.874  37.371  1.00  0.00     0.000 C 
BRANCH   9  10
ATOM     10  C   UNL     1      -3.426   2.119  37.569  1.00  0.00     0.000 C 
BRANCH  10  11
ATOM     11  C   UNL     1      -3.804   2.799  36.240  1.00  0.00     0.000 C 
BRANCH  11  12
ATOM     12  C   UNL     1      -4.801   1.962  35.421  1.00  0.00     0.000 C 
BRANCH  12  13
ATOM     13  C   UNL     1      -5.091   2.582  34.042  1.00  0.00     0.006 C 
BRANCH  13  14
ATOM     14  C   UNL     1      -5.161   1.523  32.934  1.00  0.00     0.053 C 
BRANCH  14  15
ATOM     15  C   UNL     1      -6.573   1.221  32.533  1.00  0.00     0.041 C 
ATOM     16  O   UNL     1      -7.284   0.457  33.238  1.00  0.00    -0.550 OA
ATOM     17  O   UNL     1      -7.095   1.764  31.364  1.00  0.00    -0.550 OA
ENDBRANCH  14  15
ENDBRANCH  13  14
ENDBRANCH  12  13
ENDBRANCH  11  12
ENDBRANCH  10  11
ENDBRANCH   9  10
ENDBRANCH   8   9
ENDBRANCH   7   8
ENDBRANCH   6   7
ENDBRANCH   5   6
ENDBRANCH   4   5
ENDBRANCH   3   4
ENDBRANCH   2   3
ENDBRANCH   1   2
BRANCH   1  18
ATOM     18  C   UNL     1      -2.270  -2.309  34.507  1.00  0.00     0.000 C 
BRANCH  18  19
ATOM     19  C   UNL     1      -1.990  -2.894  35.896  1.00  0.00     0.000 C 
BRANCH  19  20
ATOM     20  C   UNL     1      -0.554  -2.587  36.347  1.00  0.00     0.000 C 
BRANCH  20  21
ATOM     21  C   UNL     1       0.198  -1.686  35.355  1.00  0.00     0.000 C 
BRANCH  21  22
ATOM     22  C   UNL     1       1.680  -1.511  35.716  1.00  0.00     0.000 C 
BRANCH  22  23
ATOM     23  C   UNL     1       2.059  -0.023  35.771  1.00  0.00     0.000 C 
BRANCH  23  24
ATOM     24  C   UNL     1       0.833   0.908  35.769  1.00  0.00    -0.000 C 
BRANCH  24  25
ATOM     25  C   UNL     1       0.885   2.046  34.734  1.00  0.00    -0.000 C 
BRANCH  25  26
ATOM     26  C   UNL     1      -0.505   2.575  34.355  1.00  0.00    -0.000 C 
BRANCH  26  27
ATOM     27  C   UNL     1      -1.414   1.436  33.871  1.00  0.00    -0.000 C 
BRANCH  27  28
ATOM     28  C   UNL     1      -1.419   1.279  32.341  1.00  0.00    -0.000 C 
BRANCH  28  29
ATOM     29  C   UNL     1      -0.884  -0.088  31.862  1.00  0.00    -0.000 C 
BRANCH  29  30
ATOM     30  C   UNL     1       0.275   0.063  30.860  1.00  0.00    -0.000 C 
BRANCH  30  31
ATOM     31  C   UNL     1       1.602   0.430  31.539  1.00  0.00    -0.003 C 
ATOM     32  C   UNL     1       2.342  -0.787  32.091  1.00  0.00     0.004 C 
ENDBRANCH  30  31
ENDBRANCH  29  30
ENDBRANCH  28  29
ENDBRANCH  27  28
ENDBRANCH  26  27
ENDBRANCH  25  26
ENDBRANCH  24  25
ENDBRANCH  23  24
ENDBRANCH  22  23
ENDBRANCH  21  22
ENDBRANCH  20  21
ENDBRANCH  19  20
ENDBRANCH  18  19
ENDBRANCH   1  18
TORSDOF 28
ENDMDL
MODEL 4
REMARK VINA RESULT:    -3.080      1.647      3.842
REMARK INTER + INTRA:         -14.345
REMARK INTER:                  -7.887
REMARK INTRA:                  -6.458
REMARK UNBOUND:                -6.222
REMARK SMILES CCCCCCCCCCCCCCCCCCCCCCCCCCCCCC(=O)[O-]
REMARK SMILES IDX 16 1 17 2 18 3 19 4 20 5 21 6 22 7 23 8 24 9 25 10 26 11
REMARK SMILES IDX 27 12 28 13 29 14 30 15 31 16 32 17 15 18 14 19 13 20 12 21
REMARK SMILES IDX 11 22 10 23 9 24 8 25 7 26 6 27 5 28 4 29 3 30 2 31 1 32
REMARK H PARENT
REMARK Flexibility Score: inf
ROOT
ATOM      1  C   UNL     1      -3.965  -3.184  33.946  1.00  0.00     0.000 C 
ENDROOT
BRANCH   1   2
ATOM      2  C   UNL     1      -2.887  -2.094  33.848  1.00  0.00     0.000 C 
BRANCH   2   3
ATOM      3  C   UNL     1      -1.891  -2.136  35.018  1.00  0.00     0.000 C 
BRANCH   3   4
ATOM      4  C   UNL     1      -1.755  -0.781  35.731  1.00  0.00     0.000 C 
BRANCH   4   5
ATOM      5  C   UNL     1      -1.626  -0.969  37.249  1.00  0.00     0.000 C 
BRANCH   5   6
ATOM      6  C   UNL     1      -1.777   0.370  37.986  1.00  0.00     0.000 C 
BRANCH   6   7
ATOM      7  C   UNL     1      -2.014   1.557  37.036  1.00  0.00     0.000 C 
BRANCH   7   8
ATOM      8  C   UNL     1      -0.890   2.614  37.061  1.00  0.00     0.000 C 
BRANCH   8   9
ATOM      9  C   UNL     1       0.084   2.474  35.875  1.00  0.00     0.000 C 
BRANCH   9  10
ATOM     10  C   UNL     1       1.545   2.303  36.324  1.00  0.00     0.000 C 
BRANCH  10  11
ATOM     11  C   UNL     1       2.224   1.078  35.686  1.00  0.00     0.000 C 
BRANCH  11  12
ATOM     12  C   UNL     1       1.976  -0.210  36.489  1.00  0.00     0.000 C 
BRANCH  12  13
ATOM     13  C   UNL     1       1.810  -1.443  35.582  1.00  0.00     0.006 C 
BRANCH  13  14
ATOM     14  C   UNL     1       1.817  -1.072  34.093  1.00  0.00     0.053 C 
BRANCH  14  15
ATOM     15  C   UNL     1       2.913  -1.768  33.346  1.00  0.00     0.041 C 
ATOM     16  O   UNL     1       3.138  -2.993  33.543  1.00  0.00    -0.550 OA
ATOM     17  O   UNL     1       3.704  -1.058  32.449  1.00  0.00    -0.550 OA
ENDBRANCH  14  15
ENDBRANCH  13  14
ENDBRANCH  12  13
ENDBRANCH  11  12
ENDBRANCH  10  11
ENDBRANCH   9  10
ENDBRANCH   8   9
ENDBRANCH   7   8
ENDBRANCH   6   7
ENDBRANCH   5   6
ENDBRANCH   4   5
ENDBRANCH   3   4
ENDBRANCH   2   3
ENDBRANCH   1   2
BRANCH   1  18
ATOM     18  C   UNL     1      -4.057  -3.743  35.371  1.00  0.00     0.000 C 
BRANCH  18  19
ATOM     19  C   UNL     1      -5.333  -3.256  36.069  1.00  0.00     0.000 C 
BRANCH  19  20
ATOM     20  C   UNL     1      -4.999  -2.417  37.311  1.00  0.00     0.000 C 
BRANCH  20  21
ATOM     21  C   UNL     1      -5.660  -1.030  37.284  1.00  0.00     0.000 C 
BRANCH  21  22
ATOM     22  C   UNL     1      -5.280  -0.214  36.040  1.00  0.00     0.000 C 
BRANCH  22  23
ATOM     23  C   UNL     1      -6.485  -0.047  35.103  1.00  0.00     0.000 C 
BRANCH  23  24
ATOM     24  C   UNL     1      -6.097  -0.084  33.613  1.00  0.00    -0.000 C 
BRANCH  24  25
ATOM     25  C   UNL     1      -6.456   1.184  32.819  1.00  0.00    -0.000 C 
BRANCH  25  26
ATOM     26  C   UNL     1      -5.229   2.037  32.467  1.00  0.00    -0.000 C 
BRANCH  26  27
ATOM     27  C   UNL     1      -3.928   1.270  32.747  1.00  0.00    -0.000 C 
BRANCH  27  28
ATOM     28  C   UNL     1      -2.859   2.131  33.441  1.00  0.00    -0.000 C 
BRANCH  28  29
ATOM     29  C   UNL     1      -1.526   2.199  32.666  1.00  0.00    -0.000 C 
BRANCH  29  30
ATOM     30  C   UNL     1      -0.777   0.854  32.685  1.00  0.00    -0.000 C 
BRANCH  30  31
ATOM     31  C   UNL     1      -0.625   0.239  31.286  1.00  0.00    -0.003 C 
ATOM     32  C   UNL     1      -0.644   1.286  30.173  1.00  0.00     0.004 C 
ENDBRANCH  30  31
ENDBRANCH  29  30
ENDBRANCH  28  29
ENDBRANCH  27  28
ENDBRANCH  26  27
ENDBRANCH  25  26
ENDBRANCH  24  25
ENDBRANCH  23  24
ENDBRANCH  22  23
ENDBRANCH  21  22
ENDBRANCH  20  21
ENDBRANCH  19  20
ENDBRANCH  18  19
ENDBRANCH   1  18
TORSDOF 28
ENDMDL
MODEL 5
REMARK VINA RESULT:    -3.080      1.694      4.949
REMARK INTER + INTRA:         -14.345
REMARK INTER:                  -8.309
REMARK INTRA:                  -6.035
REMARK UNBOUND:                -6.222
REMARK SMILES CCCCCCCCCCCCCCCCCCCCCCCCCCCCCC(=O)[O-]
REMARK SMILES IDX 16 1 17 2 18 3 19 4 20 5 21 6 22 7 23 8 24 9 25 10 26 11
REMARK SMILES IDX 27 12 28 13 29 14 30 15 31 16 32 17 15 18 14 19 13 20 12 21
REMARK SMILES IDX 11 22 10 23 9 24 8 25 7 26 6 27 5 28 4 29 3 30 2 31 1 32
REMARK H PARENT
REMARK Flexibility Score: inf
ROOT
ATOM      1  C   UNL     1      -4.422  -0.784  38.074  1.00  0.00     0.000 C 
ENDROOT
BRANCH   1   2
ATOM      2  C   UNL     1      -4.500  -2.254  37.634  1.00  0.00     0.000 C 
BRANCH   2   3
ATOM      3  C   UNL     1      -5.761  -2.563  36.810  1.00  0.00     0.000 C 
BRANCH   3   4
ATOM      4  C   UNL     1      -5.437  -3.071  35.397  1.00  0.00     0.000 C 
BRANCH   4   5
ATOM      5  C   UNL     1      -3.969  -3.507  35.292  1.00  0.00     0.000 C 
BRANCH   5   6
ATOM      6  C   UNL     1      -3.259  -2.783  34.139  1.00  0.00     0.000 C 
BRANCH   6   7
ATOM      7  C   UNL     1      -2.066  -1.930  34.607  1.00  0.00     0.000 C 
BRANCH   7   8
ATOM      8  C   UNL     1      -1.283  -2.541  35.789  1.00  0.00     0.000 C 
BRANCH   8   9
ATOM      9  C   UNL     1      -0.931  -1.502  36.870  1.00  0.00     0.000 C 
BRANCH   9  10
ATOM     10  C   UNL     1      -1.191  -0.056  36.411  1.00  0.00     0.000 C 
BRANCH  10  11
ATOM     11  C   UNL     1       0.082   0.809  36.420  1.00  0.00     0.000 C 
BRANCH  11  12
ATOM     12  C   UNL     1       0.728   0.909  35.028  1.00  0.00     0.000 C 
BRANCH  12  13
ATOM     13  C   UNL     1       1.981   0.025  34.899  1.00  0.00     0.006 C 
BRANCH  13  14
ATOM     14  C   UNL     1       1.722  -1.229  34.053  1.00  0.00     0.053 C 
BRANCH  14  15
ATOM     15  C   UNL     1       2.486  -2.415  34.557  1.00  0.00     0.041 C 
ATOM     16  O   UNL     1       1.928  -3.257  35.312  1.00  0.00    -0.550 OA
ATOM     17  O   UNL     1       3.824  -2.578  34.215  1.00  0.00    -0.550 OA
ENDBRANCH  14  15
ENDBRANCH  13  14
ENDBRANCH  12  13
ENDBRANCH  11  12
ENDBRANCH  10  11
ENDBRANCH   9  10
ENDBRANCH   8   9
ENDBRANCH   7   8
ENDBRANCH   6   7
ENDBRANCH   5   6
ENDBRANCH   4   5
ENDBRANCH   3   4
ENDBRANCH   2   3
ENDBRANCH   1   2
BRANCH   1  18
ATOM     18  C   UNL     1      -5.575  -0.430  39.022  1.00  0.00     0.000 C 
BRANCH  18  19
ATOM     19  C   UNL     1      -6.419   0.718  38.454  1.00  0.00     0.000 C 
BRANCH  19  20
ATOM     20  C   UNL     1      -7.739   0.196  37.867  1.00  0.00     0.000 C 
BRANCH  20  21
ATOM     21  C   UNL     1      -7.898   0.532  36.376  1.00  0.00     0.000 C 
BRANCH  21  22
ATOM     22  C   UNL     1      -6.700   1.308  35.810  1.00  0.00     0.000 C 
BRANCH  22  23
ATOM     23  C   UNL     1      -5.987   0.498  34.717  1.00  0.00     0.000 C 
BRANCH  23  24
ATOM     24  C   UNL     1      -4.457   0.665  34.750  1.00  0.00    -0.000 C 
BRANCH  24  25
ATOM     25  C   UNL     1      -3.855   1.362  33.516  1.00  0.00    -0.000 C 
BRANCH  25  26
ATOM     26  C   UNL     1      -2.595   2.176  33.845  1.00  0.00    -0.000 C 
BRANCH  26  27
ATOM     27  C   UNL     1      -1.676   2.284  32.620  1.00  0.00    -0.000 C 
BRANCH  27  28
ATOM     28  C   UNL     1      -1.921   1.176  31.583  1.00  0.00    -0.000 C 
BRANCH  28  29
ATOM     29  C   UNL     1      -0.882   0.036  31.644  1.00  0.00    -0.000 C 
BRANCH  29  30
ATOM     30  C   UNL     1       0.461   0.443  31.011  1.00  0.00    -0.000 C 
BRANCH  30  31
ATOM     31  C   UNL     1       0.308   0.950  29.570  1.00  0.00    -0.003 C 
ATOM     32  C   UNL     1       1.439   0.484  28.654  1.00  0.00     0.004 C 
ENDBRANCH  30  31
ENDBRANCH  29  30
ENDBRANCH  28  29
ENDBRANCH  27  28
ENDBRANCH  26  27
ENDBRANCH  25  26
ENDBRANCH  24  25
ENDBRANCH  23  24
ENDBRANCH  22  23
ENDBRANCH  21  22
ENDBRANCH  20  21
ENDBRANCH  19  20
ENDBRANCH  18  19
ENDBRANCH   1  18
TORSDOF 28
ENDMDL
MODEL 6
REMARK VINA RESULT:    -3.054      1.350      2.954
REMARK INTER + INTRA:         -14.274
REMARK INTER:                  -8.309
REMARK INTRA:                  -5.965
REMARK UNBOUND:                -6.222
REMARK SMILES CCCCCCCCCCCCCCCCCCCCCCCCCCCCCC(=O)[O-]
REMARK SMILES IDX 16 1 17 2 18 3 19 4 20 5 21 6 22 7 23 8 24 9 25 10 26 11
REMARK SMILES IDX 27 12 28 13 29 14 30 15 31 16 32 17 15 18 14 19 13 20 12 21
REMARK SMILES IDX 11 22 10 23 9 24 8 25 7 26 6 27 5 28 4 29 3 30 2 31 1 32
REMARK H PARENT
REMARK Flexibility Score: inf
ROOT
ATOM      1  C   UNL     1      -5.351  -3.213  35.999  1.00  0.00     0.000 C 
ENDROOT
BRANCH   1   2
ATOM      2  C   UNL     1      -5.051  -2.645  34.603  1.00  0.00     0.000 C 
BRANCH   2   3
ATOM      3  C   UNL     1      -3.644  -3.009  34.103  1.00  0.00     0.000 C 
BRANCH   3   4
ATOM      4  C   UNL     1      -2.549  -2.112  34.704  1.00  0.00     0.000 C 
BRANCH   4   5
ATOM      5  C   UNL     1      -1.697  -2.889  35.717  1.00  0.00     0.000 C 
BRANCH   5   6
ATOM      6  C   UNL     1      -1.268  -1.987  36.884  1.00  0.00     0.000 C 
BRANCH   6   7
ATOM      7  C   UNL     1      -2.033  -0.652  36.926  1.00  0.00     0.000 C 
BRANCH   7   8
ATOM      8  C   UNL     1      -1.227   0.513  37.539  1.00  0.00     0.000 C 
BRANCH   8   9
ATOM      9  C   UNL     1      -1.118   1.723  36.592  1.00  0.00     0.000 C 
BRANCH   9  10
ATOM     10  C   UNL     1      -0.822   1.315  35.138  1.00  0.00     0.000 C 
BRANCH  10  11
ATOM     11  C   UNL     1       0.673   1.054  34.886  1.00  0.00     0.000 C 
BRANCH  11  12
ATOM     12  C   UNL     1       0.908  -0.200  34.026  1.00  0.00     0.000 C 
BRANCH  12  13
ATOM     13  C   UNL     1       1.547  -1.348  34.827  1.00  0.00     0.006 C 
BRANCH  13  14
ATOM     14  C   UNL     1       2.211  -0.854  36.119  1.00  0.00     0.053 C 
BRANCH  14  15
ATOM     15  C   UNL     1       3.701  -0.768  35.989  1.00  0.00     0.041 C 
ATOM     16  O   UNL     1       4.420  -1.772  36.243  1.00  0.00    -0.550 OA
ATOM     17  O   UNL     1       4.299   0.429  35.612  1.00  0.00    -0.550 OA
ENDBRANCH  14  15
ENDBRANCH  13  14
ENDBRANCH  12  13
ENDBRANCH  11  12
ENDBRANCH  10  11
ENDBRANCH   9  10
ENDBRANCH   8   9
ENDBRANCH   7   8
ENDBRANCH   6   7
ENDBRANCH   5   6
ENDBRANCH   4   5
ENDBRANCH   3   4
ENDBRANCH   2   3
ENDBRANCH   1   2
BRANCH   1  18
ATOM     18  C   UNL     1      -6.039  -2.165  36.884  1.00  0.00     0.000 C 
BRANCH  18  19
ATOM     19  C   UNL     1      -5.143  -1.771  38.064  1.00  0.00     0.000 C 
BRANCH  19  20
ATOM     20  C   UNL     1      -5.705  -0.545  38.799  1.00  0.00     0.000 C 
BRANCH  20  21
ATOM     21  C   UNL     1      -5.041   0.767  38.354  1.00  0.00     0.000 C 
BRANCH  21  22
ATOM     22  C   UNL     1      -5.854   1.512  37.286  1.00  0.00     0.000 C 
BRANCH  22  23
ATOM     23  C   UNL     1      -4.945   2.003  36.148  1.00  0.00     0.000 C 
BRANCH  23  24
ATOM     24  C   UNL     1      -4.604   0.896  35.134  1.00  0.00    -0.000 C 
BRANCH  24  25
ATOM     25  C   UNL     1      -5.014   1.199  33.682  1.00  0.00    -0.000 C 
BRANCH  25  26
ATOM     26  C   UNL     1      -6.275   0.438  33.246  1.00  0.00    -0.000 C 
BRANCH  26  27
ATOM     27  C   UNL     1      -7.384   1.411  32.820  1.00  0.00    -0.000 C 
BRANCH  27  28
ATOM     28  C   UNL     1      -8.265   1.871  33.993  1.00  0.00    -0.000 C 
BRANCH  28  29
ATOM     29  C   UNL     1      -9.713   1.339  33.919  1.00  0.00    -0.000 C 
BRANCH  29  30
ATOM     30  C   UNL     1     -10.089   0.513  35.163  1.00  0.00    -0.000 C 
BRANCH  30  31
ATOM     31  C   UNL     1      -9.202   0.828  36.375  1.00  0.00    -0.003 C 
ATOM     32  C   UNL     1      -9.203  -0.290  37.417  1.00  0.00     0.004 C 
ENDBRANCH  30  31
ENDBRANCH  29  30
ENDBRANCH  28  29
ENDBRANCH  27  28
ENDBRANCH  26  27
ENDBRANCH  25  26
ENDBRANCH  24  25
ENDBRANCH  23  24
ENDBRANCH  22  23
ENDBRANCH  21  22
ENDBRANCH  20  21
ENDBRANCH  19  20
ENDBRANCH  18  19
ENDBRANCH   1  18
TORSDOF 28
ENDMDL
MODEL 7
REMARK VINA RESULT:    -3.020      3.901      8.218
REMARK INTER + INTRA:         -14.186
REMARK INTER:                  -8.183
REMARK INTRA:                  -6.003
REMARK UNBOUND:                -6.222
REMARK SMILES CCCCCCCCCCCCCCCCCCCCCCCCCCCCCC(=O)[O-]
REMARK SMILES IDX 16 1 17 2 18 3 19 4 20 5 21 6 22 7 23 8 24 9 25 10 26 11
REMARK SMILES IDX 27 12 28 13 29 14 30 15 31 16 32 17 15 18 14 19 13 20 12 21
REMARK SMILES IDX 11 22 10 23 9 24 8 25 7 26 6 27 5 28 4 29 3 30 2 31 1 32
REMARK H PARENT
REMARK Flexibility Score: inf
ROOT
ATOM      1  C   UNL     1      -4.985  -3.006  34.649  1.00  0.00     0.000 C 
ENDROOT
BRANCH   1   2
ATOM      2  C   UNL     1      -5.438  -3.279  36.092  1.00  0.00     0.000 C 
BRANCH   2   3
ATOM      3  C   UNL     1      -5.965  -2.020  36.798  1.00  0.00     0.000 C 
BRANCH   3   4
ATOM      4  C   UNL     1      -5.183  -1.684  38.078  1.00  0.00     0.000 C 
BRANCH   4   5
ATOM      5  C   UNL     1      -4.615  -0.259  38.017  1.00  0.00     0.000 C 
BRANCH   5   6
ATOM      6  C   UNL     1      -4.108   0.073  36.606  1.00  0.00     0.000 C 
BRANCH   6   7
ATOM      7  C   UNL     1      -4.284   1.557  36.237  1.00  0.00     0.000 C 
BRANCH   7   8
ATOM      8  C   UNL     1      -4.150   1.848  34.727  1.00  0.00     0.000 C 
BRANCH   8   9
ATOM      9  C   UNL     1      -4.435   0.610  33.856  1.00  0.00     0.000 C 
BRANCH   9  10
ATOM     10  C   UNL     1      -5.783   0.698  33.121  1.00  0.00     0.000 C 
BRANCH  10  11
ATOM     11  C   UNL     1      -6.886  -0.136  33.797  1.00  0.00     0.000 C 
BRANCH  11  12
ATOM     12  C   UNL     1      -7.654   0.668  34.860  1.00  0.00     0.000 C 
BRANCH  12  13
ATOM     13  C   UNL     1      -8.005   2.087  34.380  1.00  0.00     0.006 C 
BRANCH  13  14
ATOM     14  C   UNL     1      -9.521   2.312  34.295  1.00  0.00     0.053 C 
BRANCH  14  15
ATOM     15  C   UNL     1     -10.023   2.233  32.886  1.00  0.00     0.041 C 
ATOM     16  O   UNL     1      -9.298   1.742  31.979  1.00  0.00    -0.550 OA
ATOM     17  O   UNL     1     -11.283   2.728  32.567  1.00  0.00    -0.550 OA
ENDBRANCH  14  15
ENDBRANCH  13  14
ENDBRANCH  12  13
ENDBRANCH  11  12
ENDBRANCH  10  11
ENDBRANCH   9  10
ENDBRANCH   8   9
ENDBRANCH   7   8
ENDBRANCH   6   7
ENDBRANCH   5   6
ENDBRANCH   4   5
ENDBRANCH   3   4
ENDBRANCH   2   3
ENDBRANCH   1   2
BRANCH   1  18
ATOM     18  C   UNL     1      -3.458  -2.891  34.562  1.00  0.00     0.000 C 
BRANCH  18  19
ATOM     19  C   UNL     1      -2.795  -3.429  35.836  1.00  0.00     0.000 C 
BRANCH  19  20
ATOM     20  C   UNL     1      -1.536  -2.621  36.187  1.00  0.00     0.000 C 
BRANCH  20  21
ATOM     21  C   UNL     1      -1.032  -1.770  35.012  1.00  0.00     0.000 C 
BRANCH  21  22
ATOM     22  C   UNL     1      -0.706  -0.326  35.421  1.00  0.00     0.000 C 
BRANCH  22  23
ATOM     23  C   UNL     1      -0.723   0.607  34.201  1.00  0.00     0.000 C 
BRANCH  23  24
ATOM     24  C   UNL     1      -1.106  -0.118  32.898  1.00  0.00    -0.000 C 
BRANCH  24  25
ATOM     25  C   UNL     1      -1.416   0.809  31.708  1.00  0.00    -0.000 C 
BRANCH  25  26
ATOM     26  C   UNL     1      -0.223   0.984  30.759  1.00  0.00    -0.000 C 
BRANCH  26  27
ATOM     27  C   UNL     1       0.534  -0.340  30.576  1.00  0.00    -0.000 C 
BRANCH  27  28
ATOM     28  C   UNL     1       2.053  -0.197  30.766  1.00  0.00    -0.000 C 
BRANCH  28  29
ATOM     29  C   UNL     1       2.463   0.118  32.221  1.00  0.00    -0.000 C 
BRANCH  29  30
ATOM     30  C   UNL     1       2.492  -1.146  33.100  1.00  0.00    -0.000 C 
BRANCH  30  31
ATOM     31  C   UNL     1       2.934  -0.856  34.541  1.00  0.00    -0.003 C 
ATOM     32  C   UNL     1       2.627  -2.007  35.498  1.00  0.00     0.004 C 
ENDBRANCH  30  31
ENDBRANCH  29  30
ENDBRANCH  28  29
ENDBRANCH  27  28
ENDBRANCH  26  27
ENDBRANCH  25  26
ENDBRANCH  24  25
ENDBRANCH  23  24
ENDBRANCH  22  23
ENDBRANCH  21  22
ENDBRANCH  20  21
ENDBRANCH  19  20
ENDBRANCH  18  19
ENDBRANCH   1  18
TORSDOF 28
ENDMDL
MODEL 8
REMARK VINA RESULT:    -3.009      2.381      4.269
REMARK INTER + INTRA:         -14.155
REMARK INTER:                  -7.831
REMARK INTRA:                  -6.325
REMARK UNBOUND:                -6.222
REMARK SMILES CCCCCCCCCCCCCCCCCCCCCCCCCCCCCC(=O)[O-]
REMARK SMILES IDX 16 1 17 2 18 3 19 4 20 5 21 6 22 7 23 8 24 9 25 10 26 11
REMARK SMILES IDX 27 12 28 13 29 14 30 15 31 16 32 17 15 18 14 19 13 20 12 21
REMARK SMILES IDX 11 22 10 23 9 24 8 25 7 26 6 27 5 28 4 29 3 30 2 31 1 32
REMARK H PARENT
REMARK Flexibility Score: inf
ROOT
ATOM      1  C   UNL     1      -5.372  -3.295  35.390  1.00  0.00     0.000 C 
ENDROOT
BRANCH   1   2
ATOM      2  C   UNL     1      -3.911  -3.613  35.035  1.00  0.00     0.000 C 
BRANCH   2   3
ATOM      3  C   UNL     1      -3.242  -2.498  34.216  1.00  0.00     0.000 C 
BRANCH   3   4
ATOM      4  C   UNL     1      -1.930  -2.004  34.846  1.00  0.00     0.000 C 
BRANCH   4   5
ATOM      5  C   UNL     1      -1.617  -2.772  36.138  1.00  0.00     0.000 C 
BRANCH   5   6
ATOM      6  C   UNL     1      -0.117  -2.719  36.462  1.00  0.00     0.000 C 
BRANCH   6   7
ATOM      7  C   UNL     1       0.717  -2.055  35.351  1.00  0.00     0.000 C 
BRANCH   7   8
ATOM      8  C   UNL     1       2.177  -1.759  35.754  1.00  0.00     0.000 C 
BRANCH   8   9
ATOM      9  C   UNL     1       2.554  -0.277  35.574  1.00  0.00     0.000 C 
BRANCH   9  10
ATOM     10  C   UNL     1       2.842   0.089  34.108  1.00  0.00     0.000 C 
BRANCH  10  11
ATOM     11  C   UNL     1       2.324   1.488  33.731  1.00  0.00     0.000 C 
BRANCH  11  12
ATOM     12  C   UNL     1       1.353   1.448  32.538  1.00  0.00     0.000 C 
BRANCH  12  13
ATOM     13  C   UNL     1       0.732   0.054  32.335  1.00  0.00     0.006 C 
BRANCH  13  14
ATOM     14  C   UNL     1      -0.472   0.089  31.385  1.00  0.00     0.053 C 
BRANCH  14  15
ATOM     15  C   UNL     1      -0.155   0.793  30.101  1.00  0.00     0.041 C 
ATOM     16  O   UNL     1       0.777   0.377  29.361  1.00  0.00    -0.550 OA
ATOM     17  O   UNL     1      -0.872   1.926  29.734  1.00  0.00    -0.550 OA
ENDBRANCH  14  15
ENDBRANCH  13  14
ENDBRANCH  12  13
ENDBRANCH  11  12
ENDBRANCH  10  11
ENDBRANCH   9  10
ENDBRANCH   8   9
ENDBRANCH   7   8
ENDBRANCH   6   7
ENDBRANCH   5   6
ENDBRANCH   4   5
ENDBRANCH   3   4
ENDBRANCH   2   3
ENDBRANCH   1   2
BRANCH   1  18
ATOM     18  C   UNL     1      -5.460  -2.088  36.331  1.00  0.00     0.000 C 
BRANCH  18  19
ATOM     19  C   UNL     1      -4.976  -2.454  37.739  1.00  0.00     0.000 C 
BRANCH  19  20
ATOM     20  C   UNL     1      -4.229  -1.279  38.389  1.00  0.00     0.000 C 
BRANCH  20  21
ATOM     21  C   UNL     1      -4.010  -0.108  37.421  1.00  0.00     0.000 C 
BRANCH  21  22
ATOM     22  C   UNL     1      -3.071   0.967  37.989  1.00  0.00     0.000 C 
BRANCH  22  23
ATOM     23  C   UNL     1      -1.605   0.520  37.895  1.00  0.00     0.000 C 
BRANCH  23  24
ATOM     24  C   UNL     1      -0.759   1.428  36.983  1.00  0.00    -0.000 C 
BRANCH  24  25
ATOM     25  C   UNL     1      -0.903   1.148  35.477  1.00  0.00    -0.000 C 
BRANCH  25  26
ATOM     26  C   UNL     1      -1.597   2.290  34.721  1.00  0.00    -0.000 C 
BRANCH  26  27
ATOM     27  C   UNL     1      -3.093   1.997  34.535  1.00  0.00    -0.000 C 
BRANCH  27  28
ATOM     28  C   UNL     1      -3.402   1.251  33.225  1.00  0.00    -0.000 C 
BRANCH  28  29
ATOM     29  C   UNL     1      -4.900   1.264  32.850  1.00  0.00    -0.000 C 
BRANCH  29  30
ATOM     30  C   UNL     1      -5.677   0.124  33.533  1.00  0.00    -0.000 C 
BRANCH  30  31
ATOM     31  C   UNL     1      -7.072   0.556  34.005  1.00  0.00    -0.003 C 
ATOM     32  C   UNL     1      -7.078   1.078  35.441  1.00  0.00     0.004 C 
ENDBRANCH  30  31
ENDBRANCH  29  30
ENDBRANCH  28  29
ENDBRANCH  27  28
ENDBRANCH  26  27
ENDBRANCH  25  26
ENDBRANCH  24  25
ENDBRANCH  23  24
ENDBRANCH  22  23
ENDBRANCH  21  22
ENDBRANCH  20  21
ENDBRANCH  19  20
ENDBRANCH  18  19
ENDBRANCH   1  18
TORSDOF 28
ENDMDL
MODEL 9
REMARK VINA RESULT:    -2.971      1.656      4.087
REMARK INTER + INTRA:         -14.056
REMARK INTER:                  -8.102
REMARK INTRA:                  -5.954
REMARK UNBOUND:                -6.222
REMARK SMILES CCCCCCCCCCCCCCCCCCCCCCCCCCCCCC(=O)[O-]
REMARK SMILES IDX 16 1 17 2 18 3 19 4 20 5 21 6 22 7 23 8 24 9 25 10 26 11
REMARK SMILES IDX 27 12 28 13 29 14 30 15 31 16 32 17 15 18 14 19 13 20 12 21
REMARK SMILES IDX 11 22 10 23 9 24 8 25 7 26 6 27 5 28 4 29 3 30 2 31 1 32
REMARK H PARENT
REMARK Flexibility Score: inf
ROOT
ATOM      1  C   UNL     1      -5.007  -2.120  37.990  1.00  0.00     0.000 C 
ENDROOT
BRANCH   1   2
ATOM      2  C   UNL     1      -5.723  -2.527  36.693  1.00  0.00     0.000 C 
BRANCH   2   3
ATOM      3  C   UNL     1      -5.389  -1.601  35.513  1.00  0.00     0.000 C 
BRANCH   3   4
ATOM      4  C   UNL     1      -4.985  -2.372  34.247  1.00  0.00     0.000 C 
BRANCH   4   5
ATOM      5  C   UNL     1      -3.799  -3.305  34.526  1.00  0.00     0.000 C 
BRANCH   5   6
ATOM      6  C   UNL     1      -2.543  -2.504  34.902  1.00  0.00     0.000 C 
BRANCH   6   7
ATOM      7  C   UNL     1      -1.829  -3.055  36.149  1.00  0.00     0.000 C 
BRANCH   7   8
ATOM      8  C   UNL     1      -0.540  -2.291  36.522  1.00  0.00     0.000 C 
BRANCH   8   9
ATOM      9  C   UNL     1       0.385  -2.061  35.313  1.00  0.00     0.000 C 
BRANCH   9  10
ATOM     10  C   UNL     1       1.717  -2.822  35.430  1.00  0.00     0.000 C 
BRANCH  10  11
ATOM     11  C   UNL     1       2.883  -2.089  34.745  1.00  0.00     0.000 C 
BRANCH  11  12
ATOM     12  C   UNL     1       4.017  -1.750  35.728  1.00  0.00     0.000 C 
BRANCH  12  13
ATOM     13  C   UNL     1       4.176  -0.233  35.937  1.00  0.00     0.006 C 
BRANCH  13  14
ATOM     14  C   UNL     1       3.249   0.302  37.036  1.00  0.00     0.053 C 
BRANCH  14  15
ATOM     15  C   UNL     1       2.087   1.060  36.472  1.00  0.00     0.041 C 
ATOM     16  O   UNL     1       1.165   1.466  37.230  1.00  0.00    -0.550 OA
ATOM     17  O   UNL     1       2.009   1.296  35.104  1.00  0.00    -0.550 OA
ENDBRANCH  14  15
ENDBRANCH  13  14
ENDBRANCH  12  13
ENDBRANCH  11  12
ENDBRANCH  10  11
ENDBRANCH   9  10
ENDBRANCH   8   9
ENDBRANCH   7   8
ENDBRANCH   6   7
ENDBRANCH   5   6
ENDBRANCH   4   5
ENDBRANCH   3   4
ENDBRANCH   2   3
ENDBRANCH   1   2
BRANCH   1  18
ATOM     18  C   UNL     1      -4.535  -0.662  37.925  1.00  0.00     0.000 C 
BRANCH  18  19
ATOM     19  C   UNL     1      -3.164  -0.499  38.593  1.00  0.00     0.000 C 
BRANCH  19  20
ATOM     20  C   UNL     1      -2.331   0.582  37.888  1.00  0.00     0.000 C 
BRANCH  20  21
ATOM     21  C   UNL     1      -2.904   0.971  36.517  1.00  0.00     0.000 C 
BRANCH  21  22
ATOM     22  C   UNL     1      -1.827   1.065  35.427  1.00  0.00     0.000 C 
BRANCH  22  23
ATOM     23  C   UNL     1      -2.463   1.109  34.029  1.00  0.00     0.000 C 
BRANCH  23  24
ATOM     24  C   UNL     1      -3.870   1.735  34.030  1.00  0.00    -0.000 C 
BRANCH  24  25
ATOM     25  C   UNL     1      -4.856   1.114  33.025  1.00  0.00    -0.000 C 
BRANCH  25  26
ATOM     26  C   UNL     1      -5.760   2.157  32.353  1.00  0.00    -0.000 C 
BRANCH  26  27
ATOM     27  C   UNL     1      -7.241   1.777  32.498  1.00  0.00    -0.000 C 
BRANCH  27  28
ATOM     28  C   UNL     1      -7.476   0.652  33.520  1.00  0.00    -0.000 C 
BRANCH  28  29
ATOM     29  C   UNL     1      -8.577   0.981  34.552  1.00  0.00    -0.000 C 
BRANCH  29  30
ATOM     30  C   UNL     1      -8.058   0.892  35.999  1.00  0.00    -0.000 C 
BRANCH  30  31
ATOM     31  C   UNL     1      -6.759   1.683  36.213  1.00  0.00    -0.003 C 
ATOM     32  C   UNL     1      -6.762   2.487  37.512  1.00  0.00     0.004 C 
ENDBRANCH  30  31
ENDBRANCH  29  30
ENDBRANCH  28  29
ENDBRANCH  27  28
ENDBRANCH  26  27
ENDBRANCH  25  26
ENDBRANCH  24  25
ENDBRANCH  23  24
ENDBRANCH  22  23
ENDBRANCH  21  22
ENDBRANCH  20  21
ENDBRANCH  19  20
ENDBRANCH  18  19
ENDBRANCH   1  18
TORSDOF 28
ENDMDL
