MODEL 1
REMARK VINA RESULT:    -4.119      0.000      0.000
REMARK INTER + INTRA:          -9.191
REMARK INTER:                  -7.490
REMARK INTRA:                  -1.701
REMARK UNBOUND:                -1.701
REMARK SMILES CCCCCCCCCCCCCCCC(=O)[O-]
REMARK SMILES IDX 9 1 10 2 11 3 12 4 13 5 14 6 15 7 16 8 17 9 18 10 8 11 7 12
REMARK SMILES IDX 6 13 5 14 4 15 3 16 2 17 1 18
REMARK H PARENT
REMARK Flexibility Score: inf
ROOT
ATOM      1  C   UNL     1       0.140  17.750  28.491  1.00  0.00     0.000 C 
ENDROOT
BRANCH   1   2
ATOM      2  C   UNL     1       0.385  16.263  28.809  1.00  0.00     0.000 C 
BRANCH   2   3
ATOM      3  C   UNL     1       0.961  16.012  30.215  1.00  0.00     0.000 C 
BRANCH   3   4
ATOM      4  C   UNL     1       0.519  14.665  30.831  1.00  0.00     0.000 C 
BRANCH   4   5
ATOM      5  C   UNL     1       0.787  13.453  29.919  1.00  0.00     0.000 C 
BRANCH   5   6
ATOM      6  C   UNL     1      -0.460  12.610  29.588  1.00  0.00     0.006 C 
BRANCH   6   7
ATOM      7  C   UNL     1      -1.635  12.809  30.560  1.00  0.00     0.053 C 
BRANCH   7   8
ATOM      8  C   UNL     1      -1.862  11.602  31.418  1.00  0.00     0.041 C 
ATOM      9  O   UNL     1      -3.018  11.326  31.830  1.00  0.00    -0.550 OA
ATOM     10  O   UNL     1      -0.799  10.765  31.735  1.00  0.00    -0.550 OA
ENDBRANCH   7   8
ENDBRANCH   6   7
ENDBRANCH   5   6
ENDBRANCH   4   5
ENDBRANCH   3   4
ENDBRANCH   2   3
ENDBRANCH   1   2
BRANCH   1  11
ATOM     11  C   UNL     1      -1.194  18.265  29.056  1.00  0.00     0.000 C 
BRANCH  11  12
ATOM     12  C   UNL     1      -0.999  19.604  29.783  1.00  0.00    -0.000 C 
BRANCH  12  13
ATOM     13  C   UNL     1       0.345  19.686  30.527  1.00  0.00    -0.000 C 
BRANCH  13  14
ATOM     14  C   UNL     1       1.125  20.970  30.197  1.00  0.00    -0.000 C 
BRANCH  14  15
ATOM     15  C   UNL     1       2.599  20.702  29.845  1.00  0.00    -0.000 C 
BRANCH  15  16
ATOM     16  C   UNL     1       3.078  19.259  30.087  1.00  0.00    -0.000 C 
BRANCH  16  17
ATOM     17  C   UNL     1       3.536  18.557  28.801  1.00  0.00    -0.003 C 
ATOM     18  C   UNL     1       3.405  19.479  27.594  1.00  0.00     0.004 C 
ENDBRANCH  16  17
ENDBRANCH  15  16
ENDBRANCH  14  15
ENDBRANCH  13  14
ENDBRANCH  12  13
ENDBRANCH  11  12
ENDBRANCH   1  11
TORSDOF 14
ENDMDL
MODEL 2
REMARK VINA RESULT:    -4.023      1.801      2.699
REMARK INTER + INTRA:          -9.016
REMARK INTER:                  -7.140
REMARK INTRA:                  -1.876
REMARK UNBOUND:                -1.701
REMARK SMILES CCCCCCCCCCCCCCCC(=O)[O-]
REMARK SMILES IDX 9 1 10 2 11 3 12 4 13 5 14 6 15 7 16 8 17 9 18 10 8 11 7 12
REMARK SMILES IDX 6 13 5 14 4 15 3 16 2 17 1 18
REMARK H PARENT
REMARK Flexibility Score: inf
ROOT
ATOM      1  C   UNL     1      -0.886  18.749  29.454  1.00  0.00     0.000 C 
ENDROOT
BRANCH   1   2
ATOM      2  C   UNL     1      -0.296  17.653  28.547  1.00  0.00     0.000 C 
BRANCH   2   3
ATOM      3  C   UNL     1      -0.596  16.219  29.025  1.00  0.00     0.000 C 
BRANCH   3   4
ATOM      4  C   UNL     1       0.583  15.562  29.779  1.00  0.00     0.000 C 
BRANCH   4   5
ATOM      5  C   UNL     1       0.163  14.369  30.658  1.00  0.00     0.000 C 
BRANCH   5   6
ATOM      6  C   UNL     1      -0.749  13.343  29.957  1.00  0.00     0.006 C 
BRANCH   6   7
ATOM      7  C   UNL     1       0.001  12.310  29.101  1.00  0.00     0.053 C 
BRANCH   7   8
ATOM      8  C   UNL     1       1.300  11.903  29.726  1.00  0.00     0.041 C 
ATOM      9  O   UNL     1       1.312  11.121  30.713  1.00  0.00    -0.550 OA
ATOM     10  O   UNL     1       2.500  12.361  29.196  1.00  0.00    -0.550 OA
ENDBRANCH   7   8
ENDBRANCH   6   7
ENDBRANCH   5   6
ENDBRANCH   4   5
ENDBRANCH   3   4
ENDBRANCH   2   3
ENDBRANCH   1   2
BRANCH   1  11
ATOM     11  C   UNL     1       0.185  19.704  30.002  1.00  0.00     0.000 C 
BRANCH  11  12
ATOM     12  C   UNL     1       1.130  18.971  30.967  1.00  0.00    -0.000 C 
BRANCH  12  13
ATOM     13  C   UNL     1       2.578  18.916  30.455  1.00  0.00    -0.000 C 
BRANCH  13  14
ATOM     14  C   UNL     1       2.772  19.704  29.148  1.00  0.00    -0.000 C 
BRANCH  14  15
ATOM     15  C   UNL     1       3.395  18.856  28.024  1.00  0.00    -0.000 C 
BRANCH  15  16
ATOM     16  C   UNL     1       3.519  17.353  28.329  1.00  0.00    -0.000 C 
BRANCH  16  17
ATOM     17  C   UNL     1       3.012  16.465  27.184  1.00  0.00    -0.003 C 
ATOM     18  C   UNL     1       4.167  15.755  26.486  1.00  0.00     0.004 C 
ENDBRANCH  16  17
ENDBRANCH  15  16
ENDBRANCH  14  15
ENDBRANCH  13  14
ENDBRANCH  12  13
ENDBRANCH  11  12
ENDBRANCH   1  11
TORSDOF 14
ENDMDL
MODEL 3
REMARK VINA RESULT:    -4.020      1.616      3.091
REMARK INTER + INTRA:          -9.011
REMARK INTER:                  -6.572
REMARK INTRA:                  -2.438
REMARK UNBOUND:                -1.701
REMARK SMILES CCCCCCCCCCCCCCCC(=O)[O-]
REMARK SMILES IDX 9 1 10 2 11 3 12 4 13 5 14 6 15 7 16 8 17 9 18 10 8 11 7 12
REMARK SMILES IDX 6 13 5 14 4 15 3 16 2 17 1 18
REMARK H PARENT
REMARK Flexibility Score: inf
ROOT
ATOM      1  C   UNL     1       0.764  19.308  29.896  1.00  0.00     0.000 C 
ENDROOT
BRANCH   1   2
ATOM      2  C   UNL     1       1.050  19.170  31.403  1.00  0.00     0.000 C 
BRANCH   2   3
ATOM      3  C   UNL     1       2.084  18.080  31.745  1.00  0.00     0.000 C 
BRANCH   3   4
ATOM      4  C   UNL     1       1.510  16.646  31.687  1.00  0.00     0.000 C 
BRANCH   4   5
ATOM      5  C   UNL     1       2.525  15.595  31.200  1.00  0.00     0.000 C 
BRANCH   5   6
ATOM      6  C   UNL     1       1.894  14.336  30.573  1.00  0.00     0.006 C 
BRANCH   6   7
ATOM      7  C   UNL     1       0.357  14.326  30.582  1.00  0.00     0.053 C 
BRANCH   7   8
ATOM      8  C   UNL     1      -0.197  13.007  30.139  1.00  0.00     0.041 C 
ATOM      9  O   UNL     1       0.569  12.022  29.970  1.00  0.00    -0.550 OA
ATOM     10  O   UNL     1      -1.565  12.857  29.946  1.00  0.00    -0.550 OA
ENDBRANCH   7   8
ENDBRANCH   6   7
ENDBRANCH   5   6
ENDBRANCH   4   5
ENDBRANCH   3   4
ENDBRANCH   2   3
ENDBRANCH   1   2
BRANCH   1  11
ATOM     11  C   UNL     1      -0.625  18.781  29.506  1.00  0.00     0.000 C 
BRANCH  11  12
ATOM     12  C   UNL     1      -0.511  17.457  28.734  1.00  0.00    -0.000 C 
BRANCH  12  13
ATOM     13  C   UNL     1       0.539  17.511  27.613  1.00  0.00    -0.000 C 
BRANCH  13  14
ATOM     14  C   UNL     1       1.606  16.412  27.750  1.00  0.00    -0.000 C 
BRANCH  14  15
ATOM     15  C   UNL     1       2.932  16.773  27.057  1.00  0.00    -0.000 C 
BRANCH  15  16
ATOM     16  C   UNL     1       4.136  16.954  28.000  1.00  0.00    -0.000 C 
BRANCH  16  17
ATOM     17  C   UNL     1       4.066  18.250  28.819  1.00  0.00    -0.003 C 
ATOM     18  C   UNL     1       3.786  19.452  27.923  1.00  0.00     0.004 C 
ENDBRANCH  16  17
ENDBRANCH  15  16
ENDBRANCH  14  15
ENDBRANCH  13  14
ENDBRANCH  12  13
ENDBRANCH  11  12
ENDBRANCH   1  11
TORSDOF 14
ENDMDL
MODEL 4
REMARK VINA RESULT:    -4.009      3.398      5.081
REMARK INTER + INTRA:          -8.991
REMARK INTER:                  -7.093
REMARK INTRA:                  -1.898
REMARK UNBOUND:                -1.701
REMARK SMILES CCCCCCCCCCCCCCCC(=O)[O-]
REMARK SMILES IDX 9 1 10 2 11 3 12 4 13 5 14 6 15 7 16 8 17 9 18 10 8 11 7 12
REMARK SMILES IDX 6 13 5 14 4 15 3 16 2 17 1 18
REMARK H PARENT
REMARK Flexibility Score: inf
ROOT
ATOM      1  C   UNL     1      -1.717  23.166  30.240  1.00  0.00     0.000 C 
ENDROOT
BRANCH   1   2
ATOM      2  C   UNL     1      -1.762  21.652  30.520  1.00  0.00     0.000 C 
BRANCH   2   3
ATOM      3  C   UNL     1      -3.007  20.949  29.945  1.00  0.00     0.000 C 
BRANCH   3   4
ATOM      4  C   UNL     1      -2.732  19.506  29.463  1.00  0.00     0.000 C 
BRANCH   4   5
ATOM      5  C   UNL     1      -1.237  19.134  29.453  1.00  0.00     0.000 C 
BRANCH   5   6
ATOM      6  C   UNL     1      -0.933  17.711  28.945  1.00  0.00     0.006 C 
BRANCH   6   7
ATOM      7  C   UNL     1       0.140  17.648  27.845  1.00  0.00     0.053 C 
BRANCH   7   8
ATOM      8  C   UNL     1       1.087  16.506  28.051  1.00  0.00     0.041 C 
ATOM      9  O   UNL     1       1.965  16.246  27.188  1.00  0.00    -0.550 OA
ATOM     10  O   UNL     1       1.019  15.749  29.214  1.00  0.00    -0.550 OA
ENDBRANCH   7   8
ENDBRANCH   6   7
ENDBRANCH   5   6
ENDBRANCH   4   5
ENDBRANCH   3   4
ENDBRANCH   2   3
ENDBRANCH   1   2
BRANCH   1  11
ATOM     11  C   UNL     1      -0.308  23.757  30.403  1.00  0.00     0.000 C 
BRANCH  11  12
ATOM     12  C   UNL     1       0.763  22.667  30.246  1.00  0.00    -0.000 C 
BRANCH  12  13
ATOM     13  C   UNL     1       1.933  22.836  31.230  1.00  0.00    -0.000 C 
BRANCH  13  14
ATOM     14  C   UNL     1       2.480  21.490  31.733  1.00  0.00    -0.000 C 
BRANCH  14  15
ATOM     15  C   UNL     1       1.635  20.289  31.272  1.00  0.00    -0.000 C 
BRANCH  15  16
ATOM     16  C   UNL     1       2.370  19.278  30.373  1.00  0.00    -0.000 C 
BRANCH  16  17
ATOM     17  C   UNL     1       2.881  19.901  29.065  1.00  0.00    -0.003 C 
ATOM     18  C   UNL     1       3.860  18.968  28.359  1.00  0.00     0.004 C 
ENDBRANCH  16  17
ENDBRANCH  15  16
ENDBRANCH  14  15
ENDBRANCH  13  14
ENDBRANCH  12  13
ENDBRANCH  11  12
ENDBRANCH   1  11
TORSDOF 14
ENDMDL
MODEL 5
REMARK VINA RESULT:    -3.989      2.083      4.057
REMARK INTER + INTRA:          -8.954
REMARK INTER:                  -7.109
REMARK INTRA:                  -1.845
REMARK UNBOUND:                -1.701
REMARK SMILES CCCCCCCCCCCCCCCC(=O)[O-]
REMARK SMILES IDX 9 1 10 2 11 3 12 4 13 5 14 6 15 7 16 8 17 9 18 10 8 11 7 12
REMARK SMILES IDX 6 13 5 14 4 15 3 16 2 17 1 18
REMARK H PARENT
REMARK Flexibility Score: inf
ROOT
ATOM      1  C   UNL     1       1.338  19.863  29.880  1.00  0.00     0.000 C 
ENDROOT
BRANCH   1   2
ATOM      2  C   UNL     1       0.617  18.548  30.230  1.00  0.00     0.000 C 
BRANCH   2   3
ATOM      3  C   UNL     1      -0.387  18.082  29.159  1.00  0.00     0.000 C 
BRANCH   3   4
ATOM      4  C   UNL     1      -0.408  16.550  28.958  1.00  0.00     0.000 C 
BRANCH   4   5
ATOM      5  C   UNL     1       0.639  15.803  29.806  1.00  0.00     0.000 C 
BRANCH   5   6
ATOM      6  C   UNL     1       0.124  14.512  30.472  1.00  0.00     0.006 C 
BRANCH   6   7
ATOM      7  C   UNL     1      -1.020  13.820  29.711  1.00  0.00     0.053 C 
BRANCH   7   8
ATOM      8  C   UNL     1      -0.850  12.333  29.677  1.00  0.00     0.041 C 
ATOM      9  O   UNL     1      -0.026  11.807  28.883  1.00  0.00    -0.550 OA
ATOM     10  O   UNL     1      -1.578  11.530  30.546  1.00  0.00    -0.550 OA
ENDBRANCH   7   8
ENDBRANCH   6   7
ENDBRANCH   5   6
ENDBRANCH   4   5
ENDBRANCH   3   4
ENDBRANCH   2   3
ENDBRANCH   1   2
BRANCH   1  11
ATOM     11  C   UNL     1       2.823  19.654  29.544  1.00  0.00     0.000 C 
BRANCH  11  12
ATOM     12  C   UNL     1       2.984  19.023  28.152  1.00  0.00    -0.000 C 
BRANCH  12  13
ATOM     13  C   UNL     1       3.655  17.640  28.200  1.00  0.00    -0.000 C 
BRANCH  13  14
ATOM     14  C   UNL     1       3.059  16.659  27.177  1.00  0.00    -0.000 C 
BRANCH  14  15
ATOM     15  C   UNL     1       4.117  15.743  26.536  1.00  0.00    -0.000 C 
BRANCH  15  16
ATOM     16  C   UNL     1       4.222  14.335  27.149  1.00  0.00    -0.000 C 
BRANCH  16  17
ATOM     17  C   UNL     1       2.954  13.915  27.905  1.00  0.00    -0.003 C 
ATOM     18  C   UNL     1       3.285  12.956  29.045  1.00  0.00     0.004 C 
ENDBRANCH  16  17
ENDBRANCH  15  16
ENDBRANCH  14  15
ENDBRANCH  13  14
ENDBRANCH  12  13
ENDBRANCH  11  12
ENDBRANCH   1  11
TORSDOF 14
ENDMDL
MODEL 6
REMARK VINA RESULT:    -3.971      5.844      8.540
REMARK INTER + INTRA:          -8.921
REMARK INTER:                  -7.202
REMARK INTRA:                  -1.719
REMARK UNBOUND:                -1.701
REMARK SMILES CCCCCCCCCCCCCCCC(=O)[O-]
REMARK SMILES IDX 9 1 10 2 11 3 12 4 13 5 14 6 15 7 16 8 17 9 18 10 8 11 7 12
REMARK SMILES IDX 6 13 5 14 4 15 3 16 2 17 1 18
REMARK H PARENT
REMARK Flexibility Score: inf
ROOT
ATOM      1  C   UNL     1      -0.009  21.305  30.306  1.00  0.00     0.000 C 
ENDROOT
BRANCH   1   2
ATOM      2  C   UNL     1       1.258  22.177  30.237  1.00  0.00     0.000 C 
BRANCH   2   3
ATOM      3  C   UNL     1       2.476  21.565  30.957  1.00  0.00     0.000 C 
BRANCH   3   4
ATOM      4  C   UNL     1       3.754  22.427  30.846  1.00  0.00     0.000 C 
BRANCH   4   5
ATOM      5  C   UNL     1       4.958  21.671  30.252  1.00  0.00     0.000 C 
BRANCH   5   6
ATOM      6  C   UNL     1       5.856  22.517  29.328  1.00  0.00     0.006 C 
BRANCH   6   7
ATOM      7  C   UNL     1       6.452  21.742  28.142  1.00  0.00     0.053 C 
BRANCH   7   8
ATOM      8  C   UNL     1       7.901  22.060  27.937  1.00  0.00     0.041 C 
ATOM      9  O   UNL     1       8.642  21.260  27.307  1.00  0.00    -0.550 OA
ATOM     10  O   UNL     1       8.424  23.255  28.413  1.00  0.00    -0.550 OA
ENDBRANCH   7   8
ENDBRANCH   6   7
ENDBRANCH   5   6
ENDBRANCH   4   5
ENDBRANCH   3   4
ENDBRANCH   2   3
ENDBRANCH   1   2
BRANCH   1  11
ATOM     11  C   UNL     1       0.308  19.802  30.364  1.00  0.00     0.000 C 
BRANCH  11  12
ATOM     12  C   UNL     1      -0.708  18.997  29.539  1.00  0.00    -0.000 C 
BRANCH  12  13
ATOM     13  C   UNL     1      -0.197  17.593  29.173  1.00  0.00    -0.000 C 
BRANCH  13  14
ATOM     14  C   UNL     1       0.256  17.494  27.707  1.00  0.00    -0.000 C 
BRANCH  14  15
ATOM     15  C   UNL     1       1.763  17.219  27.561  1.00  0.00    -0.000 C 
BRANCH  15  16
ATOM     16  C   UNL     1       2.564  17.246  28.876  1.00  0.00    -0.000 C 
BRANCH  16  17
ATOM     17  C   UNL     1       3.424  18.509  29.028  1.00  0.00    -0.003 C 
ATOM     18  C   UNL     1       3.334  19.388  27.785  1.00  0.00     0.004 C 
ENDBRANCH  16  17
ENDBRANCH  15  16
ENDBRANCH  14  15
ENDBRANCH  13  14
ENDBRANCH  12  13
ENDBRANCH  11  12
ENDBRANCH   1  11
TORSDOF 14
ENDMDL
MODEL 7
REMARK VINA RESULT:    -3.932      3.711      4.829
REMARK INTER + INTRA:          -8.850
REMARK INTER:                  -7.089
REMARK INTRA:                  -1.761
REMARK UNBOUND:                -1.701
REMARK SMILES CCCCCCCCCCCCCCCC(=O)[O-]
REMARK SMILES IDX 9 1 10 2 11 3 12 4 13 5 14 6 15 7 16 8 17 9 18 10 8 11 7 12
REMARK SMILES IDX 6 13 5 14 4 15 3 16 2 17 1 18
REMARK H PARENT
REMARK Flexibility Score: inf
ROOT
ATOM      1  C   UNL     1      -2.837  19.197  29.190  1.00  0.00     0.000 C 
ENDROOT
BRANCH   1   2
ATOM      2  C   UNL     1      -1.332  18.879  29.123  1.00  0.00     0.000 C 
BRANCH   2   3
ATOM      3  C   UNL     1      -1.018  17.378  28.974  1.00  0.00     0.000 C 
BRANCH   3   4
ATOM      4  C   UNL     1       0.315  17.097  28.243  1.00  0.00     0.000 C 
BRANCH   4   5
ATOM      5  C   UNL     1       1.178  16.019  28.927  1.00  0.00     0.000 C 
BRANCH   5   6
ATOM      6  C   UNL     1       2.646  15.980  28.460  1.00  0.00     0.006 C 
BRANCH   6   7
ATOM      7  C   UNL     1       2.824  15.804  26.943  1.00  0.00     0.053 C 
BRANCH   7   8
ATOM      8  C   UNL     1       4.067  15.039  26.609  1.00  0.00     0.041 C 
ATOM      9  O   UNL     1       4.771  15.373  25.621  1.00  0.00    -0.550 OA
ATOM     10  O   UNL     1       4.465  13.976  27.411  1.00  0.00    -0.550 OA
ENDBRANCH   7   8
ENDBRANCH   6   7
ENDBRANCH   5   6
ENDBRANCH   4   5
ENDBRANCH   3   4
ENDBRANCH   2   3
ENDBRANCH   1   2
BRANCH   1  11
ATOM     11  C   UNL     1      -3.125  20.574  29.808  1.00  0.00     0.000 C 
BRANCH  11  12
ATOM     12  C   UNL     1      -1.926  21.063  30.635  1.00  0.00    -0.000 C 
BRANCH  12  13
ATOM     13  C   UNL     1      -1.520  22.508  30.298  1.00  0.00    -0.000 C 
BRANCH  13  14
ATOM     14  C   UNL     1       0.005  22.701  30.269  1.00  0.00    -0.000 C 
BRANCH  14  15
ATOM     15  C   UNL     1       0.772  21.511  30.874  1.00  0.00    -0.000 C 
BRANCH  15  16
ATOM     16  C   UNL     1       1.681  20.750  29.892  1.00  0.00    -0.000 C 
BRANCH  16  17
ATOM     17  C   UNL     1       2.286  19.477  30.499  1.00  0.00    -0.003 C 
ATOM     18  C   UNL     1       1.402  18.924  31.611  1.00  0.00     0.004 C 
ENDBRANCH  16  17
ENDBRANCH  15  16
ENDBRANCH  14  15
ENDBRANCH  13  14
ENDBRANCH  12  13
ENDBRANCH  11  12
ENDBRANCH   1  11
TORSDOF 14
ENDMDL
MODEL 8
REMARK VINA RESULT:    -3.926      5.747      8.872
REMARK INTER + INTRA:          -8.839
REMARK INTER:                  -7.594
REMARK INTRA:                  -1.246
REMARK UNBOUND:                -1.701
REMARK SMILES CCCCCCCCCCCCCCCC(=O)[O-]
REMARK SMILES IDX 9 1 10 2 11 3 12 4 13 5 14 6 15 7 16 8 17 9 18 10 8 11 7 12
REMARK SMILES IDX 6 13 5 14 4 15 3 16 2 17 1 18
REMARK H PARENT
REMARK Flexibility Score: inf
ROOT
ATOM      1  C   UNL     1       3.278  17.857  27.682  1.00  0.00     0.000 C 
ENDROOT
BRANCH   1   2
ATOM      2  C   UNL     1       3.270  19.361  28.014  1.00  0.00     0.000 C 
BRANCH   2   3
ATOM      3  C   UNL     1       3.860  19.696  29.398  1.00  0.00     0.000 C 
BRANCH   3   4
ATOM      4  C   UNL     1       4.883  20.855  29.367  1.00  0.00     0.000 C 
BRANCH   4   5
ATOM      5  C   UNL     1       6.149  20.537  28.550  1.00  0.00     0.000 C 
BRANCH   5   6
ATOM      6  C   UNL     1       6.802  21.760  27.875  1.00  0.00     0.006 C 
BRANCH   6   7
ATOM      7  C   UNL     1       8.266  21.999  28.278  1.00  0.00     0.053 C 
BRANCH   7   8
ATOM      8  C   UNL     1       9.223  21.402  27.291  1.00  0.00     0.041 C 
ATOM      9  O   UNL     1      10.285  22.008  26.993  1.00  0.00    -0.550 OA
ATOM     10  O   UNL     1       8.955  20.162  26.726  1.00  0.00    -0.550 OA
ENDBRANCH   7   8
ENDBRANCH   6   7
ENDBRANCH   5   6
ENDBRANCH   4   5
ENDBRANCH   3   4
ENDBRANCH   2   3
ENDBRANCH   1   2
BRANCH   1  11
ATOM     11  C   UNL     1       2.598  17.007  28.766  1.00  0.00     0.000 C 
BRANCH  11  12
ATOM     12  C   UNL     1       1.277  16.416  28.249  1.00  0.00    -0.000 C 
BRANCH  12  13
ATOM     13  C   UNL     1       0.257  17.496  27.853  1.00  0.00    -0.000 C 
BRANCH  13  14
ATOM     14  C   UNL     1      -0.925  17.579  28.833  1.00  0.00    -0.000 C 
BRANCH  14  15
ATOM     15  C   UNL     1      -1.039  18.952  29.521  1.00  0.00    -0.000 C 
BRANCH  15  16
ATOM     16  C   UNL     1       0.225  19.418  30.266  1.00  0.00    -0.000 C 
BRANCH  16  17
ATOM     17  C   UNL     1       0.293  20.942  30.434  1.00  0.00    -0.003 C 
ATOM     18  C   UNL     1      -1.088  21.573  30.297  1.00  0.00     0.004 C 
ENDBRANCH  16  17
ENDBRANCH  15  16
ENDBRANCH  14  15
ENDBRANCH  13  14
ENDBRANCH  12  13
ENDBRANCH  11  12
ENDBRANCH   1  11
TORSDOF 14
ENDMDL
MODEL 9
REMARK VINA RESULT:    -3.894      3.307      6.379
REMARK INTER + INTRA:          -8.781
REMARK INTER:                  -6.563
REMARK INTRA:                  -2.218
REMARK UNBOUND:                -1.701
REMARK SMILES CCCCCCCCCCCCCCCC(=O)[O-]
REMARK SMILES IDX 9 1 10 2 11 3 12 4 13 5 14 6 15 7 16 8 17 9 18 10 8 11 7 12
REMARK SMILES IDX 6 13 5 14 4 15 3 16 2 17 1 18
REMARK H PARENT
REMARK Flexibility Score: inf
ROOT
ATOM      1  C   UNL     1       1.449  18.630  31.206  1.00  0.00     0.000 C 
ENDROOT
BRANCH   1   2
ATOM      2  C   UNL     1       0.909  19.165  29.867  1.00  0.00     0.000 C 
BRANCH   2   3
ATOM      3  C   UNL     1      -0.462  18.584  29.470  1.00  0.00     0.000 C 
BRANCH   3   4
ATOM      4  C   UNL     1      -0.371  17.445  28.428  1.00  0.00     0.000 C 
BRANCH   4   5
ATOM      5  C   UNL     1       0.842  17.567  27.487  1.00  0.00     0.000 C 
BRANCH   5   6
ATOM      6  C   UNL     1       1.761  16.330  27.459  1.00  0.00     0.006 C 
BRANCH   6   7
ATOM      7  C   UNL     1       3.260  16.653  27.564  1.00  0.00     0.053 C 
BRANCH   7   8
ATOM      8  C   UNL     1       4.105  15.617  26.888  1.00  0.00     0.041 C 
ATOM      9  O   UNL     1       4.430  15.754  25.680  1.00  0.00    -0.550 OA
ATOM     10  O   UNL     1       4.560  14.516  27.603  1.00  0.00    -0.550 OA
ENDBRANCH   7   8
ENDBRANCH   6   7
ENDBRANCH   5   6
ENDBRANCH   4   5
ENDBRANCH   3   4
ENDBRANCH   2   3
ENDBRANCH   1   2
BRANCH   1  11
ATOM     11  C   UNL     1       2.150  17.270  31.062  1.00  0.00     0.000 C 
BRANCH  11  12
ATOM     12  C   UNL     1       1.287  16.146  31.655  1.00  0.00    -0.000 C 
BRANCH  12  13
ATOM     13  C   UNL     1       1.206  14.912  30.741  1.00  0.00    -0.000 C 
BRANCH  13  14
ATOM     14  C   UNL     1       2.544  14.160  30.644  1.00  0.00    -0.000 C 
BRANCH  14  15
ATOM     15  C   UNL     1       2.430  12.826  29.885  1.00  0.00    -0.000 C 
BRANCH  15  16
ATOM     16  C   UNL     1       1.574  12.873  28.605  1.00  0.00    -0.000 C 
BRANCH  16  17
ATOM     17  C   UNL     1       0.543  11.738  28.532  1.00  0.00    -0.003 C 
ATOM     18  C   UNL     1      -0.394  11.769  29.735  1.00  0.00     0.004 C 
ENDBRANCH  16  17
ENDBRANCH  15  16
ENDBRANCH  14  15
ENDBRANCH  13  14
ENDBRANCH  12  13
ENDBRANCH  11  12
ENDBRANCH   1  11
TORSDOF 14
ENDMDL
