MODEL 1
REMARK VINA RESULT:    -3.546      0.000      0.000
REMARK INTER + INTRA:         -11.938
REMARK INTER:                  -7.692
REMARK INTRA:                  -4.246
REMARK UNBOUND:                -4.246
REMARK SMILES CCCCCCCCCCCCCCCCCCCCCC(=O)[O-]
REMARK SMILES IDX 12 1 11 2 10 3 9 4 8 5 7 6 6 7 5 8 4 9 3 10 2 11 1 12 13 13
REMARK SMILES IDX 14 14 15 15 16 16 17 17 18 18 19 19 20 20 21 21 22 22 23 23
REMARK SMILES IDX 24 24
REMARK H PARENT
REMARK Flexibility Score: inf
ROOT
ATOM      1  C   UNL     1     -10.046   9.983 -19.420  1.00  0.00     0.000 C 
ENDROOT
BRANCH   1   2
ATOM      2  C   UNL     1     -11.214   9.726 -20.386  1.00  0.00     0.000 C 
BRANCH   2   3
ATOM      3  C   UNL     1     -12.381   8.976 -19.721  1.00  0.00     0.000 C 
BRANCH   3   4
ATOM      4  C   UNL     1     -12.856   7.758 -20.536  1.00  0.00    -0.000 C 
BRANCH   4   5
ATOM      5  C   UNL     1     -12.087   6.451 -20.266  1.00  0.00    -0.000 C 
BRANCH   5   6
ATOM      6  C   UNL     1     -11.537   5.802 -21.548  1.00  0.00    -0.000 C 
BRANCH   6   7
ATOM      7  C   UNL     1     -10.231   6.474 -22.028  1.00  0.00    -0.000 C 
BRANCH   7   8
ATOM      8  C   UNL     1     -10.429   7.404 -23.241  1.00  0.00    -0.000 C 
BRANCH   8   9
ATOM      9  C   UNL     1      -9.337   8.476 -23.416  1.00  0.00    -0.000 C 
BRANCH   9  10
ATOM     10  C   UNL     1      -8.261   8.500 -22.311  1.00  0.00    -0.000 C 
BRANCH  10  11
ATOM     11  C   UNL     1      -6.835   8.172 -22.786  1.00  0.00    -0.003 C 
ATOM     12  C   UNL     1      -6.456   6.706 -22.577  1.00  0.00     0.004 C 
ENDBRANCH  10  11
ENDBRANCH   9  10
ENDBRANCH   8   9
ENDBRANCH   7   8
ENDBRANCH   6   7
ENDBRANCH   5   6
ENDBRANCH   4   5
ENDBRANCH   3   4
ENDBRANCH   2   3
ENDBRANCH   1   2
BRANCH   1  13
ATOM     13  C   UNL     1     -10.231   9.282 -18.064  1.00  0.00     0.000 C 
BRANCH  13  14
ATOM     14  C   UNL     1      -9.060   8.349 -17.713  1.00  0.00     0.000 C 
BRANCH  14  15
ATOM     15  C   UNL     1      -8.856   7.197 -18.720  1.00  0.00     0.000 C 
BRANCH  15  16
ATOM     16  C   UNL     1      -7.377   7.005 -19.103  1.00  0.00     0.000 C 
BRANCH  16  17
ATOM     17  C   UNL     1      -6.444   7.988 -18.376  1.00  0.00     0.000 C 
BRANCH  17  18
ATOM     18  C   UNL     1      -5.833   9.037 -19.321  1.00  0.00     0.000 C 
BRANCH  18  19
ATOM     19  C   UNL     1      -6.278  10.470 -18.983  1.00  0.00     0.000 C 
BRANCH  19  20
ATOM     20  C   UNL     1      -5.909  10.881 -17.550  1.00  0.00     0.006 C 
BRANCH  20  21
ATOM     21  C   UNL     1      -7.140  11.382 -16.787  1.00  0.00     0.053 C 
BRANCH  21  22
ATOM     22  C   UNL     1      -7.200  10.765 -15.426  1.00  0.00     0.041 C 
ATOM     23  O   UNL     1      -6.137  10.513 -14.796  1.00  0.00    -0.550 OA
ATOM     24  O   UNL     1      -8.428  10.434 -14.866  1.00  0.00    -0.550 OA
ENDBRANCH  21  22
ENDBRANCH  20  21
ENDBRANCH  19  20
ENDBRANCH  18  19
ENDBRANCH  17  18
ENDBRANCH  16  17
ENDBRANCH  15  16
ENDBRANCH  14  15
ENDBRANCH  13  14
ENDBRANCH   1  13
TORSDOF 20
ENDMDL
MODEL 2
REMARK VINA RESULT:    -3.470      1.761      3.113
REMARK INTER + INTRA:         -11.773
REMARK INTER:                  -8.348
REMARK INTRA:                  -3.424
REMARK UNBOUND:                -4.246
REMARK SMILES CCCCCCCCCCCCCCCCCCCCCC(=O)[O-]
REMARK SMILES IDX 12 1 11 2 10 3 9 4 8 5 7 6 6 7 5 8 4 9 3 10 2 11 1 12 13 13
REMARK SMILES IDX 14 14 15 15 16 16 17 17 18 18 19 19 20 20 21 21 22 22 23 23
REMARK SMILES IDX 24 24
REMARK H PARENT
REMARK Flexibility Score: inf
ROOT
ATOM      1  C   UNL     1      -7.992  10.645 -20.830  1.00  0.00     0.000 C 
ENDROOT
BRANCH   1   2
ATOM      2  C   UNL     1      -9.417  10.904 -21.345  1.00  0.00     0.000 C 
BRANCH   2   3
ATOM      3  C   UNL     1     -10.495  10.594 -20.292  1.00  0.00     0.000 C 
BRANCH   3   4
ATOM      4  C   UNL     1     -11.330   9.347 -20.636  1.00  0.00    -0.000 C 
BRANCH   4   5
ATOM      5  C   UNL     1     -12.213   8.814 -19.490  1.00  0.00    -0.000 C 
BRANCH   5   6
ATOM      6  C   UNL     1     -12.129   7.287 -19.327  1.00  0.00    -0.000 C 
BRANCH   6   7
ATOM      7  C   UNL     1     -12.157   6.553 -20.686  1.00  0.00    -0.000 C 
BRANCH   7   8
ATOM      8  C   UNL     1     -11.664   5.095 -20.608  1.00  0.00    -0.000 C 
BRANCH   8   9
ATOM      9  C   UNL     1     -10.390   4.801 -21.421  1.00  0.00    -0.000 C 
BRANCH   9  10
ATOM     10  C   UNL     1      -9.313   5.904 -21.371  1.00  0.00    -0.000 C 
BRANCH  10  11
ATOM     11  C   UNL     1      -7.929   5.439 -20.885  1.00  0.00    -0.003 C 
ATOM     12  C   UNL     1      -7.963   4.810 -19.493  1.00  0.00     0.004 C 
ENDBRANCH  10  11
ENDBRANCH   9  10
ENDBRANCH   8   9
ENDBRANCH   7   8
ENDBRANCH   6   7
ENDBRANCH   5   6
ENDBRANCH   4   5
ENDBRANCH   3   4
ENDBRANCH   2   3
ENDBRANCH   1   2
BRANCH   1  13
ATOM     13  C   UNL     1      -7.679   9.147 -20.674  1.00  0.00     0.000 C 
BRANCH  13  14
ATOM     14  C   UNL     1      -6.598   8.874 -19.615  1.00  0.00     0.000 C 
BRANCH  14  15
ATOM     15  C   UNL     1      -7.135   8.207 -18.331  1.00  0.00     0.000 C 
BRANCH  15  16
ATOM     16  C   UNL     1      -8.673   8.125 -18.309  1.00  0.00     0.000 C 
BRANCH  16  17
ATOM     17  C   UNL     1      -9.289   8.885 -17.124  1.00  0.00     0.000 C 
BRANCH  17  18
ATOM     18  C   UNL     1      -8.545  10.194 -16.805  1.00  0.00     0.000 C 
BRANCH  18  19
ATOM     19  C   UNL     1      -8.420  10.450 -15.293  1.00  0.00     0.000 C 
BRANCH  19  20
ATOM     20  C   UNL     1      -7.086  11.111 -14.914  1.00  0.00     0.006 C 
BRANCH  20  21
ATOM     21  C   UNL     1      -5.922  10.484 -15.689  1.00  0.00     0.053 C 
BRANCH  21  22
ATOM     22  C   UNL     1      -4.798  10.145 -14.763  1.00  0.00     0.041 C 
ATOM     23  O   UNL     1      -5.038   9.665 -13.622  1.00  0.00    -0.550 OA
ATOM     24  O   UNL     1      -3.485  10.393 -15.144  1.00  0.00    -0.550 OA
ENDBRANCH  21  22
ENDBRANCH  20  21
ENDBRANCH  19  20
ENDBRANCH  18  19
ENDBRANCH  17  18
ENDBRANCH  16  17
ENDBRANCH  15  16
ENDBRANCH  14  15
ENDBRANCH  13  14
ENDBRANCH   1  13
TORSDOF 20
ENDMDL
MODEL 3
REMARK VINA RESULT:    -3.451      1.715      3.170
REMARK INTER + INTRA:         -11.731
REMARK INTER:                  -7.924
REMARK INTRA:                  -3.808
REMARK UNBOUND:                -4.246
REMARK SMILES CCCCCCCCCCCCCCCCCCCCCC(=O)[O-]
REMARK SMILES IDX 12 1 11 2 10 3 9 4 8 5 7 6 6 7 5 8 4 9 3 10 2 11 1 12 13 13
REMARK SMILES IDX 14 14 15 15 16 16 17 17 18 18 19 19 20 20 21 21 22 22 23 23
REMARK SMILES IDX 24 24
REMARK H PARENT
REMARK Flexibility Score: inf
ROOT
ATOM      1  C   UNL     1     -11.802   6.794 -19.549  1.00  0.00     0.000 C 
ENDROOT
BRANCH   1   2
ATOM      2  C   UNL     1     -12.079   6.017 -20.848  1.00  0.00     0.000 C 
BRANCH   2   3
ATOM      3  C   UNL     1     -12.243   6.940 -22.068  1.00  0.00     0.000 C 
BRANCH   3   4
ATOM      4  C   UNL     1     -11.284   6.588 -23.221  1.00  0.00    -0.000 C 
BRANCH   4   5
ATOM      5  C   UNL     1     -10.140   7.594 -23.450  1.00  0.00    -0.000 C 
BRANCH   5   6
ATOM      6  C   UNL     1     -10.076   8.688 -22.371  1.00  0.00    -0.000 C 
BRANCH   6   7
ATOM      7  C   UNL     1      -8.707   8.722 -21.656  1.00  0.00    -0.000 C 
BRANCH   7   8
ATOM      8  C   UNL     1      -7.979   7.364 -21.657  1.00  0.00    -0.000 C 
BRANCH   8   9
ATOM      9  C   UNL     1      -8.295   6.463 -20.447  1.00  0.00    -0.000 C 
BRANCH   9  10
ATOM     10  C   UNL     1      -8.024   4.961 -20.664  1.00  0.00    -0.000 C 
BRANCH  10  11
ATOM     11  C   UNL     1      -7.994   4.511 -22.135  1.00  0.00    -0.003 C 
ATOM     12  C   UNL     1      -9.233   3.713 -22.542  1.00  0.00     0.004 C 
ENDBRANCH  10  11
ENDBRANCH   9  10
ENDBRANCH   8   9
ENDBRANCH   7   8
ENDBRANCH   6   7
ENDBRANCH   5   6
ENDBRANCH   4   5
ENDBRANCH   3   4
ENDBRANCH   2   3
ENDBRANCH   1   2
BRANCH   1  13
ATOM     13  C   UNL     1     -12.461   8.183 -19.536  1.00  0.00     0.000 C 
BRANCH  13  14
ATOM     14  C   UNL     1     -11.526   9.279 -18.998  1.00  0.00     0.000 C 
BRANCH  14  15
ATOM     15  C   UNL     1     -10.218   8.738 -18.383  1.00  0.00     0.000 C 
BRANCH  15  16
ATOM     16  C   UNL     1      -9.180   9.848 -18.136  1.00  0.00     0.000 C 
BRANCH  16  17
ATOM     17  C   UNL     1      -7.905   9.326 -17.454  1.00  0.00     0.000 C 
BRANCH  17  18
ATOM     18  C   UNL     1      -6.727   9.173 -18.431  1.00  0.00     0.000 C 
BRANCH  18  19
ATOM     19  C   UNL     1      -5.604   8.284 -17.871  1.00  0.00     0.000 C 
BRANCH  19  20
ATOM     20  C   UNL     1      -4.361   9.088 -17.462  1.00  0.00     0.006 C 
BRANCH  20  21
ATOM     21  C   UNL     1      -4.057   8.911 -15.970  1.00  0.00     0.053 C 
BRANCH  21  22
ATOM     22  C   UNL     1      -4.798   9.926 -15.160  1.00  0.00     0.041 C 
ATOM     23  O   UNL     1      -5.081   9.693 -13.954  1.00  0.00    -0.550 OA
ATOM     24  O   UNL     1      -5.210  11.117 -15.746  1.00  0.00    -0.550 OA
ENDBRANCH  21  22
ENDBRANCH  20  21
ENDBRANCH  19  20
ENDBRANCH  18  19
ENDBRANCH  17  18
ENDBRANCH  16  17
ENDBRANCH  15  16
ENDBRANCH  14  15
ENDBRANCH  13  14
ENDBRANCH   1  13
TORSDOF 20
ENDMDL
MODEL 4
REMARK VINA RESULT:    -3.425      2.673      6.130
REMARK INTER + INTRA:         -11.675
REMARK INTER:                  -8.217
REMARK INTRA:                  -3.458
REMARK UNBOUND:                -4.246
REMARK SMILES CCCCCCCCCCCCCCCCCCCCCC(=O)[O-]
REMARK SMILES IDX 12 1 11 2 10 3 9 4 8 5 7 6 6 7 5 8 4 9 3 10 2 11 1 12 13 13
REMARK SMILES IDX 14 14 15 15 16 16 17 17 18 18 19 19 20 20 21 21 22 22 23 23
REMARK SMILES IDX 24 24
REMARK H PARENT
REMARK Flexibility Score: inf
ROOT
ATOM      1  C   UNL     1     -10.738   9.370 -18.698  1.00  0.00     0.000 C 
ENDROOT
BRANCH   1   2
ATOM      2  C   UNL     1      -9.409   9.998 -18.247  1.00  0.00     0.000 C 
BRANCH   2   3
ATOM      3  C   UNL     1      -8.944   9.481 -16.874  1.00  0.00     0.000 C 
BRANCH   3   4
ATOM      4  C   UNL     1      -8.612  10.616 -15.886  1.00  0.00    -0.000 C 
BRANCH   4   5
ATOM      5  C   UNL     1      -7.128  10.718 -15.483  1.00  0.00    -0.000 C 
BRANCH   5   6
ATOM      6  C   UNL     1      -6.170  10.569 -16.677  1.00  0.00    -0.000 C 
BRANCH   6   7
ATOM      7  C   UNL     1      -4.966   9.659 -16.348  1.00  0.00    -0.000 C 
BRANCH   7   8
ATOM      8  C   UNL     1      -4.734   8.546 -17.387  1.00  0.00    -0.000 C 
BRANCH   8   9
ATOM      9  C   UNL     1      -5.863   8.387 -18.424  1.00  0.00    -0.000 C 
BRANCH   9  10
ATOM     10  C   UNL     1      -5.535   8.920 -19.833  1.00  0.00    -0.000 C 
BRANCH  10  11
ATOM     11  C   UNL     1      -6.509   9.985 -20.367  1.00  0.00    -0.003 C 
ATOM     12  C   UNL     1      -5.917  11.394 -20.363  1.00  0.00     0.004 C 
ENDBRANCH  10  11
ENDBRANCH   9  10
ENDBRANCH   8   9
ENDBRANCH   7   8
ENDBRANCH   6   7
ENDBRANCH   5   6
ENDBRANCH   4   5
ENDBRANCH   3   4
ENDBRANCH   2   3
ENDBRANCH   1   2
BRANCH   1  13
ATOM     13  C   UNL     1     -10.716   7.833 -18.652  1.00  0.00     0.000 C 
BRANCH  13  14
ATOM     14  C   UNL     1     -11.950   7.201 -19.317  1.00  0.00     0.000 C 
BRANCH  14  15
ATOM     15  C   UNL     1     -12.815   8.204 -20.111  1.00  0.00     0.000 C 
BRANCH  15  16
ATOM     16  C   UNL     1     -13.088   7.734 -21.552  1.00  0.00     0.000 C 
BRANCH  16  17
ATOM     17  C   UNL     1     -11.860   7.077 -22.203  1.00  0.00     0.000 C 
BRANCH  17  18
ATOM     18  C   UNL     1     -10.924   8.099 -22.872  1.00  0.00     0.000 C 
BRANCH  18  19
ATOM     19  C   UNL     1      -9.584   8.248 -22.132  1.00  0.00     0.000 C 
BRANCH  19  20
ATOM     20  C   UNL     1      -8.744   6.963 -22.165  1.00  0.00     0.006 C 
BRANCH  20  21
ATOM     21  C   UNL     1      -8.244   6.595 -20.764  1.00  0.00     0.053 C 
BRANCH  21  22
ATOM     22  C   UNL     1      -8.781   5.263 -20.349  1.00  0.00     0.041 C 
ATOM     23  O   UNL     1      -8.411   4.739 -19.263  1.00  0.00    -0.550 OA
ATOM     24  O   UNL     1      -9.663   4.580 -21.178  1.00  0.00    -0.550 OA
ENDBRANCH  21  22
ENDBRANCH  20  21
ENDBRANCH  19  20
ENDBRANCH  18  19
ENDBRANCH  17  18
ENDBRANCH  16  17
ENDBRANCH  15  16
ENDBRANCH  14  15
ENDBRANCH  13  14
ENDBRANCH   1  13
TORSDOF 20
ENDMDL
MODEL 5
REMARK VINA RESULT:    -3.405      4.428      6.638
REMARK INTER + INTRA:         -11.632
REMARK INTER:                  -8.332
REMARK INTRA:                  -3.300
REMARK UNBOUND:                -4.246
REMARK SMILES CCCCCCCCCCCCCCCCCCCCCC(=O)[O-]
REMARK SMILES IDX 12 1 11 2 10 3 9 4 8 5 7 6 6 7 5 8 4 9 3 10 2 11 1 12 13 13
REMARK SMILES IDX 14 14 15 15 16 16 17 17 18 18 19 19 20 20 21 21 22 22 23 23
REMARK SMILES IDX 24 24
REMARK H PARENT
REMARK Flexibility Score: inf
ROOT
ATOM      1  C   UNL     1      -9.581   7.483 -18.348  1.00  0.00     0.000 C 
ENDROOT
BRANCH   1   2
ATOM      2  C   UNL     1     -10.667   8.505 -18.724  1.00  0.00     0.000 C 
BRANCH   2   3
ATOM      3  C   UNL     1     -10.095   9.908 -18.990  1.00  0.00     0.000 C 
BRANCH   3   4
ATOM      4  C   UNL     1     -10.424  10.434 -20.400  1.00  0.00    -0.000 C 
BRANCH   4   5
ATOM      5  C   UNL     1      -9.293  10.280 -21.435  1.00  0.00    -0.000 C 
BRANCH   5   6
ATOM      6  C   UNL     1      -9.600   9.221 -22.507  1.00  0.00    -0.000 C 
BRANCH   6   7
ATOM      7  C   UNL     1      -8.553   8.085 -22.521  1.00  0.00    -0.000 C 
BRANCH   7   8
ATOM      8  C   UNL     1      -9.099   6.753 -23.070  1.00  0.00    -0.000 C 
BRANCH   8   9
ATOM      9  C   UNL     1     -10.619   6.562 -22.905  1.00  0.00    -0.000 C 
BRANCH   9  10
ATOM     10  C   UNL     1     -11.073   6.132 -21.495  1.00  0.00    -0.000 C 
BRANCH  10  11
ATOM     11  C   UNL     1     -12.558   6.391 -21.185  1.00  0.00    -0.003 C 
ATOM     12  C   UNL     1     -13.001   7.814 -21.524  1.00  0.00     0.004 C 
ENDBRANCH  10  11
ENDBRANCH   9  10
ENDBRANCH   8   9
ENDBRANCH   7   8
ENDBRANCH   6   7
ENDBRANCH   5   6
ENDBRANCH   4   5
ENDBRANCH   3   4
ENDBRANCH   2   3
ENDBRANCH   1   2
BRANCH   1  13
ATOM     13  C   UNL     1      -8.169   7.941 -18.748  1.00  0.00     0.000 C 
BRANCH  13  14
ATOM     14  C   UNL     1      -7.274   6.777 -19.207  1.00  0.00     0.000 C 
BRANCH  14  15
ATOM     15  C   UNL     1      -8.057   5.571 -19.767  1.00  0.00     0.000 C 
BRANCH  15  16
ATOM     16  C   UNL     1      -7.159   4.341 -19.995  1.00  0.00     0.000 C 
BRANCH  16  17
ATOM     17  C   UNL     1      -6.995   3.995 -21.484  1.00  0.00     0.000 C 
BRANCH  17  18
ATOM     18  C   UNL     1      -5.982   4.907 -22.198  1.00  0.00     0.000 C 
BRANCH  18  19
ATOM     19  C   UNL     1      -5.022   4.124 -23.111  1.00  0.00     0.000 C 
BRANCH  19  20
ATOM     20  C   UNL     1      -4.073   3.208 -22.325  1.00  0.00     0.006 C 
BRANCH  20  21
ATOM     21  C   UNL     1      -3.569   2.056 -23.200  1.00  0.00     0.053 C 
BRANCH  21  22
ATOM     22  C   UNL     1      -2.303   1.488 -22.642  1.00  0.00     0.041 C 
ATOM     23  O   UNL     1      -1.193   1.774 -23.166  1.00  0.00    -0.550 OA
ATOM     24  O   UNL     1      -2.351   0.610 -21.565  1.00  0.00    -0.550 OA
ENDBRANCH  21  22
ENDBRANCH  20  21
ENDBRANCH  19  20
ENDBRANCH  18  19
ENDBRANCH  17  18
ENDBRANCH  16  17
ENDBRANCH  15  16
ENDBRANCH  14  15
ENDBRANCH  13  14
ENDBRANCH   1  13
TORSDOF 20
ENDMDL
MODEL 6
REMARK VINA RESULT:    -3.390      2.847      6.908
REMARK INTER + INTRA:         -11.598
REMARK INTER:                  -8.218
REMARK INTRA:                  -3.381
REMARK UNBOUND:                -4.246
REMARK SMILES CCCCCCCCCCCCCCCCCCCCCC(=O)[O-]
REMARK SMILES IDX 12 1 11 2 10 3 9 4 8 5 7 6 6 7 5 8 4 9 3 10 2 11 1 12 13 13
REMARK SMILES IDX 14 14 15 15 16 16 17 17 18 18 19 19 20 20 21 21 22 22 23 23
REMARK SMILES IDX 24 24
REMARK H PARENT
REMARK Flexibility Score: inf
ROOT
ATOM      1  C   UNL     1     -10.432   9.200 -19.089  1.00  0.00     0.000 C 
ENDROOT
BRANCH   1   2
ATOM      2  C   UNL     1      -8.961   9.625 -18.944  1.00  0.00     0.000 C 
BRANCH   2   3
ATOM      3  C   UNL     1      -8.239   8.885 -17.804  1.00  0.00     0.000 C 
BRANCH   3   4
ATOM      4  C   UNL     1      -6.983   8.129 -18.278  1.00  0.00    -0.000 C 
BRANCH   4   5
ATOM      5  C   UNL     1      -6.054   8.929 -19.212  1.00  0.00    -0.000 C 
BRANCH   5   6
ATOM      6  C   UNL     1      -4.721   9.314 -18.548  1.00  0.00    -0.000 C 
BRANCH   6   7
ATOM      7  C   UNL     1      -4.544   8.646 -17.167  1.00  0.00    -0.000 C 
BRANCH   7   8
ATOM      8  C   UNL     1      -3.554   9.388 -16.248  1.00  0.00    -0.000 C 
BRANCH   8   9
ATOM      9  C   UNL     1      -4.157  10.578 -15.478  1.00  0.00    -0.000 C 
BRANCH   9  10
ATOM     10  C   UNL     1      -5.364  10.233 -14.583  1.00  0.00    -0.000 C 
BRANCH  10  11
ATOM     11  C   UNL     1      -6.701  10.850 -15.030  1.00  0.00    -0.003 C 
ATOM     12  C   UNL     1      -6.546  11.847 -16.178  1.00  0.00     0.004 C 
ENDBRANCH  10  11
ENDBRANCH   9  10
ENDBRANCH   8   9
ENDBRANCH   7   8
ENDBRANCH   6   7
ENDBRANCH   5   6
ENDBRANCH   4   5
ENDBRANCH   3   4
ENDBRANCH   2   3
ENDBRANCH   1   2
BRANCH   1  13
ATOM     13  C   UNL     1     -10.665   7.727 -18.714  1.00  0.00     0.000 C 
BRANCH  13  14
ATOM     14  C   UNL     1     -11.966   7.162 -19.309  1.00  0.00     0.000 C 
BRANCH  14  15
ATOM     15  C   UNL     1     -12.800   8.200 -20.088  1.00  0.00     0.000 C 
BRANCH  15  16
ATOM     16  C   UNL     1     -13.111   7.747 -21.526  1.00  0.00     0.000 C 
BRANCH  16  17
ATOM     17  C   UNL     1     -12.197   6.603 -21.997  1.00  0.00     0.000 C 
BRANCH  17  18
ATOM     18  C   UNL     1     -11.169   7.057 -23.047  1.00  0.00     0.000 C 
BRANCH  18  19
ATOM     19  C   UNL     1      -9.952   7.759 -22.421  1.00  0.00     0.000 C 
BRANCH  19  20
ATOM     20  C   UNL     1      -8.657   6.948 -22.576  1.00  0.00     0.006 C 
BRANCH  20  21
ATOM     21  C   UNL     1      -8.139   6.472 -21.215  1.00  0.00     0.053 C 
BRANCH  21  22
ATOM     22  C   UNL     1      -8.811   5.197 -20.815  1.00  0.00     0.041 C 
ATOM     23  O   UNL     1      -8.965   4.915 -19.596  1.00  0.00    -0.550 OA
ATOM     24  O   UNL     1      -9.233   4.299 -21.789  1.00  0.00    -0.550 OA
ENDBRANCH  21  22
ENDBRANCH  20  21
ENDBRANCH  19  20
ENDBRANCH  18  19
ENDBRANCH  17  18
ENDBRANCH  16  17
ENDBRANCH  15  16
ENDBRANCH  14  15
ENDBRANCH  13  14
ENDBRANCH   1  13
TORSDOF 20
ENDMDL
MODEL 7
REMARK VINA RESULT:    -3.388      1.368      2.141
REMARK INTER + INTRA:         -11.594
REMARK INTER:                  -7.846
REMARK INTRA:                  -3.748
REMARK UNBOUND:                -4.246
REMARK SMILES CCCCCCCCCCCCCCCCCCCCCC(=O)[O-]
REMARK SMILES IDX 12 1 11 2 10 3 9 4 8 5 7 6 6 7 5 8 4 9 3 10 2 11 1 12 13 13
REMARK SMILES IDX 14 14 15 15 16 16 17 17 18 18 19 19 20 20 21 21 22 22 23 23
REMARK SMILES IDX 24 24
REMARK H PARENT
REMARK Flexibility Score: inf
ROOT
ATOM      1  C   UNL     1      -9.894   8.710 -18.419  1.00  0.00     0.000 C 
ENDROOT
BRANCH   1   2
ATOM      2  C   UNL     1     -11.259   9.229 -18.899  1.00  0.00     0.000 C 
BRANCH   2   3
ATOM      3  C   UNL     1     -12.218   8.095 -19.302  1.00  0.00     0.000 C 
BRANCH   3   4
ATOM      4  C   UNL     1     -13.074   8.441 -20.534  1.00  0.00    -0.000 C 
BRANCH   4   5
ATOM      5  C   UNL     1     -13.086   7.370 -21.643  1.00  0.00    -0.000 C 
BRANCH   5   6
ATOM      6  C   UNL     1     -12.231   6.139 -21.298  1.00  0.00    -0.000 C 
BRANCH   6   7
ATOM      7  C   UNL     1     -10.914   6.100 -22.103  1.00  0.00    -0.000 C 
BRANCH   7   8
ATOM      8  C   UNL     1     -10.997   6.835 -23.455  1.00  0.00    -0.000 C 
BRANCH   8   9
ATOM      9  C   UNL     1     -10.071   8.060 -23.582  1.00  0.00    -0.000 C 
BRANCH   9  10
ATOM     10  C   UNL     1      -9.726   8.758 -22.251  1.00  0.00    -0.000 C 
BRANCH  10  11
ATOM     11  C   UNL     1      -9.186  10.192 -22.392  1.00  0.00    -0.003 C 
ATOM     12  C   UNL     1     -10.070  11.235 -21.708  1.00  0.00     0.004 C 
ENDBRANCH  10  11
ENDBRANCH   9  10
ENDBRANCH   8   9
ENDBRANCH   7   8
ENDBRANCH   6   7
ENDBRANCH   5   6
ENDBRANCH   4   5
ENDBRANCH   3   4
ENDBRANCH   2   3
ENDBRANCH   1   2
BRANCH   1  13
ATOM     13  C   UNL     1      -9.623   7.260 -18.854  1.00  0.00     0.000 C 
BRANCH  13  14
ATOM     14  C   UNL     1      -8.125   6.913 -18.862  1.00  0.00     0.000 C 
BRANCH  14  15
ATOM     15  C   UNL     1      -7.584   6.511 -20.251  1.00  0.00     0.000 C 
BRANCH  15  16
ATOM     16  C   UNL     1      -6.531   7.502 -20.782  1.00  0.00     0.000 C 
BRANCH  16  17
ATOM     17  C   UNL     1      -6.555   8.846 -20.037  1.00  0.00     0.000 C 
BRANCH  17  18
ATOM     18  C   UNL     1      -5.242   9.134 -19.287  1.00  0.00     0.000 C 
BRANCH  18  19
ATOM     19  C   UNL     1      -5.419   9.129 -17.759  1.00  0.00     0.000 C 
BRANCH  19  20
ATOM     20  C   UNL     1      -6.640   9.941 -17.303  1.00  0.00     0.006 C 
BRANCH  20  21
ATOM     21  C   UNL     1      -6.406  11.443 -17.496  1.00  0.00     0.053 C 
BRANCH  21  22
ATOM     22  C   UNL     1      -6.458  12.155 -16.181  1.00  0.00     0.041 C 
ATOM     23  O   UNL     1      -7.180  11.712 -15.247  1.00  0.00    -0.550 OA
ATOM     24  O   UNL     1      -5.738  13.330 -15.999  1.00  0.00    -0.550 OA
ENDBRANCH  21  22
ENDBRANCH  20  21
ENDBRANCH  19  20
ENDBRANCH  18  19
ENDBRANCH  17  18
ENDBRANCH  16  17
ENDBRANCH  15  16
ENDBRANCH  14  15
ENDBRANCH  13  14
ENDBRANCH   1  13
TORSDOF 20
ENDMDL
MODEL 8
REMARK VINA RESULT:    -3.388      1.588      2.613
REMARK INTER + INTRA:         -11.594
REMARK INTER:                  -8.207
REMARK INTRA:                  -3.387
REMARK UNBOUND:                -4.246
REMARK SMILES CCCCCCCCCCCCCCCCCCCCCC(=O)[O-]
REMARK SMILES IDX 12 1 11 2 10 3 9 4 8 5 7 6 6 7 5 8 4 9 3 10 2 11 1 12 13 13
REMARK SMILES IDX 14 14 15 15 16 16 17 17 18 18 19 19 20 20 21 21 22 22 23 23
REMARK SMILES IDX 24 24
REMARK H PARENT
REMARK Flexibility Score: inf
ROOT
ATOM      1  C   UNL     1      -9.660   9.240 -18.938  1.00  0.00     0.000 C 
ENDROOT
BRANCH   1   2
ATOM      2  C   UNL     1     -11.189   9.392 -18.899  1.00  0.00     0.000 C 
BRANCH   2   3
ATOM      3  C   UNL     1     -11.924   8.132 -19.389  1.00  0.00     0.000 C 
BRANCH   3   4
ATOM      4  C   UNL     1     -12.833   8.399 -20.603  1.00  0.00    -0.000 C 
BRANCH   4   5
ATOM      5  C   UNL     1     -13.020   7.203 -21.556  1.00  0.00    -0.000 C 
BRANCH   5   6
ATOM      6  C   UNL     1     -12.352   5.916 -21.043  1.00  0.00    -0.000 C 
BRANCH   6   7
ATOM      7  C   UNL     1     -11.248   5.412 -21.999  1.00  0.00    -0.000 C 
BRANCH   7   8
ATOM      8  C   UNL     1      -9.835   5.887 -21.612  1.00  0.00    -0.000 C 
BRANCH   8   9
ATOM      9  C   UNL     1      -9.133   6.756 -22.673  1.00  0.00    -0.000 C 
BRANCH   9  10
ATOM     10  C   UNL     1      -9.114   8.268 -22.370  1.00  0.00    -0.000 C 
BRANCH  10  11
ATOM     11  C   UNL     1     -10.214   9.085 -23.072  1.00  0.00    -0.003 C 
ATOM     12  C   UNL     1     -10.081  10.590 -22.840  1.00  0.00     0.004 C 
ENDBRANCH  10  11
ENDBRANCH   9  10
ENDBRANCH   8   9
ENDBRANCH   7   8
ENDBRANCH   6   7
ENDBRANCH   5   6
ENDBRANCH   4   5
ENDBRANCH   3   4
ENDBRANCH   2   3
ENDBRANCH   1   2
BRANCH   1  13
ATOM     13  C   UNL     1      -9.156   8.071 -18.076  1.00  0.00     0.000 C 
BRANCH  13  14
ATOM     14  C   UNL     1      -7.988   7.312 -18.728  1.00  0.00     0.000 C 
BRANCH  14  15
ATOM     15  C   UNL     1      -6.942   8.230 -19.396  1.00  0.00     0.000 C 
BRANCH  15  16
ATOM     16  C   UNL     1      -5.820   8.648 -18.427  1.00  0.00     0.000 C 
BRANCH  16  17
ATOM     17  C   UNL     1      -5.566  10.164 -18.434  1.00  0.00     0.000 C 
BRANCH  17  18
ATOM     18  C   UNL     1      -6.664  10.955 -17.702  1.00  0.00     0.000 C 
BRANCH  18  19
ATOM     19  C   UNL     1      -6.832  10.518 -16.237  1.00  0.00     0.000 C 
BRANCH  19  20
ATOM     20  C   UNL     1      -5.917  11.296 -15.279  1.00  0.00     0.006 C 
BRANCH  20  21
ATOM     21  C   UNL     1      -5.445  10.406 -14.125  1.00  0.00     0.053 C 
BRANCH  21  22
ATOM     22  C   UNL     1      -4.137   9.762 -14.460  1.00  0.00     0.041 C 
ATOM     23  O   UNL     1      -4.068   8.909 -15.386  1.00  0.00    -0.550 OA
ATOM     24  O   UNL     1      -3.000  10.074 -13.724  1.00  0.00    -0.550 OA
ENDBRANCH  21  22
ENDBRANCH  20  21
ENDBRANCH  19  20
ENDBRANCH  18  19
ENDBRANCH  17  18
ENDBRANCH  16  17
ENDBRANCH  15  16
ENDBRANCH  14  15
ENDBRANCH  13  14
ENDBRANCH   1  13
TORSDOF 20
ENDMDL
MODEL 9
REMARK VINA RESULT:    -3.356      1.526      2.583
REMARK INTER + INTRA:         -11.526
REMARK INTER:                  -7.711
REMARK INTRA:                  -3.815
REMARK UNBOUND:                -4.246
REMARK SMILES CCCCCCCCCCCCCCCCCCCCCC(=O)[O-]
REMARK SMILES IDX 12 1 11 2 10 3 9 4 8 5 7 6 6 7 5 8 4 9 3 10 2 11 1 12 13 13
REMARK SMILES IDX 14 14 15 15 16 16 17 17 18 18 19 19 20 20 21 21 22 22 23 23
REMARK SMILES IDX 24 24
REMARK H PARENT
REMARK Flexibility Score: inf
ROOT
ATOM      1  C   UNL     1     -10.309   9.619 -18.877  1.00  0.00     0.000 C 
ENDROOT
BRANCH   1   2
ATOM      2  C   UNL     1     -10.373   8.086 -18.782  1.00  0.00     0.000 C 
BRANCH   2   3
ATOM      3  C   UNL     1     -11.809   7.544 -18.895  1.00  0.00     0.000 C 
BRANCH   3   4
ATOM      4  C   UNL     1     -12.731   8.454 -19.728  1.00  0.00    -0.000 C 
BRANCH   4   5
ATOM      5  C   UNL     1     -12.851   8.076 -21.217  1.00  0.00    -0.000 C 
BRANCH   5   6
ATOM      6  C   UNL     1     -12.760   6.560 -21.461  1.00  0.00    -0.000 C 
BRANCH   6   7
ATOM      7  C   UNL     1     -11.463   6.166 -22.202  1.00  0.00    -0.000 C 
BRANCH   7   8
ATOM      8  C   UNL     1     -10.706   5.000 -21.538  1.00  0.00    -0.000 C 
BRANCH   8   9
ATOM      9  C   UNL     1      -9.214   5.272 -21.266  1.00  0.00    -0.000 C 
BRANCH   9  10
ATOM     10  C   UNL     1      -8.796   5.192 -19.784  1.00  0.00    -0.000 C 
BRANCH  10  11
ATOM     11  C   UNL     1      -7.445   4.502 -19.527  1.00  0.00    -0.003 C 
ATOM     12  C   UNL     1      -6.729   4.090 -20.813  1.00  0.00     0.004 C 
ENDBRANCH  10  11
ENDBRANCH   9  10
ENDBRANCH   8   9
ENDBRANCH   7   8
ENDBRANCH   6   7
ENDBRANCH   5   6
ENDBRANCH   4   5
ENDBRANCH   3   4
ENDBRANCH   2   3
ENDBRANCH   1   2
BRANCH   1  13
ATOM     13  C   UNL     1      -9.450  10.106 -20.056  1.00  0.00     0.000 C 
BRANCH  13  14
ATOM     14  C   UNL     1      -9.253   9.027 -21.134  1.00  0.00     0.000 C 
BRANCH  14  15
ATOM     15  C   UNL     1      -7.844   9.022 -21.764  1.00  0.00     0.000 C 
BRANCH  15  16
ATOM     16  C   UNL     1      -6.878   8.069 -21.036  1.00  0.00     0.000 C 
BRANCH  16  17
ATOM     17  C   UNL     1      -6.016   8.789 -19.986  1.00  0.00     0.000 C 
BRANCH  17  18
ATOM     18  C   UNL     1      -6.096   8.129 -18.598  1.00  0.00     0.000 C 
BRANCH  18  19
ATOM     19  C   UNL     1      -6.958   8.933 -17.609  1.00  0.00     0.000 C 
BRANCH  19  20
ATOM     20  C   UNL     1      -6.467  10.378 -17.436  1.00  0.00     0.006 C 
BRANCH  20  21
ATOM     21  C   UNL     1      -5.084  10.413 -16.776  1.00  0.00     0.053 C 
BRANCH  21  22
ATOM     22  C   UNL     1      -5.191  10.096 -15.318  1.00  0.00     0.041 C 
ATOM     23  O   UNL     1      -4.410   9.258 -14.792  1.00  0.00    -0.550 OA
ATOM     24  O   UNL     1      -6.178  10.698 -14.546  1.00  0.00    -0.550 OA
ENDBRANCH  21  22
ENDBRANCH  20  21
ENDBRANCH  19  20
ENDBRANCH  18  19
ENDBRANCH  17  18
ENDBRANCH  16  17
ENDBRANCH  15  16
ENDBRANCH  14  15
ENDBRANCH  13  14
ENDBRANCH   1  13
TORSDOF 20
ENDMDL
