MODEL 1
REMARK VINA RESULT:     8.951      0.000      0.000
REMARK INTER + INTRA:          16.235
REMARK INTER:                  17.323
REMARK INTRA:                  -1.088
REMARK UNBOUND:                -1.088
REMARK SMILES CCCCCCCCCCCCCCCCCC(=O)[O-]
REMARK SMILES IDX 10 1 11 2 12 3 13 4 14 5 15 6 16 7 17 8 18 9 19 10 20 11
REMARK SMILES IDX 9 12 8 13 7 14 6 15 5 16 4 17 3 18 2 19 1 20
REMARK H PARENT
REMARK Flexibility Score: inf
ROOT
ATOM      1  C   UNL     1      36.152  14.998  43.979  1.00  0.00     0.000 C 
ENDROOT
BRANCH   1   2
ATOM      2  C   UNL     1      34.995  15.935  43.584  1.00  0.00     0.000 C 
BRANCH   2   3
ATOM      3  C   UNL     1      35.368  17.427  43.495  1.00  0.00     0.000 C 
BRANCH   3   4
ATOM      4  C   UNL     1      34.505  18.257  42.526  1.00  0.00     0.000 C 
BRANCH   4   5
ATOM      5  C   UNL     1      33.875  17.425  41.388  1.00  0.00     0.000 C 
BRANCH   5   6
ATOM      6  C   UNL     1      34.432  17.806  40.006  1.00  0.00     0.000 C 
BRANCH   6   7
ATOM      7  C   UNL     1      33.383  17.692  38.886  1.00  0.00     0.006 C 
BRANCH   7   8
ATOM      8  C   UNL     1      32.259  18.737  38.962  1.00  0.00     0.053 C 
BRANCH   8   9
ATOM      9  C   UNL     1      31.344  18.662  37.779  1.00  0.00     0.041 C 
ATOM     10  O   UNL     1      30.740  19.693  37.378  1.00  0.00    -0.550 OA
ATOM     11  O   UNL     1      31.185  17.462  37.098  1.00  0.00    -0.550 OA
ENDBRANCH   8   9
ENDBRANCH   7   8
ENDBRANCH   6   7
ENDBRANCH   5   6
ENDBRANCH   4   5
ENDBRANCH   3   4
ENDBRANCH   2   3
ENDBRANCH   1   2
BRANCH   1  12
ATOM     12  C   UNL     1      36.268  13.771  43.062  1.00  0.00     0.000 C 
BRANCH  12  13
ATOM     13  C   UNL     1      34.906  13.407  42.457  1.00  0.00    -0.000 C 
BRANCH  13  14
ATOM     14  C   UNL     1      35.077  12.618  41.153  1.00  0.00    -0.000 C 
BRANCH  14  15
ATOM     15  C   UNL     1      34.113  13.126  40.073  1.00  0.00    -0.000 C 
BRANCH  15  16
ATOM     16  C   UNL     1      32.985  12.114  39.823  1.00  0.00    -0.000 C 
BRANCH  16  17
ATOM     17  C   UNL     1      33.028  10.926  40.797  1.00  0.00    -0.000 C 
BRANCH  17  18
ATOM     18  C   UNL     1      32.707   9.589  40.114  1.00  0.00    -0.000 C 
BRANCH  18  19
ATOM     19  C   UNL     1      33.965   8.978  39.486  1.00  0.00    -0.003 C 
ATOM     20  C   UNL     1      35.217   9.370  40.265  1.00  0.00     0.004 C 
ENDBRANCH  18  19
ENDBRANCH  17  18
ENDBRANCH  16  17
ENDBRANCH  15  16
ENDBRANCH  14  15
ENDBRANCH  13  14
ENDBRANCH  12  13
ENDBRANCH   1  12
TORSDOF 16
ENDMDL
MODEL 2
REMARK VINA RESULT:     9.093      3.414      7.267
REMARK INTER + INTRA:          16.509
REMARK INTER:                  17.567
REMARK INTRA:                  -1.057
REMARK UNBOUND:                -1.088
REMARK SMILES CCCCCCCCCCCCCCCCCC(=O)[O-]
REMARK SMILES IDX 10 1 11 2 12 3 13 4 14 5 15 6 16 7 17 8 18 9 19 10 20 11
REMARK SMILES IDX 9 12 8 13 7 14 6 15 5 16 4 17 3 18 2 19 1 20
REMARK H PARENT
REMARK Flexibility Score: inf
ROOT
ATOM      1  C   UNL     1      35.018  15.409  43.520  1.00  0.00     0.000 C 
ENDROOT
BRANCH   1   2
ATOM      2  C   UNL     1      36.298  14.551  43.509  1.00  0.00     0.000 C 
BRANCH   2   3
ATOM      3  C   UNL     1      36.279  13.369  42.521  1.00  0.00     0.000 C 
BRANCH   3   4
ATOM      4  C   UNL     1      34.875  12.874  42.125  1.00  0.00     0.000 C 
BRANCH   4   5
ATOM      5  C   UNL     1      34.643  12.820  40.599  1.00  0.00     0.000 C 
BRANCH   5   6
ATOM      6  C   UNL     1      33.233  12.322  40.238  1.00  0.00     0.000 C 
BRANCH   6   7
ATOM      7  C   UNL     1      32.860  11.013  40.956  1.00  0.00     0.006 C 
BRANCH   7   8
ATOM      8  C   UNL     1      32.735   9.794  40.028  1.00  0.00     0.053 C 
BRANCH   8   9
ATOM      9  C   UNL     1      34.073   9.237  39.653  1.00  0.00     0.041 C 
ATOM     10  O   UNL     1      34.209   8.574  38.590  1.00  0.00    -0.550 OA
ATOM     11  O   UNL     1      35.178   9.477  40.460  1.00  0.00    -0.550 OA
ENDBRANCH   8   9
ENDBRANCH   7   8
ENDBRANCH   6   7
ENDBRANCH   5   6
ENDBRANCH   4   5
ENDBRANCH   3   4
ENDBRANCH   2   3
ENDBRANCH   1   2
BRANCH   1  12
ATOM     12  C   UNL     1      35.261  16.838  44.027  1.00  0.00     0.000 C 
BRANCH  12  13
ATOM     13  C   UNL     1      34.863  17.872  42.967  1.00  0.00    -0.000 C 
BRANCH  13  14
ATOM     14  C   UNL     1      34.031  17.224  41.852  1.00  0.00    -0.000 C 
BRANCH  14  15
ATOM     15  C   UNL     1      34.040  18.089  40.586  1.00  0.00    -0.000 C 
BRANCH  15  16
ATOM     16  C   UNL     1      33.437  17.327  39.396  1.00  0.00    -0.000 C 
BRANCH  16  17
ATOM     17  C   UNL     1      32.971  18.262  38.269  1.00  0.00    -0.000 C 
BRANCH  17  18
ATOM     18  C   UNL     1      31.712  17.747  37.556  1.00  0.00    -0.000 C 
BRANCH  18  19
ATOM     19  C   UNL     1      30.619  18.822  37.527  1.00  0.00    -0.003 C 
ATOM     20  C   UNL     1      31.152  20.164  38.022  1.00  0.00     0.004 C 
ENDBRANCH  18  19
ENDBRANCH  17  18
ENDBRANCH  16  17
ENDBRANCH  15  16
ENDBRANCH  14  15
ENDBRANCH  13  14
ENDBRANCH  12  13
ENDBRANCH   1  12
TORSDOF 16
ENDMDL
MODEL 3
REMARK VINA RESULT:     9.660      4.686      9.603
REMARK INTER + INTRA:          17.607
REMARK INTER:                  18.611
REMARK INTRA:                  -1.005
REMARK UNBOUND:                -1.088
REMARK SMILES CCCCCCCCCCCCCCCCCC(=O)[O-]
REMARK SMILES IDX 10 1 11 2 12 3 13 4 14 5 15 6 16 7 17 8 18 9 19 10 20 11
REMARK SMILES IDX 9 12 8 13 7 14 6 15 5 16 4 17 3 18 2 19 1 20
REMARK H PARENT
REMARK Flexibility Score: inf
ROOT
ATOM      1  C   UNL     1      32.616  10.341  40.828  1.00  0.00     0.000 C 
ENDROOT
BRANCH   1   2
ATOM      2  C   UNL     1      33.324   9.660  39.641  1.00  0.00     0.000 C 
BRANCH   2   3
ATOM      3  C   UNL     1      34.309   8.540  40.027  1.00  0.00     0.000 C 
BRANCH   3   4
ATOM      4  C   UNL     1      33.818   7.111  39.729  1.00  0.00     0.000 C 
BRANCH   4   5
ATOM      5  C   UNL     1      34.081   6.112  40.877  1.00  0.00     0.000 C 
BRANCH   5   6
ATOM      6  C   UNL     1      32.917   5.125  41.073  1.00  0.00     0.000 C 
BRANCH   6   7
ATOM      7  C   UNL     1      31.702   5.765  41.768  1.00  0.00     0.006 C 
BRANCH   7   8
ATOM      8  C   UNL     1      30.400   4.958  41.640  1.00  0.00     0.053 C 
BRANCH   8   9
ATOM      9  C   UNL     1      29.195   5.786  41.963  1.00  0.00     0.041 C 
ATOM     10  O   UNL     1      29.161   7.006  41.649  1.00  0.00    -0.550 OA
ATOM     11  O   UNL     1      28.096   5.202  42.580  1.00  0.00    -0.550 OA
ENDBRANCH   8   9
ENDBRANCH   7   8
ENDBRANCH   6   7
ENDBRANCH   5   6
ENDBRANCH   4   5
ENDBRANCH   3   4
ENDBRANCH   2   3
ENDBRANCH   1   2
BRANCH   1  12
ATOM     12  C   UNL     1      33.456  11.456  41.467  1.00  0.00     0.000 C 
BRANCH  12  13
ATOM     13  C   UNL     1      34.069  12.364  40.394  1.00  0.00    -0.000 C 
BRANCH  13  14
ATOM     14  C   UNL     1      35.246  13.168  40.961  1.00  0.00    -0.000 C 
BRANCH  14  15
ATOM     15  C   UNL     1      35.171  13.250  42.491  1.00  0.00    -0.000 C 
BRANCH  15  16
ATOM     16  C   UNL     1      36.499  13.749  43.080  1.00  0.00    -0.000 C 
BRANCH  16  17
ATOM     17  C   UNL     1      36.356  15.098  43.803  1.00  0.00    -0.000 C 
BRANCH  17  18
ATOM     18  C   UNL     1      34.916  15.632  43.779  1.00  0.00    -0.000 C 
BRANCH  18  19
ATOM     19  C   UNL     1      34.836  16.956  43.010  1.00  0.00    -0.003 C 
ATOM     20  C   UNL     1      35.567  18.071  43.753  1.00  0.00     0.004 C 
ENDBRANCH  18  19
ENDBRANCH  17  18
ENDBRANCH  16  17
ENDBRANCH  15  16
ENDBRANCH  14  15
ENDBRANCH  13  14
ENDBRANCH  12  13
ENDBRANCH   1  12
TORSDOF 16
ENDMDL
MODEL 4
REMARK VINA RESULT:    10.313      3.716      6.559
REMARK INTER + INTRA:          18.870
REMARK INTER:                  19.920
REMARK INTRA:                  -1.050
REMARK UNBOUND:                -1.088
REMARK SMILES CCCCCCCCCCCCCCCCCC(=O)[O-]
REMARK SMILES IDX 10 1 11 2 12 3 13 4 14 5 15 6 16 7 17 8 18 9 19 10 20 11
REMARK SMILES IDX 9 12 8 13 7 14 6 15 5 16 4 17 3 18 2 19 1 20
REMARK H PARENT
REMARK Flexibility Score: inf
ROOT
ATOM      1  C   UNL     1      32.671   9.830  40.358  1.00  0.00     0.000 C 
ENDROOT
BRANCH   1   2
ATOM      2  C   UNL     1      32.773  11.246  40.956  1.00  0.00     0.000 C 
BRANCH   2   3
ATOM      3  C   UNL     1      33.305  12.323  39.992  1.00  0.00     0.000 C 
BRANCH   3   4
ATOM      4  C   UNL     1      34.615  13.002  40.434  1.00  0.00     0.000 C 
BRANCH   4   5
ATOM      5  C   UNL     1      34.934  12.817  41.934  1.00  0.00     0.000 C 
BRANCH   5   6
ATOM      6  C   UNL     1      36.345  13.310  42.297  1.00  0.00     0.000 C 
BRANCH   6   7
ATOM      7  C   UNL     1      36.400  14.010  43.667  1.00  0.00     0.006 C 
BRANCH   7   8
ATOM      8  C   UNL     1      36.701  15.516  43.598  1.00  0.00     0.053 C 
BRANCH   8   9
ATOM      9  C   UNL     1      35.455  16.341  43.692  1.00  0.00     0.041 C 
ATOM     10  O   UNL     1      34.328  15.782  43.754  1.00  0.00    -0.550 OA
ATOM     11  O   UNL     1      35.541  17.726  43.746  1.00  0.00    -0.550 OA
ENDBRANCH   8   9
ENDBRANCH   7   8
ENDBRANCH   6   7
ENDBRANCH   5   6
ENDBRANCH   4   5
ENDBRANCH   3   4
ENDBRANCH   2   3
ENDBRANCH   1   2
BRANCH   1  12
ATOM     12  C   UNL     1      34.000   9.333  39.769  1.00  0.00     0.000 C 
BRANCH  12  13
ATOM     13  C   UNL     1      34.488   8.076  40.500  1.00  0.00    -0.000 C 
BRANCH  13  14
ATOM     14  C   UNL     1      33.797   6.820  39.955  1.00  0.00    -0.000 C 
BRANCH  14  15
ATOM     15  C   UNL     1      33.789   5.698  41.001  1.00  0.00    -0.000 C 
BRANCH  15  16
ATOM     16  C   UNL     1      32.444   4.957  41.003  1.00  0.00    -0.000 C 
BRANCH  16  17
ATOM     17  C   UNL     1      31.382   5.659  41.865  1.00  0.00    -0.000 C 
BRANCH  17  18
ATOM     18  C   UNL     1      30.072   4.863  41.953  1.00  0.00    -0.000 C 
BRANCH  18  19
ATOM     19  C   UNL     1      28.859   5.800  41.933  1.00  0.00    -0.003 C 
ATOM     20  C   UNL     1      29.258   7.210  41.504  1.00  0.00     0.004 C 
ENDBRANCH  18  19
ENDBRANCH  17  18
ENDBRANCH  16  17
ENDBRANCH  15  16
ENDBRANCH  14  15
ENDBRANCH  13  14
ENDBRANCH  12  13
ENDBRANCH   1  12
TORSDOF 16
ENDMDL
MODEL 5
REMARK VINA RESULT:    10.423      5.174      9.190
REMARK INTER + INTRA:          19.084
REMARK INTER:                  19.865
REMARK INTRA:                  -0.781
REMARK UNBOUND:                -1.088
REMARK SMILES CCCCCCCCCCCCCCCCCC(=O)[O-]
REMARK SMILES IDX 10 1 11 2 12 3 13 4 14 5 15 6 16 7 17 8 18 9 19 10 20 11
REMARK SMILES IDX 9 12 8 13 7 14 6 15 5 16 4 17 3 18 2 19 1 20
REMARK H PARENT
REMARK Flexibility Score: inf
ROOT
ATOM      1  C   UNL     1      33.388  12.378  40.424  1.00  0.00     0.000 C 
ENDROOT
BRANCH   1   2
ATOM      2  C   UNL     1      33.661  11.022  41.103  1.00  0.00     0.000 C 
BRANCH   2   3
ATOM      3  C   UNL     1      33.888   9.845  40.135  1.00  0.00     0.000 C 
BRANCH   3   4
ATOM      4  C   UNL     1      32.606   9.130  39.669  1.00  0.00     0.000 C 
BRANCH   4   5
ATOM      5  C   UNL     1      31.445   9.212  40.685  1.00  0.00     0.000 C 
BRANCH   5   6
ATOM      6  C   UNL     1      30.185   8.478  40.194  1.00  0.00     0.000 C 
BRANCH   6   7
ATOM      7  C   UNL     1      29.336   7.914  41.347  1.00  0.00     0.006 C 
BRANCH   7   8
ATOM      8  C   UNL     1      28.856   6.470  41.134  1.00  0.00     0.053 C 
BRANCH   8   9
ATOM      9  C   UNL     1      29.469   5.525  42.119  1.00  0.00     0.041 C 
ATOM     10  O   UNL     1      28.784   5.073  43.075  1.00  0.00    -0.550 OA
ATOM     11  O   UNL     1      30.788   5.117  41.964  1.00  0.00    -0.550 OA
ENDBRANCH   8   9
ENDBRANCH   7   8
ENDBRANCH   6   7
ENDBRANCH   5   6
ENDBRANCH   4   5
ENDBRANCH   3   4
ENDBRANCH   2   3
ENDBRANCH   1   2
BRANCH   1  12
ATOM     12  C   UNL     1      34.655  13.233  40.264  1.00  0.00     0.000 C 
BRANCH  12  13
ATOM     13  C   UNL     1      35.778  12.726  41.177  1.00  0.00    -0.000 C 
BRANCH  13  14
ATOM     14  C   UNL     1      35.583  13.221  42.616  1.00  0.00    -0.000 C 
BRANCH  14  15
ATOM     15  C   UNL     1      36.811  14.001  43.100  1.00  0.00    -0.000 C 
BRANCH  15  16
ATOM     16  C   UNL     1      36.393  15.277  43.846  1.00  0.00    -0.000 C 
BRANCH  16  17
ATOM     17  C   UNL     1      34.878  15.531  43.781  1.00  0.00    -0.000 C 
BRANCH  17  18
ATOM     18  C   UNL     1      34.532  17.025  43.690  1.00  0.00    -0.000 C 
BRANCH  18  19
ATOM     19  C   UNL     1      35.781  17.889  43.899  1.00  0.00    -0.003 C 
ATOM     20  C   UNL     1      35.836  19.033  42.889  1.00  0.00     0.004 C 
ENDBRANCH  18  19
ENDBRANCH  17  18
ENDBRANCH  16  17
ENDBRANCH  15  16
ENDBRANCH  14  15
ENDBRANCH  13  14
ENDBRANCH  12  13
ENDBRANCH   1  12
TORSDOF 16
ENDMDL
MODEL 6
REMARK VINA RESULT:    10.519      3.579      5.657
REMARK INTER + INTRA:          19.271
REMARK INTER:                  20.077
REMARK INTRA:                  -0.807
REMARK UNBOUND:                -1.088
REMARK SMILES CCCCCCCCCCCCCCCCCC(=O)[O-]
REMARK SMILES IDX 10 1 11 2 12 3 13 4 14 5 15 6 16 7 17 8 18 9 19 10 20 11
REMARK SMILES IDX 9 12 8 13 7 14 6 15 5 16 4 17 3 18 2 19 1 20
REMARK H PARENT
REMARK Flexibility Score: inf
ROOT
ATOM      1  C   UNL     1      33.719  11.329  41.218  1.00  0.00     0.000 C 
ENDROOT
BRANCH   1   2
ATOM      2  C   UNL     1      34.217  12.504  40.354  1.00  0.00     0.000 C 
BRANCH   2   3
ATOM      3  C   UNL     1      35.166  13.482  41.072  1.00  0.00     0.000 C 
BRANCH   3   4
ATOM      4  C   UNL     1      35.201  13.347  42.606  1.00  0.00     0.000 C 
BRANCH   4   5
ATOM      5  C   UNL     1      36.543  13.776  43.237  1.00  0.00     0.000 C 
BRANCH   5   6
ATOM      6  C   UNL     1      36.539  15.251  43.675  1.00  0.00     0.000 C 
BRANCH   6   7
ATOM      7  C   UNL     1      35.124  15.788  43.952  1.00  0.00     0.006 C 
BRANCH   7   8
ATOM      8  C   UNL     1      34.741  17.024  43.123  1.00  0.00     0.053 C 
BRANCH   8   9
ATOM      9  C   UNL     1      35.528  18.233  43.523  1.00  0.00     0.041 C 
ATOM     10  O   UNL     1      36.404  18.704  42.750  1.00  0.00    -0.550 OA
ATOM     11  O   UNL     1      35.271  18.859  44.736  1.00  0.00    -0.550 OA
ENDBRANCH   8   9
ENDBRANCH   7   8
ENDBRANCH   6   7
ENDBRANCH   5   6
ENDBRANCH   4   5
ENDBRANCH   3   4
ENDBRANCH   2   3
ENDBRANCH   1   2
BRANCH   1  12
ATOM     12  C   UNL     1      34.322   9.980  40.799  1.00  0.00     0.000 C 
BRANCH  12  13
ATOM     13  C   UNL     1      33.558   9.383  39.612  1.00  0.00    -0.000 C 
BRANCH  13  14
ATOM     14  C   UNL     1      32.060   9.698  39.707  1.00  0.00    -0.000 C 
BRANCH  14  15
ATOM     15  C   UNL     1      31.410   8.937  40.869  1.00  0.00    -0.000 C 
BRANCH  15  16
ATOM     16  C   UNL     1      30.119   8.239  40.416  1.00  0.00    -0.000 C 
BRANCH  16  17
ATOM     17  C   UNL     1      29.283   7.716  41.595  1.00  0.00    -0.000 C 
BRANCH  17  18
ATOM     18  C   UNL     1      28.886   6.242  41.431  1.00  0.00    -0.000 C 
BRANCH  18  19
ATOM     19  C   UNL     1      29.798   5.333  42.262  1.00  0.00    -0.003 C 
ATOM     20  C   UNL     1      31.050   4.944  41.481  1.00  0.00     0.004 C 
ENDBRANCH  18  19
ENDBRANCH  17  18
ENDBRANCH  16  17
ENDBRANCH  15  16
ENDBRANCH  14  15
ENDBRANCH  13  14
ENDBRANCH  12  13
ENDBRANCH   1  12
TORSDOF 16
ENDMDL
