MODEL 1
REMARK VINA RESULT:    -4.076      0.000      0.000
REMARK INTER + INTRA:          -5.808
REMARK INTER:                  -5.268
REMARK INTRA:                  -0.540
REMARK UNBOUND:                -0.540
REMARK SMILES C=CC(=O)CCCCC
REMARK SMILES IDX 6 1 7 2 8 3 9 4 5 5 3 6 4 7 2 8 1 9
REMARK H PARENT
REMARK Flexibility Score: inf
ROOT
ATOM      1  C   UNL     1       5.374 144.354  -6.997  1.00  0.00     0.008 C 
ENDROOT
BRANCH   1   2
ATOM      2  C   UNL     1       5.385 143.331  -8.147  1.00  0.00     0.000 C 
BRANCH   2   3
ATOM      3  C   UNL     1       3.994 142.939  -8.676  1.00  0.00    -0.003 C 
ATOM      4  C   UNL     1       3.006 142.592  -7.562  1.00  0.00     0.004 C 
ENDBRANCH   2   3
ENDBRANCH   1   2
BRANCH   1   5
ATOM      5  C   UNL     1       5.248 145.803  -7.487  1.00  0.00     0.080 C 
BRANCH   5   6
ATOM      6  C   UNL     1       4.033 146.453  -6.894  1.00  0.00     0.155 C 
ATOM      7  O   UNL     1       4.133 147.065  -5.796  1.00  0.00    -0.295 OA
BRANCH   6   8
ATOM      8  C   UNL     1       2.727 146.336  -7.572  1.00  0.00     0.039 C 
ATOM      9  C   UNL     1       1.603 146.058  -6.915  1.00  0.00     0.012 C 
ENDBRANCH   6   8
ENDBRANCH   5   6
ENDBRANCH   1   5
TORSDOF 5
ENDMDL
MODEL 2
REMARK VINA RESULT:    -4.069      1.078      1.378
REMARK INTER + INTRA:          -5.799
REMARK INTER:                  -5.333
REMARK INTRA:                  -0.466
REMARK UNBOUND:                -0.540
REMARK SMILES C=CC(=O)CCCCC
REMARK SMILES IDX 6 1 7 2 8 3 9 4 5 5 3 6 4 7 2 8 1 9
REMARK H PARENT
REMARK Flexibility Score: inf
ROOT
ATOM      1  C   UNL     1       5.345 146.333  -8.401  1.00  0.00     0.008 C 
ENDROOT
BRANCH   1   2
ATOM      2  C   UNL     1       6.045 145.005  -8.741  1.00  0.00     0.000 C 
BRANCH   2   3
ATOM      3  C   UNL     1       5.100 143.803  -8.921  1.00  0.00    -0.003 C 
ATOM      4  C   UNL     1       4.830 143.054  -7.617  1.00  0.00     0.004 C 
ENDBRANCH   2   3
ENDBRANCH   1   2
BRANCH   1   5
ATOM      5  C   UNL     1       5.229 146.578  -6.891  1.00  0.00     0.080 C 
BRANCH   5   6
ATOM      6  C   UNL     1       3.789 146.619  -6.475  1.00  0.00     0.155 C 
ATOM      7  O   UNL     1       3.500 146.815  -5.263  1.00  0.00    -0.295 OA
BRANCH   6   8
ATOM      8  C   UNL     1       2.725 146.386  -7.472  1.00  0.00     0.039 C 
ATOM      9  C   UNL     1       1.488 146.034  -7.128  1.00  0.00     0.012 C 
ENDBRANCH   6   8
ENDBRANCH   5   6
ENDBRANCH   1   5
TORSDOF 5
ENDMDL
MODEL 3
REMARK VINA RESULT:    -3.963      1.511      3.608
REMARK INTER + INTRA:          -5.661
REMARK INTER:                  -5.302
REMARK INTRA:                  -0.360
REMARK UNBOUND:                -0.540
REMARK SMILES C=CC(=O)CCCCC
REMARK SMILES IDX 6 1 7 2 8 3 9 4 5 5 3 6 4 7 2 8 1 9
REMARK H PARENT
REMARK Flexibility Score: inf
ROOT
ATOM      1  C   UNL     1       2.893 145.516  -8.577  1.00  0.00     0.008 C 
ENDROOT
BRANCH   1   2
ATOM      2  C   UNL     1       2.226 145.231  -7.220  1.00  0.00     0.000 C 
BRANCH   2   3
ATOM      3  C   UNL     1       1.073 146.183  -6.854  1.00  0.00    -0.003 C 
ATOM      4  C   UNL     1       1.528 147.381  -6.022  1.00  0.00     0.004 C 
ENDBRANCH   2   3
ENDBRANCH   1   2
BRANCH   1   5
ATOM      5  C   UNL     1       4.140 146.403  -8.457  1.00  0.00     0.080 C 
BRANCH   5   6
ATOM      6  C   UNL     1       5.122 145.799  -7.497  1.00  0.00     0.155 C 
ATOM      7  O   UNL     1       5.365 146.388  -6.409  1.00  0.00    -0.295 OA
BRANCH   6   8
ATOM      8  C   UNL     1       5.827 144.551  -7.850  1.00  0.00     0.039 C 
ATOM      9  C   UNL     1       5.601 143.400  -7.219  1.00  0.00     0.012 C 
ENDBRANCH   6   8
ENDBRANCH   5   6
ENDBRANCH   1   5
TORSDOF 5
ENDMDL
MODEL 4
REMARK VINA RESULT:    -3.867      1.537      3.614
REMARK INTER + INTRA:          -5.538
REMARK INTER:                  -5.003
REMARK INTRA:                  -0.535
REMARK UNBOUND:                -0.540
REMARK SMILES C=CC(=O)CCCCC
REMARK SMILES IDX 6 1 7 2 8 3 9 4 5 5 3 6 4 7 2 8 1 9
REMARK H PARENT
REMARK Flexibility Score: inf
ROOT
ATOM      1  C   UNL     1       2.807 144.241  -6.966  1.00  0.00     0.008 C 
ENDROOT
BRANCH   1   2
ATOM      2  C   UNL     1       2.272 145.456  -7.744  1.00  0.00     0.000 C 
BRANCH   2   3
ATOM      3  C   UNL     1       1.809 146.632  -6.867  1.00  0.00    -0.003 C 
ATOM      4  C   UNL     1       2.814 146.997  -5.775  1.00  0.00     0.004 C 
ENDBRANCH   2   3
ENDBRANCH   1   2
BRANCH   1   5
ATOM      5  C   UNL     1       4.084 143.651  -7.581  1.00  0.00     0.080 C 
BRANCH   5   6
ATOM      6  C   UNL     1       5.253 144.557  -7.332  1.00  0.00     0.155 C 
ATOM      7  O   UNL     1       5.568 144.848  -6.146  1.00  0.00    -0.295 OA
BRANCH   6   8
ATOM      8  C   UNL     1       5.996 145.134  -8.470  1.00  0.00     0.039 C 
ATOM      9  C   UNL     1       5.662 146.298  -9.024  1.00  0.00     0.012 C 
ENDBRANCH   6   8
ENDBRANCH   5   6
ENDBRANCH   1   5
TORSDOF 5
ENDMDL
MODEL 5
REMARK VINA RESULT:    -3.813      1.054      2.341
REMARK INTER + INTRA:          -5.467
REMARK INTER:                  -4.864
REMARK INTRA:                  -0.603
REMARK UNBOUND:                -0.540
REMARK SMILES C=CC(=O)CCCCC
REMARK SMILES IDX 6 1 7 2 8 3 9 4 5 5 3 6 4 7 2 8 1 9
REMARK H PARENT
REMARK Flexibility Score: inf
ROOT
ATOM      1  C   UNL     1       2.752 144.264  -7.349  1.00  0.00     0.008 C 
ENDROOT
BRANCH   1   2
ATOM      2  C   UNL     1       3.051 143.368  -8.564  1.00  0.00     0.000 C 
BRANCH   2   3
ATOM      3  C   UNL     1       4.545 143.091  -8.810  1.00  0.00    -0.003 C 
ATOM      4  C   UNL     1       5.368 143.061  -7.522  1.00  0.00     0.004 C 
ENDBRANCH   2   3
ENDBRANCH   1   2
BRANCH   1   5
ATOM      5  C   UNL     1       2.786 145.761  -7.687  1.00  0.00     0.080 C 
BRANCH   5   6
ATOM      6  C   UNL     1       3.950 146.424  -7.012  1.00  0.00     0.155 C 
ATOM      7  O   UNL     1       3.877 146.699  -5.783  1.00  0.00    -0.295 OA
BRANCH   6   8
ATOM      8  C   UNL     1       5.147 146.789  -7.794  1.00  0.00     0.039 C 
ATOM      9  C   UNL     1       5.176 146.734  -9.124  1.00  0.00     0.012 C 
ENDBRANCH   6   8
ENDBRANCH   5   6
ENDBRANCH   1   5
TORSDOF 5
ENDMDL
MODEL 6
REMARK VINA RESULT:    -3.750      1.281      1.902
REMARK INTER + INTRA:          -5.387
REMARK INTER:                  -5.070
REMARK INTRA:                  -0.317
REMARK UNBOUND:                -0.540
REMARK SMILES C=CC(=O)CCCCC
REMARK SMILES IDX 6 1 7 2 8 3 9 4 5 5 3 6 4 7 2 8 1 9
REMARK H PARENT
REMARK Flexibility Score: inf
ROOT
ATOM      1  C   UNL     1       3.005 145.249  -8.960  1.00  0.00     0.008 C 
ENDROOT
BRANCH   1   2
ATOM      2  C   UNL     1       3.691 143.871  -8.934  1.00  0.00     0.000 C 
BRANCH   2   3
ATOM      3  C   UNL     1       5.201 143.906  -8.637  1.00  0.00    -0.003 C 
ATOM      4  C   UNL     1       5.572 143.184  -7.342  1.00  0.00     0.004 C 
ENDBRANCH   2   3
ENDBRANCH   1   2
BRANCH   1   5
ATOM      5  C   UNL     1       3.727 146.293  -8.097  1.00  0.00     0.080 C 
BRANCH   5   6
ATOM      6  C   UNL     1       3.138 146.331  -6.718  1.00  0.00     0.155 C 
ATOM      7  O   UNL     1       3.740 145.754  -5.772  1.00  0.00    -0.295 OA
BRANCH   6   8
ATOM      8  C   UNL     1       1.843 147.002  -6.486  1.00  0.00     0.039 C 
ATOM      9  C   UNL     1       0.682 146.353  -6.538  1.00  0.00     0.012 C 
ENDBRANCH   6   8
ENDBRANCH   5   6
ENDBRANCH   1   5
TORSDOF 5
ENDMDL
MODEL 7
REMARK VINA RESULT:    -3.716      1.898      2.197
REMARK INTER + INTRA:          -5.343
REMARK INTER:                  -4.953
REMARK INTRA:                  -0.389
REMARK UNBOUND:                -0.540
REMARK SMILES C=CC(=O)CCCCC
REMARK SMILES IDX 6 1 7 2 8 3 9 4 5 5 3 6 4 7 2 8 1 9
REMARK H PARENT
REMARK Flexibility Score: inf
ROOT
ATOM      1  C   UNL     1       5.146 145.925  -7.629  1.00  0.00     0.008 C 
ENDROOT
BRANCH   1   2
ATOM      2  C   UNL     1       6.026 145.101  -8.585  1.00  0.00     0.000 C 
BRANCH   2   3
ATOM      3  C   UNL     1       5.699 143.597  -8.630  1.00  0.00    -0.003 C 
ATOM      4  C   UNL     1       5.296 143.032  -7.268  1.00  0.00     0.004 C 
ENDBRANCH   2   3
ENDBRANCH   1   2
BRANCH   1   5
ATOM      5  C   UNL     1       3.938 146.563  -8.328  1.00  0.00     0.080 C 
BRANCH   5   6
ATOM      6  C   UNL     1       2.723 145.698  -8.168  1.00  0.00     0.155 C 
ATOM      7  O   UNL     1       2.453 144.840  -9.053  1.00  0.00    -0.295 OA
BRANCH   6   8
ATOM      8  C   UNL     1       1.831 145.883  -7.006  1.00  0.00     0.039 C 
ATOM      9  C   UNL     1       1.715 147.050  -6.374  1.00  0.00     0.012 C 
ENDBRANCH   6   8
ENDBRANCH   5   6
ENDBRANCH   1   5
TORSDOF 5
ENDMDL
MODEL 8
REMARK VINA RESULT:    -3.667      1.761      3.589
REMARK INTER + INTRA:          -5.279
REMARK INTER:                  -4.845
REMARK INTRA:                  -0.434
REMARK UNBOUND:                -0.540
REMARK SMILES C=CC(=O)CCCCC
REMARK SMILES IDX 6 1 7 2 8 3 9 4 5 5 3 6 4 7 2 8 1 9
REMARK H PARENT
REMARK Flexibility Score: inf
ROOT
ATOM      1  C   UNL     1       5.000 146.064  -8.407  1.00  0.00     0.008 C 
ENDROOT
BRANCH   1   2
ATOM      2  C   UNL     1       4.774 146.411  -6.925  1.00  0.00     0.000 C 
BRANCH   2   3
ATOM      3  C   UNL     1       3.426 145.941  -6.349  1.00  0.00    -0.003 C 
ATOM      4  C   UNL     1       2.237 146.744  -6.875  1.00  0.00     0.004 C 
ENDBRANCH   2   3
ENDBRANCH   1   2
BRANCH   1   5
ATOM      5  C   UNL     1       5.957 144.880  -8.605  1.00  0.00     0.080 C 
BRANCH   5   6
ATOM      6  C   UNL     1       5.283 143.593  -8.231  1.00  0.00     0.155 C 
ATOM      7  O   UNL     1       5.625 143.001  -7.171  1.00  0.00    -0.295 OA
BRANCH   6   8
ATOM      8  C   UNL     1       4.263 143.007  -9.122  1.00  0.00     0.039 C 
ATOM      9  C   UNL     1       3.006 142.802  -8.733  1.00  0.00     0.012 C 
ENDBRANCH   6   8
ENDBRANCH   5   6
ENDBRANCH   1   5
TORSDOF 5
ENDMDL
MODEL 9
REMARK VINA RESULT:    -3.632      1.928      4.162
REMARK INTER + INTRA:          -5.234
REMARK INTER:                  -4.828
REMARK INTRA:                  -0.406
REMARK UNBOUND:                -0.540
REMARK SMILES C=CC(=O)CCCCC
REMARK SMILES IDX 6 1 7 2 8 3 9 4 5 5 3 6 4 7 2 8 1 9
REMARK H PARENT
REMARK Flexibility Score: inf
ROOT
ATOM      1  C   UNL     1       2.331 145.221  -8.395  1.00  0.00     0.008 C 
ENDROOT
BRANCH   1   2
ATOM      2  C   UNL     1       3.125 146.352  -7.716  1.00  0.00     0.000 C 
BRANCH   2   3
ATOM      3  C   UNL     1       2.730 146.631  -6.255  1.00  0.00    -0.003 C 
ATOM      4  C   UNL     1       1.323 147.210  -6.116  1.00  0.00     0.004 C 
ENDBRANCH   2   3
ENDBRANCH   1   2
BRANCH   1   5
ATOM      5  C   UNL     1       3.233 144.129  -8.987  1.00  0.00     0.080 C 
BRANCH   5   6
ATOM      6  C   UNL     1       3.765 143.242  -7.901  1.00  0.00     0.155 C 
ATOM      7  O   UNL     1       2.958 142.588  -7.186  1.00  0.00    -0.295 OA
BRANCH   6   8
ATOM      8  C   UNL     1       5.218 143.175  -7.648  1.00  0.00     0.039 C 
ATOM      9  C   UNL     1       5.845 144.037  -6.851  1.00  0.00     0.012 C 
ENDBRANCH   6   8
ENDBRANCH   5   6
ENDBRANCH   1   5
TORSDOF 5
ENDMDL
