MODEL 1
REMARK VINA RESULT:    -6.256      0.000      0.000
REMARK INTER + INTRA:          -9.135
REMARK INTER:                  -8.451
REMARK INTRA:                  -0.684
REMARK UNBOUND:                -0.684
REMARK SMILES CC(=O)CCC=C(C)CCC=C(C)C
REMARK SMILES IDX 7 1 6 2 8 3 9 4 10 5 11 6 13 7 12 8 14 9 5 10 4 11 2 12 3 13
REMARK SMILES IDX 1 14
REMARK H PARENT
REMARK Flexibility Score: inf
ROOT
ATOM      1  C   UNL     1      -8.572  33.094  25.175  1.00  0.00    -0.077 C 
ATOM      2  C   UNL     1      -7.983  33.200  23.962  1.00  0.00    -0.028 C 
ATOM      3  C   UNL     1      -8.602  34.247  26.151  1.00  0.00     0.039 C 
ENDROOT
BRANCH   1   4
ATOM      4  C   UNL     1      -9.196  31.774  25.573  1.00  0.00     0.034 C 
BRANCH   4   5
ATOM      5  C   UNL     1      -8.223  30.615  25.327  1.00  0.00     0.032 C 
BRANCH   5   6
ATOM      6  C   UNL     1      -8.737  29.705  24.240  1.00  0.00    -0.028 C 
ATOM      7  C   UNL     1      -6.738  30.062  22.774  1.00  0.00     0.039 C 
ATOM      8  C   UNL     1      -8.093  29.467  23.076  1.00  0.00    -0.080 C 
ATOM      9  C   UNL     1      -8.750  28.564  22.064  1.00  0.00     0.039 C 
ENDBRANCH   5   6
ENDBRANCH   4   5
ENDBRANCH   1   4
BRANCH   2  10
ATOM     10  C   UNL     1      -7.371  34.468  23.413  1.00  0.00     0.035 C 
BRANCH  10  11
ATOM     11  C   UNL     1      -7.837  34.749  21.978  1.00  0.00     0.079 C 
BRANCH  11  12
ATOM     12  C   UNL     1      -7.972  33.481  21.176  1.00  0.00     0.130 C 
ATOM     13  O   UNL     1      -7.045  33.103  20.476  1.00  0.00    -0.300 OA
ATOM     14  C   UNL     1      -9.247  32.694  21.211  1.00  0.00     0.087 C 
ENDBRANCH  11  12
ENDBRANCH  10  11
ENDBRANCH   2  10
TORSDOF 6
ENDMDL
MODEL 2
REMARK VINA RESULT:    -6.143      1.848      4.625
REMARK INTER + INTRA:          -8.982
REMARK INTER:                  -8.240
REMARK INTRA:                  -0.742
REMARK UNBOUND:                -0.684
REMARK SMILES CC(=O)CCC=C(C)CCC=C(C)C
REMARK SMILES IDX 7 1 6 2 8 3 9 4 10 5 11 6 13 7 12 8 14 9 5 10 4 11 2 12 3 13
REMARK SMILES IDX 1 14
REMARK H PARENT
REMARK Flexibility Score: inf
ROOT
ATOM      1  C   UNL     1      -7.624  34.034  23.121  1.00  0.00    -0.077 C 
ATOM      2  C   UNL     1      -7.525  32.706  23.351  1.00  0.00    -0.028 C 
ATOM      3  C   UNL     1      -7.870  34.588  21.737  1.00  0.00     0.039 C 
ENDROOT
BRANCH   1   4
ATOM      4  C   UNL     1      -7.459  34.994  24.280  1.00  0.00     0.034 C 
BRANCH   4   5
ATOM      5  C   UNL     1      -8.675  34.937  25.212  1.00  0.00     0.032 C 
BRANCH   5   6
ATOM      6  C   UNL     1      -8.310  34.299  26.529  1.00  0.00    -0.028 C 
ATOM      7  C   UNL     1      -9.625  32.218  26.066  1.00  0.00     0.039 C 
ATOM      8  C   UNL     1      -8.750  33.088  26.937  1.00  0.00    -0.080 C 
ATOM      9  C   UNL     1      -8.334  32.595  28.300  1.00  0.00     0.039 C 
ENDBRANCH   5   6
ENDBRANCH   4   5
ENDBRANCH   1   4
BRANCH   2  10
ATOM     10  C   UNL     1      -7.721  31.636  22.304  1.00  0.00     0.035 C 
BRANCH  10  11
ATOM     11  C   UNL     1      -7.124  30.292  22.744  1.00  0.00     0.079 C 
BRANCH  11  12
ATOM     12  C   UNL     1      -8.194  29.264  23.007  1.00  0.00     0.130 C 
ATOM     13  O   UNL     1      -9.009  29.452  23.897  1.00  0.00    -0.300 OA
ATOM     14  C   UNL     1      -8.246  28.001  22.202  1.00  0.00     0.087 C 
ENDBRANCH  11  12
ENDBRANCH  10  11
ENDBRANCH   2  10
TORSDOF 6
ENDMDL
MODEL 3
REMARK VINA RESULT:    -6.032      1.920      3.729
REMARK INTER + INTRA:          -8.833
REMARK INTER:                  -7.794
REMARK INTRA:                  -1.038
REMARK UNBOUND:                -0.684
REMARK SMILES CC(=O)CCC=C(C)CCC=C(C)C
REMARK SMILES IDX 7 1 6 2 8 3 9 4 10 5 11 6 13 7 12 8 14 9 5 10 4 11 2 12 3 13
REMARK SMILES IDX 1 14
REMARK H PARENT
REMARK Flexibility Score: inf
ROOT
ATOM      1  C   UNL     1      -8.457  33.061  21.236  1.00  0.00    -0.077 C 
ATOM      2  C   UNL     1      -8.605  33.901  22.286  1.00  0.00    -0.028 C 
ATOM      3  C   UNL     1      -7.308  33.193  20.264  1.00  0.00     0.039 C 
ENDROOT
BRANCH   1   4
ATOM      4  C   UNL     1      -9.487  31.973  21.017  1.00  0.00     0.034 C 
BRANCH   4   5
ATOM      5  C   UNL     1      -8.999  30.638  21.589  1.00  0.00     0.032 C 
BRANCH   5   6
ATOM      6  C   UNL     1      -9.041  30.654  23.097  1.00  0.00    -0.028 C 
ATOM      7  C   UNL     1      -6.576  30.270  23.327  1.00  0.00     0.039 C 
ATOM      8  C   UNL     1      -7.964  30.465  23.891  1.00  0.00    -0.080 C 
ATOM      9  C   UNL     1      -8.165  30.467  25.385  1.00  0.00     0.039 C 
ENDBRANCH   5   6
ENDBRANCH   4   5
ENDBRANCH   1   4
BRANCH   2  10
ATOM     10  C   UNL     1      -7.629  34.992  22.656  1.00  0.00     0.035 C 
BRANCH  10  11
ATOM     11  C   UNL     1      -7.175  34.878  24.118  1.00  0.00     0.079 C 
BRANCH  11  12
ATOM     12  C   UNL     1      -8.324  35.055  25.075  1.00  0.00     0.130 C 
ATOM     13  O   UNL     1      -9.016  36.060  25.015  1.00  0.00    -0.300 OA
ATOM     14  C   UNL     1      -8.607  34.017  26.119  1.00  0.00     0.087 C 
ENDBRANCH  11  12
ENDBRANCH  10  11
ENDBRANCH   2  10
TORSDOF 6
ENDMDL
MODEL 4
REMARK VINA RESULT:    -5.892      2.294      4.869
REMARK INTER + INTRA:          -8.644
REMARK INTER:                  -7.635
REMARK INTRA:                  -1.009
REMARK UNBOUND:                -0.684
REMARK SMILES CC(=O)CCC=C(C)CCC=C(C)C
REMARK SMILES IDX 7 1 6 2 8 3 9 4 10 5 11 6 13 7 12 8 14 9 5 10 4 11 2 12 3 13
REMARK SMILES IDX 1 14
REMARK H PARENT
REMARK Flexibility Score: inf
ROOT
ATOM      1  C   UNL     1      -8.423  30.658  23.457  1.00  0.00    -0.077 C 
ATOM      2  C   UNL     1      -9.451  30.656  24.336  1.00  0.00    -0.028 C 
ATOM      3  C   UNL     1      -6.984  30.714  23.913  1.00  0.00     0.039 C 
ENDROOT
BRANCH   1   4
ATOM      4  C   UNL     1      -8.726  30.626  21.974  1.00  0.00     0.034 C 
BRANCH   4   5
ATOM      5  C   UNL     1      -9.612  31.812  21.575  1.00  0.00     0.032 C 
BRANCH   5   6
ATOM      6  C   UNL     1      -9.040  33.107  22.095  1.00  0.00    -0.028 C 
ATOM      7  C   UNL     1      -7.412  33.332  20.205  1.00  0.00     0.039 C 
ATOM      8  C   UNL     1      -8.034  33.789  21.504  1.00  0.00    -0.080 C 
ATOM      9  C   UNL     1      -7.538  35.051  22.162  1.00  0.00     0.039 C 
ENDBRANCH   5   6
ENDBRANCH   4   5
ENDBRANCH   1   4
BRANCH   2  10
ATOM     10  C   UNL     1      -9.295  30.631  25.838  1.00  0.00     0.035 C 
BRANCH  10  11
ATOM     11  C   UNL     1      -9.831  31.914  26.488  1.00  0.00     0.079 C 
BRANCH  11  12
ATOM     12  C   UNL     1      -8.742  32.934  26.692  1.00  0.00     0.130 C 
ATOM     13  O   UNL     1      -8.043  32.885  27.692  1.00  0.00    -0.300 OA
ATOM     14  C   UNL     1      -8.529  34.026  25.687  1.00  0.00     0.087 C 
ENDBRANCH  11  12
ENDBRANCH  10  11
ENDBRANCH   2  10
TORSDOF 6
ENDMDL
MODEL 5
REMARK VINA RESULT:    -5.842      2.197      3.951
REMARK INTER + INTRA:          -8.576
REMARK INTER:                  -7.361
REMARK INTRA:                  -1.215
REMARK UNBOUND:                -0.684
REMARK SMILES CC(=O)CCC=C(C)CCC=C(C)C
REMARK SMILES IDX 7 1 6 2 8 3 9 4 10 5 11 6 13 7 12 8 14 9 5 10 4 11 2 12 3 13
REMARK SMILES IDX 1 14
REMARK H PARENT
REMARK Flexibility Score: inf
ROOT
ATOM      1  C   UNL     1      -8.566  33.520  23.665  1.00  0.00    -0.077 C 
ATOM      2  C   UNL     1      -9.120  32.854  24.704  1.00  0.00    -0.028 C 
ATOM      3  C   UNL     1      -7.499  34.569  23.868  1.00  0.00     0.039 C 
ENDROOT
BRANCH   1   4
ATOM      4  C   UNL     1      -9.050  33.222  22.262  1.00  0.00     0.034 C 
BRANCH   4   5
ATOM      5  C   UNL     1      -8.126  32.214  21.570  1.00  0.00     0.032 C 
BRANCH   5   6
ATOM      6  C   UNL     1      -8.633  30.806  21.757  1.00  0.00    -0.028 C 
ATOM      7  C   UNL     1      -6.798  30.185  23.345  1.00  0.00     0.039 C 
ATOM      8  C   UNL     1      -8.033  29.875  22.532  1.00  0.00    -0.080 C 
ATOM      9  C   UNL     1      -8.634  28.495  22.592  1.00  0.00     0.039 C 
ENDBRANCH   5   6
ENDBRANCH   4   5
ENDBRANCH   1   4
BRANCH   2  10
ATOM     10  C   UNL     1      -8.698  33.010  26.146  1.00  0.00     0.035 C 
BRANCH  10  11
ATOM     11  C   UNL     1      -9.303  31.916  27.037  1.00  0.00     0.079 C 
BRANCH  11  12
ATOM     12  C   UNL     1      -8.787  30.549  26.672  1.00  0.00     0.130 C 
ATOM     13  O   UNL     1      -7.613  30.272  26.863  1.00  0.00    -0.300 OA
ATOM     14  C   UNL     1      -9.701  29.536  26.050  1.00  0.00     0.087 C 
ENDBRANCH  11  12
ENDBRANCH  10  11
ENDBRANCH   2  10
TORSDOF 6
ENDMDL
MODEL 6
REMARK VINA RESULT:    -5.821      1.387      4.079
REMARK INTER + INTRA:          -8.547
REMARK INTER:                  -8.115
REMARK INTRA:                  -0.432
REMARK UNBOUND:                -0.684
REMARK SMILES CC(=O)CCC=C(C)CCC=C(C)C
REMARK SMILES IDX 7 1 6 2 8 3 9 4 10 5 11 6 13 7 12 8 14 9 5 10 4 11 2 12 3 13
REMARK SMILES IDX 1 14
REMARK H PARENT
REMARK Flexibility Score: inf
ROOT
ATOM      1  C   UNL     1      -8.210  33.172  25.277  1.00  0.00    -0.077 C 
ATOM      2  C   UNL     1      -8.053  32.063  24.519  1.00  0.00    -0.028 C 
ATOM      3  C   UNL     1      -8.644  33.096  26.722  1.00  0.00     0.039 C 
ENDROOT
BRANCH   1   4
ATOM      4  C   UNL     1      -7.967  34.529  24.651  1.00  0.00     0.034 C 
BRANCH   4   5
ATOM      5  C   UNL     1      -8.784  34.688  23.364  1.00  0.00     0.032 C 
BRANCH   5   6
ATOM      6  C   UNL     1      -7.929  34.426  22.150  1.00  0.00    -0.028 C 
ATOM      7  C   UNL     1      -9.401  32.581  21.313  1.00  0.00     0.039 C 
ATOM      8  C   UNL     1      -8.179  33.466  21.232  1.00  0.00    -0.080 C 
ATOM      9  C   UNL     1      -7.211  33.294  20.090  1.00  0.00     0.039 C 
ENDBRANCH   5   6
ENDBRANCH   4   5
ENDBRANCH   1   4
BRANCH   2  10
ATOM     10  C   UNL     1      -8.208  30.648  25.025  1.00  0.00     0.035 C 
BRANCH  10  11
ATOM     11  C   UNL     1      -8.900  29.747  23.993  1.00  0.00     0.079 C 
BRANCH  11  12
ATOM     12  C   UNL     1      -7.937  29.260  22.942  1.00  0.00     0.130 C 
ATOM     13  O   UNL     1      -6.867  29.829  22.788  1.00  0.00    -0.300 OA
ATOM     14  C   UNL     1      -8.296  28.097  22.066  1.00  0.00     0.087 C 
ENDBRANCH  11  12
ENDBRANCH  10  11
ENDBRANCH   2  10
TORSDOF 6
ENDMDL
MODEL 7
REMARK VINA RESULT:    -5.774      2.133      3.746
REMARK INTER + INTRA:          -8.484
REMARK INTER:                  -7.793
REMARK INTRA:                  -0.691
REMARK UNBOUND:                -0.684
REMARK SMILES CC(=O)CCC=C(C)CCC=C(C)C
REMARK SMILES IDX 7 1 6 2 8 3 9 4 10 5 11 6 13 7 12 8 14 9 5 10 4 11 2 12 3 13
REMARK SMILES IDX 1 14
REMARK H PARENT
REMARK Flexibility Score: inf
ROOT
ATOM      1  C   UNL     1      -7.838  33.962  22.481  1.00  0.00    -0.077 C 
ATOM      2  C   UNL     1      -7.951  33.773  23.815  1.00  0.00    -0.028 C 
ATOM      3  C   UNL     1      -7.490  35.310  21.893  1.00  0.00     0.039 C 
ENDROOT
BRANCH   1   4
ATOM      4  C   UNL     1      -8.090  32.795  21.550  1.00  0.00     0.034 C 
BRANCH   4   5
ATOM      5  C   UNL     1      -9.280  31.960  22.036  1.00  0.00     0.032 C 
BRANCH   5   6
ATOM      6  C   UNL     1      -9.047  30.493  21.774  1.00  0.00    -0.028 C 
ATOM      7  C   UNL     1      -7.854  30.131  23.947  1.00  0.00     0.039 C 
ATOM      8  C   UNL     1      -8.385  29.664  22.613  1.00  0.00    -0.080 C 
ATOM      9  C   UNL     1      -8.194  28.228  22.198  1.00  0.00     0.039 C 
ENDBRANCH   5   6
ENDBRANCH   4   5
ENDBRANCH   1   4
BRANCH   2  10
ATOM     10  C   UNL     1      -7.675  34.830  24.858  1.00  0.00     0.035 C 
BRANCH  10  11
ATOM     11  C   UNL     1      -8.671  34.752  26.024  1.00  0.00     0.079 C 
BRANCH  11  12
ATOM     12  C   UNL     1      -8.709  33.375  26.635  1.00  0.00     0.130 C 
ATOM     13  O   UNL     1      -7.887  33.065  27.484  1.00  0.00    -0.300 OA
ATOM     14  C   UNL     1      -9.733  32.376  26.188  1.00  0.00     0.087 C 
ENDBRANCH  11  12
ENDBRANCH  10  11
ENDBRANCH   2  10
TORSDOF 6
ENDMDL
MODEL 8
REMARK VINA RESULT:    -5.740      1.878      5.133
REMARK INTER + INTRA:          -8.437
REMARK INTER:                  -7.863
REMARK INTRA:                  -0.575
REMARK UNBOUND:                -0.684
REMARK SMILES CC(=O)CCC=C(C)CCC=C(C)C
REMARK SMILES IDX 7 1 6 2 8 3 9 4 10 5 11 6 13 7 12 8 14 9 5 10 4 11 2 12 3 13
REMARK SMILES IDX 1 14
REMARK H PARENT
REMARK Flexibility Score: inf
ROOT
ATOM      1  C   UNL     1      -8.311  32.616  21.745  1.00  0.00    -0.077 C 
ATOM      2  C   UNL     1      -7.496  31.646  22.218  1.00  0.00    -0.028 C 
ATOM      3  C   UNL     1      -9.794  32.391  21.558  1.00  0.00     0.039 C 
ENDROOT
BRANCH   1   4
ATOM      4  C   UNL     1      -7.716  33.955  21.367  1.00  0.00     0.034 C 
BRANCH   4   5
ATOM      5  C   UNL     1      -7.742  34.918  22.559  1.00  0.00     0.032 C 
BRANCH   5   6
ATOM      6  C   UNL     1      -7.785  34.158  23.861  1.00  0.00    -0.028 C 
ATOM      7  C   UNL     1      -9.030  35.969  25.061  1.00  0.00     0.039 C 
ATOM      8  C   UNL     1      -8.339  34.628  25.001  1.00  0.00    -0.080 C 
ATOM      9  C   UNL     1      -8.272  33.770  26.238  1.00  0.00     0.039 C 
ENDBRANCH   5   6
ENDBRANCH   4   5
ENDBRANCH   1   4
BRANCH   2  10
ATOM     10  C   UNL     1      -7.960  30.286  22.683  1.00  0.00     0.035 C 
BRANCH  10  11
ATOM     11  C   UNL     1      -7.983  30.186  24.215  1.00  0.00     0.079 C 
BRANCH  11  12
ATOM     12  C   UNL     1      -9.390  30.167  24.753  1.00  0.00     0.130 C 
ATOM     13  O   UNL     1     -10.049  31.196  24.765  1.00  0.00    -0.300 OA
ATOM     14  C   UNL     1      -9.977  28.900  25.298  1.00  0.00     0.087 C 
ENDBRANCH  11  12
ENDBRANCH  10  11
ENDBRANCH   2  10
TORSDOF 6
ENDMDL
MODEL 9
REMARK VINA RESULT:    -5.516      1.494      4.479
REMARK INTER + INTRA:          -8.135
REMARK INTER:                  -7.179
REMARK INTRA:                  -0.956
REMARK UNBOUND:                -0.684
REMARK SMILES CC(=O)CCC=C(C)CCC=C(C)C
REMARK SMILES IDX 7 1 6 2 8 3 9 4 10 5 11 6 13 7 12 8 14 9 5 10 4 11 2 12 3 13
REMARK SMILES IDX 1 14
REMARK H PARENT
REMARK Flexibility Score: inf
ROOT
ATOM      1  C   UNL     1      -9.191  30.719  26.044  1.00  0.00    -0.077 C 
ATOM      2  C   UNL     1      -9.773  30.066  25.014  1.00  0.00    -0.028 C 
ATOM      3  C   UNL     1      -7.999  30.150  26.778  1.00  0.00     0.039 C 
ENDROOT
BRANCH   1   4
ATOM      4  C   UNL     1      -9.766  32.047  26.490  1.00  0.00     0.034 C 
BRANCH   4   5
ATOM      5  C   UNL     1      -8.705  33.151  26.422  1.00  0.00     0.032 C 
BRANCH   5   6
ATOM      6  C   UNL     1      -8.242  33.362  25.002  1.00  0.00    -0.028 C 
ATOM      7  C   UNL     1      -8.909  35.776  24.975  1.00  0.00     0.039 C 
ATOM      8  C   UNL     1      -8.350  34.529  24.330  1.00  0.00    -0.080 C 
ATOM      9  C   UNL     1      -7.880  34.580  22.899  1.00  0.00     0.039 C 
ENDBRANCH   5   6
ENDBRANCH   4   5
ENDBRANCH   1   4
BRANCH   2  10
ATOM     10  C   UNL     1      -9.274  28.765  24.430  1.00  0.00     0.035 C 
BRANCH  10  11
ATOM     11  C   UNL     1      -8.950  28.899  22.936  1.00  0.00     0.079 C 
BRANCH  11  12
ATOM     12  C   UNL     1      -8.142  30.138  22.648  1.00  0.00     0.130 C 
ATOM     13  O   UNL     1      -8.630  31.041  21.986  1.00  0.00    -0.300 OA
ATOM     14  C   UNL     1      -6.733  30.256  23.147  1.00  0.00     0.087 C 
ENDBRANCH  11  12
ENDBRANCH  10  11
ENDBRANCH   2  10
TORSDOF 6
ENDMDL
