MODEL 1
REMARK VINA RESULT:    -4.265      0.000      0.000
REMARK INTER + INTRA:          -4.875
REMARK INTER:                  -4.639
REMARK INTRA:                  -0.236
REMARK UNBOUND:                -0.236
REMARK SMILES O=C([O-])c1ccccc1O
REMARK SMILES IDX 4 1 9 2 5 3 8 4 6 5 7 6 2 7 1 8 3 9 10 10
REMARK H PARENT 10 11
REMARK Flexibility Score: inf
ROOT
ATOM      1  C   UNL     1      -0.683 -14.313  -6.144  1.00  0.00     0.039 A 
ATOM      2  C   UNL     1      -1.420 -14.660  -7.308  1.00  0.00     0.124 A 
ATOM      3  C   UNL     1       0.487 -15.034  -5.840  1.00  0.00     0.014 A 
ATOM      4  C   UNL     1      -1.006 -15.747  -8.089  1.00  0.00     0.047 A 
ATOM      5  C   UNL     1       0.896 -16.100  -6.642  1.00  0.00     0.001 A 
ATOM      6  C   UNL     1       0.146 -16.463  -7.760  1.00  0.00     0.004 A 
ENDROOT
BRANCH   1   7
ATOM      7  C   UNL     1      -1.109 -13.242  -5.215  1.00  0.00     0.075 C 
ATOM      8  O   UNL     1      -2.288 -13.199  -4.777  1.00  0.00    -0.545 OA
ATOM      9  O   UNL     1      -0.185 -12.307  -4.762  1.00  0.00    -0.545 OA
ENDBRANCH   1   7
BRANCH   2  10
ATOM     10  O   UNL     1      -2.536 -13.941  -7.737  1.00  0.00    -0.507 OA
ATOM     11  H   UNL     1      -2.890 -13.971  -8.683  1.00  0.00     0.293 HD
ENDBRANCH   2  10
TORSDOF 2
ENDMDL
MODEL 2
REMARK VINA RESULT:    -4.097      1.996      3.842
REMARK INTER + INTRA:          -4.692
REMARK INTER:                  -4.477
REMARK INTRA:                  -0.215
REMARK UNBOUND:                -0.236
REMARK SMILES O=C([O-])c1ccccc1O
REMARK SMILES IDX 4 1 9 2 5 3 8 4 6 5 7 6 2 7 1 8 3 9 10 10
REMARK H PARENT 10 11
REMARK Flexibility Score: inf
ROOT
ATOM      1  C   UNL     1      -1.572 -16.374  -8.064  1.00  0.00     0.039 A 
ATOM      2  C   UNL     1      -1.609 -15.007  -7.682  1.00  0.00     0.124 A 
ATOM      3  C   UNL     1      -0.466 -17.156  -7.685  1.00  0.00     0.014 A 
ATOM      4  C   UNL     1      -0.522 -14.452  -6.993  1.00  0.00     0.047 A 
ATOM      5  C   UNL     1       0.599 -16.592  -6.981  1.00  0.00     0.001 A 
ATOM      6  C   UNL     1       0.576 -15.240  -6.643  1.00  0.00     0.004 A 
ENDROOT
BRANCH   1   7
ATOM      7  C   UNL     1      -2.635 -17.007  -8.877  1.00  0.00     0.075 C 
ATOM      8  O   UNL     1      -3.743 -16.435  -9.052  1.00  0.00    -0.545 OA
ATOM      9  O   UNL     1      -2.393 -18.218  -9.515  1.00  0.00    -0.545 OA
ENDBRANCH   1   7
BRANCH   2  10
ATOM     10  O   UNL     1      -2.707 -14.182  -7.932  1.00  0.00    -0.507 OA
ATOM     11  H   UNL     1      -2.972 -13.869  -8.856  1.00  0.00     0.293 HD
ENDBRANCH   2  10
TORSDOF 2
ENDMDL
MODEL 3
REMARK VINA RESULT:    -4.089      2.414      4.228
REMARK INTER + INTRA:          -4.684
REMARK INTER:                  -4.491
REMARK INTRA:                  -0.193
REMARK UNBOUND:                -0.236
REMARK SMILES O=C([O-])c1ccccc1O
REMARK SMILES IDX 4 1 9 2 5 3 8 4 6 5 7 6 2 7 1 8 3 9 10 10
REMARK H PARENT 10 11
REMARK Flexibility Score: inf
ROOT
ATOM      1  C   UNL     1      -2.567 -16.636  -8.603  1.00  0.00     0.039 A 
ATOM      2  C   UNL     1      -1.968 -15.434  -8.141  1.00  0.00     0.124 A 
ATOM      3  C   UNL     1      -1.751 -17.762  -8.819  1.00  0.00     0.014 A 
ATOM      4  C   UNL     1      -0.579 -15.375  -7.970  1.00  0.00     0.047 A 
ATOM      5  C   UNL     1      -0.371 -17.691  -8.623  1.00  0.00     0.001 A 
ATOM      6  C   UNL     1       0.216 -16.497  -8.208  1.00  0.00     0.004 A 
ENDROOT
BRANCH   1   7
ATOM      7  C   UNL     1      -4.012 -16.748  -8.901  1.00  0.00     0.075 C 
ATOM      8  O   UNL     1      -4.871 -16.657  -7.985  1.00  0.00    -0.545 OA
ATOM      9  O   UNL     1      -4.442 -16.888 -10.217  1.00  0.00    -0.545 OA
ENDBRANCH   1   7
BRANCH   2  10
ATOM     10  O   UNL     1      -2.711 -14.299  -7.811  1.00  0.00    -0.507 OA
ATOM     11  H   UNL     1      -2.925 -13.561  -8.468  1.00  0.00     0.293 HD
ENDBRANCH   2  10
TORSDOF 2
ENDMDL
MODEL 4
REMARK VINA RESULT:    -3.979     18.764     19.457
REMARK INTER + INTRA:          -4.564
REMARK INTER:                  -4.315
REMARK INTRA:                  -0.249
REMARK UNBOUND:                -0.236
REMARK SMILES O=C([O-])c1ccccc1O
REMARK SMILES IDX 4 1 9 2 5 3 8 4 6 5 7 6 2 7 1 8 3 9 10 10
REMARK H PARENT 10 11
REMARK Flexibility Score: inf
ROOT
ATOM      1  C   UNL     1      13.080 -11.698 -19.301  1.00  0.00     0.039 A 
ATOM      2  C   UNL     1      13.265 -10.293 -19.208  1.00  0.00     0.124 A 
ATOM      3  C   UNL     1      13.541 -12.515 -18.253  1.00  0.00     0.014 A 
ATOM      4  C   UNL     1      13.955  -9.758 -18.113  1.00  0.00     0.047 A 
ATOM      5  C   UNL     1      14.208 -11.963 -17.158  1.00  0.00     0.001 A 
ATOM      6  C   UNL     1      14.423 -10.587 -17.092  1.00  0.00     0.004 A 
ENDROOT
BRANCH   1   7
ATOM      7  C   UNL     1      12.448 -12.347 -20.472  1.00  0.00     0.075 C 
ATOM      8  O   UNL     1      12.613 -11.888 -21.633  1.00  0.00    -0.545 OA
ATOM      9  O   UNL     1      11.719 -13.519 -20.308  1.00  0.00    -0.545 OA
ENDBRANCH   1   7
BRANCH   2  10
ATOM     10  O   UNL     1      12.757  -9.400 -20.153  1.00  0.00    -0.507 OA
ATOM     11  H   UNL     1      13.155  -8.488 -20.330  1.00  0.00     0.293 HD
ENDBRANCH   2  10
TORSDOF 2
ENDMDL
MODEL 5
REMARK VINA RESULT:    -3.958      3.004      4.228
REMARK INTER + INTRA:          -4.541
REMARK INTER:                  -4.295
REMARK INTRA:                  -0.246
REMARK UNBOUND:                -0.236
REMARK SMILES O=C([O-])c1ccccc1O
REMARK SMILES IDX 4 1 9 2 5 3 8 4 6 5 7 6 2 7 1 8 3 9 10 10
REMARK H PARENT 10 11
REMARK Flexibility Score: inf
ROOT
ATOM      1  C   UNL     1      -1.728 -15.954  -8.028  1.00  0.00     0.039 A 
ATOM      2  C   UNL     1      -0.345 -15.705  -8.232  1.00  0.00     0.124 A 
ATOM      3  C   UNL     1      -2.382 -15.315  -6.959  1.00  0.00     0.014 A 
ATOM      4  C   UNL     1       0.350 -14.885  -7.335  1.00  0.00     0.047 A 
ATOM      5  C   UNL     1      -1.679 -14.483  -6.087  1.00  0.00     0.001 A 
ATOM      6  C   UNL     1      -0.313 -14.275  -6.268  1.00  0.00     0.004 A 
ENDROOT
BRANCH   1   7
ATOM      7  C   UNL     1      -2.508 -16.885  -8.874  1.00  0.00     0.075 C 
ATOM      8  O   UNL     1      -2.046 -18.011  -9.193  1.00  0.00    -0.545 OA
ATOM      9  O   UNL     1      -3.799 -16.549  -9.269  1.00  0.00    -0.545 OA
ENDBRANCH   1   7
BRANCH   2  10
ATOM     10  O   UNL     1       0.362 -16.220  -9.320  1.00  0.00    -0.507 OA
ATOM     11  H   UNL     1      -0.081 -16.644 -10.124  1.00  0.00     0.293 HD
ENDBRANCH   2  10
TORSDOF 2
ENDMDL
MODEL 6
REMARK VINA RESULT:    -3.904     18.681     19.381
REMARK INTER + INTRA:          -4.482
REMARK INTER:                  -4.238
REMARK INTRA:                  -0.245
REMARK UNBOUND:                -0.236
REMARK SMILES O=C([O-])c1ccccc1O
REMARK SMILES IDX 4 1 9 2 5 3 8 4 6 5 7 6 2 7 1 8 3 9 10 10
REMARK H PARENT 10 11
REMARK Flexibility Score: inf
ROOT
ATOM      1  C   UNL     1      13.266 -12.125 -19.176  1.00  0.00     0.039 A 
ATOM      2  C   UNL     1      13.785 -12.445 -17.893  1.00  0.00     0.124 A 
ATOM      3  C   UNL     1      13.294 -10.785 -19.605  1.00  0.00     0.014 A 
ATOM      4  C   UNL     1      14.255 -11.421 -17.062  1.00  0.00     0.047 A 
ATOM      5  C   UNL     1      13.786  -9.779 -18.772  1.00  0.00     0.001 A 
ATOM      6  C   UNL     1      14.257 -10.094 -17.498  1.00  0.00     0.004 A 
ENDROOT
BRANCH   1   7
ATOM      7  C   UNL     1      12.662 -13.136 -20.072  1.00  0.00     0.075 C 
ATOM      8  O   UNL     1      11.750 -12.822 -20.881  1.00  0.00    -0.545 OA
ATOM      9  O   UNL     1      13.149 -14.439 -20.077  1.00  0.00    -0.545 OA
ENDBRANCH   1   7
BRANCH   2  10
ATOM     10  O   UNL     1      13.884 -13.757 -17.425  1.00  0.00    -0.507 OA
ATOM     11  H   UNL     1      14.758 -14.193 -17.167  1.00  0.00     0.293 HD
ENDBRANCH   2  10
TORSDOF 2
ENDMDL
MODEL 7
REMARK VINA RESULT:    -3.891      2.621      4.062
REMARK INTER + INTRA:          -4.468
REMARK INTER:                  -4.249
REMARK INTRA:                  -0.219
REMARK UNBOUND:                -0.236
REMARK SMILES O=C([O-])c1ccccc1O
REMARK SMILES IDX 4 1 9 2 5 3 8 4 6 5 7 6 2 7 1 8 3 9 10 10
REMARK H PARENT 10 11
REMARK Flexibility Score: inf
ROOT
ATOM      1  C   UNL     1      -0.489 -16.406  -7.705  1.00  0.00     0.039 A 
ATOM      2  C   UNL     1      -1.602 -15.565  -7.976  1.00  0.00     0.124 A 
ATOM      3  C   UNL     1       0.423 -16.024  -6.704  1.00  0.00     0.014 A 
ATOM      4  C   UNL     1      -1.733 -14.351  -7.290  1.00  0.00     0.047 A 
ATOM      5  C   UNL     1       0.264 -14.821  -6.015  1.00  0.00     0.001 A 
ATOM      6  C   UNL     1      -0.807 -13.980  -6.313  1.00  0.00     0.004 A 
ENDROOT
BRANCH   1   7
ATOM      7  C   UNL     1      -0.228 -17.655  -8.454  1.00  0.00     0.075 C 
ATOM      8  O   UNL     1       0.893 -18.225  -8.390  1.00  0.00    -0.545 OA
ATOM      9  O   UNL     1      -1.247 -18.252  -9.188  1.00  0.00    -0.545 OA
ENDBRANCH   1   7
BRANCH   2  10
ATOM     10  O   UNL     1      -2.605 -15.909  -8.883  1.00  0.00    -0.507 OA
ATOM     11  H   UNL     1      -3.464 -15.387  -8.991  1.00  0.00     0.293 HD
ENDBRANCH   2  10
TORSDOF 2
ENDMDL
MODEL 8
REMARK VINA RESULT:    -3.834      2.243      3.335
REMARK INTER + INTRA:          -4.406
REMARK INTER:                  -4.196
REMARK INTRA:                  -0.210
REMARK UNBOUND:                -0.236
REMARK SMILES O=C([O-])c1ccccc1O
REMARK SMILES IDX 4 1 9 2 5 3 8 4 6 5 7 6 2 7 1 8 3 9 10 10
REMARK H PARENT 10 11
REMARK Flexibility Score: inf
ROOT
ATOM      1  C   UNL     1      -1.080 -16.557  -8.200  1.00  0.00     0.039 A 
ATOM      2  C   UNL     1      -2.088 -17.279  -8.895  1.00  0.00     0.124 A 
ATOM      3  C   UNL     1       0.095 -17.228  -7.817  1.00  0.00     0.014 A 
ATOM      4  C   UNL     1      -1.919 -18.650  -9.126  1.00  0.00     0.047 A 
ATOM      5  C   UNL     1       0.255 -18.590  -8.076  1.00  0.00     0.001 A 
ATOM      6  C   UNL     1      -0.754 -19.303  -8.721  1.00  0.00     0.004 A 
ENDROOT
BRANCH   1   7
ATOM      7  C   UNL     1      -1.227 -15.131  -7.832  1.00  0.00     0.075 C 
ATOM      8  O   UNL     1      -0.245 -14.469  -7.403  1.00  0.00    -0.545 OA
ATOM      9  O   UNL     1      -2.444 -14.485  -8.022  1.00  0.00    -0.545 OA
ENDBRANCH   1   7
BRANCH   2  10
ATOM     10  O   UNL     1      -3.241 -16.673  -9.395  1.00  0.00    -0.507 OA
ATOM     11  H   UNL     1      -4.089 -17.180  -9.613  1.00  0.00     0.293 HD
ENDBRANCH   2  10
TORSDOF 2
ENDMDL
MODEL 9
REMARK VINA RESULT:    -3.829      2.021      2.685
REMARK INTER + INTRA:          -4.401
REMARK INTER:                  -4.189
REMARK INTRA:                  -0.212
REMARK UNBOUND:                -0.236
REMARK SMILES O=C([O-])c1ccccc1O
REMARK SMILES IDX 4 1 9 2 5 3 8 4 6 5 7 6 2 7 1 8 3 9 10 10
REMARK H PARENT 10 11
REMARK Flexibility Score: inf
ROOT
ATOM      1  C   UNL     1      -0.848 -15.932  -7.661  1.00  0.00     0.039 A 
ATOM      2  C   UNL     1      -2.189 -15.648  -8.034  1.00  0.00     0.124 A 
ATOM      3  C   UNL     1      -0.276 -17.153  -8.063  1.00  0.00     0.014 A 
ATOM      4  C   UNL     1      -2.930 -16.608  -8.734  1.00  0.00     0.047 A 
ATOM      5  C   UNL     1      -1.022 -18.090  -8.779  1.00  0.00     0.001 A 
ATOM      6  C   UNL     1      -2.351 -17.823  -9.106  1.00  0.00     0.004 A 
ENDROOT
BRANCH   1   7
ATOM      7  C   UNL     1      -0.032 -15.011  -6.838  1.00  0.00     0.075 C 
ATOM      8  O   UNL     1      -0.493 -13.904  -6.458  1.00  0.00    -0.545 OA
ATOM      9  O   UNL     1       1.236 -15.395  -6.416  1.00  0.00    -0.545 OA
ENDBRANCH   1   7
BRANCH   2  10
ATOM     10  O   UNL     1      -2.805 -14.425  -7.761  1.00  0.00    -0.507 OA
ATOM     11  H   UNL     1      -3.433 -14.277  -6.983  1.00  0.00     0.293 HD
ENDBRANCH   2  10
TORSDOF 2
ENDMDL
