MODEL 1
REMARK VINA RESULT:    -6.652      0.000      0.000
REMARK INTER + INTRA:          -8.269
REMARK INTER:                  -8.013
REMARK INTRA:                  -0.255
REMARK UNBOUND:                -0.255
REMARK SMILES O=c1c(O)c(-c2ccc(O)c(O)c2)oc2cc(O)cc(O)c12
REMARK SMILES IDX 5 1 3 2 2 3 1 4 22 5 20 6 19 7 17 8 16 9 15 10 14 11 6 12
REMARK SMILES IDX 7 13 8 14 9 15 13 16 11 17 10 18 12 20 4 22 21 24 18 26
REMARK H PARENT 10 19 12 21 4 23 21 25 18 27
REMARK Flexibility Score: inf
ROOT
ATOM      1  C   UNL     1      18.667  -1.289 -17.154  1.00  0.00     0.180 A 
ATOM      2  C   UNL     1      18.063  -0.523 -16.142  1.00  0.00     0.208 A 
ATOM      3  C   UNL     1      17.377  -1.182 -15.108  1.00  0.00     0.238 A 
ATOM      4  O   UNL     1      16.793  -0.490 -14.234  1.00  0.00    -0.285 OA
ATOM      5  C   UNL     1      17.317  -2.596 -15.092  1.00  0.00     0.111 A 
ATOM      6  C   UNL     1      16.684  -3.368 -14.072  1.00  0.00     0.134 A 
ATOM      7  C   UNL     1      16.572  -4.756 -14.225  1.00  0.00     0.093 A 
ATOM      8  C   UNL     1      17.129  -5.405 -15.330  1.00  0.00     0.123 A 
ATOM      9  C   UNL     1      17.801  -4.667 -16.301  1.00  0.00     0.094 A 
ATOM     10  C   UNL     1      17.897  -3.277 -16.194  1.00  0.00     0.146 A 
ATOM     11  O   UNL     1      18.537  -2.611 -17.147  1.00  0.00    -0.452 OA
ENDROOT
BRANCH   1  12
ATOM     12  C   UNL     1      19.429  -0.669 -18.262  1.00  0.00     0.025 A 
ATOM     13  C   UNL     1      18.910  -0.711 -19.566  1.00  0.00     0.016 A 
ATOM     14  C   UNL     1      19.622  -0.151 -20.630  1.00  0.00     0.051 A 
ATOM     15  C   UNL     1      20.867   0.447 -20.410  1.00  0.00     0.157 A 
ATOM     16  C   UNL     1      20.691  -0.085 -18.047  1.00  0.00     0.062 A 
ATOM     17  C   UNL     1      21.407   0.476 -19.115  1.00  0.00     0.158 A 
BRANCH  15  18
ATOM     18  O   UNL     1      21.553   1.000 -21.491  1.00  0.00    -0.504 OA
ATOM     19  H   UNL     1      21.369   1.940 -21.821  1.00  0.00     0.293 HD
ENDBRANCH  15  18
BRANCH  17  20
ATOM     20  O   UNL     1      22.655   1.058 -18.891  1.00  0.00    -0.504 OA
ATOM     21  H   UNL     1      23.361   1.093 -19.616  1.00  0.00     0.293 HD
ENDBRANCH  17  20
ENDBRANCH   1  12
BRANCH   2  22
ATOM     22  O   UNL     1      18.117   0.872 -16.189  1.00  0.00    -0.502 OA
ATOM     23  H   UNL     1      18.689   1.373 -16.856  1.00  0.00     0.293 HD
ENDBRANCH   2  22
BRANCH   6  24
ATOM     24  O   UNL     1      16.177  -2.829 -12.886  1.00  0.00    -0.507 OA
ATOM     25  H   UNL     1      15.928  -1.860 -12.755  1.00  0.00     0.293 HD
ENDBRANCH   6  24
BRANCH   8  26
ATOM     26  O   UNL     1      17.026  -6.788 -15.467  1.00  0.00    -0.508 OA
ATOM     27  H   UNL     1      17.544  -7.421 -14.868  1.00  0.00     0.293 HD
ENDBRANCH   8  26
TORSDOF 6
ENDMDL
MODEL 2
REMARK VINA RESULT:    -6.339      1.266      2.882
REMARK INTER + INTRA:          -7.891
REMARK INTER:                  -7.680
REMARK INTRA:                  -0.211
REMARK UNBOUND:                -0.255
REMARK SMILES O=c1c(O)c(-c2ccc(O)c(O)c2)oc2cc(O)cc(O)c12
REMARK SMILES IDX 5 1 3 2 2 3 1 4 22 5 20 6 19 7 17 8 16 9 15 10 14 11 6 12
REMARK SMILES IDX 7 13 8 14 9 15 13 16 11 17 10 18 12 20 4 22 21 24 18 26
REMARK H PARENT 10 19 12 21 4 23 21 25 18 27
REMARK Flexibility Score: inf
ROOT
ATOM      1  C   UNL     1      18.514  -2.285 -17.302  1.00  0.00     0.180 A 
ATOM      2  C   UNL     1      18.441  -3.663 -17.567  1.00  0.00     0.208 A 
ATOM      3  C   UNL     1      17.763  -4.495 -16.661  1.00  0.00     0.238 A 
ATOM      4  O   UNL     1      17.747  -5.735 -16.875  1.00  0.00    -0.285 OA
ATOM      5  C   UNL     1      17.155  -3.937 -15.511  1.00  0.00     0.111 A 
ATOM      6  C   UNL     1      16.409  -4.679 -14.548  1.00  0.00     0.134 A 
ATOM      7  C   UNL     1      15.962  -4.046 -13.381  1.00  0.00     0.093 A 
ATOM      8  C   UNL     1      16.180  -2.681 -13.176  1.00  0.00     0.123 A 
ATOM      9  C   UNL     1      16.855  -1.934 -14.138  1.00  0.00     0.094 A 
ATOM     10  C   UNL     1      17.344  -2.546 -15.295  1.00  0.00     0.146 A 
ATOM     11  O   UNL     1      17.991  -1.800 -16.182  1.00  0.00    -0.452 OA
ENDROOT
BRANCH   1  12
ATOM     12  C   UNL     1      19.189  -1.340 -18.222  1.00  0.00     0.025 A 
ATOM     13  C   UNL     1      18.625  -1.079 -19.481  1.00  0.00     0.016 A 
ATOM     14  C   UNL     1      19.256  -0.207 -20.372  1.00  0.00     0.051 A 
ATOM     15  C   UNL     1      20.465   0.404 -20.026  1.00  0.00     0.157 A 
ATOM     16  C   UNL     1      20.416  -0.740 -17.885  1.00  0.00     0.062 A 
ATOM     17  C   UNL     1      21.051   0.133 -18.779  1.00  0.00     0.158 A 
BRANCH  15  18
ATOM     18  O   UNL     1      21.070   1.271 -20.936  1.00  0.00    -0.504 OA
ATOM     19  H   UNL     1      21.924   1.028 -21.424  1.00  0.00     0.293 HD
ENDBRANCH  15  18
BRANCH  17  20
ATOM     20  O   UNL     1      22.265   0.728 -18.434  1.00  0.00    -0.504 OA
ATOM     21  H   UNL     1      22.338   1.724 -18.261  1.00  0.00     0.293 HD
ENDBRANCH  17  20
ENDBRANCH   1  12
BRANCH   2  22
ATOM     22  O   UNL     1      19.066  -4.196 -18.697  1.00  0.00    -0.502 OA
ATOM     23  H   UNL     1      19.243  -3.649 -19.530  1.00  0.00     0.293 HD
ENDBRANCH   2  22
BRANCH   6  24
ATOM     24  O   UNL     1      16.058  -6.024 -14.700  1.00  0.00    -0.507 OA
ATOM     25  H   UNL     1      15.622  -6.589 -13.987  1.00  0.00     0.293 HD
ENDBRANCH   6  24
BRANCH   8  26
ATOM     26  O   UNL     1      15.719  -2.055 -12.019  1.00  0.00    -0.508 OA
ATOM     27  H   UNL     1      15.194  -1.188 -12.058  1.00  0.00     0.293 HD
ENDBRANCH   8  26
TORSDOF 6
ENDMDL
MODEL 3
REMARK VINA RESULT:    -6.115      7.748     11.294
REMARK INTER + INTRA:          -7.622
REMARK INTER:                  -7.299
REMARK INTRA:                  -0.323
REMARK UNBOUND:                -0.255
REMARK SMILES O=c1c(O)c(-c2ccc(O)c(O)c2)oc2cc(O)cc(O)c12
REMARK SMILES IDX 5 1 3 2 2 3 1 4 22 5 20 6 19 7 17 8 16 9 15 10 14 11 6 12
REMARK SMILES IDX 7 13 8 14 9 15 13 16 11 17 10 18 12 20 4 22 21 24 18 26
REMARK H PARENT 10 19 12 21 4 23 21 25 18 27
REMARK Flexibility Score: inf
ROOT
ATOM      1  C   UNL     1      11.145  -6.391 -10.895  1.00  0.00     0.180 A 
ATOM      2  C   UNL     1      10.888  -6.597  -9.529  1.00  0.00     0.208 A 
ATOM      3  C   UNL     1       9.742  -7.317  -9.153  1.00  0.00     0.238 A 
ATOM      4  O   UNL     1       9.488  -7.452  -7.928  1.00  0.00    -0.285 OA
ATOM      5  C   UNL     1       8.878  -7.835 -10.147  1.00  0.00     0.111 A 
ATOM      6  C   UNL     1       7.712  -8.613  -9.881  1.00  0.00     0.134 A 
ATOM      7  C   UNL     1       6.859  -8.963 -10.936  1.00  0.00     0.093 A 
ATOM      8  C   UNL     1       7.166  -8.617 -12.255  1.00  0.00     0.123 A 
ATOM      9  C   UNL     1       8.333  -7.910 -12.531  1.00  0.00     0.094 A 
ATOM     10  C   UNL     1       9.185  -7.515 -11.496  1.00  0.00     0.146 A 
ATOM     11  O   UNL     1      10.281  -6.832 -11.802  1.00  0.00    -0.452 OA
ENDROOT
BRANCH   1  12
ATOM     12  C   UNL     1      12.344  -5.664 -11.370  1.00  0.00     0.025 A 
ATOM     13  C   UNL     1      13.546  -6.364 -11.564  1.00  0.00     0.016 A 
ATOM     14  C   UNL     1      14.694  -5.694 -11.992  1.00  0.00     0.051 A 
ATOM     15  C   UNL     1      14.665  -4.314 -12.219  1.00  0.00     0.157 A 
ATOM     16  C   UNL     1      12.322  -4.273 -11.579  1.00  0.00     0.062 A 
ATOM     17  C   UNL     1      13.475  -3.599 -12.007  1.00  0.00     0.158 A 
BRANCH  15  18
ATOM     18  O   UNL     1      15.827  -3.673 -12.647  1.00  0.00    -0.504 OA
ATOM     19  H   UNL     1      15.891  -3.225 -13.554  1.00  0.00     0.293 HD
ENDBRANCH  15  18
BRANCH  17  20
ATOM     20  O   UNL     1      13.443  -2.220 -12.218  1.00  0.00    -0.504 OA
ATOM     21  H   UNL     1      12.661  -1.772 -12.679  1.00  0.00     0.293 HD
ENDBRANCH  17  20
ENDBRANCH   1  12
BRANCH   2  22
ATOM     22  O   UNL     1      11.743  -6.059  -8.563  1.00  0.00    -0.502 OA
ATOM     23  H   UNL     1      11.778  -5.068  -8.359  1.00  0.00     0.293 HD
ENDBRANCH   2  22
BRANCH   6  24
ATOM     24  O   UNL     1       7.363  -9.089  -8.614  1.00  0.00    -0.507 OA
ATOM     25  H   UNL     1       7.179 -10.056  -8.393  1.00  0.00     0.293 HD
ENDBRANCH   6  24
BRANCH   8  26
ATOM     26  O   UNL     1       6.320  -8.983 -13.300  1.00  0.00    -0.508 OA
ATOM     27  H   UNL     1       5.403  -9.379 -13.127  1.00  0.00     0.293 HD
ENDBRANCH   8  26
TORSDOF 6
ENDMDL
MODEL 4
REMARK VINA RESULT:    -5.896     10.864     12.088
REMARK INTER + INTRA:          -7.358
REMARK INTER:                  -7.048
REMARK INTRA:                  -0.310
REMARK UNBOUND:                -0.255
REMARK SMILES O=c1c(O)c(-c2ccc(O)c(O)c2)oc2cc(O)cc(O)c12
REMARK SMILES IDX 5 1 3 2 2 3 1 4 22 5 20 6 19 7 17 8 16 9 15 10 14 11 6 12
REMARK SMILES IDX 7 13 8 14 9 15 13 16 11 17 10 18 12 20 4 22 21 24 18 26
REMARK H PARENT 10 19 12 21 4 23 21 25 18 27
REMARK Flexibility Score: inf
ROOT
ATOM      1  C   UNL     1       9.041   3.386 -18.805  1.00  0.00     0.180 A 
ATOM      2  C   UNL     1       8.587   2.667 -19.923  1.00  0.00     0.208 A 
ATOM      3  C   UNL     1       7.211   2.422 -20.062  1.00  0.00     0.238 A 
ATOM      4  O   UNL     1       6.815   1.732 -21.037  1.00  0.00    -0.285 OA
ATOM      5  C   UNL     1       6.307   2.912 -19.089  1.00  0.00     0.111 A 
ATOM      6  C   UNL     1       4.889   2.757 -19.150  1.00  0.00     0.134 A 
ATOM      7  C   UNL     1       4.102   3.168 -18.067  1.00  0.00     0.093 A 
ATOM      8  C   UNL     1       4.677   3.788 -16.954  1.00  0.00     0.123 A 
ATOM      9  C   UNL     1       6.052   3.998 -16.912  1.00  0.00     0.094 A 
ATOM     10  C   UNL     1       6.868   3.566 -17.961  1.00  0.00     0.146 A 
ATOM     11  O   UNL     1       8.176   3.776 -17.876  1.00  0.00    -0.452 OA
ENDROOT
BRANCH   1  12
ATOM     12  C   UNL     1      10.473   3.706 -18.602  1.00  0.00     0.025 A 
ATOM     13  C   UNL     1      10.976   4.938 -19.049  1.00  0.00     0.016 A 
ATOM     14  C   UNL     1      12.328   5.251 -18.886  1.00  0.00     0.051 A 
ATOM     15  C   UNL     1      13.200   4.335 -18.289  1.00  0.00     0.157 A 
ATOM     16  C   UNL     1      11.355   2.778 -18.020  1.00  0.00     0.062 A 
ATOM     17  C   UNL     1      12.713   3.090 -17.857  1.00  0.00     0.158 A 
BRANCH  15  18
ATOM     18  O   UNL     1      14.543   4.677 -18.138  1.00  0.00    -0.504 OA
ATOM     19  H   UNL     1      15.047   5.201 -18.844  1.00  0.00     0.293 HD
ENDBRANCH  15  18
BRANCH  17  20
ATOM     20  O   UNL     1      13.579   2.166 -17.274  1.00  0.00    -0.504 OA
ATOM     21  H   UNL     1      14.400   2.460 -16.758  1.00  0.00     0.293 HD
ENDBRANCH  17  20
ENDBRANCH   1  12
BRANCH   2  22
ATOM     22  O   UNL     1       9.499   2.174 -20.861  1.00  0.00    -0.502 OA
ATOM     23  H   UNL     1       9.967   1.284 -20.748  1.00  0.00     0.293 HD
ENDBRANCH   2  22
BRANCH   6  24
ATOM     24  O   UNL     1       4.208   2.236 -20.253  1.00  0.00    -0.507 OA
ATOM     25  H   UNL     1       4.126   1.253 -20.467  1.00  0.00     0.293 HD
ENDBRANCH   6  24
BRANCH   8  26
ATOM     26  O   UNL     1       3.884   4.208 -15.887  1.00  0.00    -0.508 OA
ATOM     27  H   UNL     1       4.102   3.952 -14.931  1.00  0.00     0.293 HD
ENDBRANCH   8  26
TORSDOF 6
ENDMDL
MODEL 5
REMARK VINA RESULT:    -5.860      8.165     11.874
REMARK INTER + INTRA:          -7.314
REMARK INTER:                  -6.981
REMARK INTRA:                  -0.333
REMARK UNBOUND:                -0.255
REMARK SMILES O=c1c(O)c(-c2ccc(O)c(O)c2)oc2cc(O)cc(O)c12
REMARK SMILES IDX 5 1 3 2 2 3 1 4 22 5 20 6 19 7 17 8 16 9 15 10 14 11 6 12
REMARK SMILES IDX 7 13 8 14 9 15 13 16 11 17 10 18 12 20 4 22 21 24 18 26
REMARK H PARENT 10 19 12 21 4 23 21 25 18 27
REMARK Flexibility Score: inf
ROOT
ATOM      1  C   UNL     1      11.184  -6.068 -10.060  1.00  0.00     0.180 A 
ATOM      2  C   UNL     1      10.716  -7.263 -10.631  1.00  0.00     0.208 A 
ATOM      3  C   UNL     1       9.671  -7.957  -9.998  1.00  0.00     0.238 A 
ATOM      4  O   UNL     1       9.293  -9.054 -10.485  1.00  0.00    -0.285 OA
ATOM      5  C   UNL     1       9.098  -7.438  -8.813  1.00  0.00     0.111 A 
ATOM      6  C   UNL     1       8.009  -8.035  -8.111  1.00  0.00     0.134 A 
ATOM      7  C   UNL     1       7.608  -7.506  -6.878  1.00  0.00     0.093 A 
ATOM      8  C   UNL     1       8.215  -6.362  -6.354  1.00  0.00     0.123 A 
ATOM      9  C   UNL     1       9.239  -5.736  -7.061  1.00  0.00     0.094 A 
ATOM     10  C   UNL     1       9.685  -6.262  -8.276  1.00  0.00     0.146 A 
ATOM     11  O   UNL     1      10.671  -5.641  -8.912  1.00  0.00    -0.452 OA
ENDROOT
BRANCH   1  12
ATOM     12  C   UNL     1      12.265  -5.268 -10.682  1.00  0.00     0.025 A 
ATOM     13  C   UNL     1      13.590  -5.444 -10.252  1.00  0.00     0.016 A 
ATOM     14  C   UNL     1      14.621  -4.685 -10.810  1.00  0.00     0.051 A 
ATOM     15  C   UNL     1      14.344  -3.730 -11.794  1.00  0.00     0.157 A 
ATOM     16  C   UNL     1      11.986  -4.292 -11.657  1.00  0.00     0.062 A 
ATOM     17  C   UNL     1      13.020  -3.529 -12.216  1.00  0.00     0.158 A 
BRANCH  15  18
ATOM     18  O   UNL     1      15.395  -2.989 -12.334  1.00  0.00    -0.504 OA
ATOM     19  H   UNL     1      16.167  -2.657 -11.766  1.00  0.00     0.293 HD
ENDBRANCH  15  18
BRANCH  17  20
ATOM     20  O   UNL     1      12.735  -2.568 -13.187  1.00  0.00    -0.504 OA
ATOM     21  H   UNL     1      11.851  -2.559 -13.680  1.00  0.00     0.293 HD
ENDBRANCH  17  20
ENDBRANCH   1  12
BRANCH   2  22
ATOM     22  O   UNL     1      11.310  -7.769 -11.791  1.00  0.00    -0.502 OA
ATOM     23  H   UNL     1      11.456  -8.760 -11.940  1.00  0.00     0.293 HD
ENDBRANCH   2  22
BRANCH   6  24
ATOM     24  O   UNL     1       7.275  -9.124  -8.590  1.00  0.00    -0.507 OA
ATOM     25  H   UNL     1       6.276  -9.230  -8.496  1.00  0.00     0.293 HD
ENDBRANCH   6  24
BRANCH   8  26
ATOM     26  O   UNL     1       7.800  -5.833  -5.134  1.00  0.00    -0.508 OA
ATOM     27  H   UNL     1       7.924  -4.851  -4.911  1.00  0.00     0.293 HD
ENDBRANCH   8  26
TORSDOF 6
ENDMDL
MODEL 6
REMARK VINA RESULT:    -5.640     15.461     17.821
REMARK INTER + INTRA:          -7.049
REMARK INTER:                  -6.749
REMARK INTRA:                  -0.300
REMARK UNBOUND:                -0.255
REMARK SMILES O=c1c(O)c(-c2ccc(O)c(O)c2)oc2cc(O)cc(O)c12
REMARK SMILES IDX 5 1 3 2 2 3 1 4 22 5 20 6 19 7 17 8 16 9 15 10 14 11 6 12
REMARK SMILES IDX 7 13 8 14 9 15 13 16 11 17 10 18 12 20 4 22 21 24 18 26
REMARK H PARENT 10 19 12 21 4 23 21 25 18 27
REMARK Flexibility Score: inf
ROOT
ATOM      1  C   UNL     1       5.112   5.404 -10.728  1.00  0.00     0.180 A 
ATOM      2  C   UNL     1       4.576   4.845 -11.901  1.00  0.00     0.208 A 
ATOM      3  C   UNL     1       4.405   5.664 -13.029  1.00  0.00     0.238 A 
ATOM      4  O   UNL     1       3.875   5.171 -14.059  1.00  0.00    -0.285 OA
ATOM      5  C   UNL     1       4.786   7.026 -12.975  1.00  0.00     0.111 A 
ATOM      6  C   UNL     1       4.694   7.937 -14.069  1.00  0.00     0.134 A 
ATOM      7  C   UNL     1       4.977   9.293 -13.865  1.00  0.00     0.093 A 
ATOM      8  C   UNL     1       5.411   9.759 -12.621  1.00  0.00     0.123 A 
ATOM      9  C   UNL     1       5.561   8.867 -11.562  1.00  0.00     0.094 A 
ATOM     10  C   UNL     1       5.251   7.514 -11.726  1.00  0.00     0.146 A 
ATOM     11  O   UNL     1       5.398   6.700 -10.687  1.00  0.00    -0.452 OA
ENDROOT
BRANCH   1  12
ATOM     12  C   UNL     1       5.345   4.599  -9.507  1.00  0.00     0.025 A 
ATOM     13  C   UNL     1       4.472   4.730  -8.416  1.00  0.00     0.016 A 
ATOM     14  C   UNL     1       4.686   3.995  -7.247  1.00  0.00     0.051 A 
ATOM     15  C   UNL     1       5.782   3.132  -7.144  1.00  0.00     0.157 A 
ATOM     16  C   UNL     1       6.458   3.746  -9.395  1.00  0.00     0.062 A 
ATOM     17  C   UNL     1       6.675   3.009  -8.220  1.00  0.00     0.158 A 
BRANCH  15  18
ATOM     18  O   UNL     1       5.967   2.411  -5.965  1.00  0.00    -0.504 OA
ATOM     19  H   UNL     1       5.728   2.793  -5.058  1.00  0.00     0.293 HD
ENDBRANCH  15  18
BRANCH  17  20
ATOM     20  O   UNL     1       7.777   2.161  -8.119  1.00  0.00    -0.504 OA
ATOM     21  H   UNL     1       8.725   2.518  -8.142  1.00  0.00     0.293 HD
ENDBRANCH  17  20
ENDBRANCH   1  12
BRANCH   2  22
ATOM     22  O   UNL     1       4.187   3.503 -11.927  1.00  0.00    -0.502 OA
ATOM     23  H   UNL     1       3.250   3.212 -12.179  1.00  0.00     0.293 HD
ENDBRANCH   2  22
BRANCH   6  24
ATOM     24  O   UNL     1       4.360   7.560 -15.373  1.00  0.00    -0.507 OA
ATOM     25  H   UNL     1       4.894   6.918 -15.941  1.00  0.00     0.293 HD
ENDBRANCH   6  24
BRANCH   8  26
ATOM     26  O   UNL     1       5.705  11.107 -12.430  1.00  0.00    -0.508 OA
ATOM     27  H   UNL     1       4.982  11.817 -12.457  1.00  0.00     0.293 HD
ENDBRANCH   8  26
TORSDOF 6
ENDMDL
MODEL 7
REMARK VINA RESULT:    -5.623      5.764      7.912
REMARK INTER + INTRA:          -7.028
REMARK INTER:                  -6.746
REMARK INTRA:                  -0.282
REMARK UNBOUND:                -0.255
REMARK SMILES O=c1c(O)c(-c2ccc(O)c(O)c2)oc2cc(O)cc(O)c12
REMARK SMILES IDX 5 1 3 2 2 3 1 4 22 5 20 6 19 7 17 8 16 9 15 10 14 11 6 12
REMARK SMILES IDX 7 13 8 14 9 15 13 16 11 17 10 18 12 20 4 22 21 24 18 26
REMARK H PARENT 10 19 12 21 4 23 21 25 18 27
REMARK Flexibility Score: inf
ROOT
ATOM      1  C   UNL     1      15.720  -1.343 -11.594  1.00  0.00     0.180 A 
ATOM      2  C   UNL     1      15.673  -2.724 -11.334  1.00  0.00     0.208 A 
ATOM      3  C   UNL     1      16.357  -3.229 -10.216  1.00  0.00     0.238 A 
ATOM      4  O   UNL     1      16.356  -4.472 -10.018  1.00  0.00    -0.285 OA
ATOM      5  C   UNL     1      17.065  -2.347  -9.365  1.00  0.00     0.111 A 
ATOM      6  C   UNL     1      17.759  -2.745  -8.183  1.00  0.00     0.134 A 
ATOM      7  C   UNL     1      18.534  -1.807  -7.489  1.00  0.00     0.093 A 
ATOM      8  C   UNL     1      18.587  -0.472  -7.898  1.00  0.00     0.123 A 
ATOM      9  C   UNL     1      17.865  -0.062  -9.015  1.00  0.00     0.094 A 
ATOM     10  C   UNL     1      17.112  -0.981  -9.750  1.00  0.00     0.146 A 
ATOM     11  O   UNL     1      16.447  -0.550 -10.815  1.00  0.00    -0.452 OA
ENDROOT
BRANCH   1  12
ATOM     12  C   UNL     1      15.005  -0.732 -12.738  1.00  0.00     0.025 A 
ATOM     13  C   UNL     1      15.736  -0.280 -13.848  1.00  0.00     0.016 A 
ATOM     14  C   UNL     1      15.083   0.318 -14.929  1.00  0.00     0.051 A 
ATOM     15  C   UNL     1      13.695   0.487 -14.911  1.00  0.00     0.157 A 
ATOM     16  C   UNL     1      13.611  -0.544 -12.714  1.00  0.00     0.062 A 
ATOM     17  C   UNL     1      12.955   0.058 -13.797  1.00  0.00     0.158 A 
BRANCH  15  18
ATOM     18  O   UNL     1      13.071   1.085 -16.006  1.00  0.00    -0.504 OA
ATOM     19  H   UNL     1      13.373   0.912 -16.958  1.00  0.00     0.293 HD
ENDBRANCH  15  18
BRANCH  17  20
ATOM     20  O   UNL     1      11.572   0.236 -13.767  1.00  0.00    -0.504 OA
ATOM     21  H   UNL     1      11.041   0.126 -12.912  1.00  0.00     0.293 HD
ENDBRANCH  17  20
ENDBRANCH   1  12
BRANCH   2  22
ATOM     22  O   UNL     1      14.986  -3.580 -12.199  1.00  0.00    -0.502 OA
ATOM     23  H   UNL     1      14.405  -3.238 -12.954  1.00  0.00     0.293 HD
ENDBRANCH   2  22
BRANCH   6  24
ATOM     24  O   UNL     1      17.698  -4.030  -7.637  1.00  0.00    -0.507 OA
ATOM     25  H   UNL     1      18.389  -4.425  -7.017  1.00  0.00     0.293 HD
ENDBRANCH   6  24
BRANCH   8  26
ATOM     26  O   UNL     1      19.348   0.457  -7.192  1.00  0.00    -0.508 OA
ATOM     27  H   UNL     1      20.166   0.894  -7.602  1.00  0.00     0.293 HD
ENDBRANCH   8  26
TORSDOF 6
ENDMDL
MODEL 8
REMARK VINA RESULT:    -5.600     10.719     12.958
REMARK INTER + INTRA:          -7.001
REMARK INTER:                  -6.717
REMARK INTRA:                  -0.284
REMARK UNBOUND:                -0.255
REMARK SMILES O=c1c(O)c(-c2ccc(O)c(O)c2)oc2cc(O)cc(O)c12
REMARK SMILES IDX 5 1 3 2 2 3 1 4 22 5 20 6 19 7 17 8 16 9 15 10 14 11 6 12
REMARK SMILES IDX 7 13 8 14 9 15 13 16 11 17 10 18 12 20 4 22 21 24 18 26
REMARK H PARENT 10 19 12 21 4 23 21 25 18 27
REMARK Flexibility Score: inf
ROOT
ATOM      1  C   UNL     1       8.048   3.401 -17.941  1.00  0.00     0.180 A 
ATOM      2  C   UNL     1       7.765   4.776 -17.885  1.00  0.00     0.208 A 
ATOM      3  C   UNL     1       8.831   5.688 -17.809  1.00  0.00     0.238 A 
ATOM      4  O   UNL     1       8.571   6.914 -17.705  1.00  0.00    -0.285 OA
ATOM      5  C   UNL     1      10.165   5.214 -17.806  1.00  0.00     0.111 A 
ATOM      6  C   UNL     1      11.321   6.049 -17.773  1.00  0.00     0.134 A 
ATOM      7  C   UNL     1      12.589   5.469 -17.642  1.00  0.00     0.093 A 
ATOM      8  C   UNL     1      12.745   4.080 -17.608  1.00  0.00     0.123 A 
ATOM      9  C   UNL     1      11.628   3.256 -17.700  1.00  0.00     0.094 A 
ATOM     10  C   UNL     1      10.347   3.806 -17.795  1.00  0.00     0.146 A 
ATOM     11  O   UNL     1       9.307   2.984 -17.870  1.00  0.00    -0.452 OA
ENDROOT
BRANCH   1  12
ATOM     12  C   UNL     1       6.980   2.380 -18.047  1.00  0.00     0.025 A 
ATOM     13  C   UNL     1       6.347   2.168 -19.282  1.00  0.00     0.016 A 
ATOM     14  C   UNL     1       5.324   1.225 -19.400  1.00  0.00     0.051 A 
ATOM     15  C   UNL     1       4.906   0.491 -18.285  1.00  0.00     0.157 A 
ATOM     16  C   UNL     1       6.545   1.656 -16.922  1.00  0.00     0.062 A 
ATOM     17  C   UNL     1       5.516   0.710 -17.039  1.00  0.00     0.158 A 
BRANCH  15  18
ATOM     18  O   UNL     1       3.884  -0.445 -18.434  1.00  0.00    -0.504 OA
ATOM     19  H   UNL     1       3.182  -0.594 -17.718  1.00  0.00     0.293 HD
ENDBRANCH  15  18
BRANCH  17  20
ATOM     20  O   UNL     1       5.095  -0.008 -15.920  1.00  0.00    -0.504 OA
ATOM     21  H   UNL     1       5.020   0.426 -15.008  1.00  0.00     0.293 HD
ENDBRANCH  17  20
ENDBRANCH   1  12
BRANCH   2  22
ATOM     22  O   UNL     1       6.441   5.222 -17.868  1.00  0.00    -0.502 OA
ATOM     23  H   UNL     1       5.951   5.504 -18.707  1.00  0.00     0.293 HD
ENDBRANCH   2  22
BRANCH   6  24
ATOM     24  O   UNL     1      11.283   7.441 -17.893  1.00  0.00    -0.507 OA
ATOM     25  H   UNL     1      10.464   7.974 -18.144  1.00  0.00     0.293 HD
ENDBRANCH   6  24
BRANCH   8  26
ATOM     26  O   UNL     1      14.012   3.511 -17.493  1.00  0.00    -0.508 OA
ATOM     27  H   UNL     1      14.752   3.963 -16.968  1.00  0.00     0.293 HD
ENDBRANCH   8  26
TORSDOF 6
ENDMDL
MODEL 9
REMARK VINA RESULT:    -5.557      5.254     10.185
REMARK INTER + INTRA:          -6.950
REMARK INTER:                  -6.683
REMARK INTRA:                  -0.267
REMARK UNBOUND:                -0.255
REMARK SMILES O=c1c(O)c(-c2ccc(O)c(O)c2)oc2cc(O)cc(O)c12
REMARK SMILES IDX 5 1 3 2 2 3 1 4 22 5 20 6 19 7 17 8 16 9 15 10 14 11 6 12
REMARK SMILES IDX 7 13 8 14 9 15 13 16 11 17 10 18 12 20 4 22 21 24 18 26
REMARK H PARENT 10 19 12 21 4 23 21 25 18 27
REMARK Flexibility Score: inf
ROOT
ATOM      1  C   UNL     1      13.758  -5.119 -11.466  1.00  0.00     0.180 A 
ATOM      2  C   UNL     1      13.373  -3.882 -12.011  1.00  0.00     0.208 A 
ATOM      3  C   UNL     1      14.347  -3.075 -12.623  1.00  0.00     0.238 A 
ATOM      4  O   UNL     1      14.007  -1.945 -13.061  1.00  0.00    -0.285 OA
ATOM      5  C   UNL     1      15.687  -3.522 -12.696  1.00  0.00     0.111 A 
ATOM      6  C   UNL     1      16.747  -2.805 -13.329  1.00  0.00     0.134 A 
ATOM      7  C   UNL     1      18.060  -3.281 -13.227  1.00  0.00     0.093 A 
ATOM      8  C   UNL     1      18.342  -4.483 -12.572  1.00  0.00     0.123 A 
ATOM      9  C   UNL     1      17.307  -5.220 -12.003  1.00  0.00     0.094 A 
ATOM     10  C   UNL     1      15.991  -4.753 -12.056  1.00  0.00     0.146 A 
ATOM     11  O   UNL     1      15.035  -5.481 -11.492  1.00  0.00    -0.452 OA
ENDROOT
BRANCH   1  12
ATOM     12  C   UNL     1      12.786  -6.035 -10.828  1.00  0.00     0.025 A 
ATOM     13  C   UNL     1      12.317  -7.151 -11.540  1.00  0.00     0.016 A 
ATOM     14  C   UNL     1      11.384  -8.017 -10.963  1.00  0.00     0.051 A 
ATOM     15  C   UNL     1      10.895  -7.775  -9.676  1.00  0.00     0.157 A 
ATOM     16  C   UNL     1      12.277  -5.783  -9.540  1.00  0.00     0.062 A 
ATOM     17  C   UNL     1      11.339  -6.650  -8.962  1.00  0.00     0.158 A 
BRANCH  15  18
ATOM     18  O   UNL     1       9.966  -8.658  -9.127  1.00  0.00    -0.504 OA
ATOM     19  H   UNL     1       9.374  -9.244  -9.705  1.00  0.00     0.293 HD
ENDBRANCH  15  18
BRANCH  17  20
ATOM     20  O   UNL     1      10.845  -6.395  -7.683  1.00  0.00    -0.504 OA
ATOM     21  H   UNL     1      10.986  -5.502  -7.228  1.00  0.00     0.293 HD
ENDBRANCH  17  20
ENDBRANCH   1  12
BRANCH   2  22
ATOM     22  O   UNL     1      12.048  -3.450 -11.909  1.00  0.00    -0.502 OA
ATOM     23  H   UNL     1      11.456  -3.314 -12.719  1.00  0.00     0.293 HD
ENDBRANCH   2  22
BRANCH   6  24
ATOM     24  O   UNL     1      16.561  -1.645 -14.086  1.00  0.00    -0.507 OA
ATOM     25  H   UNL     1      17.211  -0.875 -14.126  1.00  0.00     0.293 HD
ENDBRANCH   6  24
BRANCH   8  26
ATOM     26  O   UNL     1      19.649  -4.957 -12.489  1.00  0.00    -0.508 OA
ATOM     27  H   UNL     1      20.444  -4.328 -12.502  1.00  0.00     0.293 HD
ENDBRANCH   8  26
TORSDOF 6
ENDMDL
