MODEL 1
REMARK VINA RESULT:    -3.930      0.000      0.000
REMARK INTER + INTRA:          -6.808
REMARK INTER:                  -5.998
REMARK INTRA:                  -0.809
REMARK UNBOUND:                -0.809
REMARK SMILES CCCCCCCCCCC(=O)[O-]
REMARK SMILES IDX 7 1 8 2 9 3 10 4 11 5 12 6 13 7 6 8 5 9 4 10 3 11 2 12 1 13
REMARK H PARENT
REMARK Flexibility Score: inf
ROOT
ATOM      1  C   UNL     1     131.277 132.923 130.683  1.00  0.00     0.000 C 
ENDROOT
BRANCH   1   2
ATOM      2  C   UNL     1     132.391 133.579 131.508  1.00  0.00     0.000 C 
BRANCH   2   3
ATOM      3  C   UNL     1     132.227 135.107 131.538  1.00  0.00     0.006 C 
BRANCH   3   4
ATOM      4  C   UNL     1     130.774 135.540 131.307  1.00  0.00     0.053 C 
BRANCH   4   5
ATOM      5  C   UNL     1     130.692 136.897 130.678  1.00  0.00     0.041 C 
ATOM      6  O   UNL     1     131.552 137.775 130.952  1.00  0.00    -0.550 OA
ATOM      7  O   UNL     1     129.645 137.204 129.818  1.00  0.00    -0.550 OA
ENDBRANCH   4   5
ENDBRANCH   3   4
ENDBRANCH   2   3
ENDBRANCH   1   2
BRANCH   1   8
ATOM      8  C   UNL     1     131.800 132.480 129.309  1.00  0.00     0.000 C 
BRANCH   8   9
ATOM      9  C   UNL     1     131.006 133.096 128.144  1.00  0.00    -0.000 C 
BRANCH   9  10
ATOM     10  C   UNL     1     129.570 133.475 128.544  1.00  0.00    -0.000 C 
BRANCH  10  11
ATOM     11  C   UNL     1     128.516 132.583 127.869  1.00  0.00    -0.000 C 
BRANCH  11  12
ATOM     12  C   UNL     1     129.061 131.194 127.503  1.00  0.00    -0.003 C 
ATOM     13  C   UNL     1     128.937 130.228 128.678  1.00  0.00     0.004 C 
ENDBRANCH  11  12
ENDBRANCH  10  11
ENDBRANCH   9  10
ENDBRANCH   8   9
ENDBRANCH   1   8
TORSDOF 9
ENDMDL
MODEL 2
REMARK VINA RESULT:    -3.886      3.104      5.943
REMARK INTER + INTRA:          -6.739
REMARK INTER:                  -6.062
REMARK INTRA:                  -0.677
REMARK UNBOUND:                -0.809
REMARK SMILES CCCCCCCCCCC(=O)[O-]
REMARK SMILES IDX 7 1 8 2 9 3 10 4 11 5 12 6 13 7 6 8 5 9 4 10 3 11 2 12 1 13
REMARK H PARENT
REMARK Flexibility Score: inf
ROOT
ATOM      1  C   UNL     1     131.846 133.224 130.730  1.00  0.00     0.000 C 
ENDROOT
BRANCH   1   2
ATOM      2  C   UNL     1     131.023 134.042 129.727  1.00  0.00     0.000 C 
BRANCH   2   3
ATOM      3  C   UNL     1     130.585 133.176 128.536  1.00  0.00     0.006 C 
BRANCH   3   4
ATOM      4  C   UNL     1     130.568 131.681 128.880  1.00  0.00     0.053 C 
BRANCH   4   5
ATOM      5  C   UNL     1     129.453 130.963 128.184  1.00  0.00     0.041 C 
ATOM      6  O   UNL     1     128.822 130.048 128.776  1.00  0.00    -0.550 OA
ATOM      7  O   UNL     1     129.135 131.278 126.868  1.00  0.00    -0.550 OA
ENDBRANCH   4   5
ENDBRANCH   3   4
ENDBRANCH   2   3
ENDBRANCH   1   2
BRANCH   1   8
ATOM      8  C   UNL     1     131.667 133.764 132.156  1.00  0.00     0.000 C 
BRANCH   8   9
ATOM      9  C   UNL     1     132.923 134.477 132.684  1.00  0.00    -0.000 C 
BRANCH   9  10
ATOM     10  C   UNL     1     132.634 135.914 133.151  1.00  0.00    -0.000 C 
BRANCH  10  11
ATOM     11  C   UNL     1     132.892 136.954 132.049  1.00  0.00    -0.000 C 
BRANCH  11  12
ATOM     12  C   UNL     1     131.715 137.923 131.860  1.00  0.00    -0.003 C 
ATOM     13  C   UNL     1     130.691 137.358 130.880  1.00  0.00     0.004 C 
ENDBRANCH  11  12
ENDBRANCH  10  11
ENDBRANCH   9  10
ENDBRANCH   8   9
ENDBRANCH   1   8
TORSDOF 9
ENDMDL
MODEL 3
REMARK VINA RESULT:    -3.875     12.395     15.333
REMARK INTER + INTRA:          -6.724
REMARK INTER:                  -6.087
REMARK INTRA:                  -0.637
REMARK UNBOUND:                -0.809
REMARK SMILES CCCCCCCCCCC(=O)[O-]
REMARK SMILES IDX 7 1 8 2 9 3 10 4 11 5 12 6 13 7 6 8 5 9 4 10 3 11 2 12 1 13
REMARK H PARENT
REMARK Flexibility Score: inf
ROOT
ATOM      1  C   UNL     1     125.579 120.443 130.487  1.00  0.00     0.000 C 
ENDROOT
BRANCH   1   2
ATOM      2  C   UNL     1     125.276 118.970 130.185  1.00  0.00     0.000 C 
BRANCH   2   3
ATOM      3  C   UNL     1     125.021 118.183 131.480  1.00  0.00     0.006 C 
BRANCH   3   4
ATOM      4  C   UNL     1     123.534 117.876 131.691  1.00  0.00     0.053 C 
BRANCH   4   5
ATOM      5  C   UNL     1     122.991 118.561 132.908  1.00  0.00     0.041 C 
ATOM      6  O   UNL     1     123.319 119.749 133.165  1.00  0.00    -0.550 OA
ATOM      7  O   UNL     1     122.152 117.875 133.778  1.00  0.00    -0.550 OA
ENDBRANCH   4   5
ENDBRANCH   3   4
ENDBRANCH   2   3
ENDBRANCH   1   2
BRANCH   1   8
ATOM      8  C   UNL     1     124.367 121.330 130.164  1.00  0.00     0.000 C 
BRANCH   8   9
ATOM      9  C   UNL     1     124.771 122.731 129.676  1.00  0.00    -0.000 C 
BRANCH   9  10
ATOM     10  C   UNL     1     125.425 122.706 128.284  1.00  0.00    -0.000 C 
BRANCH  10  11
ATOM     11  C   UNL     1     126.076 124.049 127.916  1.00  0.00    -0.000 C 
BRANCH  11  12
ATOM     12  C   UNL     1     127.611 123.984 127.915  1.00  0.00    -0.003 C 
ATOM     13  C   UNL     1     128.099 122.539 127.956  1.00  0.00     0.004 C 
ENDBRANCH  11  12
ENDBRANCH  10  11
ENDBRANCH   9  10
ENDBRANCH   8   9
ENDBRANCH   1   8
TORSDOF 9
ENDMDL
MODEL 4
REMARK VINA RESULT:    -3.857      2.759      5.887
REMARK INTER + INTRA:          -6.696
REMARK INTER:                  -5.884
REMARK INTRA:                  -0.812
REMARK UNBOUND:                -0.809
REMARK SMILES CCCCCCCCCCC(=O)[O-]
REMARK SMILES IDX 7 1 8 2 9 3 10 4 11 5 12 6 13 7 6 8 5 9 4 10 3 11 2 12 1 13
REMARK H PARENT
REMARK Flexibility Score: inf
ROOT
ATOM      1  C   UNL     1     130.104 135.475 130.458  1.00  0.00     0.000 C 
ENDROOT
BRANCH   1   2
ATOM      2  C   UNL     1     131.207 134.440 130.205  1.00  0.00     0.000 C 
BRANCH   2   3
ATOM      3  C   UNL     1     131.022 133.760 128.840  1.00  0.00     0.006 C 
BRANCH   3   4
ATOM      4  C   UNL     1     130.745 132.257 128.971  1.00  0.00     0.053 C 
BRANCH   4   5
ATOM      5  C   UNL     1     129.489 131.859 128.259  1.00  0.00     0.041 C 
ATOM      6  O   UNL     1     129.230 130.642 128.064  1.00  0.00    -0.550 OA
ATOM      7  O   UNL     1     128.621 132.832 127.780  1.00  0.00    -0.550 OA
ENDBRANCH   4   5
ENDBRANCH   3   4
ENDBRANCH   2   3
ENDBRANCH   1   2
BRANCH   1   8
ATOM      8  C   UNL     1     130.596 136.892 130.130  1.00  0.00     0.000 C 
BRANCH   8   9
ATOM      9  C   UNL     1     130.949 137.705 131.387  1.00  0.00    -0.000 C 
BRANCH   9  10
ATOM     10  C   UNL     1     132.443 137.623 131.742  1.00  0.00    -0.000 C 
BRANCH  10  11
ATOM     11  C   UNL     1     132.687 136.978 133.116  1.00  0.00    -0.000 C 
BRANCH  11  12
ATOM     12  C   UNL     1     133.362 135.602 133.014  1.00  0.00    -0.003 C 
ATOM     13  C   UNL     1     134.394 135.578 131.890  1.00  0.00     0.004 C 
ENDBRANCH  11  12
ENDBRANCH  10  11
ENDBRANCH   9  10
ENDBRANCH   8   9
ENDBRANCH   1   8
TORSDOF 9
ENDMDL
MODEL 5
REMARK VINA RESULT:    -3.836     11.422     13.910
REMARK INTER + INTRA:          -6.663
REMARK INTER:                  -5.873
REMARK INTRA:                  -0.790
REMARK UNBOUND:                -0.809
REMARK SMILES CCCCCCCCCCC(=O)[O-]
REMARK SMILES IDX 7 1 8 2 9 3 10 4 11 5 12 6 13 7 6 8 5 9 4 10 3 11 2 12 1 13
REMARK H PARENT
REMARK Flexibility Score: inf
ROOT
ATOM      1  C   UNL     1     125.597 120.895 130.125  1.00  0.00     0.000 C 
ENDROOT
BRANCH   1   2
ATOM      2  C   UNL     1     124.756 122.151 129.861  1.00  0.00     0.000 C 
BRANCH   2   3
ATOM      3  C   UNL     1     124.956 122.655 128.424  1.00  0.00     0.006 C 
BRANCH   3   4
ATOM      4  C   UNL     1     125.854 123.898 128.364  1.00  0.00     0.053 C 
BRANCH   4   5
ATOM      5  C   UNL     1     127.074 123.663 127.527  1.00  0.00     0.041 C 
ATOM      6  O   UNL     1     127.291 124.374 126.510  1.00  0.00    -0.550 OA
ATOM      7  O   UNL     1     127.953 122.636 127.849  1.00  0.00    -0.550 OA
ENDBRANCH   4   5
ENDBRANCH   3   4
ENDBRANCH   2   3
ENDBRANCH   1   2
BRANCH   1   8
ATOM      8  C   UNL     1     124.759 119.809 130.815  1.00  0.00     0.000 C 
BRANCH   8   9
ATOM      9  C   UNL     1     123.393 120.327 131.295  1.00  0.00    -0.000 C 
BRANCH   9  10
ATOM     10  C   UNL     1     123.175 120.109 132.802  1.00  0.00    -0.000 C 
BRANCH  10  11
ATOM     11  C   UNL     1     122.703 121.384 133.519  1.00  0.00    -0.000 C 
BRANCH  11  12
ATOM     12  C   UNL     1     123.804 122.024 134.377  1.00  0.00    -0.003 C 
ATOM     13  C   UNL     1     124.680 122.955 133.542  1.00  0.00     0.004 C 
ENDBRANCH  11  12
ENDBRANCH  10  11
ENDBRANCH   9  10
ENDBRANCH   8   9
ENDBRANCH   1   8
TORSDOF 9
ENDMDL
MODEL 6
REMARK VINA RESULT:    -3.771     11.412     13.089
REMARK INTER + INTRA:          -6.565
REMARK INTER:                  -6.231
REMARK INTRA:                  -0.334
REMARK UNBOUND:                -0.809
REMARK SMILES CCCCCCCCCCC(=O)[O-]
REMARK SMILES IDX 7 1 8 2 9 3 10 4 11 5 12 6 13 7 6 8 5 9 4 10 3 11 2 12 1 13
REMARK H PARENT
REMARK Flexibility Score: inf
ROOT
ATOM      1  C   UNL     1     125.658 124.451 128.639  1.00  0.00     0.000 C 
ENDROOT
BRANCH   1   2
ATOM      2  C   UNL     1     125.299 123.003 128.281  1.00  0.00     0.000 C 
BRANCH   2   3
ATOM      3  C   UNL     1     124.727 122.260 129.498  1.00  0.00     0.006 C 
BRANCH   3   4
ATOM      4  C   UNL     1     125.543 121.010 129.853  1.00  0.00     0.053 C 
BRANCH   4   5
ATOM      5  C   UNL     1     124.873 120.191 130.913  1.00  0.00     0.041 C 
ATOM      6  O   UNL     1     124.239 120.755 131.843  1.00  0.00    -0.550 OA
ATOM      7  O   UNL     1     124.978 118.805 130.893  1.00  0.00    -0.550 OA
ENDBRANCH   4   5
ENDBRANCH   3   4
ENDBRANCH   2   3
ENDBRANCH   1   2
BRANCH   1   8
ATOM      8  C   UNL     1     127.060 124.811 128.128  1.00  0.00     0.000 C 
BRANCH   8   9
ATOM      9  C   UNL     1     127.357 124.219 126.740  1.00  0.00    -0.000 C 
BRANCH   9  10
ATOM     10  C   UNL     1     126.589 124.936 125.616  1.00  0.00    -0.000 C 
BRANCH  10  11
ATOM     11  C   UNL     1     127.437 125.117 124.347  1.00  0.00    -0.000 C 
BRANCH  11  12
ATOM     12  C   UNL     1     126.590 125.455 123.111  1.00  0.00    -0.003 C 
ATOM     13  C   UNL     1     125.105 125.233 123.385  1.00  0.00     0.004 C 
ENDBRANCH  11  12
ENDBRANCH  10  11
ENDBRANCH   9  10
ENDBRANCH   8   9
ENDBRANCH   1   8
TORSDOF 9
ENDMDL
MODEL 7
REMARK VINA RESULT:    -3.656     11.970     14.007
REMARK INTER + INTRA:          -6.389
REMARK INTER:                  -5.719
REMARK INTRA:                  -0.670
REMARK UNBOUND:                -0.809
REMARK SMILES CCCCCCCCCCC(=O)[O-]
REMARK SMILES IDX 7 1 8 2 9 3 10 4 11 5 12 6 13 7 6 8 5 9 4 10 3 11 2 12 1 13
REMARK H PARENT
REMARK Flexibility Score: inf
ROOT
ATOM      1  C   UNL     1     125.042 121.256 130.744  1.00  0.00     0.000 C 
ENDROOT
BRANCH   1   2
ATOM      2  C   UNL     1     124.241 120.011 131.148  1.00  0.00     0.000 C 
BRANCH   2   3
ATOM      3  C   UNL     1     122.942 120.402 131.869  1.00  0.00     0.006 C 
BRANCH   3   4
ATOM      4  C   UNL     1     123.084 120.340 133.395  1.00  0.00     0.053 C 
BRANCH   4   5
ATOM      5  C   UNL     1     123.247 121.703 133.995  1.00  0.00     0.041 C 
ATOM      6  O   UNL     1     124.160 121.920 134.834  1.00  0.00    -0.550 OA
ATOM      7  O   UNL     1     122.368 122.724 133.654  1.00  0.00    -0.550 OA
ENDBRANCH   4   5
ENDBRANCH   3   4
ENDBRANCH   2   3
ENDBRANCH   1   2
BRANCH   1   8
ATOM      8  C   UNL     1     124.106 122.426 130.411  1.00  0.00     0.000 C 
BRANCH   8   9
ATOM      9  C   UNL     1     124.775 123.488 129.522  1.00  0.00    -0.000 C 
BRANCH   9  10
ATOM     10  C   UNL     1     125.673 122.869 128.437  1.00  0.00    -0.000 C 
BRANCH  10  11
ATOM     11  C   UNL     1     126.616 123.899 127.796  1.00  0.00    -0.000 C 
BRANCH  11  12
ATOM     12  C   UNL     1     128.050 123.373 127.637  1.00  0.00    -0.003 C 
ATOM     13  C   UNL     1     128.195 121.981 128.245  1.00  0.00     0.004 C 
ENDBRANCH  11  12
ENDBRANCH  10  11
ENDBRANCH   9  10
ENDBRANCH   8   9
ENDBRANCH   1   8
TORSDOF 9
ENDMDL
MODEL 8
REMARK VINA RESULT:    -3.643      2.812      3.636
REMARK INTER + INTRA:          -6.369
REMARK INTER:                  -5.740
REMARK INTRA:                  -0.629
REMARK UNBOUND:                -0.809
REMARK SMILES CCCCCCCCCCC(=O)[O-]
REMARK SMILES IDX 7 1 8 2 9 3 10 4 11 5 12 6 13 7 6 8 5 9 4 10 3 11 2 12 1 13
REMARK H PARENT
REMARK Flexibility Score: inf
ROOT
ATOM      1  C   UNL     1     130.905 134.356 129.885  1.00  0.00     0.000 C 
ENDROOT
BRANCH   1   2
ATOM      2  C   UNL     1     131.398 134.840 131.255  1.00  0.00     0.000 C 
BRANCH   2   3
ATOM      3  C   UNL     1     131.566 133.664 132.228  1.00  0.00     0.006 C 
BRANCH   3   4
ATOM      4  C   UNL     1     132.259 134.081 133.531  1.00  0.00     0.053 C 
BRANCH   4   5
ATOM      5  C   UNL     1     133.472 133.246 133.808  1.00  0.00     0.041 C 
ATOM      6  O   UNL     1     133.495 132.474 134.803  1.00  0.00    -0.550 OA
ATOM      7  O   UNL     1     134.589 133.346 132.989  1.00  0.00    -0.550 OA
ENDBRANCH   4   5
ENDBRANCH   3   4
ENDBRANCH   2   3
ENDBRANCH   1   2
BRANCH   1   8
ATOM      8  C   UNL     1     131.169 132.853 129.708  1.00  0.00     0.000 C 
BRANCH   8   9
ATOM      9  C   UNL     1     130.719 132.329 128.334  1.00  0.00    -0.000 C 
BRANCH   9  10
ATOM     10  C   UNL     1     129.804 131.097 128.442  1.00  0.00    -0.000 C 
BRANCH  10  11
ATOM     11  C   UNL     1     128.317 131.452 128.281  1.00  0.00    -0.000 C 
BRANCH  11  12
ATOM     12  C   UNL     1     128.096 132.713 127.432  1.00  0.00    -0.003 C 
ATOM     13  C   UNL     1     127.410 133.808 128.243  1.00  0.00     0.004 C 
ENDBRANCH  11  12
ENDBRANCH  10  11
ENDBRANCH   9  10
ENDBRANCH   8   9
ENDBRANCH   1   8
TORSDOF 9
ENDMDL
