MODEL 1
REMARK VINA RESULT:    -6.403      0.000      0.000
REMARK INTER + INTRA:         -19.353
REMARK INTER:                 -15.200
REMARK INTRA:                  -4.153
REMARK UNBOUND:                -4.153
REMARK SMILES O=C(OC[C@H]1O[C@@H](OC(=O)c2cc(O)c(O)c(O)c2)[C@@H](OC(=O)c2cc(O)c(O)c(O)c2)[C@@H](OC(=O)c2cc(O)c(O)c(O)c2)[C@@H]1OC(=O)c1cc(O)c(O)c(O)c1)c1cc(O)c(O)c(O)c1
REMARK SMILES IDX 5 1 46 2 33 3 20 4 7 5 6 6 4 7 3 8 2 9 1 10 59 11 60 12
REMARK SMILES IDX 61 13 67 14 63 15 65 16 62 17 64 19 66 21 47 23 48 24 49 25
REMARK SMILES IDX 50 26 58 27 51 28 56 29 52 30 54 31 57 32 53 34 55 36 34 38
REMARK SMILES IDX 35 39 36 40 37 41 45 42 38 43 43 44 39 45 41 46 44 47 40 49
REMARK SMILES IDX 42 51 8 53 9 54 10 55 11 56 19 57 12 58 17 59 13 60 15 61
REMARK SMILES IDX 18 62 14 64 16 66 21 68 22 69 23 70 24 71 32 72 25 73 30 74
REMARK SMILES IDX 26 75 28 76 31 77 27 79 29 81
REMARK H PARENT 62 18 64 20 66 22 57 33 53 35 55 37 44 48 40 50 42 52 18 63
REMARK H PARENT 14 65 16 67 31 78 27 80 29 82
REMARK Flexibility Score: inf
ROOT
ATOM      1  C   UNL     1      30.757   3.225  20.105  1.00  0.00     0.205 C 
ATOM      2  C   UNL     1      30.060   1.833  20.250  1.00  0.00     0.254 C 
ATOM      3  C   UNL     1      28.691   1.995  20.941  1.00  0.00     0.267 C 
ATOM      4  C   UNL     1      28.884   2.779  22.251  1.00  0.00     0.290 C 
ATOM      5  C   UNL     1      29.670   4.097  21.993  1.00  0.00     0.357 C 
ATOM      6  O   UNL     1      29.948   4.274  20.612  1.00  0.00    -0.329 OA
ENDROOT
BRANCH   1   7
ATOM      7  C   UNL     1      31.072   3.554  18.635  1.00  0.00     0.269 C 
BRANCH   7   8
ATOM      8  O   UNL     1      29.862   3.659  17.880  1.00  0.00    -0.459 OA
BRANCH   8   9
ATOM      9  C   UNL     1      29.389   4.862  17.321  1.00  0.00     0.338 C 
ATOM     10  O   UNL     1      30.150   5.866  17.295  1.00  0.00    -0.246 OA
BRANCH   9  11
ATOM     11  C   UNL     1      28.032   4.976  16.755  1.00  0.00     0.067 A 
ATOM     12  C   UNL     1      27.259   6.119  17.005  1.00  0.00     0.066 A 
ATOM     13  C   UNL     1      25.941   6.196  16.545  1.00  0.00     0.162 A 
ATOM     14  C   UNL     1      27.484   3.913  16.028  1.00  0.00     0.066 A 
ATOM     15  C   UNL     1      25.384   5.123  15.824  1.00  0.00     0.200 A 
ATOM     16  C   UNL     1      26.158   3.976  15.572  1.00  0.00     0.162 A 
BRANCH  13  17
ATOM     17  O   UNL     1      25.197   7.343  16.820  1.00  0.00    -0.504 OA
ATOM     18  H   UNL     1      24.880   7.968  16.086  1.00  0.00     0.293 HD
ENDBRANCH  13  17
BRANCH  15  19
ATOM     19  O   UNL     1      24.068   5.209  15.366  1.00  0.00    -0.502 OA
ATOM     20  H   UNL     1      23.331   4.615  15.723  1.00  0.00     0.293 HD
ENDBRANCH  15  19
BRANCH  16  21
ATOM     21  O   UNL     1      25.611   2.899  14.878  1.00  0.00    -0.504 OA
ATOM     22  H   UNL     1      25.906   1.947  15.059  1.00  0.00     0.293 HD
ENDBRANCH  16  21
ENDBRANCH   9  11
ENDBRANCH   8   9
ENDBRANCH   7   8
ENDBRANCH   1   7
BRANCH   2  23
ATOM     23  O   UNL     1      30.879   0.971  21.043  1.00  0.00    -0.452 OA
BRANCH  23  24
ATOM     24  C   UNL     1      30.906  -0.418  20.872  1.00  0.00     0.338 C 
ATOM     25  O   UNL     1      30.972  -0.911  19.711  1.00  0.00    -0.246 OA
BRANCH  24  26
ATOM     26  C   UNL     1      30.817  -1.308  22.050  1.00  0.00     0.067 A 
ATOM     27  C   UNL     1      31.034  -2.690  21.923  1.00  0.00     0.066 A 
ATOM     28  C   UNL     1      30.460  -0.784  23.304  1.00  0.00     0.066 A 
ATOM     29  C   UNL     1      30.898  -3.539  23.026  1.00  0.00     0.162 A 
ATOM     30  C   UNL     1      30.311  -1.628  24.412  1.00  0.00     0.162 A 
ATOM     31  C   UNL     1      30.534  -3.009  24.278  1.00  0.00     0.200 A 
BRANCH  29  32
ATOM     32  O   UNL     1      31.124  -4.904  22.860  1.00  0.00    -0.504 OA
ATOM     33  H   UNL     1      31.132  -5.548  23.641  1.00  0.00     0.293 HD
ENDBRANCH  29  32
BRANCH  30  34
ATOM     34  O   UNL     1      29.936  -1.099  25.646  1.00  0.00    -0.504 OA
ATOM     35  H   UNL     1      29.104  -0.530  25.749  1.00  0.00     0.293 HD
ENDBRANCH  30  34
BRANCH  31  36
ATOM     36  O   UNL     1      30.387  -3.865  25.371  1.00  0.00    -0.502 OA
ATOM     37  H   UNL     1      30.671  -4.837  25.338  1.00  0.00     0.293 HD
ENDBRANCH  31  36
ENDBRANCH  24  26
ENDBRANCH  23  24
ENDBRANCH   2  23
BRANCH   3  38
ATOM     38  O   UNL     1      27.804   2.734  20.103  1.00  0.00    -0.450 OA
BRANCH  38  39
ATOM     39  C   UNL     1      26.925   2.168  19.176  1.00  0.00     0.338 C 
ATOM     40  O   UNL     1      25.740   2.589  19.074  1.00  0.00    -0.246 OA
BRANCH  39  41
ATOM     41  C   UNL     1      27.411   1.072  18.315  1.00  0.00     0.067 A 
ATOM     42  C   UNL     1      27.983   1.377  17.067  1.00  0.00     0.066 A 
ATOM     43  C   UNL     1      27.318  -0.271  18.719  1.00  0.00     0.066 A 
ATOM     44  C   UNL     1      28.466   0.358  16.239  1.00  0.00     0.162 A 
ATOM     45  C   UNL     1      27.786  -1.295  17.883  1.00  0.00     0.162 A 
ATOM     46  C   UNL     1      28.378  -0.976  16.648  1.00  0.00     0.200 A 
BRANCH  44  47
ATOM     47  O   UNL     1      29.042   0.666  15.007  1.00  0.00    -0.504 OA
ATOM     48  H   UNL     1      29.900   0.222  14.698  1.00  0.00     0.293 HD
ENDBRANCH  44  47
BRANCH  45  49
ATOM     49  O   UNL     1      27.648  -2.631  18.261  1.00  0.00    -0.504 OA
ATOM     50  H   UNL     1      27.878  -2.956  19.194  1.00  0.00     0.293 HD
ENDBRANCH  45  49
BRANCH  46  51
ATOM     51  O   UNL     1      28.873  -1.978  15.809  1.00  0.00    -0.502 OA
ATOM     52  H   UNL     1      29.281  -2.826  16.179  1.00  0.00     0.293 HD
ENDBRANCH  46  51
ENDBRANCH  39  41
ENDBRANCH  38  39
ENDBRANCH   3  38
BRANCH   5  53
ATOM     53  O   UNL     1      28.909   5.222  22.433  1.00  0.00    -0.428 OA
BRANCH  53  54
ATOM     54  C   UNL     1      29.523   6.361  22.968  1.00  0.00     0.340 C 
ATOM     55  O   UNL     1      29.961   7.261  22.198  1.00  0.00    -0.246 OA
BRANCH  54  56
ATOM     56  C   UNL     1      29.592   6.541  24.434  1.00  0.00     0.067 A 
ATOM     57  C   UNL     1      30.373   7.562  24.993  1.00  0.00     0.066 A 
ATOM     58  C   UNL     1      28.815   5.733  25.278  1.00  0.00     0.066 A 
ATOM     59  C   UNL     1      30.366   7.787  26.375  1.00  0.00     0.162 A 
ATOM     60  C   UNL     1      28.806   5.942  26.663  1.00  0.00     0.162 A 
ATOM     61  C   UNL     1      29.592   6.979  27.220  1.00  0.00     0.200 A 
BRANCH  59  62
ATOM     62  O   UNL     1      31.120   8.829  26.915  1.00  0.00    -0.504 OA
ATOM     63  H   UNL     1      31.818   8.660  27.630  1.00  0.00     0.293 HD
ENDBRANCH  59  62
BRANCH  60  64
ATOM     64  O   UNL     1      27.995   5.108  27.437  1.00  0.00    -0.504 OA
ATOM     65  H   UNL     1      27.451   4.342  27.070  1.00  0.00     0.293 HD
ENDBRANCH  60  64
BRANCH  61  66
ATOM     66  O   UNL     1      29.627   7.239  28.591  1.00  0.00    -0.502 OA
ATOM     67  H   UNL     1      30.316   6.847  29.219  1.00  0.00     0.293 HD
ENDBRANCH  61  66
ENDBRANCH  54  56
ENDBRANCH  53  54
ENDBRANCH   5  53
BRANCH   4  68
ATOM     68  O   UNL     1      27.606   3.040  22.834  1.00  0.00    -0.448 OA
BRANCH  68  69
ATOM     69  C   UNL     1      27.052   2.236  23.838  1.00  0.00     0.339 C 
ATOM     70  O   UNL     1      27.390   1.023  23.932  1.00  0.00    -0.246 OA
BRANCH  69  71
ATOM     71  C   UNL     1      26.056   2.803  24.770  1.00  0.00     0.067 A 
ATOM     72  C   UNL     1      25.295   1.958  25.591  1.00  0.00     0.066 A 
ATOM     73  C   UNL     1      25.889   4.191  24.876  1.00  0.00     0.066 A 
ATOM     74  C   UNL     1      24.386   2.486  26.520  1.00  0.00     0.162 A 
ATOM     75  C   UNL     1      24.980   4.731  25.793  1.00  0.00     0.162 A 
ATOM     76  C   UNL     1      24.228   3.888  26.624  1.00  0.00     0.200 A 
BRANCH  74  77
ATOM     77  O   UNL     1      23.674   1.585  27.316  1.00  0.00    -0.504 OA
ATOM     78  H   UNL     1      23.159   0.796  26.953  1.00  0.00     0.293 HD
ENDBRANCH  74  77
BRANCH  75  79
ATOM     79  O   UNL     1      24.822   6.113  25.887  1.00  0.00    -0.504 OA
ATOM     80  H   UNL     1      25.606   6.727  26.071  1.00  0.00     0.293 HD
ENDBRANCH  75  79
BRANCH  76  81
ATOM     81  O   UNL     1      23.348   4.480  27.532  1.00  0.00    -0.502 OA
ATOM     82  H   UNL     1      22.355   4.580  27.375  1.00  0.00     0.293 HD
ENDBRANCH  76  81
ENDBRANCH  69  71
ENDBRANCH  68  69
ENDBRANCH   4  68
TORSDOF 31
ENDMDL
MODEL 2
REMARK VINA RESULT:    -5.965      1.687      7.067
REMARK INTER + INTRA:         -18.313
REMARK INTER:                 -12.782
REMARK INTRA:                  -5.530
REMARK UNBOUND:                -4.153
REMARK SMILES O=C(OC[C@H]1O[C@@H](OC(=O)c2cc(O)c(O)c(O)c2)[C@@H](OC(=O)c2cc(O)c(O)c(O)c2)[C@@H](OC(=O)c2cc(O)c(O)c(O)c2)[C@@H]1OC(=O)c1cc(O)c(O)c(O)c1)c1cc(O)c(O)c(O)c1
REMARK SMILES IDX 5 1 46 2 33 3 20 4 7 5 6 6 4 7 3 8 2 9 1 10 59 11 60 12
REMARK SMILES IDX 61 13 67 14 63 15 65 16 62 17 64 19 66 21 47 23 48 24 49 25
REMARK SMILES IDX 50 26 58 27 51 28 56 29 52 30 54 31 57 32 53 34 55 36 34 38
REMARK SMILES IDX 35 39 36 40 37 41 45 42 38 43 43 44 39 45 41 46 44 47 40 49
REMARK SMILES IDX 42 51 8 53 9 54 10 55 11 56 19 57 12 58 17 59 13 60 15 61
REMARK SMILES IDX 18 62 14 64 16 66 21 68 22 69 23 70 24 71 32 72 25 73 30 74
REMARK SMILES IDX 26 75 28 76 31 77 27 79 29 81
REMARK H PARENT 62 18 64 20 66 22 57 33 53 35 55 37 44 48 40 50 42 52 18 63
REMARK H PARENT 14 65 16 67 31 78 27 80 29 82
REMARK Flexibility Score: inf
ROOT
ATOM      1  C   UNL     1      26.195   1.369  21.763  1.00  0.00     0.205 C 
ATOM      2  C   UNL     1      27.416   2.190  21.236  1.00  0.00     0.254 C 
ATOM      3  C   UNL     1      28.250   2.720  22.419  1.00  0.00     0.267 C 
ATOM      4  C   UNL     1      27.318   3.468  23.389  1.00  0.00     0.290 C 
ATOM      5  C   UNL     1      26.094   2.586  23.767  1.00  0.00     0.357 C 
ATOM      6  O   UNL     1      26.182   1.296  23.179  1.00  0.00    -0.329 OA
ENDROOT
BRANCH   1   7
ATOM      7  C   UNL     1      26.202  -0.073  21.226  1.00  0.00     0.269 C 
BRANCH   7   8
ATOM      8  O   UNL     1      26.607  -0.089  19.855  1.00  0.00    -0.459 OA
BRANCH   8   9
ATOM      9  C   UNL     1      27.602  -0.942  19.340  1.00  0.00     0.338 C 
ATOM     10  O   UNL     1      27.664  -2.130  19.757  1.00  0.00    -0.246 OA
BRANCH   9  11
ATOM     11  C   UNL     1      28.564  -0.490  18.320  1.00  0.00     0.067 A 
ATOM     12  C   UNL     1      29.319   0.674  18.530  1.00  0.00     0.066 A 
ATOM     13  C   UNL     1      30.168   1.157  17.530  1.00  0.00     0.162 A 
ATOM     14  C   UNL     1      28.675  -1.179  17.107  1.00  0.00     0.066 A 
ATOM     15  C   UNL     1      30.272   0.472  16.304  1.00  0.00     0.200 A 
ATOM     16  C   UNL     1      29.515  -0.696  16.092  1.00  0.00     0.162 A 
BRANCH  13  17
ATOM     17  O   UNL     1      30.896   2.321  17.769  1.00  0.00    -0.504 OA
ATOM     18  H   UNL     1      31.556   2.692  17.092  1.00  0.00     0.293 HD
ENDBRANCH  13  17
BRANCH  15  19
ATOM     19  O   UNL     1      31.124   0.959  15.312  1.00  0.00    -0.502 OA
ATOM     20  H   UNL     1      32.128   0.988  15.429  1.00  0.00     0.293 HD
ENDBRANCH  15  19
BRANCH  16  21
ATOM     21  O   UNL     1      29.595  -1.369  14.875  1.00  0.00    -0.504 OA
ATOM     22  H   UNL     1      28.768  -1.558  14.320  1.00  0.00     0.293 HD
ENDBRANCH  16  21
ENDBRANCH   9  11
ENDBRANCH   8   9
ENDBRANCH   7   8
ENDBRANCH   1   7
BRANCH   2  23
ATOM     23  O   UNL     1      26.948   3.299  20.465  1.00  0.00    -0.452 OA
BRANCH  23  24
ATOM     24  C   UNL     1      27.402   3.569  19.169  1.00  0.00     0.338 C 
ATOM     25  O   UNL     1      28.592   3.944  18.981  1.00  0.00    -0.246 OA
BRANCH  24  26
ATOM     26  C   UNL     1      26.473   3.451  18.023  1.00  0.00     0.067 A 
ATOM     27  C   UNL     1      25.762   4.570  17.559  1.00  0.00     0.066 A 
ATOM     28  C   UNL     1      26.254   2.202  17.418  1.00  0.00     0.066 A 
ATOM     29  C   UNL     1      24.845   4.449  16.510  1.00  0.00     0.162 A 
ATOM     30  C   UNL     1      25.330   2.070  16.374  1.00  0.00     0.162 A 
ATOM     31  C   UNL     1      24.625   3.195  15.913  1.00  0.00     0.200 A 
BRANCH  29  32
ATOM     32  O   UNL     1      24.161   5.583  16.077  1.00  0.00    -0.504 OA
ATOM     33  H   UNL     1      23.184   5.555  15.811  1.00  0.00     0.293 HD
ENDBRANCH  29  32
BRANCH  30  34
ATOM     34  O   UNL     1      25.105   0.821  15.797  1.00  0.00    -0.504 OA
ATOM     35  H   UNL     1      25.184   0.675  14.798  1.00  0.00     0.293 HD
ENDBRANCH  30  34
BRANCH  31  36
ATOM     36  O   UNL     1      23.698   3.079  14.875  1.00  0.00    -0.502 OA
ATOM     37  H   UNL     1      23.686   3.717  14.089  1.00  0.00     0.293 HD
ENDBRANCH  31  36
ENDBRANCH  24  26
ENDBRANCH  23  24
ENDBRANCH   2  23
BRANCH   3  38
ATOM     38  O   UNL     1      28.848   1.632  23.122  1.00  0.00    -0.450 OA
BRANCH  38  39
ATOM     39  C   UNL     1      30.133   1.139  22.884  1.00  0.00     0.338 C 
ATOM     40  O   UNL     1      31.114   1.925  22.777  1.00  0.00    -0.246 OA
BRANCH  39  41
ATOM     41  C   UNL     1      30.322  -0.321  22.765  1.00  0.00     0.067 A 
ATOM     42  C   UNL     1      30.486  -0.893  21.492  1.00  0.00     0.066 A 
ATOM     43  C   UNL     1      30.345  -1.149  23.900  1.00  0.00     0.066 A 
ATOM     44  C   UNL     1      30.683  -2.271  21.352  1.00  0.00     0.162 A 
ATOM     45  C   UNL     1      30.525  -2.533  23.762  1.00  0.00     0.162 A 
ATOM     46  C   UNL     1      30.712  -3.091  22.484  1.00  0.00     0.200 A 
BRANCH  44  47
ATOM     47  O   UNL     1      30.855  -2.834  20.088  1.00  0.00    -0.504 OA
ATOM     48  H   UNL     1      30.446  -2.412  19.261  1.00  0.00     0.293 HD
ENDBRANCH  44  47
BRANCH  45  49
ATOM     49  O   UNL     1      30.497  -3.363  24.884  1.00  0.00    -0.504 OA
ATOM     50  H   UNL     1      31.198  -4.077  25.046  1.00  0.00     0.293 HD
ENDBRANCH  45  49
BRANCH  46  51
ATOM     51  O   UNL     1      30.916  -4.464  22.325  1.00  0.00    -0.502 OA
ATOM     52  H   UNL     1      31.755  -4.918  22.660  1.00  0.00     0.293 HD
ENDBRANCH  46  51
ENDBRANCH  39  41
ENDBRANCH  38  39
ENDBRANCH   3  38
BRANCH   5  53
ATOM     53  O   UNL     1      26.022   2.417  25.183  1.00  0.00    -0.428 OA
BRANCH  53  54
ATOM     54  C   UNL     1      24.807   2.178  25.835  1.00  0.00     0.340 C 
ATOM     55  O   UNL     1      24.289   1.027  25.800  1.00  0.00    -0.246 OA
BRANCH  54  56
ATOM     56  C   UNL     1      24.171   3.255  26.623  1.00  0.00     0.067 A 
ATOM     57  C   UNL     1      23.419   2.955  27.767  1.00  0.00     0.066 A 
ATOM     58  C   UNL     1      24.375   4.598  26.271  1.00  0.00     0.066 A 
ATOM     59  C   UNL     1      22.893   3.981  28.563  1.00  0.00     0.162 A 
ATOM     60  C   UNL     1      23.847   5.634  27.052  1.00  0.00     0.162 A 
ATOM     61  C   UNL     1      23.095   5.323  28.210  1.00  0.00     0.200 A 
BRANCH  59  62
ATOM     62  O   UNL     1      22.176   3.670  29.718  1.00  0.00    -0.504 OA
ATOM     63  H   UNL     1      21.168   3.578  29.706  1.00  0.00     0.293 HD
ENDBRANCH  59  62
BRANCH  60  64
ATOM     64  O   UNL     1      24.107   6.946  26.648  1.00  0.00    -0.504 OA
ATOM     65  H   UNL     1      24.852   7.212  26.023  1.00  0.00     0.293 HD
ENDBRANCH  60  64
BRANCH  61  66
ATOM     66  O   UNL     1      22.542   6.307  29.031  1.00  0.00    -0.502 OA
ATOM     67  H   UNL     1      22.738   7.295  28.934  1.00  0.00     0.293 HD
ENDBRANCH  61  66
ENDBRANCH  54  56
ENDBRANCH  53  54
ENDBRANCH   5  53
BRANCH   4  68
ATOM     68  O   UNL     1      28.059   3.855  24.547  1.00  0.00    -0.448 OA
BRANCH  68  69
ATOM     69  C   UNL     1      28.944   4.941  24.554  1.00  0.00     0.339 C 
ATOM     70  O   UNL     1      29.781   5.077  23.619  1.00  0.00    -0.246 OA
BRANCH  69  71
ATOM     71  C   UNL     1      28.912   5.910  25.668  1.00  0.00     0.067 A 
ATOM     72  C   UNL     1      30.024   6.724  25.930  1.00  0.00     0.066 A 
ATOM     73  C   UNL     1      27.756   6.060  26.449  1.00  0.00     0.066 A 
ATOM     74  C   UNL     1      29.986   7.688  26.947  1.00  0.00     0.162 A 
ATOM     75  C   UNL     1      27.707   7.013  27.473  1.00  0.00     0.162 A 
ATOM     76  C   UNL     1      28.814   7.836  27.727  1.00  0.00     0.200 A 
BRANCH  74  77
ATOM     77  O   UNL     1      31.125   8.474  27.141  1.00  0.00    -0.504 OA
ATOM     78  H   UNL     1      31.172   9.461  26.932  1.00  0.00     0.293 HD
ENDBRANCH  74  77
BRANCH  75  79
ATOM     79  O   UNL     1      26.554   7.150  28.243  1.00  0.00    -0.504 OA
ATOM     80  H   UNL     1      25.913   6.379  28.383  1.00  0.00     0.293 HD
ENDBRANCH  75  79
BRANCH  76  81
ATOM     81  O   UNL     1      28.705   8.780  28.750  1.00  0.00    -0.502 OA
ATOM     82  H   UNL     1      28.247   8.607  29.634  1.00  0.00     0.293 HD
ENDBRANCH  76  81
ENDBRANCH  69  71
ENDBRANCH  68  69
ENDBRANCH   4  68
TORSDOF 31
ENDMDL
MODEL 3
REMARK VINA RESULT:    -5.688      1.626      7.155
REMARK INTER + INTRA:         -17.656
REMARK INTER:                 -12.180
REMARK INTRA:                  -5.476
REMARK UNBOUND:                -4.153
REMARK SMILES O=C(OC[C@H]1O[C@@H](OC(=O)c2cc(O)c(O)c(O)c2)[C@@H](OC(=O)c2cc(O)c(O)c(O)c2)[C@@H](OC(=O)c2cc(O)c(O)c(O)c2)[C@@H]1OC(=O)c1cc(O)c(O)c(O)c1)c1cc(O)c(O)c(O)c1
REMARK SMILES IDX 5 1 46 2 33 3 20 4 7 5 6 6 4 7 3 8 2 9 1 10 59 11 60 12
REMARK SMILES IDX 61 13 67 14 63 15 65 16 62 17 64 19 66 21 47 23 48 24 49 25
REMARK SMILES IDX 50 26 58 27 51 28 56 29 52 30 54 31 57 32 53 34 55 36 34 38
REMARK SMILES IDX 35 39 36 40 37 41 45 42 38 43 43 44 39 45 41 46 44 47 40 49
REMARK SMILES IDX 42 51 8 53 9 54 10 55 11 56 19 57 12 58 17 59 13 60 15 61
REMARK SMILES IDX 18 62 14 64 16 66 21 68 22 69 23 70 24 71 32 72 25 73 30 74
REMARK SMILES IDX 26 75 28 76 31 77 27 79 29 81
REMARK H PARENT 62 18 64 20 66 22 57 33 53 35 55 37 44 48 40 50 42 52 18 63
REMARK H PARENT 14 65 16 67 31 78 27 80 29 82
REMARK Flexibility Score: inf
ROOT
ATOM      1  C   UNL     1      26.241   1.327  21.875  1.00  0.00     0.205 C 
ATOM      2  C   UNL     1      27.417   2.212  21.349  1.00  0.00     0.254 C 
ATOM      3  C   UNL     1      28.217   2.788  22.534  1.00  0.00     0.267 C 
ATOM      4  C   UNL     1      27.243   3.487  23.499  1.00  0.00     0.290 C 
ATOM      5  C   UNL     1      26.067   2.541  23.875  1.00  0.00     0.357 C 
ATOM      6  O   UNL     1      26.227   1.256  23.291  1.00  0.00    -0.329 OA
ENDROOT
BRANCH   1   7
ATOM      7  C   UNL     1      26.329  -0.114  21.340  1.00  0.00     0.269 C 
BRANCH   7   8
ATOM      8  O   UNL     1      26.560  -0.106  19.930  1.00  0.00    -0.459 OA
BRANCH   8   9
ATOM      9  C   UNL     1      27.478  -0.953  19.281  1.00  0.00     0.338 C 
ATOM     10  O   UNL     1      27.551  -2.161  19.633  1.00  0.00    -0.246 OA
BRANCH   9  11
ATOM     11  C   UNL     1      28.348  -0.471  18.193  1.00  0.00     0.067 A 
ATOM     12  C   UNL     1      28.533  -1.250  17.041  1.00  0.00     0.066 A 
ATOM     13  C   UNL     1      29.424  -0.840  16.045  1.00  0.00     0.162 A 
ATOM     14  C   UNL     1      29.050   0.731  18.338  1.00  0.00     0.066 A 
ATOM     15  C   UNL     1      30.141   0.363  16.194  1.00  0.00     0.200 A 
ATOM     16  C   UNL     1      29.956   1.146  17.349  1.00  0.00     0.162 A 
BRANCH  13  17
ATOM     17  O   UNL     1      29.592  -1.643  14.918  1.00  0.00    -0.504 OA
ATOM     18  H   UNL     1      30.445  -2.168  14.753  1.00  0.00     0.293 HD
ENDBRANCH  13  17
BRANCH  15  19
ATOM     19  O   UNL     1      31.027   0.766  15.194  1.00  0.00    -0.502 OA
ATOM     20  H   UNL     1      31.463   1.679  15.194  1.00  0.00     0.293 HD
ENDBRANCH  15  19
BRANCH  16  21
ATOM     21  O   UNL     1      30.675   2.327  17.517  1.00  0.00    -0.504 OA
ATOM     22  H   UNL     1      30.765   3.003  16.767  1.00  0.00     0.293 HD
ENDBRANCH  16  21
ENDBRANCH   9  11
ENDBRANCH   8   9
ENDBRANCH   7   8
ENDBRANCH   1   7
BRANCH   2  23
ATOM     23  O   UNL     1      26.892   3.293  20.575  1.00  0.00    -0.452 OA
BRANCH  23  24
ATOM     24  C   UNL     1      27.484   3.732  19.385  1.00  0.00     0.338 C 
ATOM     25  O   UNL     1      28.724   3.968  19.347  1.00  0.00    -0.246 OA
BRANCH  24  26
ATOM     26  C   UNL     1      26.649   3.959  18.186  1.00  0.00     0.067 A 
ATOM     27  C   UNL     1      26.494   5.250  17.653  1.00  0.00     0.066 A 
ATOM     28  C   UNL     1      25.958   2.888  17.595  1.00  0.00     0.066 A 
ATOM     29  C   UNL     1      25.663   5.472  16.550  1.00  0.00     0.162 A 
ATOM     30  C   UNL     1      25.116   3.103  16.497  1.00  0.00     0.162 A 
ATOM     31  C   UNL     1      24.969   4.397  15.967  1.00  0.00     0.200 A 
BRANCH  29  32
ATOM     32  O   UNL     1      25.538   6.766  16.050  1.00  0.00    -0.504 OA
ATOM     33  H   UNL     1      26.295   7.233  15.564  1.00  0.00     0.293 HD
ENDBRANCH  29  32
BRANCH  30  34
ATOM     34  O   UNL     1      24.418   2.035  15.934  1.00  0.00    -0.504 OA
ATOM     35  H   UNL     1      24.153   1.226  16.481  1.00  0.00     0.293 HD
ENDBRANCH  30  34
BRANCH  31  36
ATOM     36  O   UNL     1      24.130   4.629  14.875  1.00  0.00    -0.502 OA
ATOM     37  H   UNL     1      23.407   5.338  14.892  1.00  0.00     0.293 HD
ENDBRANCH  31  36
ENDBRANCH  24  26
ENDBRANCH  23  24
ENDBRANCH   2  23
BRANCH   3  38
ATOM     38  O   UNL     1      28.872   1.737  23.242  1.00  0.00    -0.450 OA
BRANCH  38  39
ATOM     39  C   UNL     1      30.130   1.221  22.920  1.00  0.00     0.338 C 
ATOM     40  O   UNL     1      31.125   1.986  22.795  1.00  0.00    -0.246 OA
BRANCH  39  41
ATOM     41  C   UNL     1      30.273  -0.236  22.735  1.00  0.00     0.067 A 
ATOM     42  C   UNL     1      30.369  -1.069  23.864  1.00  0.00     0.066 A 
ATOM     43  C   UNL     1      30.310  -0.810  21.452  1.00  0.00     0.066 A 
ATOM     44  C   UNL     1      30.488  -2.455  23.716  1.00  0.00     0.162 A 
ATOM     45  C   UNL     1      30.447  -2.197  21.302  1.00  0.00     0.162 A 
ATOM     46  C   UNL     1      30.518  -3.022  22.439  1.00  0.00     0.200 A 
BRANCH  44  47
ATOM     47  O   UNL     1      30.573  -3.278  24.839  1.00  0.00    -0.504 OA
ATOM     48  H   UNL     1      29.854  -3.272  25.554  1.00  0.00     0.293 HD
ENDBRANCH  44  47
BRANCH  45  49
ATOM     49  O   UNL     1      30.535  -2.762  20.028  1.00  0.00    -0.504 OA
ATOM     50  H   UNL     1      30.626  -2.198  19.191  1.00  0.00     0.293 HD
ENDBRANCH  45  49
BRANCH  46  51
ATOM     51  O   UNL     1      30.631  -4.409  22.313  1.00  0.00    -0.502 OA
ATOM     52  H   UNL     1      31.529  -4.871  22.325  1.00  0.00     0.293 HD
ENDBRANCH  46  51
ENDBRANCH  39  41
ENDBRANCH  38  39
ENDBRANCH   3  38
BRANCH   5  53
ATOM     53  O   UNL     1      26.001   2.370  25.291  1.00  0.00    -0.428 OA
BRANCH  53  54
ATOM     54  C   UNL     1      24.778   2.246  25.961  1.00  0.00     0.340 C 
ATOM     55  O   UNL     1      24.152   1.150  25.932  1.00  0.00    -0.246 OA
BRANCH  54  56
ATOM     56  C   UNL     1      24.258   3.376  26.760  1.00  0.00     0.067 A 
ATOM     57  C   UNL     1      24.466   4.699  26.347  1.00  0.00     0.066 A 
ATOM     58  C   UNL     1      23.486   3.131  27.906  1.00  0.00     0.066 A 
ATOM     59  C   UNL     1      23.897   5.765  27.055  1.00  0.00     0.162 A 
ATOM     60  C   UNL     1      22.918   4.187  28.629  1.00  0.00     0.162 A 
ATOM     61  C   UNL     1      23.127   5.520  28.201  1.00  0.00     0.200 A 
BRANCH  59  62
ATOM     62  O   UNL     1      24.082   7.075  26.613  1.00  0.00    -0.504 OA
ATOM     63  H   UNL     1      23.386   7.545  26.049  1.00  0.00     0.293 HD
ENDBRANCH  59  62
BRANCH  60  64
ATOM     64  O   UNL     1      22.148   3.864  29.749  1.00  0.00    -0.504 OA
ATOM     65  H   UNL     1      22.162   2.966  30.209  1.00  0.00     0.293 HD
ENDBRANCH  60  64
BRANCH  61  66
ATOM     66  O   UNL     1      22.589   6.617  28.877  1.00  0.00    -0.502 OA
ATOM     67  H   UNL     1      21.839   7.189  28.510  1.00  0.00     0.293 HD
ENDBRANCH  61  66
ENDBRANCH  54  56
ENDBRANCH  53  54
ENDBRANCH   5  53
BRANCH   4  68
ATOM     68  O   UNL     1      27.958   3.916  24.660  1.00  0.00    -0.448 OA
BRANCH  68  69
ATOM     69  C   UNL     1      28.857   4.990  24.642  1.00  0.00     0.339 C 
ATOM     70  O   UNL     1      29.699   5.091  23.707  1.00  0.00    -0.246 OA
BRANCH  69  71
ATOM     71  C   UNL     1      28.834   5.988  25.731  1.00  0.00     0.067 A 
ATOM     72  C   UNL     1      27.678   6.165  26.505  1.00  0.00     0.066 A 
ATOM     73  C   UNL     1      29.980   6.738  26.033  1.00  0.00     0.066 A 
ATOM     74  C   UNL     1      27.662   7.067  27.578  1.00  0.00     0.162 A 
ATOM     75  C   UNL     1      29.975   7.648  27.096  1.00  0.00     0.162 A 
ATOM     76  C   UNL     1      28.824   7.817  27.878  1.00  0.00     0.200 A 
BRANCH  74  77
ATOM     77  O   UNL     1      26.479   7.179  28.315  1.00  0.00    -0.504 OA
ATOM     78  H   UNL     1      26.420   7.034  29.312  1.00  0.00     0.293 HD
ENDBRANCH  74  77
BRANCH  75  79
ATOM     79  O   UNL     1      31.120   8.390  27.384  1.00  0.00    -0.504 OA
ATOM     80  H   UNL     1      31.979   8.265  26.863  1.00  0.00     0.293 HD
ENDBRANCH  75  79
BRANCH  76  81
ATOM     81  O   UNL     1      28.879   8.727  28.936  1.00  0.00    -0.502 OA
ATOM     82  H   UNL     1      28.217   8.750  29.699  1.00  0.00     0.293 HD
ENDBRANCH  76  81
ENDBRANCH  69  71
ENDBRANCH  68  69
ENDBRANCH   4  68
TORSDOF 31
ENDMDL
MODEL 4
REMARK VINA RESULT:    -4.605      2.044      9.381
REMARK INTER + INTRA:         -15.085
REMARK INTER:                 -10.961
REMARK INTRA:                  -4.124
REMARK UNBOUND:                -4.153
REMARK SMILES O=C(OC[C@H]1O[C@@H](OC(=O)c2cc(O)c(O)c(O)c2)[C@@H](OC(=O)c2cc(O)c(O)c(O)c2)[C@@H](OC(=O)c2cc(O)c(O)c(O)c2)[C@@H]1OC(=O)c1cc(O)c(O)c(O)c1)c1cc(O)c(O)c(O)c1
REMARK SMILES IDX 5 1 46 2 33 3 20 4 7 5 6 6 4 7 3 8 2 9 1 10 59 11 60 12
REMARK SMILES IDX 61 13 67 14 63 15 65 16 62 17 64 19 66 21 47 23 48 24 49 25
REMARK SMILES IDX 50 26 58 27 51 28 56 29 52 30 54 31 57 32 53 34 55 36 34 38
REMARK SMILES IDX 35 39 36 40 37 41 45 42 38 43 43 44 39 45 41 46 44 47 40 49
REMARK SMILES IDX 42 51 8 53 9 54 10 55 11 56 19 57 12 58 17 59 13 60 15 61
REMARK SMILES IDX 18 62 14 64 16 66 21 68 22 69 23 70 24 71 32 72 25 73 30 74
REMARK SMILES IDX 26 75 28 76 31 77 27 79 29 81
REMARK H PARENT 62 18 64 20 66 22 57 33 53 35 55 37 44 48 40 50 42 52 18 63
REMARK H PARENT 14 65 16 67 31 78 27 80 29 82
REMARK Flexibility Score: inf
ROOT
ATOM      1  C   UNL     1      26.743   3.698  24.332  1.00  0.00     0.205 C 
ATOM      2  C   UNL     1      28.043   4.449  23.896  1.00  0.00     0.254 C 
ATOM      3  C   UNL     1      28.557   3.883  22.557  1.00  0.00     0.267 C 
ATOM      4  C   UNL     1      28.684   2.354  22.679  1.00  0.00     0.290 C 
ATOM      5  C   UNL     1      27.362   1.732  23.211  1.00  0.00     0.357 C 
ATOM      6  O   UNL     1      26.355   2.720  23.381  1.00  0.00    -0.329 OA
ENDROOT
BRANCH   1   7
ATOM      7  C   UNL     1      25.559   4.665  24.510  1.00  0.00     0.269 C 
BRANCH   7   8
ATOM      8  O   UNL     1      25.349   4.943  25.896  1.00  0.00    -0.459 OA
BRANCH   8   9
ATOM      9  C   UNL     1      24.182   4.590  26.599  1.00  0.00     0.338 C 
ATOM     10  O   UNL     1      23.674   3.452  26.410  1.00  0.00    -0.246 OA
BRANCH   9  11
ATOM     11  C   UNL     1      23.543   5.508  27.560  1.00  0.00     0.067 A 
ATOM     12  C   UNL     1      23.482   6.882  27.287  1.00  0.00     0.066 A 
ATOM     13  C   UNL     1      22.958   7.769  28.231  1.00  0.00     0.162 A 
ATOM     14  C   UNL     1      23.061   5.021  28.780  1.00  0.00     0.066 A 
ATOM     15  C   UNL     1      22.483   7.283  29.465  1.00  0.00     0.200 A 
ATOM     16  C   UNL     1      22.543   5.904  29.740  1.00  0.00     0.162 A 
BRANCH  13  17
ATOM     17  O   UNL     1      22.921   9.130  27.932  1.00  0.00    -0.504 OA
ATOM     18  H   UNL     1      23.515   9.540  27.217  1.00  0.00     0.293 HD
ENDBRANCH  13  17
BRANCH  15  19
ATOM     19  O   UNL     1      21.958   8.175  30.401  1.00  0.00    -0.502 OA
ATOM     20  H   UNL     1      21.197   8.804  30.182  1.00  0.00     0.293 HD
ENDBRANCH  15  19
BRANCH  16  21
ATOM     21  O   UNL     1      22.096   5.415  30.965  1.00  0.00    -0.504 OA
ATOM     22  H   UNL     1      22.673   4.807  31.535  1.00  0.00     0.293 HD
ENDBRANCH  16  21
ENDBRANCH   9  11
ENDBRANCH   8   9
ENDBRANCH   7   8
ENDBRANCH   1   7
BRANCH   2  23
ATOM     23  O   UNL     1      29.052   4.272  24.892  1.00  0.00    -0.452 OA
BRANCH  23  24
ATOM     24  C   UNL     1      29.964   5.277  25.235  1.00  0.00     0.338 C 
ATOM     25  O   UNL     1      31.100   5.315  24.686  1.00  0.00    -0.246 OA
BRANCH  24  26
ATOM     26  C   UNL     1      29.610   6.272  26.272  1.00  0.00     0.067 A 
ATOM     27  C   UNL     1      28.326   6.288  26.842  1.00  0.00     0.066 A 
ATOM     28  C   UNL     1      30.543   7.248  26.661  1.00  0.00     0.066 A 
ATOM     29  C   UNL     1      27.975   7.260  27.783  1.00  0.00     0.162 A 
ATOM     30  C   UNL     1      30.197   8.231  27.595  1.00  0.00     0.162 A 
ATOM     31  C   UNL     1      28.911   8.238  28.164  1.00  0.00     0.200 A 
BRANCH  29  32
ATOM     32  O   UNL     1      26.692   7.241  28.327  1.00  0.00    -0.504 OA
ATOM     33  H   UNL     1      26.399   7.897  29.040  1.00  0.00     0.293 HD
ENDBRANCH  29  32
BRANCH  30  34
ATOM     34  O   UNL     1      31.125   9.207  27.957  1.00  0.00    -0.504 OA
ATOM     35  H   UNL     1      32.111   8.996  28.043  1.00  0.00     0.293 HD
ENDBRANCH  30  34
BRANCH  31  36
ATOM     36  O   UNL     1      28.549   9.214  29.094  1.00  0.00    -0.502 OA
ATOM     37  H   UNL     1      27.624   9.248  29.507  1.00  0.00     0.293 HD
ENDBRANCH  31  36
ENDBRANCH  24  26
ENDBRANCH  23  24
ENDBRANCH   2  23
BRANCH   3  38
ATOM     38  O   UNL     1      27.629   4.174  21.513  1.00  0.00    -0.450 OA
BRANCH  38  39
ATOM     39  C   UNL     1      27.855   5.080  20.475  1.00  0.00     0.338 C 
ATOM     40  O   UNL     1      28.042   6.304  20.719  1.00  0.00    -0.246 OA
BRANCH  39  41
ATOM     41  C   UNL     1      27.876   4.578  19.087  1.00  0.00     0.067 A 
ATOM     42  C   UNL     1      26.795   4.863  18.233  1.00  0.00     0.066 A 
ATOM     43  C   UNL     1      28.956   3.823  18.599  1.00  0.00     0.066 A 
ATOM     44  C   UNL     1      26.797   4.412  16.909  1.00  0.00     0.162 A 
ATOM     45  C   UNL     1      28.953   3.356  17.277  1.00  0.00     0.162 A 
ATOM     46  C   UNL     1      27.877   3.668  16.426  1.00  0.00     0.200 A 
BRANCH  44  47
ATOM     47  O   UNL     1      25.728   4.706  16.064  1.00  0.00    -0.504 OA
ATOM     48  H   UNL     1      25.723   5.540  15.487  1.00  0.00     0.293 HD
ENDBRANCH  44  47
BRANCH  45  49
ATOM     49  O   UNL     1      30.002   2.564  16.807  1.00  0.00    -0.504 OA
ATOM     50  H   UNL     1      30.626   2.874  16.071  1.00  0.00     0.293 HD
ENDBRANCH  45  49
BRANCH  46  51
ATOM     51  O   UNL     1      27.864   3.233  15.098  1.00  0.00    -0.502 OA
ATOM     52  H   UNL     1      27.047   3.342  14.513  1.00  0.00     0.293 HD
ENDBRANCH  46  51
ENDBRANCH  39  41
ENDBRANCH  38  39
ENDBRANCH   3  38
BRANCH   5  53
ATOM     53  O   UNL     1      26.866   0.759  22.290  1.00  0.00    -0.428 OA
BRANCH  53  54
ATOM     54  C   UNL     1      26.242   1.129  21.093  1.00  0.00     0.340 C 
ATOM     55  O   UNL     1      25.424   2.091  21.080  1.00  0.00    -0.246 OA
BRANCH  54  56
ATOM     56  C   UNL     1      26.596   0.439  19.835  1.00  0.00     0.067 A 
ATOM     57  C   UNL     1      27.166  -0.841  19.858  1.00  0.00     0.066 A 
ATOM     58  C   UNL     1      26.295   1.032  18.599  1.00  0.00     0.066 A 
ATOM     59  C   UNL     1      27.417  -1.530  18.664  1.00  0.00     0.162 A 
ATOM     60  C   UNL     1      26.549   0.358  17.398  1.00  0.00     0.162 A 
ATOM     61  C   UNL     1      27.119  -0.937  17.429  1.00  0.00     0.200 A 
BRANCH  59  62
ATOM     62  O   UNL     1      27.952  -2.818  18.702  1.00  0.00    -0.504 OA
ATOM     63  H   UNL     1      28.860  -3.001  19.111  1.00  0.00     0.293 HD
ENDBRANCH  59  62
BRANCH  60  64
ATOM     64  O   UNL     1      26.208   1.006  16.208  1.00  0.00    -0.504 OA
ATOM     65  H   UNL     1      25.582   0.627  15.514  1.00  0.00     0.293 HD
ENDBRANCH  60  64
BRANCH  61  66
ATOM     66  O   UNL     1      27.397  -1.662  16.269  1.00  0.00    -0.502 OA
ATOM     67  H   UNL     1      27.038  -2.591  16.089  1.00  0.00     0.293 HD
ENDBRANCH  61  66
ENDBRANCH  54  56
ENDBRANCH  53  54
ENDBRANCH   5  53
BRANCH   4  68
ATOM     68  O   UNL     1      29.042   1.810  21.407  1.00  0.00    -0.448 OA
BRANCH  68  69
ATOM     69  C   UNL     1      30.176   1.012  21.215  1.00  0.00     0.339 C 
ATOM     70  O   UNL     1      31.125   1.428  20.493  1.00  0.00    -0.246 OA
BRANCH  69  71
ATOM     71  C   UNL     1      30.250  -0.325  21.838  1.00  0.00     0.067 A 
ATOM     72  C   UNL     1      30.009  -0.482  23.211  1.00  0.00     0.066 A 
ATOM     73  C   UNL     1      30.519  -1.460  21.058  1.00  0.00     0.066 A 
ATOM     74  C   UNL     1      30.019  -1.753  23.803  1.00  0.00     0.162 A 
ATOM     75  C   UNL     1      30.541  -2.734  21.637  1.00  0.00     0.162 A 
ATOM     76  C   UNL     1      30.287  -2.892  23.007  1.00  0.00     0.200 A 
BRANCH  74  77
ATOM     77  O   UNL     1      29.754  -1.834  25.172  1.00  0.00    -0.504 OA
ATOM     78  H   UNL     1      30.143  -2.539  25.782  1.00  0.00     0.293 HD
ENDBRANCH  74  77
BRANCH  75  79
ATOM     79  O   UNL     1      30.812  -3.853  20.852  1.00  0.00    -0.504 OA
ATOM     80  H   UNL     1      31.745  -4.243  20.787  1.00  0.00     0.293 HD
ENDBRANCH  75  79
BRANCH  76  81
ATOM     81  O   UNL     1      30.306  -4.187  23.530  1.00  0.00    -0.502 OA
ATOM     82  H   UNL     1      30.126  -5.020  22.987  1.00  0.00     0.293 HD
ENDBRANCH  76  81
ENDBRANCH  69  71
ENDBRANCH  68  69
ENDBRANCH   4  68
TORSDOF 31
ENDMDL
MODEL 5
REMARK VINA RESULT:    -4.431      1.637      7.685
REMARK INTER + INTRA:         -14.671
REMARK INTER:                 -10.253
REMARK INTRA:                  -4.418
REMARK UNBOUND:                -4.153
REMARK SMILES O=C(OC[C@H]1O[C@@H](OC(=O)c2cc(O)c(O)c(O)c2)[C@@H](OC(=O)c2cc(O)c(O)c(O)c2)[C@@H](OC(=O)c2cc(O)c(O)c(O)c2)[C@@H]1OC(=O)c1cc(O)c(O)c(O)c1)c1cc(O)c(O)c(O)c1
REMARK SMILES IDX 5 1 46 2 33 3 20 4 7 5 6 6 4 7 3 8 2 9 1 10 59 11 60 12
REMARK SMILES IDX 61 13 67 14 63 15 65 16 62 17 64 19 66 21 47 23 48 24 49 25
REMARK SMILES IDX 50 26 58 27 51 28 56 29 52 30 54 31 57 32 53 34 55 36 34 38
REMARK SMILES IDX 35 39 36 40 37 41 45 42 38 43 43 44 39 45 41 46 44 47 40 49
REMARK SMILES IDX 42 51 8 53 9 54 10 55 11 56 19 57 12 58 17 59 13 60 15 61
REMARK SMILES IDX 18 62 14 64 16 66 21 68 22 69 23 70 24 71 32 72 25 73 30 74
REMARK SMILES IDX 26 75 28 76 31 77 27 79 29 81
REMARK H PARENT 62 18 64 20 66 22 57 33 53 35 55 37 44 48 40 50 42 52 18 63
REMARK H PARENT 14 65 16 67 31 78 27 80 29 82
REMARK Flexibility Score: inf
ROOT
ATOM      1  C   UNL     1      27.433   0.862  21.959  1.00  0.00     0.205 C 
ATOM      2  C   UNL     1      27.309   2.421  21.928  1.00  0.00     0.254 C 
ATOM      3  C   UNL     1      28.390   3.020  21.007  1.00  0.00     0.267 C 
ATOM      4  C   UNL     1      29.765   2.474  21.431  1.00  0.00     0.290 C 
ATOM      5  C   UNL     1      29.737   0.921  21.516  1.00  0.00     0.357 C 
ATOM      6  O   UNL     1      28.477   0.401  21.116  1.00  0.00    -0.329 OA
ENDROOT
BRANCH   1   7
ATOM      7  C   UNL     1      26.133   0.178  21.500  1.00  0.00     0.269 C 
BRANCH   7   8
ATOM      8  O   UNL     1      26.430  -0.941  20.662  1.00  0.00    -0.459 OA
BRANCH   8   9
ATOM      9  C   UNL     1      25.936  -1.094  19.353  1.00  0.00     0.338 C 
ATOM     10  O   UNL     1      24.763  -1.526  19.188  1.00  0.00    -0.246 OA
BRANCH   9  11
ATOM     11  C   UNL     1      26.746  -0.753  18.170  1.00  0.00     0.067 A 
ATOM     12  C   UNL     1      28.031  -1.294  18.016  1.00  0.00     0.066 A 
ATOM     13  C   UNL     1      28.838  -0.906  16.943  1.00  0.00     0.162 A 
ATOM     14  C   UNL     1      26.265   0.170  17.234  1.00  0.00     0.066 A 
ATOM     15  C   UNL     1      28.361   0.031  16.006  1.00  0.00     0.200 A 
ATOM     16  C   UNL     1      27.072   0.575  16.159  1.00  0.00     0.162 A 
BRANCH  13  17
ATOM     17  O   UNL     1      30.114  -1.455  16.825  1.00  0.00    -0.504 OA
ATOM     18  H   UNL     1      30.655  -1.384  15.969  1.00  0.00     0.293 HD
ENDBRANCH  13  17
BRANCH  15  19
ATOM     19  O   UNL     1      29.172   0.411  14.936  1.00  0.00    -0.502 OA
ATOM     20  H   UNL     1      29.009   0.087  13.992  1.00  0.00     0.293 HD
ENDBRANCH  15  19
BRANCH  16  21
ATOM     21  O   UNL     1      26.598   1.518  15.251  1.00  0.00    -0.504 OA
ATOM     22  H   UNL     1      25.657   1.889  15.316  1.00  0.00     0.293 HD
ENDBRANCH  16  21
ENDBRANCH   9  11
ENDBRANCH   8   9
ENDBRANCH   7   8
ENDBRANCH   1   7
BRANCH   2  23
ATOM     23  O   UNL     1      27.486   2.938  23.249  1.00  0.00    -0.452 OA
BRANCH  23  24
ATOM     24  C   UNL     1      26.417   3.175  24.121  1.00  0.00     0.338 C 
ATOM     25  O   UNL     1      25.371   2.473  24.042  1.00  0.00    -0.246 OA
BRANCH  24  26
ATOM     26  C   UNL     1      26.500   4.273  25.108  1.00  0.00     0.067 A 
ATOM     27  C   UNL     1      25.351   4.994  25.476  1.00  0.00     0.066 A 
ATOM     28  C   UNL     1      27.742   4.643  25.651  1.00  0.00     0.066 A 
ATOM     29  C   UNL     1      25.437   6.067  26.370  1.00  0.00     0.162 A 
ATOM     30  C   UNL     1      27.839   5.722  26.537  1.00  0.00     0.162 A 
ATOM     31  C   UNL     1      26.685   6.436  26.904  1.00  0.00     0.200 A 
BRANCH  29  32
ATOM     32  O   UNL     1      24.275   6.755  26.712  1.00  0.00    -0.504 OA
ATOM     33  H   UNL     1      24.105   7.092  27.652  1.00  0.00     0.293 HD
ENDBRANCH  29  32
BRANCH  30  34
ATOM     34  O   UNL     1      29.081   6.092  27.052  1.00  0.00    -0.504 OA
ATOM     35  H   UNL     1      29.864   6.309  26.446  1.00  0.00     0.293 HD
ENDBRANCH  30  34
BRANCH  31  36
ATOM     36  O   UNL     1      26.765   7.517  27.785  1.00  0.00    -0.502 OA
ATOM     37  H   UNL     1      26.288   8.392  27.607  1.00  0.00     0.293 HD
ENDBRANCH  31  36
ENDBRANCH  24  26
ENDBRANCH  23  24
ENDBRANCH   2  23
BRANCH   3  38
ATOM     38  O   UNL     1      28.151   2.634  19.655  1.00  0.00    -0.450 OA
BRANCH  38  39
ATOM     39  C   UNL     1      27.063   3.053  18.885  1.00  0.00     0.338 C 
ATOM     40  O   UNL     1      25.910   2.585  19.092  1.00  0.00    -0.246 OA
BRANCH  39  41
ATOM     41  C   UNL     1      27.288   4.060  17.829  1.00  0.00     0.067 A 
ATOM     42  C   UNL     1      26.315   5.048  17.599  1.00  0.00     0.066 A 
ATOM     43  C   UNL     1      28.458   4.053  17.051  1.00  0.00     0.066 A 
ATOM     44  C   UNL     1      26.511   6.023  16.615  1.00  0.00     0.162 A 
ATOM     45  C   UNL     1      28.650   5.019  16.052  1.00  0.00     0.162 A 
ATOM     46  C   UNL     1      27.680   6.017  15.848  1.00  0.00     0.200 A 
BRANCH  44  47
ATOM     47  O   UNL     1      25.547   7.007  16.397  1.00  0.00    -0.504 OA
ATOM     48  H   UNL     1      25.662   7.709  15.674  1.00  0.00     0.293 HD
ENDBRANCH  44  47
BRANCH  45  49
ATOM     49  O   UNL     1      29.788   4.983  15.246  1.00  0.00    -0.504 OA
ATOM     50  H   UNL     1      29.881   5.556  14.415  1.00  0.00     0.293 HD
ENDBRANCH  45  49
BRANCH  46  51
ATOM     51  O   UNL     1      27.860   7.004  14.875  1.00  0.00    -0.502 OA
ATOM     52  H   UNL     1      27.265   7.059  14.060  1.00  0.00     0.293 HD
ENDBRANCH  46  51
ENDBRANCH  39  41
ENDBRANCH  38  39
ENDBRANCH   3  38
BRANCH   5  53
ATOM     53  O   UNL     1      30.732   0.359  20.660  1.00  0.00    -0.428 OA
BRANCH  53  54
ATOM     54  C   UNL     1      30.945  -1.023  20.587  1.00  0.00     0.340 C 
ATOM     55  O   UNL     1      31.125  -1.574  19.465  1.00  0.00    -0.246 OA
BRANCH  54  56
ATOM     56  C   UNL     1      31.031  -1.821  21.829  1.00  0.00     0.067 A 
ATOM     57  C   UNL     1      31.101  -1.192  23.079  1.00  0.00     0.066 A 
ATOM     58  C   UNL     1      30.968  -3.221  21.769  1.00  0.00     0.066 A 
ATOM     59  C   UNL     1      31.090  -1.948  24.258  1.00  0.00     0.162 A 
ATOM     60  C   UNL     1      30.966  -3.990  22.940  1.00  0.00     0.162 A 
ATOM     61  C   UNL     1      31.030  -3.348  24.199  1.00  0.00     0.200 A 
BRANCH  59  62
ATOM     62  O   UNL     1      31.125  -1.309  25.497  1.00  0.00    -0.504 OA
ATOM     63  H   UNL     1      31.318  -0.318  25.575  1.00  0.00     0.293 HD
ENDBRANCH  59  62
BRANCH  60  64
ATOM     64  O   UNL     1      30.885  -5.378  22.802  1.00  0.00    -0.504 OA
ATOM     65  H   UNL     1      30.319  -5.850  22.112  1.00  0.00     0.293 HD
ENDBRANCH  60  64
BRANCH  61  66
ATOM     66  O   UNL     1      31.032  -4.056  25.403  1.00  0.00    -0.502 OA
ATOM     67  H   UNL     1      31.710  -4.770  25.633  1.00  0.00     0.293 HD
ENDBRANCH  61  66
ENDBRANCH  54  56
ENDBRANCH  53  54
ENDBRANCH   5  53
BRANCH   4  68
ATOM     68  O   UNL     1      30.755   2.927  20.506  1.00  0.00    -0.448 OA
BRANCH  68  69
ATOM     69  C   UNL     1      30.934   4.279  20.190  1.00  0.00     0.339 C 
ATOM     70  O   UNL     1      31.048   4.634  18.983  1.00  0.00    -0.246 OA
BRANCH  69  71
ATOM     71  C   UNL     1      31.015   5.285  21.269  1.00  0.00     0.067 A 
ATOM     72  C   UNL     1      31.045   6.653  20.962  1.00  0.00     0.066 A 
ATOM     73  C   UNL     1      31.018   4.886  22.614  1.00  0.00     0.066 A 
ATOM     74  C   UNL     1      31.063   7.618  21.978  1.00  0.00     0.162 A 
ATOM     75  C   UNL     1      31.044   5.839  23.639  1.00  0.00     0.162 A 
ATOM     76  C   UNL     1      31.062   7.207  23.332  1.00  0.00     0.200 A 
BRANCH  74  77
ATOM     77  O   UNL     1      31.077   8.962  21.597  1.00  0.00    -0.504 OA
ATOM     78  H   UNL     1      31.336   9.285  20.676  1.00  0.00     0.293 HD
ENDBRANCH  74  77
BRANCH  75  79
ATOM     79  O   UNL     1      31.050   5.430  24.972  1.00  0.00    -0.504 OA
ATOM     80  H   UNL     1      30.611   5.982  25.699  1.00  0.00     0.293 HD
ENDBRANCH  75  79
BRANCH  76  81
ATOM     81  O   UNL     1      31.072   8.115  24.394  1.00  0.00    -0.502 OA
ATOM     82  H   UNL     1      30.546   8.978  24.406  1.00  0.00     0.293 HD
ENDBRANCH  76  81
ENDBRANCH  69  71
ENDBRANCH  68  69
ENDBRANCH   4  68
TORSDOF 31
ENDMDL
MODEL 6
REMARK VINA RESULT:    -4.398      2.595      9.437
REMARK INTER + INTRA:         -14.593
REMARK INTER:                 -10.090
REMARK INTRA:                  -4.503
REMARK UNBOUND:                -4.153
REMARK SMILES O=C(OC[C@H]1O[C@@H](OC(=O)c2cc(O)c(O)c(O)c2)[C@@H](OC(=O)c2cc(O)c(O)c(O)c2)[C@@H](OC(=O)c2cc(O)c(O)c(O)c2)[C@@H]1OC(=O)c1cc(O)c(O)c(O)c1)c1cc(O)c(O)c(O)c1
REMARK SMILES IDX 5 1 46 2 33 3 20 4 7 5 6 6 4 7 3 8 2 9 1 10 59 11 60 12
REMARK SMILES IDX 61 13 67 14 63 15 65 16 62 17 64 19 66 21 47 23 48 24 49 25
REMARK SMILES IDX 50 26 58 27 51 28 56 29 52 30 54 31 57 32 53 34 55 36 34 38
REMARK SMILES IDX 35 39 36 40 37 41 45 42 38 43 43 44 39 45 41 46 44 47 40 49
REMARK SMILES IDX 42 51 8 53 9 54 10 55 11 56 19 57 12 58 17 59 13 60 15 61
REMARK SMILES IDX 18 62 14 64 16 66 21 68 22 69 23 70 24 71 32 72 25 73 30 74
REMARK SMILES IDX 26 75 28 76 31 77 27 79 29 81
REMARK H PARENT 62 18 64 20 66 22 57 33 53 35 55 37 44 48 40 50 42 52 18 63
REMARK H PARENT 14 65 16 67 31 78 27 80 29 82
REMARK Flexibility Score: inf
ROOT
ATOM      1  C   UNL     1      26.825   4.681  25.218  1.00  0.00     0.205 C 
ATOM      2  C   UNL     1      28.233   5.173  24.750  1.00  0.00     0.254 C 
ATOM      3  C   UNL     1      28.692   4.370  23.517  1.00  0.00     0.267 C 
ATOM      4  C   UNL     1      28.588   2.868  23.835  1.00  0.00     0.290 C 
ATOM      5  C   UNL     1      27.174   2.518  24.380  1.00  0.00     0.357 C 
ATOM      6  O   UNL     1      26.321   3.654  24.380  1.00  0.00    -0.329 OA
ENDROOT
BRANCH   1   7
ATOM      7  C   UNL     1      25.793   5.824  25.219  1.00  0.00     0.269 C 
BRANCH   7   8
ATOM      8  O   UNL     1      25.509   6.234  26.559  1.00  0.00    -0.459 OA
BRANCH   8   9
ATOM      9  C   UNL     1      24.252   6.086  27.174  1.00  0.00     0.338 C 
ATOM     10  O   UNL     1      23.647   4.985  27.076  1.00  0.00    -0.246 OA
BRANCH   9  11
ATOM     11  C   UNL     1      23.627   7.180  27.941  1.00  0.00     0.067 A 
ATOM     12  C   UNL     1      24.029   7.434  29.261  1.00  0.00     0.066 A 
ATOM     13  C   UNL     1      23.381   8.410  30.022  1.00  0.00     0.162 A 
ATOM     14  C   UNL     1      22.580   7.919  27.380  1.00  0.00     0.066 A 
ATOM     15  C   UNL     1      22.319   9.147  29.465  1.00  0.00     0.200 A 
ATOM     16  C   UNL     1      21.915   8.894  28.141  1.00  0.00     0.162 A 
BRANCH  13  17
ATOM     17  O   UNL     1      23.799   8.630  31.334  1.00  0.00    -0.504 OA
ATOM     18  H   UNL     1      23.767   9.549  31.763  1.00  0.00     0.293 HD
ENDBRANCH  13  17
BRANCH  15  19
ATOM     19  O   UNL     1      21.679  10.122  30.231  1.00  0.00    -0.502 OA
ATOM     20  H   UNL     1      21.957  10.332  31.181  1.00  0.00     0.293 HD
ENDBRANCH  15  19
BRANCH  16  21
ATOM     21  O   UNL     1      20.852   9.603  27.585  1.00  0.00    -0.504 OA
ATOM     22  H   UNL     1      20.038   9.129  27.212  1.00  0.00     0.293 HD
ENDBRANCH  16  21
ENDBRANCH   9  11
ENDBRANCH   8   9
ENDBRANCH   7   8
ENDBRANCH   1   7
BRANCH   2  23
ATOM     23  O   UNL     1      29.178   4.984  25.805  1.00  0.00    -0.452 OA
BRANCH  23  24
ATOM     24  C   UNL     1      29.990   6.016  26.290  1.00  0.00     0.338 C 
ATOM     25  O   UNL     1      31.077   6.292  25.709  1.00  0.00    -0.246 OA
BRANCH  24  26
ATOM     26  C   UNL     1      29.594   6.756  27.508  1.00  0.00     0.067 A 
ATOM     27  C   UNL     1      30.184   6.463  28.749  1.00  0.00     0.066 A 
ATOM     28  C   UNL     1      28.581   7.728  27.445  1.00  0.00     0.066 A 
ATOM     29  C   UNL     1      29.773   7.126  29.910  1.00  0.00     0.162 A 
ATOM     30  C   UNL     1      28.155   8.389  28.604  1.00  0.00     0.162 A 
ATOM     31  C   UNL     1      28.753   8.093  29.841  1.00  0.00     0.200 A 
BRANCH  29  32
ATOM     32  O   UNL     1      30.384   6.809  31.121  1.00  0.00    -0.504 OA
ATOM     33  H   UNL     1      31.208   7.297  31.453  1.00  0.00     0.293 HD
ENDBRANCH  29  32
BRANCH  30  34
ATOM     34  O   UNL     1      27.134   9.335  28.531  1.00  0.00    -0.504 OA
ATOM     35  H   UNL     1      27.172  10.109  27.880  1.00  0.00     0.293 HD
ENDBRANCH  30  34
BRANCH  31  36
ATOM     36  O   UNL     1      28.338   8.740  31.006  1.00  0.00    -0.502 OA
ATOM     37  H   UNL     1      28.997   9.129  31.671  1.00  0.00     0.293 HD
ENDBRANCH  31  36
ENDBRANCH  24  26
ENDBRANCH  23  24
ENDBRANCH   2  23
BRANCH   3  38
ATOM     38  O   UNL     1      27.846   4.653  22.404  1.00  0.00    -0.450 OA
BRANCH  38  39
ATOM     39  C   UNL     1      28.195   5.464  21.322  1.00  0.00     0.338 C 
ATOM     40  O   UNL     1      28.374   6.703  21.478  1.00  0.00    -0.246 OA
BRANCH  39  41
ATOM     41  C   UNL     1      28.356   4.841  19.993  1.00  0.00     0.067 A 
ATOM     42  C   UNL     1      29.457   3.999  19.755  1.00  0.00     0.066 A 
ATOM     43  C   UNL     1      27.430   5.071  18.961  1.00  0.00     0.066 A 
ATOM     44  C   UNL     1      29.624   3.384  18.509  1.00  0.00     0.162 A 
ATOM     45  C   UNL     1      27.605   4.469  17.707  1.00  0.00     0.162 A 
ATOM     46  C   UNL     1      28.696   3.609  17.488  1.00  0.00     0.200 A 
BRANCH  44  47
ATOM     47  O   UNL     1      30.711   2.540  18.281  1.00  0.00    -0.504 OA
ATOM     48  H   UNL     1      31.401   2.749  17.568  1.00  0.00     0.293 HD
ENDBRANCH  44  47
BRANCH  45  49
ATOM     49  O   UNL     1      26.713   4.736  16.667  1.00  0.00    -0.504 OA
ATOM     50  H   UNL     1      25.728   4.506  16.727  1.00  0.00     0.293 HD
ENDBRANCH  45  49
BRANCH  46  51
ATOM     51  O   UNL     1      28.877   2.979  16.254  1.00  0.00    -0.502 OA
ATOM     52  H   UNL     1      28.099   2.782  15.640  1.00  0.00     0.293 HD
ENDBRANCH  46  51
ENDBRANCH  39  41
ENDBRANCH  38  39
ENDBRANCH   3  38
BRANCH   5  53
ATOM     53  O   UNL     1      26.563   1.515  23.567  1.00  0.00    -0.428 OA
BRANCH  53  54
ATOM     54  C   UNL     1      25.892   1.836  22.381  1.00  0.00     0.340 C 
ATOM     55  O   UNL     1      25.041   2.769  22.372  1.00  0.00    -0.246 OA
BRANCH  54  56
ATOM     56  C   UNL     1      26.233   1.130  21.128  1.00  0.00     0.067 A 
ATOM     57  C   UNL     1      25.951   1.709  19.882  1.00  0.00     0.066 A 
ATOM     58  C   UNL     1      26.910  -0.098  21.174  1.00  0.00     0.066 A 
ATOM     59  C   UNL     1      26.356   1.080  18.698  1.00  0.00     0.162 A 
ATOM     60  C   UNL     1      27.313  -0.741  19.998  1.00  0.00     0.162 A 
ATOM     61  C   UNL     1      27.031  -0.148  18.744  1.00  0.00     0.200 A 
BRANCH  59  62
ATOM     62  O   UNL     1      26.101   1.684  17.467  1.00  0.00    -0.504 OA
ATOM     63  H   UNL     1      26.130   1.155  16.603  1.00  0.00     0.293 HD
ENDBRANCH  59  62
BRANCH  60  64
ATOM     64  O   UNL     1      27.997  -1.953  20.124  1.00  0.00    -0.504 OA
ATOM     65  H   UNL     1      28.720  -2.129  20.805  1.00  0.00     0.293 HD
ENDBRANCH  60  64
BRANCH  61  66
ATOM     66  O   UNL     1      27.405  -0.737  17.535  1.00  0.00    -0.502 OA
ATOM     67  H   UNL     1      27.154  -0.364  16.628  1.00  0.00     0.293 HD
ENDBRANCH  61  66
ENDBRANCH  54  56
ENDBRANCH  53  54
ENDBRANCH   5  53
BRANCH   4  68
ATOM     68  O   UNL     1      28.893   2.117  22.658  1.00  0.00    -0.448 OA
BRANCH  68  69
ATOM     69  C   UNL     1      30.127   1.483  22.462  1.00  0.00     0.339 C 
ATOM     70  O   UNL     1      31.125   2.153  22.076  1.00  0.00    -0.246 OA
BRANCH  69  71
ATOM     71  C   UNL     1      30.251   0.028  22.684  1.00  0.00     0.067 A 
ATOM     72  C   UNL     1      29.928  -0.528  23.930  1.00  0.00     0.066 A 
ATOM     73  C   UNL     1      30.652  -0.819  21.640  1.00  0.00     0.066 A 
ATOM     74  C   UNL     1      29.987  -1.914  24.136  1.00  0.00     0.162 A 
ATOM     75  C   UNL     1      30.723  -2.203  21.834  1.00  0.00     0.162 A 
ATOM     76  C   UNL     1      30.387  -2.762  23.075  1.00  0.00     0.200 A 
BRANCH  74  77
ATOM     77  O   UNL     1      29.635  -2.399  25.398  1.00  0.00    -0.504 OA
ATOM     78  H   UNL     1      28.767  -2.873  25.599  1.00  0.00     0.293 HD
ENDBRANCH  74  77
BRANCH  75  79
ATOM     79  O   UNL     1      31.125  -3.034  20.789  1.00  0.00    -0.504 OA
ATOM     80  H   UNL     1      31.683  -3.863  20.955  1.00  0.00     0.293 HD
ENDBRANCH  75  79
BRANCH  76  81
ATOM     81  O   UNL     1      30.461  -4.150  23.210  1.00  0.00    -0.502 OA
ATOM     82  H   UNL     1      31.146  -4.729  22.744  1.00  0.00     0.293 HD
ENDBRANCH  76  81
ENDBRANCH  69  71
ENDBRANCH  68  69
ENDBRANCH   4  68
TORSDOF 31
ENDMDL
MODEL 7
REMARK VINA RESULT:    -4.380      2.443      9.701
REMARK INTER + INTRA:         -14.551
REMARK INTER:                  -9.596
REMARK INTRA:                  -4.955
REMARK UNBOUND:                -4.153
REMARK SMILES O=C(OC[C@H]1O[C@@H](OC(=O)c2cc(O)c(O)c(O)c2)[C@@H](OC(=O)c2cc(O)c(O)c(O)c2)[C@@H](OC(=O)c2cc(O)c(O)c(O)c2)[C@@H]1OC(=O)c1cc(O)c(O)c(O)c1)c1cc(O)c(O)c(O)c1
REMARK SMILES IDX 5 1 46 2 33 3 20 4 7 5 6 6 4 7 3 8 2 9 1 10 59 11 60 12
REMARK SMILES IDX 61 13 67 14 63 15 65 16 62 17 64 19 66 21 47 23 48 24 49 25
REMARK SMILES IDX 50 26 58 27 51 28 56 29 52 30 54 31 57 32 53 34 55 36 34 38
REMARK SMILES IDX 35 39 36 40 37 41 45 42 38 43 43 44 39 45 41 46 44 47 40 49
REMARK SMILES IDX 42 51 8 53 9 54 10 55 11 56 19 57 12 58 17 59 13 60 15 61
REMARK SMILES IDX 18 62 14 64 16 66 21 68 22 69 23 70 24 71 32 72 25 73 30 74
REMARK SMILES IDX 26 75 28 76 31 77 27 79 29 81
REMARK H PARENT 62 18 64 20 66 22 57 33 53 35 55 37 44 48 40 50 42 52 18 63
REMARK H PARENT 14 65 16 67 31 78 27 80 29 82
REMARK Flexibility Score: inf
ROOT
ATOM      1  C   UNL     1      27.007   4.179  24.678  1.00  0.00     0.205 C 
ATOM      2  C   UNL     1      28.183   5.062  24.148  1.00  0.00     0.254 C 
ATOM      3  C   UNL     1      28.797   4.424  22.886  1.00  0.00     0.267 C 
ATOM      4  C   UNL     1      29.156   2.959  23.193  1.00  0.00     0.290 C 
ATOM      5  C   UNL     1      27.936   2.211  23.802  1.00  0.00     0.357 C 
ATOM      6  O   UNL     1      26.788   3.045  23.855  1.00  0.00    -0.329 OA
ENDROOT
BRANCH   1   7
ATOM      7  C   UNL     1      25.686   4.967  24.741  1.00  0.00     0.269 C 
BRANCH   7   8
ATOM      8  O   UNL     1      25.575   5.650  25.991  1.00  0.00    -0.459 OA
BRANCH   8   9
ATOM      9  C   UNL     1      24.435   5.595  26.816  1.00  0.00     0.338 C 
ATOM     10  O   UNL     1      23.742   4.543  26.834  1.00  0.00    -0.246 OA
BRANCH   9  11
ATOM     11  C   UNL     1      24.036   6.729  27.670  1.00  0.00     0.067 A 
ATOM     12  C   UNL     1      22.895   7.481  27.354  1.00  0.00     0.066 A 
ATOM     13  C   UNL     1      22.560   8.610  28.107  1.00  0.00     0.162 A 
ATOM     14  C   UNL     1      24.836   7.105  28.754  1.00  0.00     0.066 A 
ATOM     15  C   UNL     1      23.370   8.997  29.191  1.00  0.00     0.200 A 
ATOM     16  C   UNL     1      24.516   8.245  29.509  1.00  0.00     0.162 A 
BRANCH  13  17
ATOM     17  O   UNL     1      21.424   9.339  27.760  1.00  0.00    -0.504 OA
ATOM     18  H   UNL     1      21.435  10.032  27.017  1.00  0.00     0.293 HD
ENDBRANCH  13  17
BRANCH  15  19
ATOM     19  O   UNL     1      23.028  10.124  29.940  1.00  0.00    -0.502 OA
ATOM     20  H   UNL     1      22.454  10.869  29.565  1.00  0.00     0.293 HD
ENDBRANCH  15  19
BRANCH  16  21
ATOM     21  O   UNL     1      25.336   8.630  30.567  1.00  0.00    -0.504 OA
ATOM     22  H   UNL     1      25.969   9.417  30.486  1.00  0.00     0.293 HD
ENDBRANCH  16  21
ENDBRANCH   9  11
ENDBRANCH   8   9
ENDBRANCH   7   8
ENDBRANCH   1   7
BRANCH   2  23
ATOM     23  O   UNL     1      29.193   5.165  25.154  1.00  0.00    -0.452 OA
BRANCH  23  24
ATOM     24  C   UNL     1      29.696   6.393  25.601  1.00  0.00     0.338 C 
ATOM     25  O   UNL     1      30.483   7.057  24.871  1.00  0.00    -0.246 OA
BRANCH  24  26
ATOM     26  C   UNL     1      29.337   6.891  26.947  1.00  0.00     0.067 A 
ATOM     27  C   UNL     1      28.502   8.010  27.098  1.00  0.00     0.066 A 
ATOM     28  C   UNL     1      29.873   6.278  28.092  1.00  0.00     0.066 A 
ATOM     29  C   UNL     1      28.205   8.513  28.369  1.00  0.00     0.162 A 
ATOM     30  C   UNL     1      29.589   6.780  29.368  1.00  0.00     0.162 A 
ATOM     31  C   UNL     1      28.750   7.899  29.511  1.00  0.00     0.200 A 
BRANCH  29  32
ATOM     32  O   UNL     1      27.370   9.624  28.477  1.00  0.00    -0.504 OA
ATOM     33  H   UNL     1      27.623  10.528  28.098  1.00  0.00     0.293 HD
ENDBRANCH  29  32
BRANCH  30  34
ATOM     34  O   UNL     1      30.145   6.177  30.495  1.00  0.00    -0.504 OA
ATOM     35  H   UNL     1      29.711   5.375  30.937  1.00  0.00     0.293 HD
ENDBRANCH  30  34
BRANCH  31  36
ATOM     36  O   UNL     1      28.460   8.415  30.776  1.00  0.00    -0.502 OA
ATOM     37  H   UNL     1      28.980   9.187  31.175  1.00  0.00     0.293 HD
ENDBRANCH  31  36
ENDBRANCH  24  26
ENDBRANCH  23  24
ENDBRANCH   2  23
BRANCH   3  38
ATOM     38  O   UNL     1      27.852   4.440  21.819  1.00  0.00    -0.450 OA
BRANCH  38  39
ATOM     39  C   UNL     1      28.074   5.014  20.564  1.00  0.00     0.338 C 
ATOM     40  O   UNL     1      28.824   6.020  20.441  1.00  0.00    -0.246 OA
BRANCH  39  41
ATOM     41  C   UNL     1      27.417   4.415  19.385  1.00  0.00     0.067 A 
ATOM     42  C   UNL     1      27.140   3.037  19.375  1.00  0.00     0.066 A 
ATOM     43  C   UNL     1      27.060   5.197  18.272  1.00  0.00     0.066 A 
ATOM     44  C   UNL     1      26.504   2.448  18.276  1.00  0.00     0.162 A 
ATOM     45  C   UNL     1      26.438   4.606  17.163  1.00  0.00     0.162 A 
ATOM     46  C   UNL     1      26.144   3.230  17.175  1.00  0.00     0.200 A 
BRANCH  44  47
ATOM     47  O   UNL     1      26.222   1.082  18.275  1.00  0.00    -0.504 OA
ATOM     48  H   UNL     1      26.564   0.473  17.541  1.00  0.00     0.293 HD
ENDBRANCH  44  47
BRANCH  45  49
ATOM     49  O   UNL     1      26.129   5.371  16.038  1.00  0.00    -0.504 OA
ATOM     50  H   UNL     1      26.664   6.192  15.778  1.00  0.00     0.293 HD
ENDBRANCH  45  49
BRANCH  46  51
ATOM     51  O   UNL     1      25.504   2.625  16.091  1.00  0.00    -0.502 OA
ATOM     52  H   UNL     1      24.769   3.094  15.579  1.00  0.00     0.293 HD
ENDBRANCH  46  51
ENDBRANCH  39  41
ENDBRANCH  38  39
ENDBRANCH   3  38
BRANCH   5  53
ATOM     53  O   UNL     1      27.609   1.068  23.010  1.00  0.00    -0.428 OA
BRANCH  53  54
ATOM     54  C   UNL     1      28.311  -0.136  23.130  1.00  0.00     0.340 C 
ATOM     55  O   UNL     1      28.699  -0.529  24.266  1.00  0.00    -0.246 OA
BRANCH  54  56
ATOM     56  C   UNL     1      28.535  -0.980  21.937  1.00  0.00     0.067 A 
ATOM     57  C   UNL     1      29.521  -1.976  21.940  1.00  0.00     0.066 A 
ATOM     58  C   UNL     1      27.708  -0.839  20.812  1.00  0.00     0.066 A 
ATOM     59  C   UNL     1      29.670  -2.833  20.843  1.00  0.00     0.162 A 
ATOM     60  C   UNL     1      27.852  -1.684  19.704  1.00  0.00     0.162 A 
ATOM     61  C   UNL     1      28.846  -2.691  19.717  1.00  0.00     0.200 A 
BRANCH  59  62
ATOM     62  O   UNL     1      30.632  -3.843  20.872  1.00  0.00    -0.504 OA
ATOM     63  H   UNL     1      31.425  -3.799  21.501  1.00  0.00     0.293 HD
ENDBRANCH  59  62
BRANCH  60  64
ATOM     64  O   UNL     1      26.982  -1.494  18.628  1.00  0.00    -0.504 OA
ATOM     65  H   UNL     1      26.733  -0.592  18.249  1.00  0.00     0.293 HD
ENDBRANCH  60  64
BRANCH  61  66
ATOM     66  O   UNL     1      29.042  -3.566  18.646  1.00  0.00    -0.502 OA
ATOM     67  H   UNL     1      28.512  -3.526  17.785  1.00  0.00     0.293 HD
ENDBRANCH  61  66
ENDBRANCH  54  56
ENDBRANCH  53  54
ENDBRANCH   5  53
BRANCH   4  68
ATOM     68  O   UNL     1      29.611   2.326  21.996  1.00  0.00    -0.448 OA
BRANCH  68  69
ATOM     69  C   UNL     1      30.507   2.937  21.109  1.00  0.00     0.339 C 
ATOM     70  O   UNL     1      31.122   3.983  21.456  1.00  0.00    -0.246 OA
BRANCH  69  71
ATOM     71  C   UNL     1      30.711   2.369  19.761  1.00  0.00     0.067 A 
ATOM     72  C   UNL     1      30.773   0.979  19.580  1.00  0.00     0.066 A 
ATOM     73  C   UNL     1      30.802   3.208  18.641  1.00  0.00     0.066 A 
ATOM     74  C   UNL     1      30.909   0.426  18.299  1.00  0.00     0.162 A 
ATOM     75  C   UNL     1      30.946   2.670  17.358  1.00  0.00     0.162 A 
ATOM     76  C   UNL     1      30.995   1.281  17.174  1.00  0.00     0.200 A 
BRANCH  74  77
ATOM     77  O   UNL     1      30.947  -0.967  18.193  1.00  0.00    -0.504 OA
ATOM     78  H   UNL     1      30.251  -1.515  17.710  1.00  0.00     0.293 HD
ENDBRANCH  74  77
BRANCH  75  79
ATOM     79  O   UNL     1      31.039   3.515  16.253  1.00  0.00    -0.504 OA
ATOM     80  H   UNL     1      30.686   4.464  16.279  1.00  0.00     0.293 HD
ENDBRANCH  75  79
BRANCH  76  81
ATOM     81  O   UNL     1      31.125   0.797  15.870  1.00  0.00    -0.502 OA
ATOM     82  H   UNL     1      30.876   1.322  15.044  1.00  0.00     0.293 HD
ENDBRANCH  76  81
ENDBRANCH  69  71
ENDBRANCH  68  69
ENDBRANCH   4  68
TORSDOF 31
ENDMDL
MODEL 8
REMARK VINA RESULT:    -4.071      1.677      2.724
REMARK INTER + INTRA:         -13.816
REMARK INTER:                  -8.662
REMARK INTRA:                  -5.154
REMARK UNBOUND:                -4.153
REMARK SMILES O=C(OC[C@H]1O[C@@H](OC(=O)c2cc(O)c(O)c(O)c2)[C@@H](OC(=O)c2cc(O)c(O)c(O)c2)[C@@H](OC(=O)c2cc(O)c(O)c(O)c2)[C@@H]1OC(=O)c1cc(O)c(O)c(O)c1)c1cc(O)c(O)c(O)c1
REMARK SMILES IDX 5 1 46 2 33 3 20 4 7 5 6 6 4 7 3 8 2 9 1 10 59 11 60 12
REMARK SMILES IDX 61 13 67 14 63 15 65 16 62 17 64 19 66 21 47 23 48 24 49 25
REMARK SMILES IDX 50 26 58 27 51 28 56 29 52 30 54 31 57 32 53 34 55 36 34 38
REMARK SMILES IDX 35 39 36 40 37 41 45 42 38 43 43 44 39 45 41 46 44 47 40 49
REMARK SMILES IDX 42 51 8 53 9 54 10 55 11 56 19 57 12 58 17 59 13 60 15 61
REMARK SMILES IDX 18 62 14 64 16 66 21 68 22 69 23 70 24 71 32 72 25 73 30 74
REMARK SMILES IDX 26 75 28 76 31 77 27 79 29 81
REMARK H PARENT 62 18 64 20 66 22 57 33 53 35 55 37 44 48 40 50 42 52 18 63
REMARK H PARENT 14 65 16 67 31 78 27 80 29 82
REMARK Flexibility Score: inf
ROOT
ATOM      1  C   UNL     1      30.391   2.730  22.132  1.00  0.00     0.205 C 
ATOM      2  C   UNL     1      29.292   1.622  22.029  1.00  0.00     0.254 C 
ATOM      3  C   UNL     1      27.915   2.205  22.402  1.00  0.00     0.267 C 
ATOM      4  C   UNL     1      28.025   2.905  23.769  1.00  0.00     0.290 C 
ATOM      5  C   UNL     1      29.209   3.913  23.778  1.00  0.00     0.357 C 
ATOM      6  O   UNL     1      29.842   3.982  22.508  1.00  0.00    -0.329 OA
ENDROOT
BRANCH   1   7
ATOM      7  C   UNL     1      31.124   2.930  20.793  1.00  0.00     0.269 C 
BRANCH   7   8
ATOM      8  O   UNL     1      30.183   3.140  19.738  1.00  0.00    -0.459 OA
BRANCH   8   9
ATOM      9  C   UNL     1      29.912   4.398  19.167  1.00  0.00     0.338 C 
ATOM     10  O   UNL     1      30.559   5.403  19.566  1.00  0.00    -0.246 OA
BRANCH   9  11
ATOM     11  C   UNL     1      28.903   4.570  18.106  1.00  0.00     0.067 A 
ATOM     12  C   UNL     1      27.856   5.489  18.272  1.00  0.00     0.066 A 
ATOM     13  C   UNL     1      26.848   5.594  17.310  1.00  0.00     0.162 A 
ATOM     14  C   UNL     1      28.945   3.766  16.961  1.00  0.00     0.066 A 
ATOM     15  C   UNL     1      26.881   4.778  16.164  1.00  0.00     0.200 A 
ATOM     16  C   UNL     1      27.931   3.856  15.995  1.00  0.00     0.162 A 
BRANCH  13  17
ATOM     17  O   UNL     1      25.817   6.510  17.512  1.00  0.00    -0.504 OA
ATOM     18  H   UNL     1      25.947   7.358  18.056  1.00  0.00     0.293 HD
ENDBRANCH  13  17
BRANCH  15  19
ATOM     19  O   UNL     1      25.872   4.891  15.207  1.00  0.00    -0.502 OA
ATOM     20  H   UNL     1      24.895   4.756  15.432  1.00  0.00     0.293 HD
ENDBRANCH  15  19
BRANCH  16  21
ATOM     21  O   UNL     1      27.962   3.028  14.875  1.00  0.00    -0.504 OA
ATOM     22  H   UNL     1      28.783   2.971  14.283  1.00  0.00     0.293 HD
ENDBRANCH  16  21
ENDBRANCH   9  11
ENDBRANCH   8   9
ENDBRANCH   7   8
ENDBRANCH   1   7
BRANCH   2  23
ATOM     23  O   UNL     1      29.604   0.557  22.930  1.00  0.00    -0.452 OA
BRANCH  23  24
ATOM     24  C   UNL     1      30.242  -0.620  22.521  1.00  0.00     0.338 C 
ATOM     25  O   UNL     1      30.940  -1.277  23.343  1.00  0.00    -0.246 OA
BRANCH  24  26
ATOM     26  C   UNL     1      30.132  -1.070  21.117  1.00  0.00     0.067 A 
ATOM     27  C   UNL     1      30.689  -0.311  20.074  1.00  0.00     0.066 A 
ATOM     28  C   UNL     1      29.420  -2.241  20.806  1.00  0.00     0.066 A 
ATOM     29  C   UNL     1      30.539  -0.710  18.742  1.00  0.00     0.162 A 
ATOM     30  C   UNL     1      29.256  -2.642  19.474  1.00  0.00     0.162 A 
ATOM     31  C   UNL     1      29.819  -1.879  18.437  1.00  0.00     0.200 A 
BRANCH  29  32
ATOM     32  O   UNL     1      31.108   0.069  17.737  1.00  0.00    -0.504 OA
ATOM     33  H   UNL     1      32.102   0.261  17.701  1.00  0.00     0.293 HD
ENDBRANCH  29  32
BRANCH  30  34
ATOM     34  O   UNL     1      28.528  -3.793  19.177  1.00  0.00    -0.504 OA
ATOM     35  H   UNL     1      28.813  -4.426  18.439  1.00  0.00     0.293 HD
ENDBRANCH  30  34
BRANCH  31  36
ATOM     36  O   UNL     1      29.662  -2.263  17.103  1.00  0.00    -0.502 OA
ATOM     37  H   UNL     1      29.552  -1.586  16.357  1.00  0.00     0.293 HD
ENDBRANCH  31  36
ENDBRANCH  24  26
ENDBRANCH  23  24
ENDBRANCH   2  23
BRANCH   3  38
ATOM     38  O   UNL     1      27.514   3.173  21.434  1.00  0.00    -0.450 OA
BRANCH  38  39
ATOM     39  C   UNL     1      26.565   2.954  20.432  1.00  0.00     0.338 C 
ATOM     40  O   UNL     1      25.701   3.832  20.162  1.00  0.00    -0.246 OA
BRANCH  39  41
ATOM     41  C   UNL     1      26.597   1.676  19.693  1.00  0.00     0.067 A 
ATOM     42  C   UNL     1      27.178   1.634  18.413  1.00  0.00     0.066 A 
ATOM     43  C   UNL     1      26.062   0.499  20.244  1.00  0.00     0.066 A 
ATOM     44  C   UNL     1      27.236   0.433  17.698  1.00  0.00     0.162 A 
ATOM     45  C   UNL     1      26.104  -0.702  19.522  1.00  0.00     0.162 A 
ATOM     46  C   UNL     1      26.709  -0.737  18.253  1.00  0.00     0.200 A 
BRANCH  44  47
ATOM     47  O   UNL     1      27.822   0.394  16.433  1.00  0.00    -0.504 OA
ATOM     48  H   UNL     1      28.222   1.225  16.010  1.00  0.00     0.293 HD
ENDBRANCH  44  47
BRANCH  45  49
ATOM     49  O   UNL     1      25.528  -1.860  20.047  1.00  0.00    -0.504 OA
ATOM     50  H   UNL     1      25.187  -2.610  19.457  1.00  0.00     0.293 HD
ENDBRANCH  45  49
BRANCH  46  51
ATOM     51  O   UNL     1      26.783  -1.927  17.526  1.00  0.00    -0.502 OA
ATOM     52  H   UNL     1      27.522  -2.599  17.681  1.00  0.00     0.293 HD
ENDBRANCH  46  51
ENDBRANCH  39  41
ENDBRANCH  38  39
ENDBRANCH   3  38
BRANCH   5  53
ATOM     53  O   UNL     1      28.744   5.223  24.105  1.00  0.00    -0.428 OA
BRANCH  53  54
ATOM     54  C   UNL     1      29.588   6.183  24.675  1.00  0.00     0.340 C 
ATOM     55  O   UNL     1      30.530   6.677  23.995  1.00  0.00    -0.246 OA
BRANCH  54  56
ATOM     56  C   UNL     1      29.330   6.667  26.048  1.00  0.00     0.067 A 
ATOM     57  C   UNL     1      30.362   7.227  26.814  1.00  0.00     0.066 A 
ATOM     58  C   UNL     1      28.028   6.638  26.571  1.00  0.00     0.066 A 
ATOM     59  C   UNL     1      30.096   7.767  28.079  1.00  0.00     0.162 A 
ATOM     60  C   UNL     1      27.750   7.166  27.837  1.00  0.00     0.162 A 
ATOM     61  C   UNL     1      28.796   7.736  28.602  1.00  0.00     0.200 A 
BRANCH  59  62
ATOM     62  O   UNL     1      31.125   8.353  28.816  1.00  0.00    -0.504 OA
ATOM     63  H   UNL     1      31.807   7.791  29.311  1.00  0.00     0.293 HD
ENDBRANCH  59  62
BRANCH  60  64
ATOM     64  O   UNL     1      26.427   7.116  28.284  1.00  0.00    -0.504 OA
ATOM     65  H   UNL     1      25.621   7.146  27.679  1.00  0.00     0.293 HD
ENDBRANCH  60  64
BRANCH  61  66
ATOM     66  O   UNL     1      28.586   8.280  29.871  1.00  0.00    -0.502 OA
ATOM     67  H   UNL     1      27.746   8.776  30.137  1.00  0.00     0.293 HD
ENDBRANCH  61  66
ENDBRANCH  54  56
ENDBRANCH  53  54
ENDBRANCH   5  53
BRANCH   4  68
ATOM     68  O   UNL     1      26.786   3.553  24.065  1.00  0.00    -0.448 OA
BRANCH  68  69
ATOM     69  C   UNL     1      25.647   2.856  24.487  1.00  0.00     0.339 C 
ATOM     70  O   UNL     1      25.324   1.775  23.920  1.00  0.00    -0.246 OA
BRANCH  69  71
ATOM     71  C   UNL     1      24.812   3.401  25.577  1.00  0.00     0.067 A 
ATOM     72  C   UNL     1      24.069   2.539  26.397  1.00  0.00     0.066 A 
ATOM     73  C   UNL     1      24.786   4.779  25.833  1.00  0.00     0.066 A 
ATOM     74  C   UNL     1      23.318   3.038  27.471  1.00  0.00     0.162 A 
ATOM     75  C   UNL     1      24.034   5.292  26.896  1.00  0.00     0.162 A 
ATOM     76  C   UNL     1      23.301   4.430  27.724  1.00  0.00     0.200 A 
BRANCH  74  77
ATOM     77  O   UNL     1      22.616   2.119  28.255  1.00  0.00    -0.504 OA
ATOM     78  H   UNL     1      23.055   1.398  28.809  1.00  0.00     0.293 HD
ENDBRANCH  74  77
BRANCH  75  79
ATOM     79  O   UNL     1      24.013   6.665  27.138  1.00  0.00    -0.504 OA
ATOM     80  H   UNL     1      24.755   7.125  27.652  1.00  0.00     0.293 HD
ENDBRANCH  75  79
BRANCH  76  81
ATOM     81  O   UNL     1      22.581   4.993  28.780  1.00  0.00    -0.502 OA
ATOM     82  H   UNL     1      21.913   5.744  28.674  1.00  0.00     0.293 HD
ENDBRANCH  76  81
ENDBRANCH  69  71
ENDBRANCH  68  69
ENDBRANCH   4  68
TORSDOF 31
ENDMDL
