MODEL 1
REMARK VINA RESULT:     2.123      0.000      0.000
REMARK INTER + INTRA:           3.796
REMARK INTER:                   3.364
REMARK INTRA:                   0.432
REMARK UNBOUND:                 0.432
REMARK SMILES CCCCCCCCCCCC(=O)[O-]
REMARK SMILES IDX 7 1 8 2 9 3 10 4 11 5 12 6 13 7 14 8 6 9 5 10 4 11 3 12 2 13
REMARK SMILES IDX 1 14
REMARK H PARENT
REMARK Flexibility Score: inf
ROOT
ATOM      1  C   UNL     1      15.235  39.981  47.510  1.00  0.00     0.000 C 
ENDROOT
BRANCH   1   2
ATOM      2  C   UNL     1      14.166  40.023  46.404  1.00  0.00     0.000 C 
BRANCH   2   3
ATOM      3  C   UNL     1      13.282  38.766  46.389  1.00  0.00     0.000 C 
BRANCH   3   4
ATOM      4  C   UNL     1      13.725  37.720  47.422  1.00  0.00     0.006 C 
BRANCH   4   5
ATOM      5  C   UNL     1      12.701  36.586  47.526  1.00  0.00     0.053 C 
BRANCH   5   6
ATOM      6  C   UNL     1      13.388  35.282  47.784  1.00  0.00     0.041 C 
ATOM      7  O   UNL     1      12.866  34.203  47.400  1.00  0.00    -0.550 OA
ATOM      8  O   UNL     1      14.582  35.255  48.494  1.00  0.00    -0.550 OA
ENDBRANCH   5   6
ENDBRANCH   4   5
ENDBRANCH   3   4
ENDBRANCH   2   3
ENDBRANCH   1   2
BRANCH   1   9
ATOM      9  C   UNL     1      16.186  38.783  47.366  1.00  0.00     0.000 C 
BRANCH   9  10
ATOM     10  C   UNL     1      16.865  38.728  45.989  1.00  0.00    -0.000 C 
BRANCH  10  11
ATOM     11  C   UNL     1      18.102  37.819  46.023  1.00  0.00    -0.000 C 
BRANCH  11  12
ATOM     12  C   UNL     1      19.141  38.256  47.071  1.00  0.00    -0.000 C 
BRANCH  12  13
ATOM     13  C   UNL     1      19.487  39.756  47.051  1.00  0.00    -0.003 C 
ATOM     14  C   UNL     1      20.496  40.122  45.965  1.00  0.00     0.004 C 
ENDBRANCH  12  13
ENDBRANCH  11  12
ENDBRANCH  10  11
ENDBRANCH   9  10
ENDBRANCH   1   9
TORSDOF 10
ENDMDL
MODEL 2
REMARK VINA RESULT:     2.779      2.164      3.247
REMARK INTER + INTRA:           4.835
REMARK INTER:                   4.417
REMARK INTRA:                   0.418
REMARK UNBOUND:                 0.432
REMARK SMILES CCCCCCCCCCCC(=O)[O-]
REMARK SMILES IDX 7 1 8 2 9 3 10 4 11 5 12 6 13 7 14 8 6 9 5 10 4 11 3 12 2 13
REMARK SMILES IDX 1 14
REMARK H PARENT
REMARK Flexibility Score: inf
ROOT
ATOM      1  C   UNL     1      17.580  38.086  46.396  1.00  0.00     0.000 C 
ENDROOT
BRANCH   1   2
ATOM      2  C   UNL     1      16.348  38.941  46.057  1.00  0.00     0.000 C 
BRANCH   2   3
ATOM      3  C   UNL     1      15.786  39.679  47.283  1.00  0.00     0.000 C 
BRANCH   3   4
ATOM      4  C   UNL     1      14.262  39.858  47.217  1.00  0.00     0.006 C 
BRANCH   4   5
ATOM      5  C   UNL     1      13.596  38.641  46.570  1.00  0.00     0.053 C 
BRANCH   5   6
ATOM      6  C   UNL     1      13.633  37.467  47.497  1.00  0.00     0.041 C 
ATOM      7  O   UNL     1      12.646  36.691  47.578  1.00  0.00    -0.550 OA
ATOM      8  O   UNL     1      14.740  37.260  48.310  1.00  0.00    -0.550 OA
ENDBRANCH   5   6
ENDBRANCH   4   5
ENDBRANCH   3   4
ENDBRANCH   2   3
ENDBRANCH   1   2
BRANCH   1   9
ATOM      9  C   UNL     1      18.810  38.936  46.754  1.00  0.00     0.000 C 
BRANCH   9  10
ATOM     10  C   UNL     1      20.050  38.083  47.060  1.00  0.00    -0.000 C 
BRANCH  10  11
ATOM     11  C   UNL     1      19.795  36.605  46.727  1.00  0.00    -0.000 C 
BRANCH  11  12
ATOM     12  C   UNL     1      20.057  36.270  45.248  1.00  0.00    -0.000 C 
BRANCH  12  13
ATOM     13  C   UNL     1      20.543  34.832  44.988  1.00  0.00    -0.003 C 
ATOM     14  C   UNL     1      21.246  34.673  43.641  1.00  0.00     0.004 C 
ENDBRANCH  12  13
ENDBRANCH  11  12
ENDBRANCH  10  11
ENDBRANCH   9  10
ENDBRANCH   1   9
TORSDOF 10
ENDMDL
MODEL 3
REMARK VINA RESULT:     2.838      2.045      3.008
REMARK INTER + INTRA:           4.928
REMARK INTER:                   5.533
REMARK INTRA:                  -0.605
REMARK UNBOUND:                 0.432
REMARK SMILES CCCCCCCCCCCC(=O)[O-]
REMARK SMILES IDX 7 1 8 2 9 3 10 4 11 5 12 6 13 7 14 8 6 9 5 10 4 11 3 12 2 13
REMARK SMILES IDX 1 14
REMARK H PARENT
REMARK Flexibility Score: inf
ROOT
ATOM      1  C   UNL     1      17.257  38.133  46.716  1.00  0.00     0.000 C 
ENDROOT
BRANCH   1   2
ATOM      2  C   UNL     1      16.112  38.698  45.858  1.00  0.00     0.000 C 
BRANCH   2   3
ATOM      3  C   UNL     1      15.153  39.589  46.664  1.00  0.00     0.000 C 
BRANCH   3   4
ATOM      4  C   UNL     1      14.481  38.836  47.821  1.00  0.00     0.006 C 
BRANCH   4   5
ATOM      5  C   UNL     1      13.531  37.757  47.294  1.00  0.00     0.053 C 
BRANCH   5   6
ATOM      6  C   UNL     1      13.865  36.427  47.893  1.00  0.00     0.041 C 
ATOM      7  O   UNL     1      14.868  36.303  48.645  1.00  0.00    -0.550 OA
ATOM      8  O   UNL     1      13.098  35.312  47.581  1.00  0.00    -0.550 OA
ENDBRANCH   5   6
ENDBRANCH   4   5
ENDBRANCH   3   4
ENDBRANCH   2   3
ENDBRANCH   1   2
BRANCH   1   9
ATOM      9  C   UNL     1      18.513  39.017  46.683  1.00  0.00     0.000 C 
BRANCH   9  10
ATOM     10  C   UNL     1      19.794  38.237  47.014  1.00  0.00    -0.000 C 
BRANCH  10  11
ATOM     11  C   UNL     1      19.620  36.742  46.708  1.00  0.00    -0.000 C 
BRANCH  11  12
ATOM     12  C   UNL     1      19.990  36.378  45.259  1.00  0.00    -0.000 C 
BRANCH  12  13
ATOM     13  C   UNL     1      20.541  34.952  45.071  1.00  0.00    -0.003 C 
ATOM     14  C   UNL     1      21.227  34.750  43.721  1.00  0.00     0.004 C 
ENDBRANCH  12  13
ENDBRANCH  11  12
ENDBRANCH  10  11
ENDBRANCH   9  10
ENDBRANCH   1   9
TORSDOF 10
ENDMDL
MODEL 4
REMARK VINA RESULT:     3.117     16.471     18.560
REMARK INTER + INTRA:           5.371
REMARK INTER:                   3.973
REMARK INTRA:                   1.398
REMARK UNBOUND:                 0.432
REMARK SMILES CCCCCCCCCCCC(=O)[O-]
REMARK SMILES IDX 7 1 8 2 9 3 10 4 11 5 12 6 13 7 14 8 6 9 5 10 4 11 3 12 2 13
REMARK SMILES IDX 1 14
REMARK H PARENT
REMARK Flexibility Score: inf
ROOT
ATOM      1  C   UNL     1      18.078  22.506  49.700  1.00  0.00     0.000 C 
ENDROOT
BRANCH   1   2
ATOM      2  C   UNL     1      18.478  21.703  48.450  1.00  0.00     0.000 C 
BRANCH   2   3
ATOM      3  C   UNL     1      18.570  20.193  48.722  1.00  0.00     0.000 C 
BRANCH   3   4
ATOM      4  C   UNL     1      19.040  19.878  50.149  1.00  0.00     0.006 C 
BRANCH   4   5
ATOM      5  C   UNL     1      20.411  20.503  50.424  1.00  0.00     0.053 C 
BRANCH   5   6
ATOM      6  C   UNL     1      20.779  20.344  51.866  1.00  0.00     0.041 C 
ATOM      7  O   UNL     1      21.963  20.546  52.243  1.00  0.00    -0.550 OA
ATOM      8  O   UNL     1      19.825  19.925  52.784  1.00  0.00    -0.550 OA
ENDBRANCH   5   6
ENDBRANCH   4   5
ENDBRANCH   3   4
ENDBRANCH   2   3
ENDBRANCH   1   2
BRANCH   1   9
ATOM      9  C   UNL     1      16.555  22.592  49.884  1.00  0.00     0.000 C 
BRANCH   9  10
ATOM     10  C   UNL     1      16.071  21.869  51.152  1.00  0.00    -0.000 C 
BRANCH  10  11
ATOM     11  C   UNL     1      16.701  20.472  51.261  1.00  0.00    -0.000 C 
BRANCH  11  12
ATOM     12  C   UNL     1      16.596  19.875  52.675  1.00  0.00    -0.000 C 
BRANCH  12  13
ATOM     13  C   UNL     1      15.252  20.125  53.384  1.00  0.00    -0.003 C 
ATOM     14  C   UNL     1      14.049  19.983  52.453  1.00  0.00     0.004 C 
ENDBRANCH  12  13
ENDBRANCH  11  12
ENDBRANCH  10  11
ENDBRANCH   9  10
ENDBRANCH   1   9
TORSDOF 10
ENDMDL
MODEL 5
REMARK VINA RESULT:     3.290      2.797      5.337
REMARK INTER + INTRA:           5.646
REMARK INTER:                   5.614
REMARK INTRA:                   0.032
REMARK UNBOUND:                 0.432
REMARK SMILES CCCCCCCCCCCC(=O)[O-]
REMARK SMILES IDX 7 1 8 2 9 3 10 4 11 5 12 6 13 7 14 8 6 9 5 10 4 11 3 12 2 13
REMARK SMILES IDX 1 14
REMARK H PARENT
REMARK Flexibility Score: inf
ROOT
ATOM      1  C   UNL     1      14.152  40.062  46.393  1.00  0.00     0.000 C 
ENDROOT
BRANCH   1   2
ATOM      2  C   UNL     1      15.171  40.083  47.545  1.00  0.00     0.000 C 
BRANCH   2   3
ATOM      3  C   UNL     1      16.140  38.891  47.499  1.00  0.00     0.000 C 
BRANCH   3   4
ATOM      4  C   UNL     1      16.835  38.747  46.137  1.00  0.00     0.006 C 
BRANCH   4   5
ATOM      5  C   UNL     1      17.987  37.741  46.214  1.00  0.00     0.053 C 
BRANCH   5   6
ATOM      6  C   UNL     1      19.194  38.372  46.834  1.00  0.00     0.041 C 
ATOM      7  O   UNL     1      20.070  37.656  47.388  1.00  0.00    -0.550 OA
ATOM      8  O   UNL     1      19.327  39.754  46.844  1.00  0.00    -0.550 OA
ENDBRANCH   5   6
ENDBRANCH   4   5
ENDBRANCH   3   4
ENDBRANCH   2   3
ENDBRANCH   1   2
BRANCH   1   9
ATOM      9  C   UNL     1      13.316  38.773  46.367  1.00  0.00     0.000 C 
BRANCH   9  10
ATOM     10  C   UNL     1      13.463  37.947  47.655  1.00  0.00    -0.000 C 
BRANCH  10  11
ATOM     11  C   UNL     1      13.045  36.488  47.422  1.00  0.00    -0.000 C 
BRANCH  11  12
ATOM     12  C   UNL     1      13.904  35.484  48.212  1.00  0.00    -0.000 C 
BRANCH  12  13
ATOM     13  C   UNL     1      15.216  36.060  48.775  1.00  0.00    -0.003 C 
ATOM     14  C   UNL     1      15.617  35.438  50.112  1.00  0.00     0.004 C 
ENDBRANCH  12  13
ENDBRANCH  11  12
ENDBRANCH  10  11
ENDBRANCH   9  10
ENDBRANCH   1   9
TORSDOF 10
ENDMDL
MODEL 6
REMARK VINA RESULT:     3.492      3.158      5.682
REMARK INTER + INTRA:           5.966
REMARK INTER:                   5.628
REMARK INTRA:                   0.338
REMARK UNBOUND:                 0.432
REMARK SMILES CCCCCCCCCCCC(=O)[O-]
REMARK SMILES IDX 7 1 8 2 9 3 10 4 11 5 12 6 13 7 14 8 6 9 5 10 4 11 3 12 2 13
REMARK SMILES IDX 1 14
REMARK H PARENT
REMARK Flexibility Score: inf
ROOT
ATOM      1  C   UNL     1      14.886  40.125  47.407  1.00  0.00     0.000 C 
ENDROOT
BRANCH   1   2
ATOM      2  C   UNL     1      16.004  39.073  47.305  1.00  0.00     0.000 C 
BRANCH   2   3
ATOM      3  C   UNL     1      16.359  38.728  45.850  1.00  0.00     0.000 C 
BRANCH   3   4
ATOM      4  C   UNL     1      17.777  38.154  45.709  1.00  0.00     0.006 C 
BRANCH   4   5
ATOM      5  C   UNL     1      18.478  38.087  47.069  1.00  0.00     0.053 C 
BRANCH   5   6
ATOM      6  C   UNL     1      19.740  38.889  47.048  1.00  0.00     0.041 C 
ATOM      7  O   UNL     1      19.719  40.095  46.685  1.00  0.00    -0.550 OA
ATOM      8  O   UNL     1      20.949  38.291  47.381  1.00  0.00    -0.550 OA
ENDBRANCH   5   6
ENDBRANCH   4   5
ENDBRANCH   3   4
ENDBRANCH   2   3
ENDBRANCH   1   2
BRANCH   1   9
ATOM      9  C   UNL     1      13.782  39.917  46.358  1.00  0.00     0.000 C 
BRANCH   9  10
ATOM     10  C   UNL     1      13.003  38.610  46.571  1.00  0.00    -0.000 C 
BRANCH  10  11
ATOM     11  C   UNL     1      13.710  37.711  47.597  1.00  0.00    -0.000 C 
BRANCH  11  12
ATOM     12  C   UNL     1      13.052  36.326  47.735  1.00  0.00    -0.000 C 
BRANCH  12  13
ATOM     13  C   UNL     1      13.982  35.220  48.268  1.00  0.00    -0.003 C 
ATOM     14  C   UNL     1      15.225  35.769  48.965  1.00  0.00     0.004 C 
ENDBRANCH  12  13
ENDBRANCH  11  12
ENDBRANCH  10  11
ENDBRANCH   9  10
ENDBRANCH   1   9
TORSDOF 10
ENDMDL
MODEL 7
REMARK VINA RESULT:     3.542      3.392      6.264
REMARK INTER + INTRA:           6.045
REMARK INTER:                   6.744
REMARK INTRA:                  -0.699
REMARK UNBOUND:                 0.432
REMARK SMILES CCCCCCCCCCCC(=O)[O-]
REMARK SMILES IDX 7 1 8 2 9 3 10 4 11 5 12 6 13 7 14 8 6 9 5 10 4 11 3 12 2 13
REMARK SMILES IDX 1 14
REMARK H PARENT
REMARK Flexibility Score: inf
ROOT
ATOM      1  C   UNL     1      17.409  37.862  46.420  1.00  0.00     0.000 C 
ENDROOT
BRANCH   1   2
ATOM      2  C   UNL     1      18.699  38.609  46.800  1.00  0.00     0.000 C 
BRANCH   2   3
ATOM      3  C   UNL     1      19.875  37.657  47.070  1.00  0.00     0.000 C 
BRANCH   3   4
ATOM      4  C   UNL     1      19.731  36.317  46.335  1.00  0.00     0.006 C 
BRANCH   4   5
ATOM      5  C   UNL     1      20.339  36.394  44.932  1.00  0.00     0.053 C 
BRANCH   5   6
ATOM      6  C   UNL     1      20.811  35.044  44.490  1.00  0.00     0.041 C 
ATOM      7  O   UNL     1      20.816  34.079  45.298  1.00  0.00    -0.550 OA
ATOM      8  O   UNL     1      21.292  34.865  43.200  1.00  0.00    -0.550 OA
ENDBRANCH   5   6
ENDBRANCH   4   5
ENDBRANCH   3   4
ENDBRANCH   2   3
ENDBRANCH   1   2
BRANCH   1   9
ATOM      9  C   UNL     1      16.249  38.815  46.093  1.00  0.00     0.000 C 
BRANCH   9  10
ATOM     10  C   UNL     1      15.832  39.675  47.296  1.00  0.00    -0.000 C 
BRANCH  10  11
ATOM     11  C   UNL     1      14.334  39.512  47.594  1.00  0.00    -0.000 C 
BRANCH  11  12
ATOM     12  C   UNL     1      13.657  38.455  46.705  1.00  0.00    -0.000 C 
BRANCH  12  13
ATOM     13  C   UNL     1      13.131  37.219  47.458  1.00  0.00    -0.003 C 
ATOM     14  C   UNL     1      14.217  36.495  48.252  1.00  0.00     0.004 C 
ENDBRANCH  12  13
ENDBRANCH  11  12
ENDBRANCH  10  11
ENDBRANCH   9  10
ENDBRANCH   1   9
TORSDOF 10
ENDMDL
MODEL 8
REMARK VINA RESULT:     3.873      1.385      2.186
REMARK INTER + INTRA:           6.569
REMARK INTER:                   7.240
REMARK INTRA:                  -0.671
REMARK UNBOUND:                 0.432
REMARK SMILES CCCCCCCCCCCC(=O)[O-]
REMARK SMILES IDX 7 1 8 2 9 3 10 4 11 5 12 6 13 7 14 8 6 9 5 10 4 11 3 12 2 13
REMARK SMILES IDX 1 14
REMARK H PARENT
REMARK Flexibility Score: inf
ROOT
ATOM      1  C   UNL     1      13.430  39.556  46.637  1.00  0.00     0.000 C 
ENDROOT
BRANCH   1   2
ATOM      2  C   UNL     1      13.266  38.057  46.332  1.00  0.00     0.000 C 
BRANCH   2   3
ATOM      3  C   UNL     1      12.813  37.250  47.560  1.00  0.00     0.000 C 
BRANCH   3   4
ATOM      4  C   UNL     1      13.724  36.047  47.844  1.00  0.00     0.006 C 
BRANCH   4   5
ATOM      5  C   UNL     1      15.022  36.493  48.523  1.00  0.00     0.053 C 
BRANCH   5   6
ATOM      6  C   UNL     1      15.398  35.538  49.612  1.00  0.00     0.041 C 
ATOM      7  O   UNL     1      16.004  35.951  50.636  1.00  0.00    -0.550 OA
ATOM      8  O   UNL     1      15.124  34.184  49.474  1.00  0.00    -0.550 OA
ENDBRANCH   5   6
ENDBRANCH   4   5
ENDBRANCH   3   4
ENDBRANCH   2   3
ENDBRANCH   1   2
BRANCH   1   9
ATOM      9  C   UNL     1      14.886  39.940  46.942  1.00  0.00     0.000 C 
BRANCH   9  10
ATOM     10  C   UNL     1      15.899  39.077  46.174  1.00  0.00    -0.000 C 
BRANCH  10  11
ATOM     11  C   UNL     1      17.056  38.645  47.088  1.00  0.00    -0.000 C 
BRANCH  11  12
ATOM     12  C   UNL     1      18.257  38.080  46.309  1.00  0.00    -0.000 C 
BRANCH  12  13
ATOM     13  C   UNL     1      19.634  38.427  46.904  1.00  0.00    -0.003 C 
ATOM     14  C   UNL     1      19.956  39.919  46.836  1.00  0.00     0.004 C 
ENDBRANCH  12  13
ENDBRANCH  11  12
ENDBRANCH  10  11
ENDBRANCH   9  10
ENDBRANCH   1   9
TORSDOF 10
ENDMDL
