MODEL 1
REMARK VINA RESULT:    10.436      0.000      0.000
REMARK INTER + INTRA:          29.131
REMARK INTER:                  27.518
REMARK INTRA:                   1.613
REMARK UNBOUND:                 1.613
REMARK SMILES CCCCCCCCCCCCCCCCCCCCCCCCCCCCCC(=O)[O-]
REMARK SMILES IDX 16 1 17 2 18 3 19 4 20 5 21 6 22 7 23 8 24 9 25 10 26 11
REMARK SMILES IDX 27 12 28 13 29 14 30 15 31 16 32 17 15 18 14 19 13 20 12 21
REMARK SMILES IDX 11 22 10 23 9 24 8 25 7 26 6 27 5 28 4 29 3 30 2 31 1 32
REMARK H PARENT
REMARK Flexibility Score: inf
ROOT
ATOM      1  C   UNL     1       5.110 -36.293  22.594  1.00  0.00     0.000 C 
ENDROOT
BRANCH   1   2
ATOM      2  C   UNL     1       5.052 -34.761  22.743  1.00  0.00     0.000 C 
BRANCH   2   3
ATOM      3  C   UNL     1       4.525 -34.055  21.484  1.00  0.00     0.000 C 
BRANCH   3   4
ATOM      4  C   UNL     1       4.617 -34.973  20.257  1.00  0.00     0.000 C 
BRANCH   4   5
ATOM      5  C   UNL     1       5.036 -36.411  20.617  1.00  0.00     0.000 C 
BRANCH   5   6
ATOM      6  C   UNL     1       4.383 -37.516  19.761  1.00  0.00     0.000 C 
BRANCH   6   7
ATOM      7  C   UNL     1       2.914 -37.823  20.103  1.00  0.00     0.000 C 
BRANCH   7   8
ATOM      8  C   UNL     1       2.074 -38.168  18.864  1.00  0.00     0.000 C 
BRANCH   8   9
ATOM      9  C   UNL     1       0.741 -37.404  18.875  1.00  0.00     0.000 C 
BRANCH   9  10
ATOM     10  C   UNL     1       0.532 -36.560  17.606  1.00  0.00     0.000 C 
BRANCH  10  11
ATOM     11  C   UNL     1       1.626 -36.794  16.555  1.00  0.00     0.000 C 
BRANCH  11  12
ATOM     12  C   UNL     1       2.322 -35.477  16.187  1.00  0.00     0.000 C 
BRANCH  12  13
ATOM     13  C   UNL     1       3.295 -35.678  15.016  1.00  0.00     0.006 C 
BRANCH  13  14
ATOM     14  C   UNL     1       3.019 -36.978  14.247  1.00  0.00     0.053 C 
BRANCH  14  15
ATOM     15  C   UNL     1       3.919 -38.089  14.693  1.00  0.00     0.041 C 
ATOM     16  O   UNL     1       4.702 -38.639  13.876  1.00  0.00    -0.550 OA
ATOM     17  O   UNL     1       3.913 -38.497  16.022  1.00  0.00    -0.550 OA
ENDBRANCH  14  15
ENDBRANCH  13  14
ENDBRANCH  12  13
ENDBRANCH  11  12
ENDBRANCH  10  11
ENDBRANCH   9  10
ENDBRANCH   8   9
ENDBRANCH   7   8
ENDBRANCH   6   7
ENDBRANCH   5   6
ENDBRANCH   4   5
ENDBRANCH   3   4
ENDBRANCH   2   3
ENDBRANCH   1   2
BRANCH   1  18
ATOM     18  C   UNL     1       5.103 -37.081  23.921  1.00  0.00     0.000 C 
BRANCH  18  19
ATOM     19  C   UNL     1       4.682 -38.557  23.802  1.00  0.00     0.000 C 
BRANCH  19  20
ATOM     20  C   UNL     1       4.454 -39.222  25.166  1.00  0.00     0.000 C 
BRANCH  20  21
ATOM     21  C   UNL     1       4.899 -38.294  26.307  1.00  0.00     0.000 C 
BRANCH  21  22
ATOM     22  C   UNL     1       3.718 -37.720  27.110  1.00  0.00     0.000 C 
BRANCH  22  23
ATOM     23  C   UNL     1       3.273 -36.308  26.687  1.00  0.00     0.000 C 
BRANCH  23  24
ATOM     24  C   UNL     1       1.830 -35.986  27.106  1.00  0.00    -0.000 C 
BRANCH  24  25
ATOM     25  C   UNL     1       1.713 -35.862  28.633  1.00  0.00    -0.000 C 
BRANCH  25  26
ATOM     26  C   UNL     1       2.054 -34.451  29.140  1.00  0.00    -0.000 C 
BRANCH  26  27
ATOM     27  C   UNL     1       0.828 -33.706  29.694  1.00  0.00    -0.000 C 
BRANCH  27  28
ATOM     28  C   UNL     1      -0.492 -34.202  29.067  1.00  0.00    -0.000 C 
BRANCH  28  29
ATOM     29  C   UNL     1      -1.716 -33.345  29.432  1.00  0.00    -0.000 C 
BRANCH  29  30
ATOM     30  C   UNL     1      -1.356 -31.880  29.727  1.00  0.00    -0.000 C 
BRANCH  30  31
ATOM     31  C   UNL     1      -2.354 -31.210  30.685  1.00  0.00    -0.003 C 
ATOM     32  C   UNL     1      -3.791 -31.689  30.475  1.00  0.00     0.004 C 
ENDBRANCH  30  31
ENDBRANCH  29  30
ENDBRANCH  28  29
ENDBRANCH  27  28
ENDBRANCH  26  27
ENDBRANCH  25  26
ENDBRANCH  24  25
ENDBRANCH  23  24
ENDBRANCH  22  23
ENDBRANCH  21  22
ENDBRANCH  20  21
ENDBRANCH  19  20
ENDBRANCH  18  19
ENDBRANCH   1  18
TORSDOF 28
ENDMDL
MODEL 2
REMARK VINA RESULT:    11.150      4.118     11.410
REMARK INTER + INTRA:          31.015
REMARK INTER:                  30.231
REMARK INTRA:                   0.784
REMARK UNBOUND:                 1.613
REMARK SMILES CCCCCCCCCCCCCCCCCCCCCCCCCCCCCC(=O)[O-]
REMARK SMILES IDX 16 1 17 2 18 3 19 4 20 5 21 6 22 7 23 8 24 9 25 10 26 11
REMARK SMILES IDX 27 12 28 13 29 14 30 15 31 16 32 17 15 18 14 19 13 20 12 21
REMARK SMILES IDX 11 22 10 23 9 24 8 25 7 26 6 27 5 28 4 29 3 30 2 31 1 32
REMARK H PARENT
REMARK Flexibility Score: inf
ROOT
ATOM      1  C   UNL     1       4.903 -35.624  24.524  1.00  0.00     0.000 C 
ENDROOT
BRANCH   1   2
ATOM      2  C   UNL     1       5.125 -37.099  24.142  1.00  0.00     0.000 C 
BRANCH   2   3
ATOM      3  C   UNL     1       4.477 -38.078  25.132  1.00  0.00     0.000 C 
BRANCH   3   4
ATOM      4  C   UNL     1       4.732 -37.646  26.583  1.00  0.00     0.000 C 
BRANCH   4   5
ATOM      5  C   UNL     1       3.452 -37.645  27.440  1.00  0.00     0.000 C 
BRANCH   5   6
ATOM      6  C   UNL     1       2.285 -36.814  26.870  1.00  0.00     0.000 C 
BRANCH   6   7
ATOM      7  C   UNL     1       1.460 -36.044  27.916  1.00  0.00     0.000 C 
BRANCH   7   8
ATOM      8  C   UNL     1       2.158 -34.763  28.399  1.00  0.00     0.000 C 
BRANCH   8   9
ATOM      9  C   UNL     1       1.386 -34.123  29.563  1.00  0.00     0.000 C 
BRANCH   9  10
ATOM     10  C   UNL     1       0.073 -33.463  29.110  1.00  0.00     0.000 C 
BRANCH  10  11
ATOM     11  C   UNL     1      -1.157 -34.332  29.406  1.00  0.00     0.000 C 
BRANCH  11  12
ATOM     12  C   UNL     1      -2.295 -33.489  29.995  1.00  0.00     0.000 C 
BRANCH  12  13
ATOM     13  C   UNL     1      -3.607 -34.286  30.034  1.00  0.00     0.006 C 
BRANCH  13  14
ATOM     14  C   UNL     1      -3.767 -35.202  28.812  1.00  0.00     0.053 C 
BRANCH  14  15
ATOM     15  C   UNL     1      -4.983 -34.853  28.011  1.00  0.00     0.041 C 
ATOM     16  O   UNL     1      -5.158 -35.353  26.870  1.00  0.00    -0.550 OA
ATOM     17  O   UNL     1      -5.942 -33.996  28.540  1.00  0.00    -0.550 OA
ENDBRANCH  14  15
ENDBRANCH  13  14
ENDBRANCH  12  13
ENDBRANCH  11  12
ENDBRANCH  10  11
ENDBRANCH   9  10
ENDBRANCH   8   9
ENDBRANCH   7   8
ENDBRANCH   6   7
ENDBRANCH   5   6
ENDBRANCH   4   5
ENDBRANCH   3   4
ENDBRANCH   2   3
ENDBRANCH   1   2
BRANCH   1  18
ATOM     18  C   UNL     1       5.107 -34.612  23.376  1.00  0.00     0.000 C 
BRANCH  18  19
ATOM     19  C   UNL     1       4.218 -34.838  22.140  1.00  0.00     0.000 C 
BRANCH  19  20
ATOM     20  C   UNL     1       4.962 -35.532  20.991  1.00  0.00     0.000 C 
BRANCH  20  21
ATOM     21  C   UNL     1       5.124 -37.034  21.274  1.00  0.00     0.000 C 
BRANCH  21  22
ATOM     22  C   UNL     1       3.974 -37.881  20.699  1.00  0.00     0.000 C 
BRANCH  22  23
ATOM     23  C   UNL     1       3.196 -37.220  19.546  1.00  0.00     0.000 C 
BRANCH  23  24
ATOM     24  C   UNL     1       3.994 -37.180  18.234  1.00  0.00    -0.000 C 
BRANCH  24  25
ATOM     25  C   UNL     1       4.370 -35.737  17.860  1.00  0.00    -0.000 C 
BRANCH  25  26
ATOM     26  C   UNL     1       3.714 -35.276  16.548  1.00  0.00    -0.000 C 
BRANCH  26  27
ATOM     27  C   UNL     1       3.882 -36.296  15.409  1.00  0.00    -0.000 C 
BRANCH  27  28
ATOM     28  C   UNL     1       2.640 -37.195  15.239  1.00  0.00    -0.000 C 
BRANCH  28  29
ATOM     29  C   UNL     1       1.308 -36.472  15.502  1.00  0.00    -0.000 C 
BRANCH  29  30
ATOM     30  C   UNL     1       1.087 -36.142  16.986  1.00  0.00    -0.000 C 
BRANCH  30  31
ATOM     31  C   UNL     1       0.061 -37.074  17.651  1.00  0.00    -0.003 C 
ATOM     32  C   UNL     1       0.707 -38.084  18.600  1.00  0.00     0.004 C 
ENDBRANCH  30  31
ENDBRANCH  29  30
ENDBRANCH  28  29
ENDBRANCH  27  28
ENDBRANCH  26  27
ENDBRANCH  25  26
ENDBRANCH  24  25
ENDBRANCH  23  24
ENDBRANCH  22  23
ENDBRANCH  21  22
ENDBRANCH  20  21
ENDBRANCH  19  20
ENDBRANCH  18  19
ENDBRANCH   1  18
TORSDOF 28
ENDMDL
MODEL 3
REMARK VINA RESULT:    11.428      1.160      2.143
REMARK INTER + INTRA:          31.748
REMARK INTER:                  33.082
REMARK INTRA:                  -1.333
REMARK UNBOUND:                 1.613
REMARK SMILES CCCCCCCCCCCCCCCCCCCCCCCCCCCCCC(=O)[O-]
REMARK SMILES IDX 16 1 17 2 18 3 19 4 20 5 21 6 22 7 23 8 24 9 25 10 26 11
REMARK SMILES IDX 27 12 28 13 29 14 30 15 31 16 32 17 15 18 14 19 13 20 12 21
REMARK SMILES IDX 11 22 10 23 9 24 8 25 7 26 6 27 5 28 4 29 3 30 2 31 1 32
REMARK H PARENT
REMARK Flexibility Score: inf
ROOT
ATOM      1  C   UNL     1       3.701 -34.505  21.573  1.00  0.00     0.000 C 
ENDROOT
BRANCH   1   2
ATOM      2  C   UNL     1       4.957 -34.058  20.802  1.00  0.00     0.000 C 
BRANCH   2   3
ATOM      3  C   UNL     1       5.122 -34.775  19.454  1.00  0.00     0.000 C 
BRANCH   3   4
ATOM      4  C   UNL     1       5.125 -36.300  19.638  1.00  0.00     0.000 C 
BRANCH   4   5
ATOM      5  C   UNL     1       4.112 -36.776  20.695  1.00  0.00     0.000 C 
BRANCH   5   6
ATOM      6  C   UNL     1       3.035 -37.751  20.177  1.00  0.00     0.000 C 
BRANCH   6   7
ATOM      7  C   UNL     1       1.676 -37.106  19.849  1.00  0.00     0.000 C 
BRANCH   7   8
ATOM      8  C   UNL     1       0.704 -38.080  19.166  1.00  0.00     0.000 C 
BRANCH   8   9
ATOM      9  C   UNL     1       0.370 -37.614  17.741  1.00  0.00     0.000 C 
BRANCH   9  10
ATOM     10  C   UNL     1       1.625 -37.421  16.873  1.00  0.00     0.000 C 
BRANCH  10  11
ATOM     11  C   UNL     1       1.859 -35.952  16.492  1.00  0.00     0.000 C 
BRANCH  11  12
ATOM     12  C   UNL     1       3.330 -35.707  16.132  1.00  0.00     0.000 C 
BRANCH  12  13
ATOM     13  C   UNL     1       3.479 -35.339  14.649  1.00  0.00     0.006 C 
BRANCH  13  14
ATOM     14  C   UNL     1       4.360 -36.341  13.888  1.00  0.00     0.053 C 
BRANCH  14  15
ATOM     15  C   UNL     1       4.025 -37.757  14.242  1.00  0.00     0.041 C 
ATOM     16  O   UNL     1       2.931 -38.262  13.878  1.00  0.00    -0.550 OA
ATOM     17  O   UNL     1       4.938 -38.531  14.949  1.00  0.00    -0.550 OA
ENDBRANCH  14  15
ENDBRANCH  13  14
ENDBRANCH  12  13
ENDBRANCH  11  12
ENDBRANCH  10  11
ENDBRANCH   9  10
ENDBRANCH   8   9
ENDBRANCH   7   8
ENDBRANCH   6   7
ENDBRANCH   5   6
ENDBRANCH   4   5
ENDBRANCH   3   4
ENDBRANCH   2   3
ENDBRANCH   1   2
BRANCH   1  18
ATOM     18  C   UNL     1       3.736 -34.242  23.093  1.00  0.00     0.000 C 
BRANCH  18  19
ATOM     19  C   UNL     1       5.124 -34.364  23.746  1.00  0.00     0.000 C 
BRANCH  19  20
ATOM     20  C   UNL     1       5.089 -35.116  25.083  1.00  0.00     0.000 C 
BRANCH  20  21
ATOM     21  C   UNL     1       4.850 -36.617  24.859  1.00  0.00     0.000 C 
BRANCH  21  22
ATOM     22  C   UNL     1       5.086 -37.460  26.125  1.00  0.00     0.000 C 
BRANCH  22  23
ATOM     23  C   UNL     1       4.014 -38.529  26.401  1.00  0.00     0.000 C 
BRANCH  23  24
ATOM     24  C   UNL     1       2.582 -37.980  26.300  1.00  0.00    -0.000 C 
BRANCH  24  25
ATOM     25  C   UNL     1       2.094 -37.456  27.660  1.00  0.00    -0.000 C 
BRANCH  25  26
ATOM     26  C   UNL     1       1.629 -35.992  27.597  1.00  0.00    -0.000 C 
BRANCH  26  27
ATOM     27  C   UNL     1       2.616 -35.025  28.273  1.00  0.00    -0.000 C 
BRANCH  27  28
ATOM     28  C   UNL     1       1.987 -34.288  29.473  1.00  0.00    -0.000 C 
BRANCH  28  29
ATOM     29  C   UNL     1       0.659 -33.583  29.145  1.00  0.00    -0.000 C 
BRANCH  29  30
ATOM     30  C   UNL     1      -0.480 -33.976  30.098  1.00  0.00    -0.000 C 
BRANCH  30  31
ATOM     31  C   UNL     1      -1.864 -33.585  29.555  1.00  0.00    -0.003 C 
ATOM     32  C   UNL     1      -2.158 -32.092  29.705  1.00  0.00     0.004 C 
ENDBRANCH  30  31
ENDBRANCH  29  30
ENDBRANCH  28  29
ENDBRANCH  27  28
ENDBRANCH  26  27
ENDBRANCH  25  26
ENDBRANCH  24  25
ENDBRANCH  23  24
ENDBRANCH  22  23
ENDBRANCH  21  22
ENDBRANCH  20  21
ENDBRANCH  19  20
ENDBRANCH  18  19
ENDBRANCH   1  18
TORSDOF 28
ENDMDL
MODEL 4
REMARK VINA RESULT:    11.706      1.791      3.802
REMARK INTER + INTRA:          32.480
REMARK INTER:                  25.181
REMARK INTRA:                   7.300
REMARK UNBOUND:                 1.613
REMARK SMILES CCCCCCCCCCCCCCCCCCCCCCCCCCCCCC(=O)[O-]
REMARK SMILES IDX 16 1 17 2 18 3 19 4 20 5 21 6 22 7 23 8 24 9 25 10 26 11
REMARK SMILES IDX 27 12 28 13 29 14 30 15 31 16 32 17 15 18 14 19 13 20 12 21
REMARK SMILES IDX 11 22 10 23 9 24 8 25 7 26 6 27 5 28 4 29 3 30 2 31 1 32
REMARK H PARENT
REMARK Flexibility Score: inf
ROOT
ATOM      1  C   UNL     1       3.552 -34.327  21.556  1.00  0.00     0.000 C 
ENDROOT
BRANCH   1   2
ATOM      2  C   UNL     1       3.847 -33.734  20.166  1.00  0.00     0.000 C 
BRANCH   2   3
ATOM      3  C   UNL     1       5.055 -34.386  19.479  1.00  0.00     0.000 C 
BRANCH   3   4
ATOM      4  C   UNL     1       5.122 -33.997  17.995  1.00  0.00     0.000 C 
BRANCH   4   5
ATOM      5  C   UNL     1       4.630 -35.118  17.060  1.00  0.00     0.000 C 
BRANCH   5   6
ATOM      6  C   UNL     1       3.103 -35.172  16.851  1.00  0.00     0.000 C 
BRANCH   6   7
ATOM      7  C   UNL     1       2.653 -35.591  15.440  1.00  0.00     0.000 C 
BRANCH   7   8
ATOM      8  C   UNL     1       3.813 -36.103  14.572  1.00  0.00     0.000 C 
BRANCH   8   9
ATOM      9  C   UNL     1       4.060 -37.599  14.812  1.00  0.00     0.000 C 
BRANCH   9  10
ATOM     10  C   UNL     1       3.130 -38.188  15.887  1.00  0.00     0.000 C 
BRANCH  10  11
ATOM     11  C   UNL     1       2.845 -37.199  17.025  1.00  0.00     0.000 C 
BRANCH  11  12
ATOM     12  C   UNL     1       3.706 -37.516  18.255  1.00  0.00     0.000 C 
BRANCH  12  13
ATOM     13  C   UNL     1       2.841 -37.624  19.519  1.00  0.00     0.006 C 
BRANCH  13  14
ATOM     14  C   UNL     1       1.581 -38.469  19.291  1.00  0.00     0.053 C 
BRANCH  14  15
ATOM     15  C   UNL     1       0.412 -37.626  18.883  1.00  0.00     0.041 C 
ATOM     16  O   UNL     1      -0.138 -36.858  19.714  1.00  0.00    -0.550 OA
ATOM     17  O   UNL     1      -0.050 -37.666  17.572  1.00  0.00    -0.550 OA
ENDBRANCH  14  15
ENDBRANCH  13  14
ENDBRANCH  12  13
ENDBRANCH  11  12
ENDBRANCH  10  11
ENDBRANCH   9  10
ENDBRANCH   8   9
ENDBRANCH   7   8
ENDBRANCH   6   7
ENDBRANCH   5   6
ENDBRANCH   4   5
ENDBRANCH   3   4
ENDBRANCH   2   3
ENDBRANCH   1   2
BRANCH   1  18
ATOM     18  C   UNL     1       4.619 -35.306  22.091  1.00  0.00     0.000 C 
BRANCH  18  19
ATOM     19  C   UNL     1       4.947 -35.162  23.587  1.00  0.00     0.000 C 
BRANCH  19  20
ATOM     20  C   UNL     1       5.122 -36.514  24.291  1.00  0.00     0.000 C 
BRANCH  20  21
ATOM     21  C   UNL     1       4.967 -37.673  23.294  1.00  0.00     0.000 C 
BRANCH  21  22
ATOM     22  C   UNL     1       5.039 -39.057  23.963  1.00  0.00     0.000 C 
BRANCH  22  23
ATOM     23  C   UNL     1       4.500 -39.108  25.404  1.00  0.00     0.000 C 
BRANCH  23  24
ATOM     24  C   UNL     1       4.292 -37.713  26.014  1.00  0.00    -0.000 C 
BRANCH  24  25
ATOM     25  C   UNL     1       2.812 -37.472  26.350  1.00  0.00    -0.000 C 
BRANCH  25  26
ATOM     26  C   UNL     1       2.592 -37.104  27.826  1.00  0.00    -0.000 C 
BRANCH  26  27
ATOM     27  C   UNL     1       1.567 -35.971  28.010  1.00  0.00    -0.000 C 
BRANCH  27  28
ATOM     28  C   UNL     1       2.066 -34.881  28.980  1.00  0.00    -0.000 C 
BRANCH  28  29
ATOM     29  C   UNL     1       0.937 -34.073  29.643  1.00  0.00    -0.000 C 
BRANCH  29  30
ATOM     30  C   UNL     1      -0.322 -33.971  28.768  1.00  0.00    -0.000 C 
BRANCH  30  31
ATOM     31  C   UNL     1      -1.584 -33.654  29.586  1.00  0.00    -0.003 C 
ATOM     32  C   UNL     1      -2.779 -34.524  29.193  1.00  0.00     0.004 C 
ENDBRANCH  30  31
ENDBRANCH  29  30
ENDBRANCH  28  29
ENDBRANCH  27  28
ENDBRANCH  26  27
ENDBRANCH  25  26
ENDBRANCH  24  25
ENDBRANCH  23  24
ENDBRANCH  22  23
ENDBRANCH  21  22
ENDBRANCH  20  21
ENDBRANCH  19  20
ENDBRANCH  18  19
ENDBRANCH   1  18
TORSDOF 28
ENDMDL
MODEL 5
REMARK VINA RESULT:    11.764      1.904      3.269
REMARK INTER + INTRA:          32.634
REMARK INTER:                  32.483
REMARK INTRA:                   0.151
REMARK UNBOUND:                 1.613
REMARK SMILES CCCCCCCCCCCCCCCCCCCCCCCCCCCCCC(=O)[O-]
REMARK SMILES IDX 16 1 17 2 18 3 19 4 20 5 21 6 22 7 23 8 24 9 25 10 26 11
REMARK SMILES IDX 27 12 28 13 29 14 30 15 31 16 32 17 15 18 14 19 13 20 12 21
REMARK SMILES IDX 11 22 10 23 9 24 8 25 7 26 6 27 5 28 4 29 3 30 2 31 1 32
REMARK H PARENT
REMARK Flexibility Score: inf
ROOT
ATOM      1  C   UNL     1       4.220 -37.589  21.914  1.00  0.00     0.000 C 
ENDROOT
BRANCH   1   2
ATOM      2  C   UNL     1       4.743 -36.717  20.758  1.00  0.00     0.000 C 
BRANCH   2   3
ATOM      3  C   UNL     1       4.301 -35.250  20.864  1.00  0.00     0.000 C 
BRANCH   3   4
ATOM      4  C   UNL     1       4.626 -34.482  19.574  1.00  0.00     0.000 C 
BRANCH   4   5
ATOM      5  C   UNL     1       4.811 -35.408  18.358  1.00  0.00     0.000 C 
BRANCH   5   6
ATOM      6  C   UNL     1       4.273 -34.851  17.024  1.00  0.00     0.000 C 
BRANCH   6   7
ATOM      7  C   UNL     1       2.838 -35.282  16.670  1.00  0.00     0.000 C 
BRANCH   7   8
ATOM      8  C   UNL     1       2.583 -35.314  15.156  1.00  0.00     0.000 C 
BRANCH   8   9
ATOM      9  C   UNL     1       3.758 -35.967  14.414  1.00  0.00     0.000 C 
BRANCH   9  10
ATOM     10  C   UNL     1       3.432 -37.388  13.923  1.00  0.00     0.000 C 
BRANCH  10  11
ATOM     11  C   UNL     1       3.739 -38.461  14.976  1.00  0.00     0.000 C 
BRANCH  11  12
ATOM     12  C   UNL     1       3.663 -37.878  16.392  1.00  0.00     0.000 C 
BRANCH  12  13
ATOM     13  C   UNL     1       2.285 -38.134  17.020  1.00  0.00     0.006 C 
BRANCH  13  14
ATOM     14  C   UNL     1       2.216 -37.668  18.480  1.00  0.00     0.053 C 
BRANCH  14  15
ATOM     15  C   UNL     1       0.801 -37.511  18.948  1.00  0.00     0.041 C 
ATOM     16  O   UNL     1       0.525 -37.581  20.173  1.00  0.00    -0.550 OA
ATOM     17  O   UNL     1      -0.210 -37.254  18.029  1.00  0.00    -0.550 OA
ENDBRANCH  14  15
ENDBRANCH  13  14
ENDBRANCH  12  13
ENDBRANCH  11  12
ENDBRANCH  10  11
ENDBRANCH   9  10
ENDBRANCH   8   9
ENDBRANCH   7   8
ENDBRANCH   6   7
ENDBRANCH   5   6
ENDBRANCH   4   5
ENDBRANCH   3   4
ENDBRANCH   2   3
ENDBRANCH   1   2
BRANCH   1  18
ATOM     18  C   UNL     1       5.033 -37.499  23.223  1.00  0.00     0.000 C 
BRANCH  18  19
ATOM     19  C   UNL     1       4.948 -36.148  23.954  1.00  0.00     0.000 C 
BRANCH  19  20
ATOM     20  C   UNL     1       4.979 -36.295  25.481  1.00  0.00     0.000 C 
BRANCH  20  21
ATOM     21  C   UNL     1       5.124 -37.771  25.885  1.00  0.00     0.000 C 
BRANCH  21  22
ATOM     22  C   UNL     1       4.165 -38.181  27.017  1.00  0.00     0.000 C 
BRANCH  22  23
ATOM     23  C   UNL     1       2.671 -37.980  26.705  1.00  0.00     0.000 C 
BRANCH  23  24
ATOM     24  C   UNL     1       1.952 -37.121  27.757  1.00  0.00    -0.000 C 
BRANCH  24  25
ATOM     25  C   UNL     1       1.469 -35.794  27.150  1.00  0.00    -0.000 C 
BRANCH  25  26
ATOM     26  C   UNL     1       1.753 -34.589  28.061  1.00  0.00    -0.000 C 
BRANCH  26  27
ATOM     27  C   UNL     1       1.943 -34.989  29.534  1.00  0.00    -0.000 C 
BRANCH  27  28
ATOM     28  C   UNL     1       1.229 -34.023  30.502  1.00  0.00    -0.000 C 
BRANCH  28  29
ATOM     29  C   UNL     1       0.485 -32.875  29.799  1.00  0.00    -0.000 C 
BRANCH  29  30
ATOM     30  C   UNL     1      -1.025 -32.874  30.087  1.00  0.00    -0.000 C 
BRANCH  30  31
ATOM     31  C   UNL     1      -1.819 -33.715  29.075  1.00  0.00    -0.003 C 
ATOM     32  C   UNL     1      -2.981 -34.473  29.717  1.00  0.00     0.004 C 
ENDBRANCH  30  31
ENDBRANCH  29  30
ENDBRANCH  28  29
ENDBRANCH  27  28
ENDBRANCH  26  27
ENDBRANCH  25  26
ENDBRANCH  24  25
ENDBRANCH  23  24
ENDBRANCH  22  23
ENDBRANCH  21  22
ENDBRANCH  20  21
ENDBRANCH  19  20
ENDBRANCH  18  19
ENDBRANCH   1  18
TORSDOF 28
ENDMDL
MODEL 6
REMARK VINA RESULT:    12.345      1.888      3.219
REMARK INTER + INTRA:          34.165
REMARK INTER:                  33.652
REMARK INTRA:                   0.513
REMARK UNBOUND:                 1.613
REMARK SMILES CCCCCCCCCCCCCCCCCCCCCCCCCCCCCC(=O)[O-]
REMARK SMILES IDX 16 1 17 2 18 3 19 4 20 5 21 6 22 7 23 8 24 9 25 10 26 11
REMARK SMILES IDX 27 12 28 13 29 14 30 15 31 16 32 17 15 18 14 19 13 20 12 21
REMARK SMILES IDX 11 22 10 23 9 24 8 25 7 26 6 27 5 28 4 29 3 30 2 31 1 32
REMARK H PARENT
REMARK Flexibility Score: inf
ROOT
ATOM      1  C   UNL     1       3.771 -37.342  22.613  1.00  0.00     0.000 C 
ENDROOT
BRANCH   1   2
ATOM      2  C   UNL     1       4.444 -37.450  21.233  1.00  0.00     0.000 C 
BRANCH   2   3
ATOM      3  C   UNL     1       4.981 -36.106  20.720  1.00  0.00     0.000 C 
BRANCH   3   4
ATOM      4  C   UNL     1       4.439 -35.795  19.317  1.00  0.00     0.000 C 
BRANCH   4   5
ATOM      5  C   UNL     1       4.515 -37.003  18.366  1.00  0.00     0.000 C 
BRANCH   5   6
ATOM      6  C   UNL     1       4.018 -36.737  16.930  1.00  0.00     0.000 C 
BRANCH   6   7
ATOM      7  C   UNL     1       3.863 -37.991  16.051  1.00  0.00     0.000 C 
BRANCH   7   8
ATOM      8  C   UNL     1       4.222 -37.734  14.579  1.00  0.00     0.000 C 
BRANCH   8   9
ATOM      9  C   UNL     1       3.540 -36.458  14.063  1.00  0.00     0.000 C 
BRANCH   9  10
ATOM     10  C   UNL     1       2.006 -36.554  14.090  1.00  0.00     0.000 C 
BRANCH  10  11
ATOM     11  C   UNL     1       1.339 -35.236  14.507  1.00  0.00     0.000 C 
BRANCH  11  12
ATOM     12  C   UNL     1       1.237 -35.133  16.034  1.00  0.00     0.000 C 
BRANCH  12  13
ATOM     13  C   UNL     1       1.486 -36.496  16.695  1.00  0.00     0.006 C 
BRANCH  13  14
ATOM     14  C   UNL     1       0.381 -36.868  17.695  1.00  0.00     0.053 C 
BRANCH  14  15
ATOM     15  C   UNL     1       0.797 -37.994  18.590  1.00  0.00     0.041 C 
ATOM     16  O   UNL     1       1.824 -37.887  19.310  1.00  0.00    -0.550 OA
ATOM     17  O   UNL     1       0.030 -39.152  18.653  1.00  0.00    -0.550 OA
ENDBRANCH  14  15
ENDBRANCH  13  14
ENDBRANCH  12  13
ENDBRANCH  11  12
ENDBRANCH  10  11
ENDBRANCH   9  10
ENDBRANCH   8   9
ENDBRANCH   7   8
ENDBRANCH   6   7
ENDBRANCH   5   6
ENDBRANCH   4   5
ENDBRANCH   3   4
ENDBRANCH   2   3
ENDBRANCH   1   2
BRANCH   1  18
ATOM     18  C   UNL     1       4.729 -37.440  23.820  1.00  0.00     0.000 C 
BRANCH  18  19
ATOM     19  C   UNL     1       5.125 -36.094  24.452  1.00  0.00     0.000 C 
BRANCH  19  20
ATOM     20  C   UNL     1       5.022 -36.102  25.983  1.00  0.00     0.000 C 
BRANCH  20  21
ATOM     21  C   UNL     1       5.032 -37.541  26.523  1.00  0.00     0.000 C 
BRANCH  21  22
ATOM     22  C   UNL     1       3.680 -37.967  27.122  1.00  0.00     0.000 C 
BRANCH  22  23
ATOM     23  C   UNL     1       2.551 -36.931  26.977  1.00  0.00     0.000 C 
BRANCH  23  24
ATOM     24  C   UNL     1       2.491 -35.943  28.151  1.00  0.00    -0.000 C 
BRANCH  24  25
ATOM     25  C   UNL     1       1.220 -35.083  28.086  1.00  0.00    -0.000 C 
BRANCH  25  26
ATOM     26  C   UNL     1       0.990 -34.268  29.369  1.00  0.00    -0.000 C 
BRANCH  26  27
ATOM     27  C   UNL     1      -0.366 -33.542  29.377  1.00  0.00    -0.000 C 
BRANCH  27  28
ATOM     28  C   UNL     1      -1.553 -34.515  29.224  1.00  0.00    -0.000 C 
BRANCH  28  29
ATOM     29  C   UNL     1      -2.823 -34.071  29.972  1.00  0.00    -0.000 C 
BRANCH  29  30
ATOM     30  C   UNL     1      -4.074 -34.069  29.081  1.00  0.00    -0.000 C 
BRANCH  30  31
ATOM     31  C   UNL     1      -3.861 -34.829  27.762  1.00  0.00    -0.003 C 
ATOM     32  C   UNL     1      -5.134 -35.508  27.257  1.00  0.00     0.004 C 
ENDBRANCH  30  31
ENDBRANCH  29  30
ENDBRANCH  28  29
ENDBRANCH  27  28
ENDBRANCH  26  27
ENDBRANCH  25  26
ENDBRANCH  24  25
ENDBRANCH  23  24
ENDBRANCH  22  23
ENDBRANCH  21  22
ENDBRANCH  20  21
ENDBRANCH  19  20
ENDBRANCH  18  19
ENDBRANCH   1  18
TORSDOF 28
ENDMDL
MODEL 7
REMARK VINA RESULT:    12.472      2.789      4.678
REMARK INTER + INTRA:          34.499
REMARK INTER:                  32.476
REMARK INTRA:                   2.023
REMARK UNBOUND:                 1.613
REMARK SMILES CCCCCCCCCCCCCCCCCCCCCCCCCCCCCC(=O)[O-]
REMARK SMILES IDX 16 1 17 2 18 3 19 4 20 5 21 6 22 7 23 8 24 9 25 10 26 11
REMARK SMILES IDX 27 12 28 13 29 14 30 15 31 16 32 17 15 18 14 19 13 20 12 21
REMARK SMILES IDX 11 22 10 23 9 24 8 25 7 26 6 27 5 28 4 29 3 30 2 31 1 32
REMARK H PARENT
REMARK Flexibility Score: inf
ROOT
ATOM      1  C   UNL     1       3.963 -36.531  26.313  1.00  0.00     0.000 C 
ENDROOT
BRANCH   1   2
ATOM      2  C   UNL     1       5.087 -36.943  25.346  1.00  0.00     0.000 C 
BRANCH   2   3
ATOM      3  C   UNL     1       4.567 -37.653  24.087  1.00  0.00     0.000 C 
BRANCH   3   4
ATOM      4  C   UNL     1       4.906 -36.852  22.822  1.00  0.00     0.000 C 
BRANCH   4   5
ATOM      5  C   UNL     1       4.664 -35.340  22.989  1.00  0.00     0.000 C 
BRANCH   5   6
ATOM      6  C   UNL     1       4.628 -34.535  21.675  1.00  0.00     0.000 C 
BRANCH   6   7
ATOM      7  C   UNL     1       4.960 -35.342  20.407  1.00  0.00     0.000 C 
BRANCH   7   8
ATOM      8  C   UNL     1       4.947 -36.859  20.645  1.00  0.00     0.000 C 
BRANCH   8   9
ATOM      9  C   UNL     1       5.120 -37.624  19.324  1.00  0.00     0.000 C 
BRANCH   9  10
ATOM     10  C   UNL     1       3.824 -37.679  18.498  1.00  0.00     0.000 C 
BRANCH  10  11
ATOM     11  C   UNL     1       2.612 -37.130  19.264  1.00  0.00     0.000 C 
BRANCH  11  12
ATOM     12  C   UNL     1       1.307 -37.448  18.525  1.00  0.00     0.000 C 
BRANCH  12  13
ATOM     13  C   UNL     1       1.258 -36.737  17.164  1.00  0.00     0.006 C 
BRANCH  13  14
ATOM     14  C   UNL     1       2.655 -36.355  16.658  1.00  0.00     0.053 C 
BRANCH  14  15
ATOM     15  C   UNL     1       2.883 -36.819  15.252  1.00  0.00     0.041 C 
ATOM     16  O   UNL     1       3.780 -37.665  14.999  1.00  0.00    -0.550 OA
ATOM     17  O   UNL     1       2.082 -36.338  14.223  1.00  0.00    -0.550 OA
ENDBRANCH  14  15
ENDBRANCH  13  14
ENDBRANCH  12  13
ENDBRANCH  11  12
ENDBRANCH  10  11
ENDBRANCH   9  10
ENDBRANCH   8   9
ENDBRANCH   7   8
ENDBRANCH   6   7
ENDBRANCH   5   6
ENDBRANCH   4   5
ENDBRANCH   3   4
ENDBRANCH   2   3
ENDBRANCH   1   2
BRANCH   1  18
ATOM     18  C   UNL     1       3.045 -37.680  26.781  1.00  0.00     0.000 C 
BRANCH  18  19
ATOM     19  C   UNL     1       2.171 -37.361  28.006  1.00  0.00     0.000 C 
BRANCH  19  20
ATOM     20  C   UNL     1       1.655 -35.915  28.009  1.00  0.00     0.000 C 
BRANCH  20  21
ATOM     21  C   UNL     1       2.174 -35.152  29.237  1.00  0.00     0.000 C 
BRANCH  21  22
ATOM     22  C   UNL     1       1.424 -33.832  29.486  1.00  0.00     0.000 C 
BRANCH  22  23
ATOM     23  C   UNL     1      -0.067 -33.989  29.836  1.00  0.00     0.000 C 
BRANCH  23  24
ATOM     24  C   UNL     1      -0.958 -32.949  29.140  1.00  0.00    -0.000 C 
BRANCH  24  25
ATOM     25  C   UNL     1      -2.439 -33.169  29.486  1.00  0.00    -0.000 C 
BRANCH  25  26
ATOM     26  C   UNL     1      -3.017 -34.437  28.835  1.00  0.00    -0.000 C 
BRANCH  26  27
ATOM     27  C   UNL     1      -4.554 -34.479  28.881  1.00  0.00    -0.000 C 
BRANCH  27  28
ATOM     28  C   UNL     1      -5.162 -35.094  27.603  1.00  0.00    -0.000 C 
BRANCH  28  29
ATOM     29  C   UNL     1      -4.693 -36.532  27.319  1.00  0.00    -0.000 C 
BRANCH  29  30
ATOM     30  C   UNL     1      -5.845 -37.473  26.935  1.00  0.00    -0.000 C 
BRANCH  30  31
ATOM     31  C   UNL     1      -5.768 -38.826  27.661  1.00  0.00    -0.003 C 
ATOM     32  C   UNL     1      -6.999 -39.699  27.418  1.00  0.00     0.004 C 
ENDBRANCH  30  31
ENDBRANCH  29  30
ENDBRANCH  28  29
ENDBRANCH  27  28
ENDBRANCH  26  27
ENDBRANCH  25  26
ENDBRANCH  24  25
ENDBRANCH  23  24
ENDBRANCH  22  23
ENDBRANCH  21  22
ENDBRANCH  20  21
ENDBRANCH  19  20
ENDBRANCH  18  19
ENDBRANCH   1  18
TORSDOF 28
ENDMDL
MODEL 8
REMARK VINA RESULT:    12.648      4.022     11.852
REMARK INTER + INTRA:          34.964
REMARK INTER:                  34.546
REMARK INTRA:                   0.418
REMARK UNBOUND:                 1.613
REMARK SMILES CCCCCCCCCCCCCCCCCCCCCCCCCCCCCC(=O)[O-]
REMARK SMILES IDX 16 1 17 2 18 3 19 4 20 5 21 6 22 7 23 8 24 9 25 10 26 11
REMARK SMILES IDX 27 12 28 13 29 14 30 15 31 16 32 17 15 18 14 19 13 20 12 21
REMARK SMILES IDX 11 22 10 23 9 24 8 25 7 26 6 27 5 28 4 29 3 30 2 31 1 32
REMARK H PARENT
REMARK Flexibility Score: inf
ROOT
ATOM      1  C   UNL     1       4.828 -37.344  23.965  1.00  0.00     0.000 C 
ENDROOT
BRANCH   1   2
ATOM      2  C   UNL     1       4.473 -36.283  25.022  1.00  0.00     0.000 C 
BRANCH   2   3
ATOM      3  C   UNL     1       4.799 -36.729  26.455  1.00  0.00     0.000 C 
BRANCH   3   4
ATOM      4  C   UNL     1       4.102 -38.056  26.791  1.00  0.00     0.000 C 
BRANCH   4   5
ATOM      5  C   UNL     1       2.569 -37.925  26.858  1.00  0.00     0.000 C 
BRANCH   5   6
ATOM      6  C   UNL     1       2.041 -36.480  26.968  1.00  0.00     0.000 C 
BRANCH   6   7
ATOM      7  C   UNL     1       1.688 -36.022  28.395  1.00  0.00     0.000 C 
BRANCH   7   8
ATOM      8  C   UNL     1       1.548 -34.496  28.513  1.00  0.00     0.000 C 
BRANCH   8   9
ATOM      9  C   UNL     1       1.154 -34.090  29.941  1.00  0.00     0.000 C 
BRANCH   9  10
ATOM     10  C   UNL     1      -0.316 -34.406  30.262  1.00  0.00     0.000 C 
BRANCH  10  11
ATOM     11  C   UNL     1      -1.287 -33.394  29.639  1.00  0.00     0.000 C 
BRANCH  11  12
ATOM     12  C   UNL     1      -2.699 -33.563  30.215  1.00  0.00     0.000 C 
BRANCH  12  13
ATOM     13  C   UNL     1      -3.699 -33.949  29.116  1.00  0.00     0.006 C 
BRANCH  13  14
ATOM     14  C   UNL     1      -3.604 -35.435  28.740  1.00  0.00     0.053 C 
BRANCH  14  15
ATOM     15  C   UNL     1      -4.618 -35.812  27.704  1.00  0.00     0.041 C 
ATOM     16  O   UNL     1      -5.166 -36.944  27.733  1.00  0.00    -0.550 OA
ATOM     17  O   UNL     1      -4.981 -34.898  26.722  1.00  0.00    -0.550 OA
ENDBRANCH  14  15
ENDBRANCH  13  14
ENDBRANCH  12  13
ENDBRANCH  11  12
ENDBRANCH  10  11
ENDBRANCH   9  10
ENDBRANCH   8   9
ENDBRANCH   7   8
ENDBRANCH   6   7
ENDBRANCH   5   6
ENDBRANCH   4   5
ENDBRANCH   3   4
ENDBRANCH   2   3
ENDBRANCH   1   2
BRANCH   1  18
ATOM     18  C   UNL     1       5.077 -36.797  22.543  1.00  0.00     0.000 C 
BRANCH  18  19
ATOM     19  C   UNL     1       4.346 -35.484  22.211  1.00  0.00     0.000 C 
BRANCH  19  20
ATOM     20  C   UNL     1       4.989 -34.726  21.042  1.00  0.00     0.000 C 
BRANCH  20  21
ATOM     21  C   UNL     1       5.125 -35.634  19.811  1.00  0.00     0.000 C 
BRANCH  21  22
ATOM     22  C   UNL     1       4.824 -37.112  20.117  1.00  0.00     0.000 C 
BRANCH  22  23
ATOM     23  C   UNL     1       3.784 -37.767  19.191  1.00  0.00     0.000 C 
BRANCH  23  24
ATOM     24  C   UNL     1       2.384 -37.151  19.334  1.00  0.00    -0.000 C 
BRANCH  24  25
ATOM     25  C   UNL     1       1.382 -37.832  18.388  1.00  0.00    -0.000 C 
BRANCH  25  26
ATOM     26  C   UNL     1       1.684 -37.553  16.907  1.00  0.00    -0.000 C 
BRANCH  26  27
ATOM     27  C   UNL     1       0.811 -36.428  16.324  1.00  0.00    -0.000 C 
BRANCH  27  28
ATOM     28  C   UNL     1       1.634 -35.411  15.506  1.00  0.00    -0.000 C 
BRANCH  28  29
ATOM     29  C   UNL     1       2.129 -35.955  14.155  1.00  0.00    -0.000 C 
BRANCH  29  30
ATOM     30  C   UNL     1       3.614 -36.348  14.174  1.00  0.00    -0.000 C 
BRANCH  30  31
ATOM     31  C   UNL     1       3.922 -37.436  15.215  1.00  0.00    -0.003 C 
ATOM     32  C   UNL     1       4.347 -38.761  14.579  1.00  0.00     0.004 C 
ENDBRANCH  30  31
ENDBRANCH  29  30
ENDBRANCH  28  29
ENDBRANCH  27  28
ENDBRANCH  26  27
ENDBRANCH  25  26
ENDBRANCH  24  25
ENDBRANCH  23  24
ENDBRANCH  22  23
ENDBRANCH  21  22
ENDBRANCH  20  21
ENDBRANCH  19  20
ENDBRANCH  18  19
ENDBRANCH   1  18
TORSDOF 28
ENDMDL
MODEL 9
REMARK VINA RESULT:    12.703      4.900     11.928
REMARK INTER + INTRA:          35.111
REMARK INTER:                  33.262
REMARK INTRA:                   1.848
REMARK UNBOUND:                 1.613
REMARK SMILES CCCCCCCCCCCCCCCCCCCCCCCCCCCCCC(=O)[O-]
REMARK SMILES IDX 16 1 17 2 18 3 19 4 20 5 21 6 22 7 23 8 24 9 25 10 26 11
REMARK SMILES IDX 27 12 28 13 29 14 30 15 31 16 32 17 15 18 14 19 13 20 12 21
REMARK SMILES IDX 11 22 10 23 9 24 8 25 7 26 6 27 5 28 4 29 3 30 2 31 1 32
REMARK H PARENT
REMARK Flexibility Score: inf
ROOT
ATOM      1  C   UNL     1       4.241 -36.307  21.927  1.00  0.00     0.000 C 
ENDROOT
BRANCH   1   2
ATOM      2  C   UNL     1       4.717 -35.278  22.968  1.00  0.00     0.000 C 
BRANCH   2   3
ATOM      3  C   UNL     1       4.866 -35.873  24.377  1.00  0.00     0.000 C 
BRANCH   3   4
ATOM      4  C   UNL     1       5.087 -37.391  24.313  1.00  0.00     0.000 C 
BRANCH   4   5
ATOM      5  C   UNL     1       4.273 -38.158  25.373  1.00  0.00     0.000 C 
BRANCH   5   6
ATOM      6  C   UNL     1       3.725 -37.294  26.527  1.00  0.00     0.000 C 
BRANCH   6   7
ATOM      7  C   UNL     1       2.314 -37.673  27.012  1.00  0.00     0.000 C 
BRANCH   7   8
ATOM      8  C   UNL     1       1.764 -36.698  28.064  1.00  0.00     0.000 C 
BRANCH   8   9
ATOM      9  C   UNL     1       2.086 -35.244  27.687  1.00  0.00     0.000 C 
BRANCH   9  10
ATOM     10  C   UNL     1       2.179 -34.321  28.913  1.00  0.00     0.000 C 
BRANCH  10  11
ATOM     11  C   UNL     1       0.986 -34.481  29.865  1.00  0.00     0.000 C 
BRANCH  11  12
ATOM     12  C   UNL     1      -0.264 -33.798  29.296  1.00  0.00     0.000 C 
BRANCH  12  13
ATOM     13  C   UNL     1      -0.563 -32.489  30.042  1.00  0.00     0.006 C 
BRANCH  13  14
ATOM     14  C   UNL     1      -1.900 -31.868  29.613  1.00  0.00     0.053 C 
BRANCH  14  15
ATOM     15  C   UNL     1      -2.339 -30.788  30.553  1.00  0.00     0.041 C 
ATOM     16  O   UNL     1      -3.509 -30.786  31.017  1.00  0.00    -0.550 OA
ATOM     17  O   UNL     1      -1.442 -29.800  30.943  1.00  0.00    -0.550 OA
ENDBRANCH  14  15
ENDBRANCH  13  14
ENDBRANCH  12  13
ENDBRANCH  11  12
ENDBRANCH  10  11
ENDBRANCH   9  10
ENDBRANCH   8   9
ENDBRANCH   7   8
ENDBRANCH   6   7
ENDBRANCH   5   6
ENDBRANCH   4   5
ENDBRANCH   3   4
ENDBRANCH   2   3
ENDBRANCH   1   2
BRANCH   1  18
ATOM     18  C   UNL     1       4.766 -36.080  20.493  1.00  0.00     0.000 C 
BRANCH  18  19
ATOM     19  C   UNL     1       4.251 -34.805  19.803  1.00  0.00     0.000 C 
BRANCH  19  20
ATOM     20  C   UNL     1       5.085 -34.416  18.575  1.00  0.00     0.000 C 
BRANCH  20  21
ATOM     21  C   UNL     1       4.186 -34.214  17.345  1.00  0.00     0.000 C 
BRANCH  21  22
ATOM     22  C   UNL     1       3.328 -35.449  17.018  1.00  0.00     0.000 C 
BRANCH  22  23
ATOM     23  C   UNL     1       2.116 -35.174  16.110  1.00  0.00     0.000 C 
BRANCH  23  24
ATOM     24  C   UNL     1       2.342 -35.625  14.659  1.00  0.00    -0.000 C 
BRANCH  24  25
ATOM     25  C   UNL     1       3.707 -36.314  14.501  1.00  0.00    -0.000 C 
BRANCH  25  26
ATOM     26  C   UNL     1       3.616 -37.844  14.627  1.00  0.00    -0.000 C 
BRANCH  26  27
ATOM     27  C   UNL     1       3.826 -38.334  16.070  1.00  0.00    -0.000 C 
BRANCH  27  28
ATOM     28  C   UNL     1       2.902 -37.615  17.074  1.00  0.00    -0.000 C 
BRANCH  28  29
ATOM     29  C   UNL     1       3.177 -37.977  18.544  1.00  0.00    -0.000 C 
BRANCH  29  30
ATOM     30  C   UNL     1       1.939 -38.532  19.266  1.00  0.00    -0.000 C 
BRANCH  30  31
ATOM     31  C   UNL     1       0.625 -38.119  18.585  1.00  0.00    -0.003 C 
ATOM     32  C   UNL     1      -0.053 -36.935  19.276  1.00  0.00     0.004 C 
ENDBRANCH  30  31
ENDBRANCH  29  30
ENDBRANCH  28  29
ENDBRANCH  27  28
ENDBRANCH  26  27
ENDBRANCH  25  26
ENDBRANCH  24  25
ENDBRANCH  23  24
ENDBRANCH  22  23
ENDBRANCH  21  22
ENDBRANCH  20  21
ENDBRANCH  19  20
ENDBRANCH  18  19
ENDBRANCH   1  18
TORSDOF 28
ENDMDL
