MODEL 1
REMARK VINA RESULT:    -2.711      0.000      0.000
REMARK INTER + INTRA:          -3.403
REMARK INTER:                  -3.345
REMARK INTRA:                  -0.057
REMARK UNBOUND:                -0.057
REMARK SMILES COc1cc(C=O)ccc1OC(C)=O
REMARK SMILES IDX 10 1 3 2 4 3 5 4 8 5 9 6 11 7 12 8 13 9 14 10 2 11 1 12 6 13
REMARK SMILES IDX 7 14
REMARK H PARENT
REMARK Flexibility Score: inf
ROOT
ATOM      1  C   UNL     1      26.871   6.764  -1.218  1.00  0.00     0.172 A 
ATOM      2  C   UNL     1      28.192   7.011  -0.787  1.00  0.00     0.162 A 
ATOM      3  C   UNL     1      28.905   8.094  -1.340  1.00  0.00     0.062 A 
ATOM      4  C   UNL     1      28.304   8.939  -2.285  1.00  0.00     0.018 A 
ATOM      5  C   UNL     1      26.978   8.702  -2.676  1.00  0.00     0.015 A 
ATOM      6  C   UNL     1      26.269   7.627  -2.139  1.00  0.00     0.052 A 
ENDROOT
BRANCH   1   7
ATOM      7  O   UNL     1      26.115   5.694  -0.721  1.00  0.00    -0.423 OA
BRANCH   7   8
ATOM      8  C   UNL     1      25.756   4.565  -1.468  1.00  0.00     0.308 C 
ATOM      9  C   UNL     1      24.507   4.593  -2.282  1.00  0.00     0.139 C 
ATOM     10  O   UNL     1      26.519   3.563  -1.531  1.00  0.00    -0.252 OA
ENDBRANCH   7   8
ENDBRANCH   1   7
BRANCH   2  11
ATOM     11  O   UNL     1      28.750   6.187   0.204  1.00  0.00    -0.493 OA
ATOM     12  C   UNL     1      29.124   4.827   0.010  1.00  0.00     0.278 C 
ENDBRANCH   2  11
BRANCH   4  13
ATOM     13  C   UNL     1      29.071  10.069  -2.843  1.00  0.00     0.260 C 
ATOM     14  O   UNL     1      28.546  11.206  -2.986  1.00  0.00    -0.298 OA
ENDBRANCH   4  13
TORSDOF 4
ENDMDL
MODEL 2
REMARK VINA RESULT:    -1.556      1.929      5.279
REMARK INTER + INTRA:          -1.977
REMARK INTER:                  -2.017
REMARK INTRA:                   0.041
REMARK UNBOUND:                -0.057
REMARK SMILES COc1cc(C=O)ccc1OC(C)=O
REMARK SMILES IDX 10 1 3 2 4 3 5 4 8 5 9 6 11 7 12 8 13 9 14 10 2 11 1 12 6 13
REMARK SMILES IDX 7 14
REMARK H PARENT
REMARK Flexibility Score: inf
ROOT
ATOM      1  C   UNL     1      27.736   7.103  -1.100  1.00  0.00     0.172 A 
ATOM      2  C   UNL     1      26.675   7.347  -1.998  1.00  0.00     0.162 A 
ATOM      3  C   UNL     1      25.744   6.320  -2.259  1.00  0.00     0.062 A 
ATOM      4  C   UNL     1      25.847   5.080  -1.612  1.00  0.00     0.018 A 
ATOM      5  C   UNL     1      26.886   4.866  -0.694  1.00  0.00     0.015 A 
ATOM      6  C   UNL     1      27.816   5.874  -0.438  1.00  0.00     0.052 A 
ENDROOT
BRANCH   1   7
ATOM      7  O   UNL     1      28.703   8.075  -0.811  1.00  0.00    -0.423 OA
BRANCH   7   8
ATOM      8  C   UNL     1      28.412   9.382  -0.403  1.00  0.00     0.308 C 
ATOM      9  C   UNL     1      29.125  10.525  -1.042  1.00  0.00     0.139 C 
ATOM     10  O   UNL     1      27.495   9.610   0.433  1.00  0.00    -0.252 OA
ENDBRANCH   7   8
ENDBRANCH   1   7
BRANCH   2  11
ATOM     11  O   UNL     1      26.559   8.617  -2.587  1.00  0.00    -0.493 OA
ATOM     12  C   UNL     1      27.200   9.011  -3.796  1.00  0.00     0.278 C 
ENDBRANCH   2  11
BRANCH   4  13
ATOM     13  C   UNL     1      24.856   4.025  -1.899  1.00  0.00     0.260 C 
ATOM     14  O   UNL     1      23.876   4.243  -2.661  1.00  0.00    -0.298 OA
ENDBRANCH   4  13
TORSDOF 4
ENDMDL
MODEL 3
REMARK VINA RESULT:    -1.339      1.521      2.357
REMARK INTER + INTRA:          -1.710
REMARK INTER:                  -1.384
REMARK INTRA:                  -0.325
REMARK UNBOUND:                -0.057
REMARK SMILES COc1cc(C=O)ccc1OC(C)=O
REMARK SMILES IDX 10 1 3 2 4 3 5 4 8 5 9 6 11 7 12 8 13 9 14 10 2 11 1 12 6 13
REMARK SMILES IDX 7 14
REMARK H PARENT
REMARK Flexibility Score: inf
ROOT
ATOM      1  C   UNL     1      27.350   7.890  -1.320  1.00  0.00     0.172 A 
ATOM      2  C   UNL     1      28.321   8.812  -0.874  1.00  0.00     0.162 A 
ATOM      3  C   UNL     1      28.751   9.833  -1.746  1.00  0.00     0.062 A 
ATOM      4  C   UNL     1      28.203   9.956  -3.031  1.00  0.00     0.018 A 
ATOM      5  C   UNL     1      27.213   9.053  -3.446  1.00  0.00     0.015 A 
ATOM      6  C   UNL     1      26.788   8.035  -2.592  1.00  0.00     0.052 A 
ENDROOT
BRANCH   1   7
ATOM      7  O   UNL     1      26.893   6.842  -0.509  1.00  0.00    -0.423 OA
BRANCH   7   8
ATOM      8  C   UNL     1      27.344   5.520  -0.598  1.00  0.00     0.308 C 
ATOM      9  C   UNL     1      28.704   5.174  -0.095  1.00  0.00     0.139 C 
ATOM     10  O   UNL     1      26.583   4.604  -1.016  1.00  0.00    -0.252 OA
ENDBRANCH   7   8
ENDBRANCH   1   7
BRANCH   2  11
ATOM     11  O   UNL     1      28.810   8.705   0.438  1.00  0.00    -0.493 OA
ATOM     12  C   UNL     1      29.101   9.811   1.287  1.00  0.00     0.278 C 
ENDBRANCH   2  11
BRANCH   4  13
ATOM     13  C   UNL     1      28.668  11.037  -3.921  1.00  0.00     0.260 C 
ATOM     14  O   UNL     1      29.059  12.141  -3.455  1.00  0.00    -0.298 OA
ENDBRANCH   4  13
TORSDOF 4
ENDMDL
MODEL 4
REMARK VINA RESULT:    -0.391      1.148      2.775
REMARK INTER + INTRA:          -0.539
REMARK INTER:                  -1.316
REMARK INTRA:                   0.777
REMARK UNBOUND:                -0.057
REMARK SMILES COc1cc(C=O)ccc1OC(C)=O
REMARK SMILES IDX 10 1 3 2 4 3 5 4 8 5 9 6 11 7 12 8 13 9 14 10 2 11 1 12 6 13
REMARK SMILES IDX 7 14
REMARK H PARENT
REMARK Flexibility Score: inf
ROOT
ATOM      1  C   UNL     1      27.440   6.034  -0.745  1.00  0.00     0.172 A 
ATOM      2  C   UNL     1      26.525   6.756  -1.541  1.00  0.00     0.162 A 
ATOM      3  C   UNL     1      26.835   8.079  -1.917  1.00  0.00     0.062 A 
ATOM      4  C   UNL     1      28.050   8.666  -1.534  1.00  0.00     0.018 A 
ATOM      5  C   UNL     1      28.965   7.923  -0.774  1.00  0.00     0.015 A 
ATOM      6  C   UNL     1      28.661   6.616  -0.391  1.00  0.00     0.052 A 
ENDROOT
BRANCH   1   7
ATOM      7  O   UNL     1      27.184   4.722  -0.324  1.00  0.00    -0.423 OA
BRANCH   7   8
ATOM      8  C   UNL     1      28.043   3.639  -0.548  1.00  0.00     0.308 C 
ATOM      9  C   UNL     1      29.123   3.345   0.438  1.00  0.00     0.139 C 
ATOM     10  O   UNL     1      27.859   2.859  -1.522  1.00  0.00    -0.252 OA
ENDBRANCH   7   8
ENDBRANCH   1   7
BRANCH   2  11
ATOM     11  O   UNL     1      25.343   6.125  -1.962  1.00  0.00    -0.493 OA
ATOM     12  C   UNL     1      25.157   4.715  -2.030  1.00  0.00     0.278 C 
ENDBRANCH   2  11
BRANCH   4  13
ATOM     13  C   UNL     1      28.351  10.051  -1.945  1.00  0.00     0.260 C 
ATOM     14  O   UNL     1      28.240  10.411  -3.148  1.00  0.00    -0.298 OA
ENDBRANCH   4  13
TORSDOF 4
ENDMDL
MODEL 5
REMARK VINA RESULT:    -0.266      1.703      5.460
REMARK INTER + INTRA:          -0.385
REMARK INTER:                  -0.589
REMARK INTRA:                   0.203
REMARK UNBOUND:                -0.057
REMARK SMILES COc1cc(C=O)ccc1OC(C)=O
REMARK SMILES IDX 10 1 3 2 4 3 5 4 8 5 9 6 11 7 12 8 13 9 14 10 2 11 1 12 6 13
REMARK SMILES IDX 7 14
REMARK H PARENT
REMARK Flexibility Score: inf
ROOT
ATOM      1  C   UNL     1      27.718   8.431  -1.614  1.00  0.00     0.172 A 
ATOM      2  C   UNL     1      26.581   8.075  -2.371  1.00  0.00     0.162 A 
ATOM      3  C   UNL     1      26.001   6.804  -2.184  1.00  0.00     0.062 A 
ATOM      4  C   UNL     1      26.523   5.910  -1.237  1.00  0.00     0.018 A 
ATOM      5  C   UNL     1      27.630   6.293  -0.466  1.00  0.00     0.015 A 
ATOM      6  C   UNL     1      28.215   7.547  -0.651  1.00  0.00     0.052 A 
ENDROOT
BRANCH   1   7
ATOM      7  O   UNL     1      28.352   9.672  -1.764  1.00  0.00    -0.423 OA
BRANCH   7   8
ATOM      8  C   UNL     1      28.675  10.249  -2.997  1.00  0.00     0.308 C 
ATOM      9  C   UNL     1      28.619  11.732  -3.149  1.00  0.00     0.139 C 
ATOM     10  O   UNL     1      29.098   9.541  -3.952  1.00  0.00    -0.252 OA
ENDBRANCH   7   8
ENDBRANCH   1   7
BRANCH   2  11
ATOM     11  O   UNL     1      26.042   9.009  -3.269  1.00  0.00    -0.493 OA
ATOM     12  C   UNL     1      24.930   8.762  -4.125  1.00  0.00     0.278 C 
ENDBRANCH   2  11
BRANCH   4  13
ATOM     13  C   UNL     1      25.893   4.588  -1.058  1.00  0.00     0.260 C 
ATOM     14  O   UNL     1      24.964   4.202  -1.818  1.00  0.00    -0.298 OA
ENDBRANCH   4  13
TORSDOF 4
ENDMDL
MODEL 6
REMARK VINA RESULT:    -0.201      1.775      3.043
REMARK INTER + INTRA:          -0.305
REMARK INTER:                  -0.696
REMARK INTRA:                   0.391
REMARK UNBOUND:                -0.057
REMARK SMILES COc1cc(C=O)ccc1OC(C)=O
REMARK SMILES IDX 10 1 3 2 4 3 5 4 8 5 9 6 11 7 12 8 13 9 14 10 2 11 1 12 6 13
REMARK SMILES IDX 7 14
REMARK H PARENT
REMARK Flexibility Score: inf
ROOT
ATOM      1  C   UNL     1      26.084   6.730  -1.952  1.00  0.00     0.172 A 
ATOM      2  C   UNL     1      26.420   7.920  -2.632  1.00  0.00     0.162 A 
ATOM      3  C   UNL     1      27.410   8.766  -2.091  1.00  0.00     0.062 A 
ATOM      4  C   UNL     1      28.080   8.419  -0.908  1.00  0.00     0.018 A 
ATOM      5  C   UNL     1      27.760   7.215  -0.263  1.00  0.00     0.015 A 
ATOM      6  C   UNL     1      26.775   6.377  -0.788  1.00  0.00     0.052 A 
ENDROOT
BRANCH   1   7
ATOM      7  O   UNL     1      25.098   5.856  -2.427  1.00  0.00    -0.423 OA
BRANCH   7   8
ATOM      8  C   UNL     1      25.052   4.486  -2.140  1.00  0.00     0.308 C 
ATOM      9  C   UNL     1      23.828   3.707  -2.485  1.00  0.00     0.139 C 
ATOM     10  O   UNL     1      26.061   3.888  -1.678  1.00  0.00    -0.252 OA
ENDBRANCH   7   8
ENDBRANCH   1   7
BRANCH   2  11
ATOM     11  O   UNL     1      25.779   8.215  -3.846  1.00  0.00    -0.493 OA
ATOM     12  C   UNL     1      25.093   9.432  -4.125  1.00  0.00     0.278 C 
ENDBRANCH   2  11
BRANCH   4  13
ATOM     13  C   UNL     1      29.115   9.320  -0.366  1.00  0.00     0.260 C 
ATOM     14  O   UNL     1      29.123  10.548  -0.651  1.00  0.00    -0.298 OA
ENDBRANCH   4  13
TORSDOF 4
ENDMDL
