MODEL 1
REMARK VINA RESULT:    -4.245      0.000      0.000
REMARK INTER + INTRA:         -10.060
REMARK INTER:                  -7.719
REMARK INTRA:                  -2.341
REMARK UNBOUND:                -2.341
REMARK SMILES CCCCCCCCCCCCCCCC(=O)[O-]
REMARK SMILES IDX 9 1 10 2 11 3 12 4 13 5 14 6 15 7 16 8 17 9 18 10 8 11 7 12
REMARK SMILES IDX 6 13 5 14 4 15 3 16 2 17 1 18
REMARK H PARENT
REMARK Flexibility Score: inf
ROOT
ATOM      1  C   UNL     1       6.907  34.160  67.120  1.00  0.00     0.000 C 
ENDROOT
BRANCH   1   2
ATOM      2  C   UNL     1       5.815  33.084  67.011  1.00  0.00     0.000 C 
BRANCH   2   3
ATOM      3  C   UNL     1       4.409  33.627  67.323  1.00  0.00     0.000 C 
BRANCH   3   4
ATOM      4  C   UNL     1       3.502  32.608  68.045  1.00  0.00     0.000 C 
BRANCH   4   5
ATOM      5  C   UNL     1       2.249  33.269  68.646  1.00  0.00     0.000 C 
BRANCH   5   6
ATOM      6  C   UNL     1       1.084  33.363  67.643  1.00  0.00     0.006 C 
BRANCH   6   7
ATOM      7  C   UNL     1       0.327  34.699  67.680  1.00  0.00     0.053 C 
BRANCH   7   8
ATOM      8  C   UNL     1       1.256  35.872  67.603  1.00  0.00     0.041 C 
ATOM      9  O   UNL     1       1.823  36.162  66.517  1.00  0.00    -0.550 OA
ATOM     10  O   UNL     1       1.471  36.662  68.725  1.00  0.00    -0.550 OA
ENDBRANCH   7   8
ENDBRANCH   6   7
ENDBRANCH   5   6
ENDBRANCH   4   5
ENDBRANCH   3   4
ENDBRANCH   2   3
ENDBRANCH   1   2
BRANCH   1  11
ATOM     11  C   UNL     1       8.041  33.754  68.074  1.00  0.00     0.000 C 
BRANCH  11  12
ATOM     12  C   UNL     1       7.675  32.535  68.940  1.00  0.00    -0.000 C 
BRANCH  12  13
ATOM     13  C   UNL     1       7.368  32.914  70.397  1.00  0.00    -0.000 C 
BRANCH  13  14
ATOM     14  C   UNL     1       5.942  32.520  70.820  1.00  0.00    -0.000 C 
BRANCH  14  15
ATOM     15  C   UNL     1       5.140  33.711  71.371  1.00  0.00    -0.000 C 
BRANCH  15  16
ATOM     16  C   UNL     1       5.296  34.977  70.511  1.00  0.00    -0.000 C 
BRANCH  16  17
ATOM     17  C   UNL     1       4.096  35.927  70.639  1.00  0.00    -0.003 C 
ATOM     18  C   UNL     1       3.035  35.415  71.615  1.00  0.00     0.004 C 
ENDBRANCH  16  17
ENDBRANCH  15  16
ENDBRANCH  14  15
ENDBRANCH  13  14
ENDBRANCH  12  13
ENDBRANCH  11  12
ENDBRANCH   1  11
TORSDOF 14
ENDMDL
MODEL 2
REMARK VINA RESULT:    -4.196     10.875     12.877
REMARK INTER + INTRA:          -9.971
REMARK INTER:                  -8.811
REMARK INTRA:                  -1.159
REMARK UNBOUND:                -2.341
REMARK SMILES CCCCCCCCCCCCCCCC(=O)[O-]
REMARK SMILES IDX 9 1 10 2 11 3 12 4 13 5 14 6 15 7 16 8 17 9 18 10 8 11 7 12
REMARK SMILES IDX 6 13 5 14 4 15 3 16 2 17 1 18
REMARK H PARENT
REMARK Flexibility Score: inf
ROOT
ATOM      1  C   UNL     1       3.017  46.417  64.711  1.00  0.00     0.000 C 
ENDROOT
BRANCH   1   2
ATOM      2  C   UNL     1       4.305  46.329  63.875  1.00  0.00     0.000 C 
BRANCH   2   3
ATOM      3  C   UNL     1       5.115  47.637  63.886  1.00  0.00     0.000 C 
BRANCH   3   4
ATOM      4  C   UNL     1       4.487  48.743  64.761  1.00  0.00     0.000 C 
BRANCH   4   5
ATOM      5  C   UNL     1       5.435  49.206  65.882  1.00  0.00     0.000 C 
BRANCH   5   6
ATOM      6  C   UNL     1       5.853  48.059  66.821  1.00  0.00     0.006 C 
BRANCH   6   7
ATOM      7  C   UNL     1       7.364  47.784  66.846  1.00  0.00     0.053 C 
BRANCH   7   8
ATOM      8  C   UNL     1       7.851  47.449  68.222  1.00  0.00     0.041 C 
ATOM      9  O   UNL     1       9.052  47.654  68.538  1.00  0.00    -0.550 OA
ATOM     10  O   UNL     1       6.968  46.941  69.167  1.00  0.00    -0.550 OA
ENDBRANCH   7   8
ENDBRANCH   6   7
ENDBRANCH   5   6
ENDBRANCH   4   5
ENDBRANCH   3   4
ENDBRANCH   2   3
ENDBRANCH   1   2
BRANCH   1  11
ATOM     11  C   UNL     1       3.016  45.440  65.897  1.00  0.00     0.000 C 
BRANCH  11  12
ATOM     12  C   UNL     1       3.267  43.985  65.462  1.00  0.00    -0.000 C 
BRANCH  12  13
ATOM     13  C   UNL     1       3.292  43.008  66.648  1.00  0.00    -0.000 C 
BRANCH  13  14
ATOM     14  C   UNL     1       2.881  43.677  67.972  1.00  0.00    -0.000 C 
BRANCH  14  15
ATOM     15  C   UNL     1       3.192  42.802  69.197  1.00  0.00    -0.000 C 
BRANCH  15  16
ATOM     16  C   UNL     1       2.346  43.183  70.426  1.00  0.00    -0.000 C 
BRANCH  16  17
ATOM     17  C   UNL     1       3.193  43.774  71.563  1.00  0.00    -0.003 C 
ATOM     18  C   UNL     1       4.656  43.980  71.168  1.00  0.00     0.004 C 
ENDBRANCH  16  17
ENDBRANCH  15  16
ENDBRANCH  14  15
ENDBRANCH  13  14
ENDBRANCH  12  13
ENDBRANCH  11  12
ENDBRANCH   1  11
TORSDOF 14
ENDMDL
MODEL 3
REMARK VINA RESULT:    -4.130     10.580     12.402
REMARK INTER + INTRA:          -9.851
REMARK INTER:                  -8.760
REMARK INTRA:                  -1.091
REMARK UNBOUND:                -2.341
REMARK SMILES CCCCCCCCCCCCCCCC(=O)[O-]
REMARK SMILES IDX 9 1 10 2 11 3 12 4 13 5 14 6 15 7 16 8 17 9 18 10 8 11 7 12
REMARK SMILES IDX 6 13 5 14 4 15 3 16 2 17 1 18
REMARK H PARENT
REMARK Flexibility Score: inf
ROOT
ATOM      1  C   UNL     1       4.271  46.376  64.067  1.00  0.00     0.000 C 
ENDROOT
BRANCH   1   2
ATOM      2  C   UNL     1       3.137  45.675  64.833  1.00  0.00     0.000 C 
BRANCH   2   3
ATOM      3  C   UNL     1       3.395  44.172  65.039  1.00  0.00     0.000 C 
BRANCH   3   4
ATOM      4  C   UNL     1       2.449  43.521  66.070  1.00  0.00     0.000 C 
BRANCH   4   5
ATOM      5  C   UNL     1       3.209  42.977  67.293  1.00  0.00     0.000 C 
BRANCH   5   6
ATOM      6  C   UNL     1       2.903  43.761  68.583  1.00  0.00     0.006 C 
BRANCH   6   7
ATOM      7  C   UNL     1       2.787  42.884  69.840  1.00  0.00     0.053 C 
BRANCH   7   8
ATOM      8  C   UNL     1       3.634  43.400  70.962  1.00  0.00     0.041 C 
ATOM      9  O   UNL     1       3.135  44.153  71.839  1.00  0.00    -0.550 OA
ATOM     10  O   UNL     1       4.967  43.022  71.057  1.00  0.00    -0.550 OA
ENDBRANCH   7   8
ENDBRANCH   6   7
ENDBRANCH   5   6
ENDBRANCH   4   5
ENDBRANCH   3   4
ENDBRANCH   2   3
ENDBRANCH   1   2
BRANCH   1  11
ATOM     11  C   UNL     1       5.085  47.326  64.958  1.00  0.00     0.000 C 
BRANCH  11  12
ATOM     12  C   UNL     1       4.724  47.191  66.449  1.00  0.00    -0.000 C 
BRANCH  12  13
ATOM     13  C   UNL     1       5.758  47.853  67.373  1.00  0.00    -0.000 C 
BRANCH  13  14
ATOM     14  C   UNL     1       6.997  48.354  66.607  1.00  0.00    -0.000 C 
BRANCH  14  15
ATOM     15  C   UNL     1       8.265  47.555  66.951  1.00  0.00    -0.000 C 
BRANCH  15  16
ATOM     16  C   UNL     1       8.250  47.014  68.392  1.00  0.00    -0.000 C 
BRANCH  16  17
ATOM     17  C   UNL     1       9.064  47.889  69.357  1.00  0.00    -0.003 C 
ATOM     18  C   UNL     1       8.293  48.246  70.628  1.00  0.00     0.004 C 
ENDBRANCH  16  17
ENDBRANCH  15  16
ENDBRANCH  14  15
ENDBRANCH  13  14
ENDBRANCH  12  13
ENDBRANCH  11  12
ENDBRANCH   1  11
TORSDOF 14
ENDMDL
MODEL 4
REMARK VINA RESULT:    -4.117      1.240      3.543
REMARK INTER + INTRA:          -9.828
REMARK INTER:                  -7.728
REMARK INTRA:                  -2.099
REMARK UNBOUND:                -2.341
REMARK SMILES CCCCCCCCCCCCCCCC(=O)[O-]
REMARK SMILES IDX 9 1 10 2 11 3 12 4 13 5 14 6 15 7 16 8 17 9 18 10 8 11 7 12
REMARK SMILES IDX 6 13 5 14 4 15 3 16 2 17 1 18
REMARK H PARENT
REMARK Flexibility Score: inf
ROOT
ATOM      1  C   UNL     1       7.341  32.314  71.207  1.00  0.00     0.000 C 
ENDROOT
BRANCH   1   2
ATOM      2  C   UNL     1       6.944  33.799  71.155  1.00  0.00     0.000 C 
BRANCH   2   3
ATOM      3  C   UNL     1       5.420  34.009  71.113  1.00  0.00     0.000 C 
BRANCH   3   4
ATOM      4  C   UNL     1       5.004  35.397  70.582  1.00  0.00     0.000 C 
BRANCH   4   5
ATOM      5  C   UNL     1       3.508  35.681  70.807  1.00  0.00     0.000 C 
BRANCH   5   6
ATOM      6  C   UNL     1       2.611  35.051  69.726  1.00  0.00     0.006 C 
BRANCH   6   7
ATOM      7  C   UNL     1       1.818  36.070  68.893  1.00  0.00     0.053 C 
BRANCH   7   8
ATOM      8  C   UNL     1       1.517  35.558  67.518  1.00  0.00     0.041 C 
ATOM      9  O   UNL     1       1.023  34.411  67.363  1.00  0.00    -0.550 OA
ATOM     10  O   UNL     1       1.753  36.362  66.410  1.00  0.00    -0.550 OA
ENDBRANCH   7   8
ENDBRANCH   6   7
ENDBRANCH   5   6
ENDBRANCH   4   5
ENDBRANCH   3   4
ENDBRANCH   2   3
ENDBRANCH   1   2
BRANCH   1  11
ATOM     11  C   UNL     1       6.768  31.509  70.031  1.00  0.00     0.000 C 
BRANCH  11  12
ATOM     12  C   UNL     1       7.867  30.850  69.178  1.00  0.00    -0.000 C 
BRANCH  12  13
ATOM     13  C   UNL     1       8.013  31.499  67.792  1.00  0.00    -0.000 C 
BRANCH  13  14
ATOM     14  C   UNL     1       8.324  33.004  67.877  1.00  0.00    -0.000 C 
BRANCH  14  15
ATOM     15  C   UNL     1       7.453  33.841  66.926  1.00  0.00    -0.000 C 
BRANCH  15  16
ATOM     16  C   UNL     1       6.122  34.271  67.567  1.00  0.00    -0.000 C 
BRANCH  16  17
ATOM     17  C   UNL     1       4.904  33.649  66.868  1.00  0.00    -0.003 C 
ATOM     18  C   UNL     1       4.253  32.535  67.689  1.00  0.00     0.004 C 
ENDBRANCH  16  17
ENDBRANCH  15  16
ENDBRANCH  14  15
ENDBRANCH  13  14
ENDBRANCH  12  13
ENDBRANCH  11  12
ENDBRANCH   1  11
TORSDOF 14
ENDMDL
MODEL 5
REMARK VINA RESULT:    -4.112      3.349      5.454
REMARK INTER + INTRA:          -9.817
REMARK INTER:                  -7.817
REMARK INTRA:                  -2.000
REMARK UNBOUND:                -2.341
REMARK SMILES CCCCCCCCCCCCCCCC(=O)[O-]
REMARK SMILES IDX 9 1 10 2 11 3 12 4 13 5 14 6 15 7 16 8 17 9 18 10 8 11 7 12
REMARK SMILES IDX 6 13 5 14 4 15 3 16 2 17 1 18
REMARK H PARENT
REMARK Flexibility Score: inf
ROOT
ATOM      1  C   UNL     1       2.844  35.557  69.985  1.00  0.00     0.000 C 
ENDROOT
BRANCH   1   2
ATOM      2  C   UNL     1       2.475  34.166  69.444  1.00  0.00     0.000 C 
BRANCH   2   3
ATOM      3  C   UNL     1       2.910  33.960  67.982  1.00  0.00     0.000 C 
BRANCH   3   4
ATOM      4  C   UNL     1       3.961  32.844  67.804  1.00  0.00     0.000 C 
BRANCH   4   5
ATOM      5  C   UNL     1       5.248  33.359  67.135  1.00  0.00     0.000 C 
BRANCH   5   6
ATOM      6  C   UNL     1       6.408  32.350  67.218  1.00  0.00     0.006 C 
BRANCH   6   7
ATOM      7  C   UNL     1       7.803  32.995  67.248  1.00  0.00     0.053 C 
BRANCH   7   8
ATOM      8  C   UNL     1       8.870  32.005  67.599  1.00  0.00     0.041 C 
ATOM      9  O   UNL     1      10.044  32.159  67.170  1.00  0.00    -0.550 OA
ATOM     10  O   UNL     1       8.576  30.928  68.425  1.00  0.00    -0.550 OA
ENDBRANCH   7   8
ENDBRANCH   6   7
ENDBRANCH   5   6
ENDBRANCH   4   5
ENDBRANCH   3   4
ENDBRANCH   2   3
ENDBRANCH   1   2
BRANCH   1  11
ATOM     11  C   UNL     1       3.878  35.493  71.120  1.00  0.00     0.000 C 
BRANCH  11  12
ATOM     12  C   UNL     1       5.308  35.785  70.632  1.00  0.00    -0.000 C 
BRANCH  12  13
ATOM     13  C   UNL     1       6.124  34.506  70.384  1.00  0.00    -0.000 C 
BRANCH  13  14
ATOM     14  C   UNL     1       5.702  33.350  71.309  1.00  0.00    -0.000 C 
BRANCH  14  15
ATOM     15  C   UNL     1       6.447  32.043  70.996  1.00  0.00    -0.000 C 
BRANCH  15  16
ATOM     16  C   UNL     1       7.500  31.692  72.063  1.00  0.00    -0.000 C 
BRANCH  16  17
ATOM     17  C   UNL     1       7.246  32.409  73.398  1.00  0.00    -0.003 C 
ATOM     18  C   UNL     1       8.501  33.076  73.962  1.00  0.00     0.004 C 
ENDBRANCH  16  17
ENDBRANCH  15  16
ENDBRANCH  14  15
ENDBRANCH  13  14
ENDBRANCH  12  13
ENDBRANCH  11  12
ENDBRANCH   1  11
TORSDOF 14
ENDMDL
MODEL 6
REMARK VINA RESULT:    -4.096      3.122      5.674
REMARK INTER + INTRA:          -9.790
REMARK INTER:                  -7.733
REMARK INTRA:                  -2.057
REMARK UNBOUND:                -2.341
REMARK SMILES CCCCCCCCCCCCCCCC(=O)[O-]
REMARK SMILES IDX 9 1 10 2 11 3 12 4 13 5 14 6 15 7 16 8 17 9 18 10 8 11 7 12
REMARK SMILES IDX 6 13 5 14 4 15 3 16 2 17 1 18
REMARK H PARENT
REMARK Flexibility Score: inf
ROOT
ATOM      1  C   UNL     1       1.293  34.187  67.650  1.00  0.00     0.000 C 
ENDROOT
BRANCH   1   2
ATOM      2  C   UNL     1       1.675  32.700  67.739  1.00  0.00     0.000 C 
BRANCH   2   3
ATOM      3  C   UNL     1       3.196  32.476  67.782  1.00  0.00     0.000 C 
BRANCH   3   4
ATOM      4  C   UNL     1       4.015  33.775  67.627  1.00  0.00     0.000 C 
BRANCH   4   5
ATOM      5  C   UNL     1       5.213  33.596  66.677  1.00  0.00     0.000 C 
BRANCH   5   6
ATOM      6  C   UNL     1       6.251  32.591  67.209  1.00  0.00     0.006 C 
BRANCH   6   7
ATOM      7  C   UNL     1       7.686  33.140  67.271  1.00  0.00     0.053 C 
BRANCH   7   8
ATOM      8  C   UNL     1       8.676  32.078  67.636  1.00  0.00     0.041 C 
ATOM      9  O   UNL     1       8.432  31.279  68.578  1.00  0.00    -0.550 OA
ATOM     10  O   UNL     1       9.857  31.951  66.914  1.00  0.00    -0.550 OA
ENDBRANCH   7   8
ENDBRANCH   6   7
ENDBRANCH   5   6
ENDBRANCH   4   5
ENDBRANCH   3   4
ENDBRANCH   2   3
ENDBRANCH   1   2
BRANCH   1  11
ATOM     11  C   UNL     1       0.660  34.712  68.947  1.00  0.00     0.000 C 
BRANCH  11  12
ATOM     12  C   UNL     1       1.086  36.156  69.269  1.00  0.00    -0.000 C 
BRANCH  12  13
ATOM     13  C   UNL     1       2.380  36.223  70.095  1.00  0.00    -0.000 C 
BRANCH  13  14
ATOM     14  C   UNL     1       2.626  34.941  70.910  1.00  0.00    -0.000 C 
BRANCH  14  15
ATOM     15  C   UNL     1       4.101  34.767  71.306  1.00  0.00    -0.000 C 
BRANCH  15  16
ATOM     16  C   UNL     1       5.022  35.789  70.616  1.00  0.00    -0.000 C 
BRANCH  16  17
ATOM     17  C   UNL     1       6.279  35.138  70.017  1.00  0.00    -0.003 C 
ATOM     18  C   UNL     1       6.764  33.933  70.823  1.00  0.00     0.004 C 
ENDBRANCH  16  17
ENDBRANCH  15  16
ENDBRANCH  14  15
ENDBRANCH  13  14
ENDBRANCH  12  13
ENDBRANCH  11  12
ENDBRANCH   1  11
TORSDOF 14
ENDMDL
MODEL 7
REMARK VINA RESULT:    -4.094      1.428      4.332
REMARK INTER + INTRA:          -9.785
REMARK INTER:                  -7.226
REMARK INTRA:                  -2.559
REMARK UNBOUND:                -2.341
REMARK SMILES CCCCCCCCCCCCCCCC(=O)[O-]
REMARK SMILES IDX 9 1 10 2 11 3 12 4 13 5 14 6 15 7 16 8 17 9 18 10 8 11 7 12
REMARK SMILES IDX 6 13 5 14 4 15 3 16 2 17 1 18
REMARK H PARENT
REMARK Flexibility Score: inf
ROOT
ATOM      1  C   UNL     1       4.324  31.890  70.117  1.00  0.00     0.000 C 
ENDROOT
BRANCH   1   2
ATOM      2  C   UNL     1       5.689  32.306  70.690  1.00  0.00     0.000 C 
BRANCH   2   3
ATOM      3  C   UNL     1       5.628  33.622  71.484  1.00  0.00     0.000 C 
BRANCH   3   4
ATOM      4  C   UNL     1       5.209  34.837  70.630  1.00  0.00     0.000 C 
BRANCH   4   5
ATOM      5  C   UNL     1       4.025  35.602  71.249  1.00  0.00     0.000 C 
BRANCH   5   6
ATOM      6  C   UNL     1       2.883  35.845  70.245  1.00  0.00     0.006 C 
BRANCH   6   7
ATOM      7  C   UNL     1       1.818  34.737  70.223  1.00  0.00     0.053 C 
BRANCH   7   8
ATOM      8  C   UNL     1       0.641  35.108  69.375  1.00  0.00     0.041 C 
ATOM      9  O   UNL     1      -0.043  36.128  69.651  1.00  0.00    -0.550 OA
ATOM     10  O   UNL     1       0.318  34.343  68.261  1.00  0.00    -0.550 OA
ENDBRANCH   7   8
ENDBRANCH   6   7
ENDBRANCH   5   6
ENDBRANCH   4   5
ENDBRANCH   3   4
ENDBRANCH   2   3
ENDBRANCH   1   2
BRANCH   1  11
ATOM     11  C   UNL     1       4.387  31.572  68.615  1.00  0.00     0.000 C 
BRANCH  11  12
ATOM     12  C   UNL     1       3.533  32.537  67.772  1.00  0.00    -0.000 C 
BRANCH  12  13
ATOM     13  C   UNL     1       4.302  33.801  67.357  1.00  0.00    -0.000 C 
BRANCH  13  14
ATOM     14  C   UNL     1       5.675  33.479  66.739  1.00  0.00    -0.000 C 
BRANCH  14  15
ATOM     15  C   UNL     1       6.767  34.468  67.179  1.00  0.00    -0.000 C 
BRANCH  15  16
ATOM     16  C   UNL     1       7.811  33.820  68.106  1.00  0.00    -0.000 C 
BRANCH  16  17
ATOM     17  C   UNL     1       8.509  32.616  67.455  1.00  0.00    -0.003 C 
ATOM     18  C   UNL     1       8.335  31.325  68.256  1.00  0.00     0.004 C 
ENDBRANCH  16  17
ENDBRANCH  15  16
ENDBRANCH  14  15
ENDBRANCH  13  14
ENDBRANCH  12  13
ENDBRANCH  11  12
ENDBRANCH   1  11
TORSDOF 14
ENDMDL
MODEL 8
REMARK VINA RESULT:    -4.067      2.357      6.088
REMARK INTER + INTRA:          -9.737
REMARK INTER:                  -7.644
REMARK INTRA:                  -2.093
REMARK UNBOUND:                -2.341
REMARK SMILES CCCCCCCCCCCCCCCC(=O)[O-]
REMARK SMILES IDX 9 1 10 2 11 3 12 4 13 5 14 6 15 7 16 8 17 9 18 10 8 11 7 12
REMARK SMILES IDX 6 13 5 14 4 15 3 16 2 17 1 18
REMARK H PARENT
REMARK Flexibility Score: inf
ROOT
ATOM      1  C   UNL     1       2.265  35.244  70.764  1.00  0.00     0.000 C 
ENDROOT
BRANCH   1   2
ATOM      2  C   UNL     1       3.477  35.825  71.511  1.00  0.00     0.000 C 
BRANCH   2   3
ATOM      3  C   UNL     1       4.820  35.341  70.939  1.00  0.00     0.000 C 
BRANCH   3   4
ATOM      4  C   UNL     1       5.143  33.871  71.283  1.00  0.00     0.000 C 
BRANCH   4   5
ATOM      5  C   UNL     1       6.645  33.560  71.155  1.00  0.00     0.000 C 
BRANCH   5   6
ATOM      6  C   UNL     1       7.039  33.097  69.740  1.00  0.00     0.006 C 
BRANCH   6   7
ATOM      7  C   UNL     1       7.716  34.182  68.888  1.00  0.00     0.053 C 
BRANCH   7   8
ATOM      8  C   UNL     1       7.642  33.872  67.424  1.00  0.00     0.041 C 
ATOM      9  O   UNL     1       6.998  34.625  66.648  1.00  0.00    -0.550 OA
ATOM     10  O   UNL     1       8.311  32.767  66.913  1.00  0.00    -0.550 OA
ENDBRANCH   7   8
ENDBRANCH   6   7
ENDBRANCH   5   6
ENDBRANCH   4   5
ENDBRANCH   3   4
ENDBRANCH   2   3
ENDBRANCH   1   2
BRANCH   1  11
ATOM     11  C   UNL     1       1.857  36.095  69.552  1.00  0.00     0.000 C 
BRANCH  11  12
ATOM     12  C   UNL     1       0.392  35.865  69.137  1.00  0.00    -0.000 C 
BRANCH  12  13
ATOM     13  C   UNL     1       0.264  35.076  67.824  1.00  0.00    -0.000 C 
BRANCH  13  14
ATOM     14  C   UNL     1       0.024  33.574  68.059  1.00  0.00    -0.000 C 
BRANCH  14  15
ATOM     15  C   UNL     1       1.173  32.703  67.528  1.00  0.00    -0.000 C 
BRANCH  15  16
ATOM     16  C   UNL     1       2.084  32.176  68.652  1.00  0.00    -0.000 C 
BRANCH  16  17
ATOM     17  C   UNL     1       3.575  32.393  68.351  1.00  0.00    -0.003 C 
ATOM     18  C   UNL     1       3.854  33.735  67.674  1.00  0.00     0.004 C 
ENDBRANCH  16  17
ENDBRANCH  15  16
ENDBRANCH  14  15
ENDBRANCH  13  14
ENDBRANCH  12  13
ENDBRANCH  11  12
ENDBRANCH   1  11
TORSDOF 14
ENDMDL
MODEL 9
REMARK VINA RESULT:    -4.018      3.144      5.128
REMARK INTER + INTRA:          -9.647
REMARK INTER:                  -7.203
REMARK INTRA:                  -2.444
REMARK UNBOUND:                -2.341
REMARK SMILES CCCCCCCCCCCCCCCC(=O)[O-]
REMARK SMILES IDX 9 1 10 2 11 3 12 4 13 5 14 6 15 7 16 8 17 9 18 10 8 11 7 12
REMARK SMILES IDX 6 13 5 14 4 15 3 16 2 17 1 18
REMARK H PARENT
REMARK Flexibility Score: inf
ROOT
ATOM      1  C   UNL     1       5.398  31.960  70.600  1.00  0.00     0.000 C 
ENDROOT
BRANCH   1   2
ATOM      2  C   UNL     1       4.009  32.052  69.946  1.00  0.00     0.000 C 
BRANCH   2   3
ATOM      3  C   UNL     1       4.062  31.934  68.413  1.00  0.00     0.000 C 
BRANCH   3   4
ATOM      4  C   UNL     1       3.937  33.289  67.685  1.00  0.00     0.000 C 
BRANCH   4   5
ATOM      5  C   UNL     1       5.280  33.761  67.099  1.00  0.00     0.000 C 
BRANCH   5   6
ATOM      6  C   UNL     1       6.339  32.643  67.061  1.00  0.00     0.006 C 
BRANCH   6   7
ATOM      7  C   UNL     1       7.767  33.118  67.375  1.00  0.00     0.053 C 
BRANCH   7   8
ATOM      8  C   UNL     1       8.684  31.973  67.676  1.00  0.00     0.041 C 
ATOM      9  O   UNL     1       8.353  31.101  68.521  1.00  0.00    -0.550 OA
ATOM     10  O   UNL     1       9.892  31.854  67.000  1.00  0.00    -0.550 OA
ENDBRANCH   7   8
ENDBRANCH   6   7
ENDBRANCH   5   6
ENDBRANCH   4   5
ENDBRANCH   3   4
ENDBRANCH   2   3
ENDBRANCH   1   2
BRANCH   1  11
ATOM     11  C   UNL     1       5.731  33.195  71.451  1.00  0.00     0.000 C 
BRANCH  11  12
ATOM     12  C   UNL     1       6.224  34.381  70.602  1.00  0.00    -0.000 C 
BRANCH  12  13
ATOM     13  C   UNL     1       5.180  35.503  70.490  1.00  0.00    -0.000 C 
BRANCH  13  14
ATOM     14  C   UNL     1       4.160  35.477  71.642  1.00  0.00    -0.000 C 
BRANCH  14  15
ATOM     15  C   UNL     1       2.711  35.345  71.145  1.00  0.00    -0.000 C 
BRANCH  15  16
ATOM     16  C   UNL     1       2.489  36.028  69.784  1.00  0.00    -0.000 C 
BRANCH  16  17
ATOM     17  C   UNL     1       1.240  35.502  69.059  1.00  0.00    -0.003 C 
ATOM     18  C   UNL     1       0.976  36.219  67.735  1.00  0.00     0.004 C 
ENDBRANCH  16  17
ENDBRANCH  15  16
ENDBRANCH  14  15
ENDBRANCH  13  14
ENDBRANCH  12  13
ENDBRANCH  11  12
ENDBRANCH   1  11
TORSDOF 14
ENDMDL
