MODEL 1
REMARK VINA RESULT:    -4.634      0.000      0.000
REMARK INTER + INTRA:          -8.600
REMARK INTER:                  -7.071
REMARK INTRA:                  -1.528
REMARK UNBOUND:                -1.528
REMARK SMILES CCCCCCCCCC=CC(=O)[O-]
REMARK SMILES IDX 7 1 8 2 9 3 10 4 11 5 12 6 13 7 14 8 6 9 5 10 4 11 3 12 2 13
REMARK SMILES IDX 1 14
REMARK H PARENT
REMARK Flexibility Score: inf
ROOT
ATOM      1  C   UNL     1      -2.658 -24.648  47.048  1.00  0.00     0.000 C 
ENDROOT
BRANCH   1   2
ATOM      2  C   UNL     1      -4.087 -24.131  46.801  1.00  0.00     0.004 C 
BRANCH   2   3
ATOM      3  C   UNL     1      -5.040 -24.501  47.947  1.00  0.00     0.027 C 
BRANCH   3   4
ATOM      4  C   UNL     1      -5.585 -23.289  48.652  1.00  0.00    -0.025 C 
ATOM      5  C   UNL     1      -5.586 -22.084  48.072  1.00  0.00     0.020 C 
BRANCH   5   6
ATOM      6  C   UNL     1      -6.112 -20.886  48.746  1.00  0.00     0.064 C 
ATOM      7  O   UNL     1      -6.704 -19.982  48.098  1.00  0.00    -0.545 OA
ATOM      8  O   UNL     1      -5.952 -20.750  50.119  1.00  0.00    -0.545 OA
ENDBRANCH   5   6
ENDBRANCH   3   4
ENDBRANCH   2   3
ENDBRANCH   1   2
BRANCH   1   9
ATOM      9  C   UNL     1      -2.483 -25.261  48.446  1.00  0.00     0.000 C 
BRANCH   9  10
ATOM     10  C   UNL     1      -1.117 -24.924  49.070  1.00  0.00     0.000 C 
BRANCH  10  11
ATOM     11  C   UNL     1      -1.239 -24.114  50.373  1.00  0.00    -0.000 C 
BRANCH  11  12
ATOM     12  C   UNL     1      -2.598 -23.417  50.589  1.00  0.00    -0.000 C 
BRANCH  12  13
ATOM     13  C   UNL     1      -2.588 -21.893  50.382  1.00  0.00    -0.003 C 
ATOM     14  C   UNL     1      -2.216 -21.488  48.956  1.00  0.00     0.004 C 
ENDBRANCH  12  13
ENDBRANCH  11  12
ENDBRANCH  10  11
ENDBRANCH   9  10
ENDBRANCH   1   9
TORSDOF 9
ENDMDL
MODEL 2
REMARK VINA RESULT:    -4.609      0.759      1.675
REMARK INTER + INTRA:          -8.563
REMARK INTER:                  -6.944
REMARK INTRA:                  -1.618
REMARK UNBOUND:                -1.528
REMARK SMILES CCCCCCCCCC=CC(=O)[O-]
REMARK SMILES IDX 7 1 8 2 9 3 10 4 11 5 12 6 13 7 14 8 6 9 5 10 4 11 3 12 2 13
REMARK SMILES IDX 1 14
REMARK H PARENT
REMARK Flexibility Score: inf
ROOT
ATOM      1  C   UNL     1      -2.829 -24.934  47.241  1.00  0.00     0.000 C 
ENDROOT
BRANCH   1   2
ATOM      2  C   UNL     1      -4.214 -24.302  47.012  1.00  0.00     0.004 C 
BRANCH   2   3
ATOM      3  C   UNL     1      -5.174 -24.579  48.178  1.00  0.00     0.027 C 
BRANCH   3   4
ATOM      4  C   UNL     1      -5.559 -23.325  48.913  1.00  0.00    -0.025 C 
ATOM      5  C   UNL     1      -5.575 -22.134  48.305  1.00  0.00     0.020 C 
BRANCH   5   6
ATOM      6  C   UNL     1      -5.945 -20.895  49.007  1.00  0.00     0.064 C 
ATOM      7  O   UNL     1      -6.593 -19.985  48.425  1.00  0.00    -0.545 OA
ATOM      8  O   UNL     1      -5.574 -20.726  50.335  1.00  0.00    -0.545 OA
ENDBRANCH   5   6
ENDBRANCH   3   4
ENDBRANCH   2   3
ENDBRANCH   1   2
BRANCH   1   9
ATOM      9  C   UNL     1      -1.676 -23.962  46.945  1.00  0.00     0.000 C 
BRANCH   9  10
ATOM     10  C   UNL     1      -2.012 -22.513  47.339  1.00  0.00     0.000 C 
BRANCH  10  11
ATOM     11  C   UNL     1      -1.312 -22.069  48.636  1.00  0.00    -0.000 C 
BRANCH  11  12
ATOM     12  C   UNL     1      -2.182 -22.133  49.907  1.00  0.00    -0.000 C 
BRANCH  12  13
ATOM     13  C   UNL     1      -2.224 -23.506  50.600  1.00  0.00    -0.003 C 
ATOM     14  C   UNL     1      -0.866 -24.207  50.612  1.00  0.00     0.004 C 
ENDBRANCH  12  13
ENDBRANCH  11  12
ENDBRANCH  10  11
ENDBRANCH   9  10
ENDBRANCH   1   9
TORSDOF 9
ENDMDL
MODEL 3
REMARK VINA RESULT:    -4.543      3.059      4.857
REMARK INTER + INTRA:          -8.462
REMARK INTER:                  -6.829
REMARK INTRA:                  -1.633
REMARK UNBOUND:                -1.528
REMARK SMILES CCCCCCCCCC=CC(=O)[O-]
REMARK SMILES IDX 7 1 8 2 9 3 10 4 11 5 12 6 13 7 14 8 6 9 5 10 4 11 3 12 2 13
REMARK SMILES IDX 1 14
REMARK H PARENT
REMARK Flexibility Score: inf
ROOT
ATOM      1  C   UNL     1      -4.688 -21.593  47.702  1.00  0.00     0.000 C 
ENDROOT
BRANCH   1   2
ATOM      2  C   UNL     1      -3.350 -21.319  48.413  1.00  0.00     0.004 C 
BRANCH   2   3
ATOM      3  C   UNL     1      -3.520 -21.202  49.935  1.00  0.00     0.027 C 
BRANCH   3   4
ATOM      4  C   UNL     1      -2.444 -21.936  50.689  1.00  0.00    -0.025 C 
ATOM      5  C   UNL     1      -1.219 -22.097  50.180  1.00  0.00     0.020 C 
BRANCH   5   6
ATOM      6  C   UNL     1      -0.154 -22.813  50.899  1.00  0.00     0.064 C 
ATOM      7  O   UNL     1       0.854 -22.204  51.347  1.00  0.00    -0.545 OA
ATOM      8  O   UNL     1      -0.262 -24.185  51.088  1.00  0.00    -0.545 OA
ENDBRANCH   5   6
ENDBRANCH   3   4
ENDBRANCH   2   3
ENDBRANCH   1   2
BRANCH   1   9
ATOM      9  C   UNL     1      -5.672 -22.385  48.577  1.00  0.00     0.000 C 
BRANCH   9  10
ATOM     10  C   UNL     1      -5.546 -23.905  48.377  1.00  0.00     0.000 C 
BRANCH  10  11
ATOM     11  C   UNL     1      -4.812 -24.601  49.537  1.00  0.00    -0.000 C 
BRANCH  11  12
ATOM     12  C   UNL     1      -3.359 -25.021  49.238  1.00  0.00    -0.000 C 
BRANCH  12  13
ATOM     13  C   UNL     1      -2.933 -24.887  47.766  1.00  0.00    -0.003 C 
ATOM     14  C   UNL     1      -1.421 -24.740  47.594  1.00  0.00     0.004 C 
ENDBRANCH  12  13
ENDBRANCH  11  12
ENDBRANCH  10  11
ENDBRANCH   9  10
ENDBRANCH   1   9
TORSDOF 9
ENDMDL
MODEL 4
REMARK VINA RESULT:    -4.511      1.940      3.668
REMARK INTER + INTRA:          -8.413
REMARK INTER:                  -7.021
REMARK INTRA:                  -1.392
REMARK UNBOUND:                -1.528
REMARK SMILES CCCCCCCCCC=CC(=O)[O-]
REMARK SMILES IDX 7 1 8 2 9 3 10 4 11 5 12 6 13 7 14 8 6 9 5 10 4 11 3 12 2 13
REMARK SMILES IDX 1 14
REMARK H PARENT
REMARK Flexibility Score: inf
ROOT
ATOM      1  C   UNL     1      -3.138 -21.610  49.720  1.00  0.00     0.000 C 
ENDROOT
BRANCH   1   2
ATOM      2  C   UNL     1      -4.057 -20.694  50.549  1.00  0.00     0.004 C 
BRANCH   2   3
ATOM      3  C   UNL     1      -5.476 -20.621  49.966  1.00  0.00     0.027 C 
BRANCH   3   4
ATOM      4  C   UNL     1      -5.500 -20.007  48.593  1.00  0.00    -0.025 C 
ATOM      5  C   UNL     1      -6.385 -20.395  47.669  1.00  0.00     0.020 C 
BRANCH   5   6
ATOM      6  C   UNL     1      -6.423 -19.810  46.319  1.00  0.00     0.064 C 
ATOM      7  O   UNL     1      -5.492 -19.069  45.904  1.00  0.00    -0.545 OA
ATOM      8  O   UNL     1      -7.502 -20.081  45.488  1.00  0.00    -0.545 OA
ENDBRANCH   5   6
ENDBRANCH   3   4
ENDBRANCH   2   3
ENDBRANCH   1   2
BRANCH   1   9
ATOM      9  C   UNL     1      -2.713 -22.873  50.487  1.00  0.00     0.000 C 
BRANCH   9  10
ATOM     10  C   UNL     1      -3.183 -24.166  49.799  1.00  0.00     0.000 C 
BRANCH  10  11
ATOM     11  C   UNL     1      -4.716 -24.305  49.773  1.00  0.00    -0.000 C 
BRANCH  11  12
ATOM     12  C   UNL     1      -5.364 -24.169  48.380  1.00  0.00    -0.000 C 
BRANCH  12  13
ATOM     13  C   UNL     1      -4.405 -24.367  47.194  1.00  0.00    -0.003 C 
ATOM     14  C   UNL     1      -4.194 -23.091  46.379  1.00  0.00     0.004 C 
ENDBRANCH  12  13
ENDBRANCH  11  12
ENDBRANCH  10  11
ENDBRANCH   9  10
ENDBRANCH   1   9
TORSDOF 9
ENDMDL
MODEL 5
REMARK VINA RESULT:    -4.457      2.743      4.480
REMARK INTER + INTRA:          -8.331
REMARK INTER:                  -7.226
REMARK INTRA:                  -1.105
REMARK UNBOUND:                -1.528
REMARK SMILES CCCCCCCCCC=CC(=O)[O-]
REMARK SMILES IDX 7 1 8 2 9 3 10 4 11 5 12 6 13 7 14 8 6 9 5 10 4 11 3 12 2 13
REMARK SMILES IDX 1 14
REMARK H PARENT
REMARK Flexibility Score: inf
ROOT
ATOM      1  C   UNL     1      -4.298 -24.255  47.293  1.00  0.00     0.000 C 
ENDROOT
BRANCH   1   2
ATOM      2  C   UNL     1      -5.285 -24.419  48.462  1.00  0.00     0.004 C 
BRANCH   2   3
ATOM      3  C   UNL     1      -4.566 -24.490  49.818  1.00  0.00     0.027 C 
BRANCH   3   4
ATOM      4  C   UNL     1      -3.083 -24.276  49.691  1.00  0.00    -0.025 C 
ATOM      5  C   UNL     1      -2.417 -23.477  50.531  1.00  0.00     0.020 C 
BRANCH   5   6
ATOM      6  C   UNL     1      -0.967 -23.252  50.422  1.00  0.00     0.064 C 
ATOM      7  O   UNL     1      -0.488 -22.507  49.525  1.00  0.00    -0.545 OA
ATOM      8  O   UNL     1      -0.110 -23.871  51.323  1.00  0.00    -0.545 OA
ENDBRANCH   5   6
ENDBRANCH   3   4
ENDBRANCH   2   3
ENDBRANCH   1   2
BRANCH   1   9
ATOM      9  C   UNL     1      -4.518 -22.951  46.509  1.00  0.00     0.000 C 
BRANCH   9  10
ATOM     10  C   UNL     1      -4.291 -21.699  47.373  1.00  0.00     0.000 C 
BRANCH  10  11
ATOM     11  C   UNL     1      -5.599 -20.960  47.710  1.00  0.00    -0.000 C 
BRANCH  11  12
ATOM     12  C   UNL     1      -5.525 -20.015  48.927  1.00  0.00    -0.000 C 
BRANCH  12  13
ATOM     13  C   UNL     1      -4.897 -20.627  50.190  1.00  0.00    -0.003 C 
ATOM     14  C   UNL     1      -4.484 -19.576  51.219  1.00  0.00     0.004 C 
ENDBRANCH  12  13
ENDBRANCH  11  12
ENDBRANCH  10  11
ENDBRANCH   9  10
ENDBRANCH   1   9
TORSDOF 9
ENDMDL
MODEL 6
REMARK VINA RESULT:    -4.383      2.918      4.837
REMARK INTER + INTRA:          -8.217
REMARK INTER:                  -6.739
REMARK INTRA:                  -1.479
REMARK UNBOUND:                -1.528
REMARK SMILES CCCCCCCCCC=CC(=O)[O-]
REMARK SMILES IDX 7 1 8 2 9 3 10 4 11 5 12 6 13 7 14 8 6 9 5 10 4 11 3 12 2 13
REMARK SMILES IDX 1 14
REMARK H PARENT
REMARK Flexibility Score: inf
ROOT
ATOM      1  C   UNL     1      -5.336 -24.253  48.399  1.00  0.00     0.000 C 
ENDROOT
BRANCH   1   2
ATOM      2  C   UNL     1      -4.555 -24.536  49.695  1.00  0.00     0.004 C 
BRANCH   2   3
ATOM      3  C   UNL     1      -3.991 -23.252  50.320  1.00  0.00     0.027 C 
BRANCH   3   4
ATOM      4  C   UNL     1      -2.495 -23.296  50.467  1.00  0.00    -0.025 C 
ATOM      5  C   UNL     1      -1.735 -22.225  50.216  1.00  0.00     0.020 C 
BRANCH   5   6
ATOM      6  C   UNL     1      -0.270 -22.249  50.350  1.00  0.00     0.064 C 
ATOM      7  O   UNL     1       0.288 -22.880  51.288  1.00  0.00    -0.545 OA
ATOM      8  O   UNL     1       0.512 -21.565  49.429  1.00  0.00    -0.545 OA
ENDBRANCH   5   6
ENDBRANCH   3   4
ENDBRANCH   2   3
ENDBRANCH   1   2
BRANCH   1   9
ATOM      9  C   UNL     1      -5.512 -22.750  48.129  1.00  0.00     0.000 C 
BRANCH   9  10
ATOM     10  C   UNL     1      -4.525 -22.221  47.075  1.00  0.00     0.000 C 
BRANCH  10  11
ATOM     11  C   UNL     1      -3.855 -23.346  46.266  1.00  0.00    -0.000 C 
BRANCH  11  12
ATOM     12  C   UNL     1      -2.319 -23.256  46.163  1.00  0.00    -0.000 C 
BRANCH  12  13
ATOM     13  C   UNL     1      -1.547 -24.197  47.103  1.00  0.00    -0.003 C 
ATOM     14  C   UNL     1      -2.107 -25.620  47.112  1.00  0.00     0.004 C 
ENDBRANCH  12  13
ENDBRANCH  11  12
ENDBRANCH  10  11
ENDBRANCH   9  10
ENDBRANCH   1   9
TORSDOF 9
ENDMDL
MODEL 7
REMARK VINA RESULT:    -4.380      1.399      2.524
REMARK INTER + INTRA:          -8.212
REMARK INTER:                  -7.020
REMARK INTRA:                  -1.192
REMARK UNBOUND:                -1.528
REMARK SMILES CCCCCCCCCC=CC(=O)[O-]
REMARK SMILES IDX 7 1 8 2 9 3 10 4 11 5 12 6 13 7 14 8 6 9 5 10 4 11 3 12 2 13
REMARK SMILES IDX 1 14
REMARK H PARENT
REMARK Flexibility Score: inf
ROOT
ATOM      1  C   UNL     1      -3.153 -24.587  49.310  1.00  0.00     0.000 C 
ENDROOT
BRANCH   1   2
ATOM      2  C   UNL     1      -4.645 -24.555  49.687  1.00  0.00     0.004 C 
BRANCH   2   3
ATOM      3  C   UNL     1      -5.509 -23.953  48.569  1.00  0.00     0.027 C 
BRANCH   3   4
ATOM      4  C   UNL     1      -5.647 -22.460  48.693  1.00  0.00    -0.025 C 
ATOM      5  C   UNL     1      -5.515 -21.655  47.633  1.00  0.00     0.020 C 
BRANCH   5   6
ATOM      6  C   UNL     1      -5.642 -20.193  47.734  1.00  0.00     0.064 C 
ATOM      7  O   UNL     1      -5.664 -19.616  48.854  1.00  0.00    -0.545 OA
ATOM      8  O   UNL     1      -5.739 -19.435  46.574  1.00  0.00    -0.545 OA
ENDBRANCH   5   6
ENDBRANCH   3   4
ENDBRANCH   2   3
ENDBRANCH   1   2
BRANCH   1   9
ATOM      9  C   UNL     1      -2.246 -24.055  50.431  1.00  0.00     0.000 C 
BRANCH   9  10
ATOM     10  C   UNL     1      -2.181 -22.519  50.457  1.00  0.00     0.000 C 
BRANCH  10  11
ATOM     11  C   UNL     1      -1.252 -21.942  49.373  1.00  0.00    -0.000 C 
BRANCH  11  12
ATOM     12  C   UNL     1      -1.963 -21.430  48.103  1.00  0.00    -0.000 C 
BRANCH  12  13
ATOM     13  C   UNL     1      -1.294 -21.829  46.777  1.00  0.00    -0.003 C 
ATOM     14  C   UNL     1      -0.850 -23.292  46.751  1.00  0.00     0.004 C 
ENDBRANCH  12  13
ENDBRANCH  11  12
ENDBRANCH  10  11
ENDBRANCH   9  10
ENDBRANCH   1   9
TORSDOF 9
ENDMDL
MODEL 8
REMARK VINA RESULT:    -4.339      1.635      3.765
REMARK INTER + INTRA:          -8.150
REMARK INTER:                  -6.637
REMARK INTRA:                  -1.513
REMARK UNBOUND:                -1.528
REMARK SMILES CCCCCCCCCC=CC(=O)[O-]
REMARK SMILES IDX 7 1 8 2 9 3 10 4 11 5 12 6 13 7 14 8 6 9 5 10 4 11 3 12 2 13
REMARK SMILES IDX 1 14
REMARK H PARENT
REMARK Flexibility Score: inf
ROOT
ATOM      1  C   UNL     1      -0.827 -22.129  48.594  1.00  0.00     0.000 C 
ENDROOT
BRANCH   1   2
ATOM      2  C   UNL     1      -0.871 -23.337  49.548  1.00  0.00     0.004 C 
BRANCH   2   3
ATOM      3  C   UNL     1      -2.030 -23.238  50.551  1.00  0.00     0.027 C 
BRANCH   3   4
ATOM      4  C   UNL     1      -2.654 -21.869  50.571  1.00  0.00    -0.025 C 
ATOM      5  C   UNL     1      -3.980 -21.706  50.617  1.00  0.00     0.020 C 
BRANCH   5   6
ATOM      6  C   UNL     1      -4.610 -20.376  50.633  1.00  0.00     0.064 C 
ATOM      7  O   UNL     1      -4.232 -19.486  51.441  1.00  0.00    -0.545 OA
ATOM      8  O   UNL     1      -5.640 -20.098  49.744  1.00  0.00    -0.545 OA
ENDBRANCH   5   6
ENDBRANCH   3   4
ENDBRANCH   2   3
ENDBRANCH   1   2
BRANCH   1   9
ATOM      9  C   UNL     1      -1.101 -22.518  47.133  1.00  0.00     0.000 C 
BRANCH   9  10
ATOM     10  C   UNL     1      -2.232 -21.686  46.504  1.00  0.00     0.000 C 
BRANCH  10  11
ATOM     11  C   UNL     1      -3.624 -22.071  47.037  1.00  0.00    -0.000 C 
BRANCH  11  12
ATOM     12  C   UNL     1      -4.089 -23.499  46.686  1.00  0.00    -0.000 C 
BRANCH  12  13
ATOM     13  C   UNL     1      -4.155 -24.472  47.875  1.00  0.00    -0.003 C 
ATOM     14  C   UNL     1      -5.485 -24.407  48.625  1.00  0.00     0.004 C 
ENDBRANCH  12  13
ENDBRANCH  11  12
ENDBRANCH  10  11
ENDBRANCH   9  10
ENDBRANCH   1   9
TORSDOF 9
ENDMDL
MODEL 9
REMARK VINA RESULT:    -4.319      1.625      3.177
REMARK INTER + INTRA:          -8.120
REMARK INTER:                  -6.487
REMARK INTRA:                  -1.633
REMARK UNBOUND:                -1.528
REMARK SMILES CCCCCCCCCC=CC(=O)[O-]
REMARK SMILES IDX 7 1 8 2 9 3 10 4 11 5 12 6 13 7 14 8 6 9 5 10 4 11 3 12 2 13
REMARK SMILES IDX 1 14
REMARK H PARENT
REMARK Flexibility Score: inf
ROOT
ATOM      1  C   UNL     1      -2.550 -25.021  48.793  1.00  0.00     0.000 C 
ENDROOT
BRANCH   1   2
ATOM      2  C   UNL     1      -3.337 -24.179  49.814  1.00  0.00     0.004 C 
BRANCH   2   3
ATOM      3  C   UNL     1      -2.426 -23.216  50.590  1.00  0.00     0.027 C 
BRANCH   3   4
ATOM      4  C   UNL     1      -2.951 -21.807  50.592  1.00  0.00    -0.025 C 
ATOM      5  C   UNL     1      -4.212 -21.530  50.244  1.00  0.00     0.020 C 
BRANCH   5   6
ATOM      6  C   UNL     1      -4.745 -20.158  50.236  1.00  0.00     0.064 C 
ATOM      7  O   UNL     1      -5.451 -19.739  49.280  1.00  0.00    -0.545 OA
ATOM      8  O   UNL     1      -4.464 -19.311  51.300  1.00  0.00    -0.545 OA
ENDBRANCH   5   6
ENDBRANCH   3   4
ENDBRANCH   2   3
ENDBRANCH   1   2
BRANCH   1   9
ATOM      9  C   UNL     1      -3.088 -24.872  47.361  1.00  0.00     0.000 C 
BRANCH   9  10
ATOM     10  C   UNL     1      -4.209 -23.822  47.260  1.00  0.00     0.000 C 
BRANCH  10  11
ATOM     11  C   UNL     1      -3.855 -22.660  46.315  1.00  0.00    -0.000 C 
BRANCH  11  12
ATOM     12  C   UNL     1      -2.903 -21.600  46.905  1.00  0.00    -0.000 C 
BRANCH  12  13
ATOM     13  C   UNL     1      -1.435 -21.725  46.463  1.00  0.00    -0.003 C 
ATOM     14  C   UNL     1      -0.487 -22.022  47.626  1.00  0.00     0.004 C 
ENDBRANCH  12  13
ENDBRANCH  11  12
ENDBRANCH  10  11
ENDBRANCH   9  10
ENDBRANCH   1   9
TORSDOF 9
ENDMDL
