MODEL 1
REMARK VINA RESULT:    -6.073      0.000      0.000
REMARK INTER + INTRA:          -6.073
REMARK INTER:                  -6.073
REMARK INTRA:                   0.000
REMARK UNBOUND:                 0.000
REMARK SMILES O=c1ccc2ccccc2o1
REMARK SMILES IDX 7 1 8 2 9 3 10 4 5 5 6 6 4 7 3 8 2 9 1 10 11 11
REMARK H PARENT
REMARK Flexibility Score: inf
ROOT
ATOM      1  C   UNL     1       0.045   1.850   1.347  1.00  0.00     0.001 A 
ATOM      2  C   UNL     1      -0.362   0.703   2.038  1.00  0.00     0.004 A 
ATOM      3  C   UNL     1      -0.004  -0.565   1.568  1.00  0.00     0.048 A 
ATOM      4  C   UNL     1       0.762  -0.690   0.405  1.00  0.00     0.138 A 
ATOM      5  C   UNL     1       1.174   0.467  -0.293  1.00  0.00     0.018 A 
ATOM      6  C   UNL     1       0.812   1.736   0.183  1.00  0.00     0.012 A 
ATOM      7  C   UNL     1       1.939   0.310  -1.453  1.00  0.00     0.019 A 
ATOM      8  C   UNL     1       2.272  -0.974  -1.884  1.00  0.00     0.094 A 
ATOM      9  C   UNL     1       1.830  -2.075  -1.142  1.00  0.00     0.336 A 
ATOM     10  O   UNL     1       2.120  -3.241  -1.516  1.00  0.00    -0.246 OA
ATOM     11  O   UNL     1       1.102  -1.898  -0.042  1.00  0.00    -0.423 OA
ENDROOT
TORSDOF 0
ENDMDL
MODEL 2
REMARK VINA RESULT:    -5.635      8.824      9.922
REMARK INTER + INTRA:          -5.635
REMARK INTER:                  -5.635
REMARK INTRA:                   0.000
REMARK UNBOUND:                 0.000
REMARK SMILES O=c1ccc2ccccc2o1
REMARK SMILES IDX 7 1 8 2 9 3 10 4 5 5 6 6 4 7 3 8 2 9 1 10 11 11
REMARK H PARENT
REMARK Flexibility Score: inf
ROOT
ATOM      1  C   UNL     1       0.844   8.385   1.133  1.00  0.00     0.001 A 
ATOM      2  C   UNL     1       0.357   9.652   1.474  1.00  0.00     0.004 A 
ATOM      3  C   UNL     1      -0.996   9.956   1.297  1.00  0.00     0.048 A 
ATOM      4  C   UNL     1      -1.869   8.993   0.778  1.00  0.00     0.138 A 
ATOM      5  C   UNL     1      -1.378   7.714   0.433  1.00  0.00     0.018 A 
ATOM      6  C   UNL     1      -0.019   7.415   0.613  1.00  0.00     0.012 A 
ATOM      7  C   UNL     1      -2.273   6.772  -0.083  1.00  0.00     0.019 A 
ATOM      8  C   UNL     1      -3.615   7.120  -0.243  1.00  0.00     0.094 A 
ATOM      9  C   UNL     1      -4.030   8.406   0.120  1.00  0.00     0.336 A 
ATOM     10  O   UNL     1      -5.236   8.738  -0.017  1.00  0.00    -0.246 OA
ATOM     11  O   UNL     1      -3.157   9.283   0.609  1.00  0.00    -0.423 OA
ENDROOT
TORSDOF 0
ENDMDL
MODEL 3
REMARK VINA RESULT:    -5.622      1.607      2.340
REMARK INTER + INTRA:          -5.622
REMARK INTER:                  -5.622
REMARK INTRA:                   0.000
REMARK UNBOUND:                 0.000
REMARK SMILES O=c1ccc2ccccc2o1
REMARK SMILES IDX 7 1 8 2 9 3 10 4 5 5 6 6 4 7 3 8 2 9 1 10 11 11
REMARK H PARENT
REMARK Flexibility Score: inf
ROOT
ATOM      1  C   UNL     1      -0.337   0.148   2.023  1.00  0.00     0.001 A 
ATOM      2  C   UNL     1      -0.098   1.466   1.617  1.00  0.00     0.004 A 
ATOM      3  C   UNL     1       0.648   1.721   0.462  1.00  0.00     0.048 A 
ATOM      4  C   UNL     1       1.159   0.659  -0.292  1.00  0.00     0.138 A 
ATOM      5  C   UNL     1       0.918  -0.672   0.118  1.00  0.00     0.018 A 
ATOM      6  C   UNL     1       0.169  -0.921   1.277  1.00  0.00     0.012 A 
ATOM      7  C   UNL     1       1.441  -1.713  -0.656  1.00  0.00     0.019 A 
ATOM      8  C   UNL     1       2.179  -1.411  -1.800  1.00  0.00     0.094 A 
ATOM      9  C   UNL     1       2.377  -0.069  -2.145  1.00  0.00     0.336 A 
ATOM     10  O   UNL     1       3.041   0.223  -3.173  1.00  0.00    -0.246 OA
ATOM     11  O   UNL     1       1.869   0.903  -1.391  1.00  0.00    -0.423 OA
ENDROOT
TORSDOF 0
ENDMDL
MODEL 4
REMARK VINA RESULT:    -5.594      8.711     10.031
REMARK INTER + INTRA:          -5.594
REMARK INTER:                  -5.594
REMARK INTRA:                   0.000
REMARK UNBOUND:                 0.000
REMARK SMILES O=c1ccc2ccccc2o1
REMARK SMILES IDX 7 1 8 2 9 3 10 4 5 5 6 6 4 7 3 8 2 9 1 10 11 11
REMARK H PARENT
REMARK Flexibility Score: inf
ROOT
ATOM      1  C   UNL     1      -4.709   8.034  -0.010  1.00  0.00     0.001 A 
ATOM      2  C   UNL     1      -4.671   9.376   0.384  1.00  0.00     0.004 A 
ATOM      3  C   UNL     1      -3.461   9.963   0.767  1.00  0.00     0.048 A 
ATOM      4  C   UNL     1      -2.283   9.209   0.758  1.00  0.00     0.138 A 
ATOM      5  C   UNL     1      -2.320   7.854   0.360  1.00  0.00     0.018 A 
ATOM      6  C   UNL     1      -3.536   7.271  -0.023  1.00  0.00     0.012 A 
ATOM      7  C   UNL     1      -1.126   7.125   0.361  1.00  0.00     0.019 A 
ATOM      8  C   UNL     1       0.057   7.753   0.751  1.00  0.00     0.094 A 
ATOM      9  C   UNL     1       0.019   9.098   1.132  1.00  0.00     0.336 A 
ATOM     10  O   UNL     1       1.076   9.681   1.488  1.00  0.00    -0.246 OA
ATOM     11  O   UNL     1      -1.131   9.769   1.123  1.00  0.00    -0.423 OA
ENDROOT
TORSDOF 0
ENDMDL
MODEL 5
REMARK VINA RESULT:    -5.594      8.071      9.312
REMARK INTER + INTRA:          -5.594
REMARK INTER:                  -5.594
REMARK INTRA:                   0.000
REMARK UNBOUND:                 0.000
REMARK SMILES O=c1ccc2ccccc2o1
REMARK SMILES IDX 7 1 8 2 9 3 10 4 5 5 6 6 4 7 3 8 2 9 1 10 11 11
REMARK H PARENT
REMARK Flexibility Score: inf
ROOT
ATOM      1  C   UNL     1      -4.253   9.229   0.312  1.00  0.00     0.001 A 
ATOM      2  C   UNL     1      -4.269   7.900  -0.128  1.00  0.00     0.004 A 
ATOM      3  C   UNL     1      -3.092   7.144  -0.122  1.00  0.00     0.048 A 
ATOM      4  C   UNL     1      -1.895   7.715   0.323  1.00  0.00     0.138 A 
ATOM      5  C   UNL     1      -1.878   9.056   0.766  1.00  0.00     0.018 A 
ATOM      6  C   UNL     1      -3.061   9.809   0.758  1.00  0.00     0.012 A 
ATOM      7  C   UNL     1      -0.667   9.599   1.205  1.00  0.00     0.019 A 
ATOM      8  C   UNL     1       0.481   8.808   1.193  1.00  0.00     0.094 A 
ATOM      9  C   UNL     1       0.390   7.486   0.741  1.00  0.00     0.336 A 
ATOM     10  O   UNL     1       1.416   6.758   0.722  1.00  0.00    -0.246 OA
ATOM     11  O   UNL     1      -0.775   6.994   0.328  1.00  0.00    -0.423 OA
ENDROOT
TORSDOF 0
ENDMDL
MODEL 6
REMARK VINA RESULT:    -5.464      8.136      9.897
REMARK INTER + INTRA:          -5.464
REMARK INTER:                  -5.464
REMARK INTRA:                   0.000
REMARK UNBOUND:                 0.000
REMARK SMILES O=c1ccc2ccccc2o1
REMARK SMILES IDX 7 1 8 2 9 3 10 4 5 5 6 6 4 7 3 8 2 9 1 10 11 11
REMARK H PARENT
REMARK Flexibility Score: inf
ROOT
ATOM      1  C   UNL     1       1.017   8.713   1.142  1.00  0.00     0.001 A 
ATOM      2  C   UNL     1       0.773   7.380   0.793  1.00  0.00     0.004 A 
ATOM      3  C   UNL     1      -0.520   6.966   0.459  1.00  0.00     0.048 A 
ATOM      4  C   UNL     1      -1.576   7.884   0.474  1.00  0.00     0.138 A 
ATOM      5  C   UNL     1      -1.330   9.230   0.827  1.00  0.00     0.018 A 
ATOM      6  C   UNL     1      -0.031   9.639   1.160  1.00  0.00     0.012 A 
ATOM      7  C   UNL     1      -2.405  10.125   0.833  1.00  0.00     0.019 A 
ATOM      8  C   UNL     1      -3.678   9.667   0.494  1.00  0.00     0.094 A 
ATOM      9  C   UNL     1      -3.846   8.320   0.154  1.00  0.00     0.336 A 
ATOM     10  O   UNL     1      -4.987   7.888  -0.154  1.00  0.00    -0.246 OA
ATOM     11  O   UNL     1      -2.806   7.489   0.157  1.00  0.00    -0.423 OA
ENDROOT
TORSDOF 0
ENDMDL
MODEL 7
REMARK VINA RESULT:    -5.184      2.083      4.315
REMARK INTER + INTRA:          -5.184
REMARK INTER:                  -5.184
REMARK INTRA:                   0.000
REMARK UNBOUND:                 0.000
REMARK SMILES O=c1ccc2ccccc2o1
REMARK SMILES IDX 7 1 8 2 9 3 10 4 5 5 6 6 4 7 3 8 2 9 1 10 11 11
REMARK H PARENT
REMARK Flexibility Score: inf
ROOT
ATOM      1  C   UNL     1       1.978  -1.426  -1.781  1.00  0.00     0.001 A 
ATOM      2  C   UNL     1       1.791  -0.126  -2.263  1.00  0.00     0.004 A 
ATOM      3  C   UNL     1       1.191   0.844  -1.454  1.00  0.00     0.048 A 
ATOM      4  C   UNL     1       0.776   0.518  -0.159  1.00  0.00     0.138 A 
ATOM      5  C   UNL     1       0.964  -0.795   0.329  1.00  0.00     0.018 A 
ATOM      6  C   UNL     1       1.566  -1.763  -0.487  1.00  0.00     0.012 A 
ATOM      7  C   UNL     1       0.539  -1.092   1.628  1.00  0.00     0.019 A 
ATOM      8  C   UNL     1      -0.054  -0.092   2.398  1.00  0.00     0.094 A 
ATOM      9  C   UNL     1      -0.208   1.186   1.850  1.00  0.00     0.336 A 
ATOM     10  O   UNL     1      -0.742   2.100   2.530  1.00  0.00    -0.246 OA
ATOM     11  O   UNL     1       0.205   1.442   0.611  1.00  0.00    -0.423 OA
ENDROOT
TORSDOF 0
ENDMDL
MODEL 8
REMARK VINA RESULT:    -5.044      1.679      3.852
REMARK INTER + INTRA:          -5.044
REMARK INTER:                  -5.044
REMARK INTRA:                   0.000
REMARK UNBOUND:                 0.000
REMARK SMILES O=c1ccc2ccccc2o1
REMARK SMILES IDX 7 1 8 2 9 3 10 4 5 5 6 6 4 7 3 8 2 9 1 10 11 11
REMARK H PARENT
REMARK Flexibility Score: inf
ROOT
ATOM      1  C   UNL     1       2.240  -1.153  -1.945  1.00  0.00     0.001 A 
ATOM      2  C   UNL     1       1.753  -2.173  -1.120  1.00  0.00     0.004 A 
ATOM      3  C   UNL     1       1.051  -1.859   0.047  1.00  0.00     0.048 A 
ATOM      4  C   UNL     1       0.834  -0.521   0.396  1.00  0.00     0.138 A 
ATOM      5  C   UNL     1       1.325   0.509  -0.436  1.00  0.00     0.018 A 
ATOM      6  C   UNL     1       2.029   0.188  -1.606  1.00  0.00     0.012 A 
ATOM      7  C   UNL     1       1.093   1.837  -0.063  1.00  0.00     0.019 A 
ATOM      8  C   UNL     1       0.387   2.103   1.111  1.00  0.00     0.094 A 
ATOM      9  C   UNL     1      -0.071   1.032   1.886  1.00  0.00     0.336 A 
ATOM     10  O   UNL     1      -0.707   1.252   2.948  1.00  0.00    -0.246 OA
ATOM     11  O   UNL     1       0.165  -0.223   1.507  1.00  0.00    -0.423 OA
ENDROOT
TORSDOF 0
ENDMDL
MODEL 9
REMARK VINA RESULT:    -4.953     10.331     11.147
REMARK INTER + INTRA:          -4.953
REMARK INTER:                  -4.953
REMARK INTRA:                   0.000
REMARK UNBOUND:                 0.000
REMARK SMILES O=c1ccc2ccccc2o1
REMARK SMILES IDX 7 1 8 2 9 3 10 4 5 5 6 6 4 7 3 8 2 9 1 10 11 11
REMARK H PARENT
REMARK Flexibility Score: inf
ROOT
ATOM      1  C   UNL     1      -5.634   9.073  -1.372  1.00  0.00     0.001 A 
ATOM      2  C   UNL     1      -4.651   8.591  -2.244  1.00  0.00     0.004 A 
ATOM      3  C   UNL     1      -3.304   8.617  -1.868  1.00  0.00     0.048 A 
ATOM      4  C   UNL     1      -2.935   9.127  -0.619  1.00  0.00     0.138 A 
ATOM      5  C   UNL     1      -3.926   9.614   0.261  1.00  0.00     0.018 A 
ATOM      6  C   UNL     1      -5.275   9.585  -0.121  1.00  0.00     0.012 A 
ATOM      7  C   UNL     1      -3.527  10.118   1.504  1.00  0.00     0.019 A 
ATOM      8  C   UNL     1      -2.172  10.125   1.835  1.00  0.00     0.094 A 
ATOM      9  C   UNL     1      -1.246   9.625   0.913  1.00  0.00     0.336 A 
ATOM     10  O   UNL     1      -0.019   9.624   1.194  1.00  0.00    -0.246 OA
ATOM     11  O   UNL     1      -1.652   9.152  -0.263  1.00  0.00    -0.423 OA
ENDROOT
TORSDOF 0
ENDMDL
