MODEL 1
REMARK VINA RESULT:    -6.692      0.000      0.000
REMARK INTER + INTRA:          -9.234
REMARK INTER:                  -8.257
REMARK INTRA:                  -0.977
REMARK UNBOUND:                -0.977
REMARK SMILES CC(C)=CCC[C@@H](C)c1ccc(C)cc1
REMARK SMILES IDX 6 1 7 2 8 3 9 4 13 5 12 6 11 7 14 8 10 9 15 10 5 11 4 12
REMARK SMILES IDX 2 13 1 14 3 15
REMARK H PARENT
REMARK Flexibility Score: inf
ROOT
ATOM      1  C   UNL     1      11.178   3.544  -3.110  1.00  0.00     0.012 C 
ENDROOT
BRANCH   1   2
ATOM      2  C   UNL     1      11.599   4.994  -2.765  1.00  0.00     0.016 C 
ATOM      3  C   UNL     1      13.125   5.155  -2.673  1.00  0.00     0.013 C 
BRANCH   2   4
ATOM      4  C   UNL     1      11.024   5.962  -3.785  1.00  0.00    -0.045 A 
ATOM      5  C   UNL     1       9.460   8.734  -6.705  1.00  0.00     0.044 C 
ATOM      6  C   UNL     1       9.980   7.755  -5.695  1.00  0.00    -0.051 A 
ATOM      7  C   UNL     1      10.836   6.718  -6.092  1.00  0.00     0.004 A 
ATOM      8  C   UNL     1       9.669   7.909  -4.336  1.00  0.00     0.004 A 
ATOM      9  C   UNL     1      11.350   5.826  -5.146  1.00  0.00     0.004 A 
ATOM     10  C   UNL     1      10.182   7.018  -3.390  1.00  0.00     0.004 A 
ENDBRANCH   2   4
ENDBRANCH   1   2
BRANCH   1  11
ATOM     11  C   UNL     1      10.253   2.890  -2.069  1.00  0.00     0.028 C 
BRANCH  11  12
ATOM     12  C   UNL     1       9.899   3.831  -0.942  1.00  0.00    -0.028 C 
ATOM     13  C   UNL     1       8.852   4.685  -0.953  1.00  0.00    -0.080 C 
ATOM     14  C   UNL     1       7.872   4.740  -2.101  1.00  0.00     0.039 C 
ATOM     15  C   UNL     1       8.653   5.591   0.236  1.00  0.00     0.039 C 
ENDBRANCH  11  12
ENDBRANCH   1  11
TORSDOF 4
ENDMDL
MODEL 2
REMARK VINA RESULT:    -6.369      1.243      3.248
REMARK INTER + INTRA:          -8.835
REMARK INTER:                  -7.911
REMARK INTRA:                  -0.924
REMARK UNBOUND:                -0.977
REMARK SMILES CC(C)=CCC[C@@H](C)c1ccc(C)cc1
REMARK SMILES IDX 6 1 7 2 8 3 9 4 13 5 12 6 11 7 14 8 10 9 15 10 5 11 4 12
REMARK SMILES IDX 2 13 1 14 3 15
REMARK H PARENT
REMARK Flexibility Score: inf
ROOT
ATOM      1  C   UNL     1       8.601   4.823  -1.340  1.00  0.00     0.012 C 
ENDROOT
BRANCH   1   2
ATOM      2  C   UNL     1       8.028   6.197  -1.768  1.00  0.00     0.016 C 
ATOM      3  C   UNL     1       8.136   7.251  -0.654  1.00  0.00     0.013 C 
BRANCH   2   4
ATOM      4  C   UNL     1       8.723   6.684  -3.028  1.00  0.00    -0.045 A 
ATOM      5  C   UNL     1      10.646   8.119  -6.620  1.00  0.00     0.044 C 
ATOM      6  C   UNL     1      10.004   7.614  -5.361  1.00  0.00    -0.051 A 
ATOM      7  C   UNL     1       9.747   8.491  -4.298  1.00  0.00     0.004 A 
ATOM      8  C   UNL     1       9.595   6.277  -5.265  1.00  0.00     0.004 A 
ATOM      9  C   UNL     1       9.116   8.030  -3.140  1.00  0.00     0.004 A 
ATOM     10  C   UNL     1       8.964   5.814  -4.107  1.00  0.00     0.004 A 
ENDBRANCH   2   4
ENDBRANCH   1   2
BRANCH   1  11
ATOM     11  C   UNL     1       9.856   4.911  -0.454  1.00  0.00     0.028 C 
BRANCH  11  12
ATOM     12  C   UNL     1      11.065   5.401  -1.215  1.00  0.00    -0.028 C 
ATOM     13  C   UNL     1      11.709   4.697  -2.172  1.00  0.00    -0.080 C 
ATOM     14  C   UNL     1      11.232   3.338  -2.627  1.00  0.00     0.039 C 
ATOM     15  C   UNL     1      12.928   5.309  -2.814  1.00  0.00     0.039 C 
ENDBRANCH  11  12
ENDBRANCH   1  11
TORSDOF 4
ENDMDL
MODEL 3
REMARK VINA RESULT:    -6.271      1.816      5.441
REMARK INTER + INTRA:          -8.714
REMARK INTER:                  -7.209
REMARK INTRA:                  -1.505
REMARK UNBOUND:                -0.977
REMARK SMILES CC(C)=CCC[C@@H](C)c1ccc(C)cc1
REMARK SMILES IDX 6 1 7 2 8 3 9 4 13 5 12 6 11 7 14 8 10 9 15 10 5 11 4 12
REMARK SMILES IDX 2 13 1 14 3 15
REMARK H PARENT
REMARK Flexibility Score: inf
ROOT
ATOM      1  C   UNL     1       9.057   9.001  -3.142  1.00  0.00     0.012 C 
ENDROOT
BRANCH   1   2
ATOM      2  C   UNL     1       8.514   8.507  -1.777  1.00  0.00     0.016 C 
ATOM      3  C   UNL     1       6.983   8.616  -1.681  1.00  0.00     0.013 C 
BRANCH   2   4
ATOM      4  C   UNL     1       8.960   7.078  -1.524  1.00  0.00    -0.045 A 
ATOM      5  C   UNL     1      10.199   3.015  -0.734  1.00  0.00     0.044 C 
ATOM      6  C   UNL     1       9.766   4.420  -1.036  1.00  0.00    -0.051 A 
ATOM      7  C   UNL     1       8.409   4.767  -0.989  1.00  0.00     0.004 A 
ATOM      8  C   UNL     1      10.722   5.411  -1.301  1.00  0.00     0.004 A 
ATOM      9  C   UNL     1       8.009   6.084  -1.235  1.00  0.00     0.004 A 
ATOM     10  C   UNL     1      10.323   6.727  -1.548  1.00  0.00     0.004 A 
ENDBRANCH   2   4
ENDBRANCH   1   2
BRANCH   1  11
ATOM     11  C   UNL     1       8.664   8.113  -4.335  1.00  0.00     0.028 C 
BRANCH  11  12
ATOM     12  C   UNL     1       9.867   7.545  -5.051  1.00  0.00    -0.028 C 
ATOM     13  C   UNL     1      10.120   6.227  -5.203  1.00  0.00    -0.080 C 
ATOM     14  C   UNL     1       9.167   5.164  -4.709  1.00  0.00     0.039 C 
ATOM     15  C   UNL     1      11.387   5.816  -5.910  1.00  0.00     0.039 C 
ENDBRANCH  11  12
ENDBRANCH   1  11
TORSDOF 4
ENDMDL
MODEL 4
REMARK VINA RESULT:    -6.259      1.069      1.978
REMARK INTER + INTRA:          -8.699
REMARK INTER:                  -7.527
REMARK INTRA:                  -1.173
REMARK UNBOUND:                -0.977
REMARK SMILES CC(C)=CCC[C@@H](C)c1ccc(C)cc1
REMARK SMILES IDX 6 1 7 2 8 3 9 4 13 5 12 6 11 7 14 8 10 9 15 10 5 11 4 12
REMARK SMILES IDX 2 13 1 14 3 15
REMARK H PARENT
REMARK Flexibility Score: inf
ROOT
ATOM      1  C   UNL     1      11.895   5.499  -2.639  1.00  0.00     0.012 C 
ENDROOT
BRANCH   1   2
ATOM      2  C   UNL     1      11.466   5.433  -4.126  1.00  0.00     0.016 C 
ATOM      3  C   UNL     1      10.702   4.142  -4.459  1.00  0.00     0.013 C 
BRANCH   2   4
ATOM      4  C   UNL     1      10.631   6.650  -4.483  1.00  0.00    -0.045 A 
ATOM      5  C   UNL     1       8.195  10.080  -5.467  1.00  0.00     0.044 C 
ATOM      6  C   UNL     1       9.064   8.906  -5.123  1.00  0.00    -0.051 A 
ATOM      7  C   UNL     1       9.230   8.516  -3.787  1.00  0.00     0.004 A 
ATOM      8  C   UNL     1       9.663   8.149  -6.141  1.00  0.00     0.004 A 
ATOM      9  C   UNL     1      10.010   7.400  -3.469  1.00  0.00     0.004 A 
ATOM     10  C   UNL     1      10.443   7.034  -5.824  1.00  0.00     0.004 A 
ENDBRANCH   2   4
ENDBRANCH   1   2
BRANCH   1  11
ATOM     11  C   UNL     1      11.273   4.405  -1.754  1.00  0.00     0.028 C 
BRANCH  11  12
ATOM     12  C   UNL     1      10.444   4.977  -0.628  1.00  0.00    -0.028 C 
ATOM     13  C   UNL     1       9.103   5.137  -0.665  1.00  0.00    -0.080 C 
ATOM     14  C   UNL     1       8.273   4.691  -1.847  1.00  0.00     0.039 C 
ATOM     15  C   UNL     1       8.421   5.760   0.526  1.00  0.00     0.039 C 
ENDBRANCH  11  12
ENDBRANCH   1  11
TORSDOF 4
ENDMDL
MODEL 5
REMARK VINA RESULT:    -6.185      1.716      3.463
REMARK INTER + INTRA:          -8.608
REMARK INTER:                  -7.730
REMARK INTRA:                  -0.878
REMARK UNBOUND:                -0.977
REMARK SMILES CC(C)=CCC[C@@H](C)c1ccc(C)cc1
REMARK SMILES IDX 6 1 7 2 8 3 9 4 13 5 12 6 11 7 14 8 10 9 15 10 5 11 4 12
REMARK SMILES IDX 2 13 1 14 3 15
REMARK H PARENT
REMARK Flexibility Score: inf
ROOT
ATOM      1  C   UNL     1       9.243   5.422  -0.130  1.00  0.00     0.012 C 
ENDROOT
BRANCH   1   2
ATOM      2  C   UNL     1      10.239   4.402  -0.736  1.00  0.00     0.016 C 
ATOM      3  C   UNL     1       9.721   2.956  -0.653  1.00  0.00     0.013 C 
BRANCH   2   4
ATOM      4  C   UNL     1      10.554   4.770  -2.175  1.00  0.00    -0.045 A 
ATOM      5  C   UNL     1      11.447   5.890  -6.250  1.00  0.00     0.044 C 
ATOM      6  C   UNL     1      11.152   5.477  -4.839  1.00  0.00    -0.051 A 
ATOM      7  C   UNL     1      12.003   5.866  -3.795  1.00  0.00     0.004 A 
ATOM      8  C   UNL     1       9.986   4.756  -4.543  1.00  0.00     0.004 A 
ATOM      9  C   UNL     1      11.709   5.512  -2.476  1.00  0.00     0.004 A 
ATOM     10  C   UNL     1       9.691   4.401  -3.225  1.00  0.00     0.004 A 
ENDBRANCH   2   4
ENDBRANCH   1   2
BRANCH   1  11
ATOM     11  C   UNL     1       8.209   5.965  -1.132  1.00  0.00     0.028 C 
BRANCH  11  12
ATOM     12  C   UNL     1       7.941   7.440  -0.940  1.00  0.00    -0.028 C 
ATOM     13  C   UNL     1       8.344   8.411  -1.788  1.00  0.00    -0.080 C 
ATOM     14  C   UNL     1       9.072   8.102  -3.076  1.00  0.00     0.039 C 
ATOM     15  C   UNL     1       8.033   9.844  -1.438  1.00  0.00     0.039 C 
ENDBRANCH  11  12
ENDBRANCH   1  11
TORSDOF 4
ENDMDL
MODEL 6
REMARK VINA RESULT:    -6.139      2.169      4.251
REMARK INTER + INTRA:          -8.551
REMARK INTER:                  -7.593
REMARK INTRA:                  -0.958
REMARK UNBOUND:                -0.977
REMARK SMILES CC(C)=CCC[C@@H](C)c1ccc(C)cc1
REMARK SMILES IDX 6 1 7 2 8 3 9 4 13 5 12 6 11 7 14 8 10 9 15 10 5 11 4 12
REMARK SMILES IDX 2 13 1 14 3 15
REMARK H PARENT
REMARK Flexibility Score: inf
ROOT
ATOM      1  C   UNL     1      10.839   5.533  -1.185  1.00  0.00     0.012 C 
ENDROOT
BRANCH   1   2
ATOM      2  C   UNL     1       9.294   5.574  -1.298  1.00  0.00     0.016 C 
ATOM      3  C   UNL     1       8.599   5.047  -0.032  1.00  0.00     0.013 C 
BRANCH   2   4
ATOM      4  C   UNL     1       8.831   6.987  -1.607  1.00  0.00    -0.045 A 
ATOM      5  C   UNL     1       7.442  10.981  -2.494  1.00  0.00     0.044 C 
ATOM      6  C   UNL     1       7.945   9.605  -2.170  1.00  0.00    -0.051 A 
ATOM      7  C   UNL     1       7.429   8.904  -1.070  1.00  0.00     0.004 A 
ATOM      8  C   UNL     1       8.886   8.983  -3.003  1.00  0.00     0.004 A 
ATOM      9  C   UNL     1       7.871   7.609  -0.789  1.00  0.00     0.004 A 
ATOM     10  C   UNL     1       9.329   7.688  -2.722  1.00  0.00     0.004 A 
ENDBRANCH   2   4
ENDBRANCH   1   2
BRANCH   1  11
ATOM     11  C   UNL     1      11.523   4.624  -2.221  1.00  0.00     0.028 C 
BRANCH  11  12
ATOM     12  C   UNL     1      11.761   5.327  -3.536  1.00  0.00    -0.028 C 
ATOM     13  C   UNL     1      10.957   5.230  -4.617  1.00  0.00    -0.080 C 
ATOM     14  C   UNL     1       9.674   4.432  -4.594  1.00  0.00     0.039 C 
ATOM     15  C   UNL     1      11.351   5.963  -5.874  1.00  0.00     0.039 C 
ENDBRANCH  11  12
ENDBRANCH   1  11
TORSDOF 4
ENDMDL
MODEL 7
REMARK VINA RESULT:    -6.138      1.001      1.935
REMARK INTER + INTRA:          -8.551
REMARK INTER:                  -7.764
REMARK INTRA:                  -0.787
REMARK UNBOUND:                -0.977
REMARK SMILES CC(C)=CCC[C@@H](C)c1ccc(C)cc1
REMARK SMILES IDX 6 1 7 2 8 3 9 4 13 5 12 6 11 7 14 8 10 9 15 10 5 11 4 12
REMARK SMILES IDX 2 13 1 14 3 15
REMARK H PARENT
REMARK Flexibility Score: inf
ROOT
ATOM      1  C   UNL     1      10.210   4.302  -4.073  1.00  0.00     0.012 C 
ENDROOT
BRANCH   1   2
ATOM      2  C   UNL     1      10.872   5.595  -3.536  1.00  0.00     0.016 C 
ATOM      3  C   UNL     1      12.379   5.423  -3.287  1.00  0.00     0.013 C 
BRANCH   2   4
ATOM      4  C   UNL     1      10.622   6.747  -4.494  1.00  0.00    -0.045 A 
ATOM      5  C   UNL     1       9.837  10.019  -7.203  1.00  0.00     0.044 C 
ATOM      6  C   UNL     1      10.136   8.894  -6.257  1.00  0.00    -0.051 A 
ATOM      7  C   UNL     1       9.814   9.008  -4.897  1.00  0.00     0.004 A 
ATOM      8  C   UNL     1      10.676   7.692  -6.738  1.00  0.00     0.004 A 
ATOM      9  C   UNL     1      10.059   7.946  -4.023  1.00  0.00     0.004 A 
ATOM     10  C   UNL     1      10.922   6.630  -5.864  1.00  0.00     0.004 A 
ENDBRANCH   2   4
ENDBRANCH   1   2
BRANCH   1  11
ATOM     11  C   UNL     1       8.845   3.981  -3.439  1.00  0.00     0.028 C 
BRANCH  11  12
ATOM     12  C   UNL     1       8.555   4.841  -2.232  1.00  0.00    -0.028 C 
ATOM     13  C   UNL     1       8.991   4.581  -0.980  1.00  0.00    -0.080 C 
ATOM     14  C   UNL     1       9.886   3.404  -0.669  1.00  0.00     0.039 C 
ATOM     15  C   UNL     1       8.584   5.515   0.131  1.00  0.00     0.039 C 
ENDBRANCH  11  12
ENDBRANCH   1  11
TORSDOF 4
ENDMDL
MODEL 8
REMARK VINA RESULT:    -6.099      1.834      4.611
REMARK INTER + INTRA:          -8.503
REMARK INTER:                  -7.632
REMARK INTRA:                  -0.871
REMARK UNBOUND:                -0.977
REMARK SMILES CC(C)=CCC[C@@H](C)c1ccc(C)cc1
REMARK SMILES IDX 6 1 7 2 8 3 9 4 13 5 12 6 11 7 14 8 10 9 15 10 5 11 4 12
REMARK SMILES IDX 2 13 1 14 3 15
REMARK H PARENT
REMARK Flexibility Score: inf
ROOT
ATOM      1  C   UNL     1      10.066   8.134  -4.993  1.00  0.00     0.012 C 
ENDROOT
BRANCH   1   2
ATOM      2  C   UNL     1      10.083   6.630  -5.364  1.00  0.00     0.016 C 
ATOM      3  C   UNL     1      11.290   6.256  -6.240  1.00  0.00     0.013 C 
BRANCH   2   4
ATOM      4  C   UNL     1      10.058   5.781  -4.105  1.00  0.00    -0.045 A 
ATOM      5  C   UNL     1      10.035   3.318  -0.556  1.00  0.00     0.044 C 
ATOM      6  C   UNL     1      10.037   4.196  -1.772  1.00  0.00    -0.051 A 
ATOM      7  C   UNL     1      11.233   4.768  -2.229  1.00  0.00     0.004 A 
ATOM      8  C   UNL     1       8.856   4.397  -2.501  1.00  0.00     0.004 A 
ATOM      9  C   UNL     1      11.243   5.557  -3.383  1.00  0.00     0.004 A 
ATOM     10  C   UNL     1       8.864   5.186  -3.654  1.00  0.00     0.004 A 
ENDBRANCH   2   4
ENDBRANCH   1   2
BRANCH   1  11
ATOM     11  C   UNL     1       9.662   8.420  -3.536  1.00  0.00     0.028 C 
BRANCH  11  12
ATOM     12  C   UNL     1       8.235   8.901  -3.418  1.00  0.00    -0.028 C 
ATOM     13  C   UNL     1       7.402   8.595  -2.399  1.00  0.00    -0.080 C 
ATOM     14  C   UNL     1       7.849   7.767  -1.218  1.00  0.00     0.039 C 
ATOM     15  C   UNL     1       5.990   9.121  -2.444  1.00  0.00     0.039 C 
ENDBRANCH  11  12
ENDBRANCH   1  11
TORSDOF 4
ENDMDL
MODEL 9
REMARK VINA RESULT:    -5.997      2.214      3.885
REMARK INTER + INTRA:          -8.376
REMARK INTER:                  -7.304
REMARK INTRA:                  -1.071
REMARK UNBOUND:                -0.977
REMARK SMILES CC(C)=CCC[C@@H](C)c1ccc(C)cc1
REMARK SMILES IDX 6 1 7 2 8 3 9 4 13 5 12 6 11 7 14 8 10 9 15 10 5 11 4 12
REMARK SMILES IDX 2 13 1 14 3 15
REMARK H PARENT
REMARK Flexibility Score: inf
ROOT
ATOM      1  C   UNL     1       9.157   5.409  -4.766  1.00  0.00     0.012 C 
ENDROOT
BRANCH   1   2
ATOM      2  C   UNL     1       9.775   6.816  -4.566  1.00  0.00     0.016 C 
ATOM      3  C   UNL     1       9.882   7.602  -5.883  1.00  0.00     0.013 C 
BRANCH   2   4
ATOM      4  C   UNL     1       8.968   7.600  -3.545  1.00  0.00    -0.045 A 
ATOM      5  C   UNL     1       6.729   9.882  -0.640  1.00  0.00     0.044 C 
ATOM      6  C   UNL     1       7.482   9.080  -1.660  1.00  0.00    -0.051 A 
ATOM      7  C   UNL     1       7.847   9.658  -2.884  1.00  0.00     0.004 A 
ATOM      8  C   UNL     1       7.886   7.769  -1.370  1.00  0.00     0.004 A 
ATOM      9  C   UNL     1       8.580   8.923  -3.821  1.00  0.00     0.004 A 
ATOM     10  C   UNL     1       8.618   7.033  -2.306  1.00  0.00     0.004 A 
ENDBRANCH   2   4
ENDBRANCH   1   2
BRANCH   1  11
ATOM     11  C   UNL     1      10.113   4.249  -4.439  1.00  0.00     0.028 C 
BRANCH  11  12
ATOM     12  C   UNL     1       9.878   3.681  -3.059  1.00  0.00    -0.028 C 
ATOM     13  C   UNL     1      10.608   3.992  -1.965  1.00  0.00    -0.080 C 
ATOM     14  C   UNL     1      11.722   5.011  -2.007  1.00  0.00     0.039 C 
ATOM     15  C   UNL     1      10.275   3.309  -0.663  1.00  0.00     0.039 C 
ENDBRANCH  11  12
ENDBRANCH   1  11
TORSDOF 4
ENDMDL
