MODEL 1
REMARK VINA RESULT:    -4.103      0.000      0.000
REMARK INTER + INTRA:          -5.987
REMARK INTER:                  -5.542
REMARK INTRA:                  -0.446
REMARK UNBOUND:                -0.446
REMARK SMILES CCCCCCCC(=O)[O-]
REMARK SMILES IDX 5 1 6 2 7 3 8 4 9 5 10 6 4 7 3 8 2 9 1 10
REMARK H PARENT
REMARK Flexibility Score: inf
ROOT
ATOM      1  C   UNL     1       4.499  15.019  -7.441  1.00  0.00     0.000 C 
ENDROOT
BRANCH   1   2
ATOM      2  C   UNL     1       5.495  15.380  -8.555  1.00  0.00     0.006 C 
BRANCH   2   3
ATOM      3  C   UNL     1       6.869  14.733  -8.339  1.00  0.00     0.053 C 
BRANCH   3   4
ATOM      4  C   UNL     1       7.981  15.620  -8.807  1.00  0.00     0.041 C 
ATOM      5  O   UNL     1       7.903  16.867  -8.658  1.00  0.00    -0.550 OA
ATOM      6  O   UNL     1       9.120  15.066  -9.378  1.00  0.00    -0.550 OA
ENDBRANCH   3   4
ENDBRANCH   2   3
ENDBRANCH   1   2
BRANCH   1   7
ATOM      7  C   UNL     1       4.232  16.228  -6.532  1.00  0.00     0.000 C 
BRANCH   7   8
ATOM      8  C   UNL     1       4.511  17.568  -7.232  1.00  0.00    -0.000 C 
BRANCH   8   9
ATOM      9  C   UNL     1       5.612  18.381  -6.536  1.00  0.00    -0.003 C 
ATOM     10  C   UNL     1       5.788  17.937  -5.086  1.00  0.00     0.004 C 
ENDBRANCH   8   9
ENDBRANCH   7   8
ENDBRANCH   1   7
TORSDOF 6
ENDMDL
MODEL 2
REMARK VINA RESULT:    -4.079     12.247     13.823
REMARK INTER + INTRA:          -5.955
REMARK INTER:                  -5.592
REMARK INTRA:                  -0.362
REMARK UNBOUND:                -0.446
REMARK SMILES CCCCCCCC(=O)[O-]
REMARK SMILES IDX 5 1 6 2 7 3 8 4 9 5 10 6 4 7 3 8 2 9 1 10
REMARK H PARENT
REMARK Flexibility Score: inf
ROOT
ATOM      1  C   UNL     1      19.550  19.547 -13.538  1.00  0.00     0.000 C 
ENDROOT
BRANCH   1   2
ATOM      2  C   UNL     1      19.224  18.162 -12.955  1.00  0.00     0.006 C 
BRANCH   2   3
ATOM      3  C   UNL     1      20.295  17.681 -11.966  1.00  0.00     0.053 C 
BRANCH   3   4
ATOM      4  C   UNL     1      19.920  17.989 -10.549  1.00  0.00     0.041 C 
ATOM      5  O   UNL     1      18.862  18.622 -10.296  1.00  0.00    -0.550 OA
ATOM      6  O   UNL     1      20.723  17.546  -9.504  1.00  0.00    -0.550 OA
ENDBRANCH   3   4
ENDBRANCH   2   3
ENDBRANCH   1   2
BRANCH   1   7
ATOM      7  C   UNL     1      18.293  20.427 -13.593  1.00  0.00     0.000 C 
BRANCH   7   8
ATOM      8  C   UNL     1      17.053  19.726 -13.016  1.00  0.00    -0.000 C 
BRANCH   8   9
ATOM      9  C   UNL     1      16.203  20.654 -12.136  1.00  0.00    -0.003 C 
ATOM     10  C   UNL     1      16.083  22.042 -12.759  1.00  0.00     0.004 C 
ENDBRANCH   8   9
ENDBRANCH   7   8
ENDBRANCH   1   7
TORSDOF 6
ENDMDL
MODEL 3
REMARK VINA RESULT:    -4.050     11.470     13.395
REMARK INTER + INTRA:          -5.916
REMARK INTER:                  -5.514
REMARK INTRA:                  -0.402
REMARK UNBOUND:                -0.446
REMARK SMILES CCCCCCCC(=O)[O-]
REMARK SMILES IDX 5 1 6 2 7 3 8 4 9 5 10 6 4 7 3 8 2 9 1 10
REMARK H PARENT
REMARK Flexibility Score: inf
ROOT
ATOM      1  C   UNL     1      17.802  19.664 -13.859  1.00  0.00     0.000 C 
ENDROOT
BRANCH   1   2
ATOM      2  C   UNL     1      17.401  20.839 -12.953  1.00  0.00     0.006 C 
BRANCH   2   3
ATOM      3  C   UNL     1      16.156  20.526 -12.113  1.00  0.00     0.053 C 
BRANCH   3   4
ATOM      4  C   UNL     1      15.169  21.652 -12.141  1.00  0.00     0.041 C 
ATOM      5  O   UNL     1      14.075  21.552 -11.527  1.00  0.00    -0.550 OA
ATOM      6  O   UNL     1      15.472  22.828 -12.818  1.00  0.00    -0.550 OA
ENDBRANCH   3   4
ENDBRANCH   2   3
ENDBRANCH   1   2
BRANCH   1   7
ATOM      7  C   UNL     1      19.117  19.030 -13.384  1.00  0.00     0.000 C 
BRANCH   7   8
ATOM      8  C   UNL     1      18.945  17.566 -12.949  1.00  0.00    -0.000 C 
BRANCH   8   9
ATOM      9  C   UNL     1      19.495  17.299 -11.540  1.00  0.00    -0.003 C 
ATOM     10  C   UNL     1      19.290  18.508 -10.632  1.00  0.00     0.004 C 
ENDBRANCH   8   9
ENDBRANCH   7   8
ENDBRANCH   1   7
TORSDOF 6
ENDMDL
MODEL 4
REMARK VINA RESULT:    -4.042      1.743      3.895
REMARK INTER + INTRA:          -5.905
REMARK INTER:                  -5.441
REMARK INTRA:                  -0.464
REMARK UNBOUND:                -0.446
REMARK SMILES CCCCCCCC(=O)[O-]
REMARK SMILES IDX 5 1 6 2 7 3 8 4 9 5 10 6 4 7 3 8 2 9 1 10
REMARK H PARENT
REMARK Flexibility Score: inf
ROOT
ATOM      1  C   UNL     1       4.409  15.286  -7.045  1.00  0.00     0.000 C 
ENDROOT
BRANCH   1   2
ATOM      2  C   UNL     1       3.988  16.590  -6.349  1.00  0.00     0.006 C 
BRANCH   2   3
ATOM      3  C   UNL     1       4.800  17.798  -6.836  1.00  0.00     0.053 C 
BRANCH   3   4
ATOM      4  C   UNL     1       6.126  17.891  -6.146  1.00  0.00     0.041 C 
ATOM      5  O   UNL     1       6.190  18.256  -4.943  1.00  0.00    -0.550 OA
ATOM      6  O   UNL     1       7.289  17.540  -6.821  1.00  0.00    -0.550 OA
ENDBRANCH   3   4
ENDBRANCH   2   3
ENDBRANCH   1   2
BRANCH   1   7
ATOM      7  C   UNL     1       4.776  15.543  -8.514  1.00  0.00     0.000 C 
BRANCH   7   8
ATOM      8  C   UNL     1       5.964  14.690  -8.986  1.00  0.00    -0.000 C 
BRANCH   8   9
ATOM      9  C   UNL     1       6.842  14.204  -7.824  1.00  0.00    -0.003 C 
ATOM     10  C   UNL     1       7.297  12.764  -8.044  1.00  0.00     0.004 C 
ENDBRANCH   8   9
ENDBRANCH   7   8
ENDBRANCH   1   7
TORSDOF 6
ENDMDL
MODEL 5
REMARK VINA RESULT:    -3.949      1.718      3.939
REMARK INTER + INTRA:          -5.779
REMARK INTER:                  -5.334
REMARK INTRA:                  -0.445
REMARK UNBOUND:                -0.446
REMARK SMILES CCCCCCCC(=O)[O-]
REMARK SMILES IDX 5 1 6 2 7 3 8 4 9 5 10 6 4 7 3 8 2 9 1 10
REMARK H PARENT
REMARK Flexibility Score: inf
ROOT
ATOM      1  C   UNL     1       4.749  15.127  -7.372  1.00  0.00     0.000 C 
ENDROOT
BRANCH   1   2
ATOM      2  C   UNL     1       4.185  16.290  -6.539  1.00  0.00     0.006 C 
BRANCH   2   3
ATOM      3  C   UNL     1       4.878  17.622  -6.857  1.00  0.00     0.053 C 
BRANCH   3   4
ATOM      4  C   UNL     1       6.155  17.781  -6.092  1.00  0.00     0.041 C 
ATOM      5  O   UNL     1       7.258  17.520  -6.640  1.00  0.00    -0.550 OA
ATOM      6  O   UNL     1       6.131  18.251  -4.784  1.00  0.00    -0.550 OA
ENDBRANCH   3   4
ENDBRANCH   2   3
ENDBRANCH   1   2
BRANCH   1   7
ATOM      7  C   UNL     1       4.999  15.564  -8.822  1.00  0.00     0.000 C 
BRANCH   7   8
ATOM      8  C   UNL     1       6.078  14.719  -9.517  1.00  0.00    -0.000 C 
BRANCH   8   9
ATOM      9  C   UNL     1       7.449  14.831  -8.834  1.00  0.00    -0.003 C 
ATOM     10  C   UNL     1       8.315  15.889  -9.511  1.00  0.00     0.004 C 
ENDBRANCH   8   9
ENDBRANCH   7   8
ENDBRANCH   1   7
TORSDOF 6
ENDMDL
MODEL 6
REMARK VINA RESULT:    -3.938     12.311     13.905
REMARK INTER + INTRA:          -5.765
REMARK INTER:                  -5.344
REMARK INTRA:                  -0.421
REMARK UNBOUND:                -0.446
REMARK SMILES CCCCCCCC(=O)[O-]
REMARK SMILES IDX 5 1 6 2 7 3 8 4 9 5 10 6 4 7 3 8 2 9 1 10
REMARK H PARENT
REMARK Flexibility Score: inf
ROOT
ATOM      1  C   UNL     1      19.402  18.841 -13.402  1.00  0.00     0.000 C 
ENDROOT
BRANCH   1   2
ATOM      2  C   UNL     1      18.099  19.409 -13.986  1.00  0.00     0.006 C 
BRANCH   2   3
ATOM      3  C   UNL     1      17.694  20.733 -13.324  1.00  0.00     0.053 C 
BRANCH   3   4
ATOM      4  C   UNL     1      16.613  20.537 -12.306  1.00  0.00     0.041 C 
ATOM      5  O   UNL     1      16.667  19.570 -11.503  1.00  0.00    -0.550 OA
ATOM      6  O   UNL     1      15.563  21.444 -12.221  1.00  0.00    -0.550 OA
ENDBRANCH   3   4
ENDBRANCH   2   3
ENDBRANCH   1   2
BRANCH   1   7
ATOM      7  C   UNL     1      19.248  17.351 -13.066  1.00  0.00     0.000 C 
BRANCH   7   8
ATOM      8  C   UNL     1      19.254  17.081 -11.553  1.00  0.00    -0.000 C 
BRANCH   8   9
ATOM      9  C   UNL     1      19.845  18.247 -10.747  1.00  0.00    -0.003 C 
ATOM     10  C   UNL     1      21.116  17.820 -10.017  1.00  0.00     0.004 C 
ENDBRANCH   8   9
ENDBRANCH   7   8
ENDBRANCH   1   7
TORSDOF 6
ENDMDL
MODEL 7
REMARK VINA RESULT:    -3.912     11.425     13.131
REMARK INTER + INTRA:          -5.730
REMARK INTER:                  -5.377
REMARK INTRA:                  -0.354
REMARK UNBOUND:                -0.446
REMARK SMILES CCCCCCCC(=O)[O-]
REMARK SMILES IDX 5 1 6 2 7 3 8 4 9 5 10 6 4 7 3 8 2 9 1 10
REMARK H PARENT
REMARK Flexibility Score: inf
ROOT
ATOM      1  C   UNL     1      17.650  20.175 -13.756  1.00  0.00     0.000 C 
ENDROOT
BRANCH   1   2
ATOM      2  C   UNL     1      19.048  19.701 -13.328  1.00  0.00     0.006 C 
BRANCH   2   3
ATOM      3  C   UNL     1      19.025  18.286 -12.735  1.00  0.00     0.053 C 
BRANCH   3   4
ATOM      4  C   UNL     1      19.348  18.292 -11.272  1.00  0.00     0.041 C 
ATOM      5  O   UNL     1      18.494  18.690 -10.437  1.00  0.00    -0.550 OA
ATOM      6  O   UNL     1      20.578  17.824 -10.828  1.00  0.00    -0.550 OA
ENDBRANCH   3   4
ENDBRANCH   2   3
ENDBRANCH   1   2
BRANCH   1   7
ATOM      7  C   UNL     1      17.066  21.156 -12.729  1.00  0.00     0.000 C 
BRANCH   7   8
ATOM      8  C   UNL     1      15.821  20.599 -12.020  1.00  0.00    -0.000 C 
BRANCH   8   9
ATOM      9  C   UNL     1      14.661  21.605 -11.984  1.00  0.00    -0.003 C 
ATOM     10  C   UNL     1      14.957  22.815 -12.865  1.00  0.00     0.004 C 
ENDBRANCH   8   9
ENDBRANCH   7   8
ENDBRANCH   1   7
TORSDOF 6
ENDMDL
MODEL 8
REMARK VINA RESULT:    -3.698     10.573     11.815
REMARK INTER + INTRA:          -5.441
REMARK INTER:                  -5.261
REMARK INTRA:                  -0.180
REMARK UNBOUND:                -0.446
REMARK SMILES CCCCCCCC(=O)[O-]
REMARK SMILES IDX 5 1 6 2 7 3 8 4 9 5 10 6 4 7 3 8 2 9 1 10
REMARK H PARENT
REMARK Flexibility Score: inf
ROOT
ATOM      1  C   UNL     1      15.582  22.696 -12.717  1.00  0.00     0.000 C 
ENDROOT
BRANCH   1   2
ATOM      2  C   UNL     1      16.646  21.608 -12.936  1.00  0.00     0.006 C 
BRANCH   2   3
ATOM      3  C   UNL     1      16.313  20.309 -12.190  1.00  0.00     0.053 C 
BRANCH   3   4
ATOM      4  C   UNL     1      17.485  19.378 -12.143  1.00  0.00     0.041 C 
ATOM      5  O   UNL     1      17.946  18.996 -11.036  1.00  0.00    -0.550 OA
ATOM      6  O   UNL     1      18.046  18.904 -13.323  1.00  0.00    -0.550 OA
ENDBRANCH   3   4
ENDBRANCH   2   3
ENDBRANCH   1   2
BRANCH   1   7
ATOM      7  C   UNL     1      14.246  22.075 -12.283  1.00  0.00     0.000 C 
BRANCH   7   8
ATOM      8  C   UNL     1      13.061  23.037 -12.462  1.00  0.00    -0.000 C 
BRANCH   8   9
ATOM      9  C   UNL     1      12.203  22.697 -13.689  1.00  0.00    -0.003 C 
ATOM     10  C   UNL     1      10.744  23.085 -13.463  1.00  0.00     0.004 C 
ENDBRANCH   8   9
ENDBRANCH   7   8
ENDBRANCH   1   7
TORSDOF 6
ENDMDL
