MODEL 1
REMARK VINA RESULT:    -4.289      0.000      0.000
REMARK INTER + INTRA:          -4.289
REMARK INTER:                  -4.289
REMARK INTRA:                   0.000
REMARK UNBOUND:                 0.000
REMARK SMILES CC(C)=C1CC[C@@H](C)CC1=O
REMARK SMILES IDX 8 1 7 2 6 3 5 4 4 5 2 6 1 7 3 8 10 9 11 10 9 11
REMARK H PARENT
REMARK Flexibility Score: inf
ROOT
ATOM      1  C   UNL     1      12.481 -21.412  40.607  1.00  0.00     0.008 C 
ATOM      2  C   UNL     1      11.697 -22.692  40.299  1.00  0.00    -0.006 C 
ATOM      3  C   UNL     1      10.309 -22.649  40.959  1.00  0.00     0.008 C 
ATOM      4  C   UNL     1       9.471 -23.876  40.576  1.00  0.00     0.039 C 
ATOM      5  C   UNL     1      10.201 -25.187  40.836  1.00  0.00    -0.006 C 
ATOM      6  C   UNL     1       9.524 -26.319  41.188  1.00  0.00    -0.070 C 
ATOM      7  C   UNL     1      10.243 -27.611  41.503  1.00  0.00     0.039 C 
ATOM      8  C   UNL     1       8.018 -26.323  41.315  1.00  0.00     0.039 C 
ATOM      9  C   UNL     1      11.672 -25.181  40.572  1.00  0.00     0.159 C 
ATOM     10  O   UNL     1      12.267 -26.214  40.164  1.00  0.00    -0.295 OA
ATOM     11  C   UNL     1      12.470 -23.928  40.784  1.00  0.00     0.084 C 
ENDROOT
TORSDOF 0
ENDMDL
MODEL 2
REMARK VINA RESULT:    -4.116      1.716      4.627
REMARK INTER + INTRA:          -4.116
REMARK INTER:                  -4.116
REMARK INTRA:                   0.000
REMARK UNBOUND:                 0.000
REMARK SMILES CC(C)=C1CC[C@@H](C)CC1=O
REMARK SMILES IDX 8 1 7 2 6 3 5 4 4 5 2 6 1 7 3 8 10 9 11 10 9 11
REMARK H PARENT
REMARK Flexibility Score: inf
ROOT
ATOM      1  C   UNL     1       8.930 -25.001  41.017  1.00  0.00     0.008 C 
ATOM      2  C   UNL     1      10.301 -24.352  40.797  1.00  0.00    -0.006 C 
ATOM      3  C   UNL     1      10.239 -22.844  41.090  1.00  0.00     0.008 C 
ATOM      4  C   UNL     1      11.626 -22.197  40.974  1.00  0.00     0.039 C 
ATOM      5  C   UNL     1      12.307 -22.508  39.648  1.00  0.00    -0.006 C 
ATOM      6  C   UNL     1      13.155 -21.614  39.060  1.00  0.00    -0.070 C 
ATOM      7  C   UNL     1      13.793 -21.887  37.717  1.00  0.00     0.039 C 
ATOM      8  C   UNL     1      13.468 -20.285  39.709  1.00  0.00     0.039 C 
ATOM      9  C   UNL     1      12.081 -23.879  39.101  1.00  0.00     0.159 C 
ATOM     10  O   UNL     1      12.967 -24.467  38.425  1.00  0.00    -0.295 OA
ATOM     11  C   UNL     1      10.783 -24.588  39.358  1.00  0.00     0.084 C 
ENDROOT
TORSDOF 0
ENDMDL
MODEL 3
REMARK VINA RESULT:    -3.892      2.080      4.137
REMARK INTER + INTRA:          -3.892
REMARK INTER:                  -3.892
REMARK INTRA:                   0.000
REMARK UNBOUND:                 0.000
REMARK SMILES CC(C)=C1CC[C@@H](C)CC1=O
REMARK SMILES IDX 8 1 7 2 6 3 5 4 4 5 2 6 1 7 3 8 10 9 11 10 9 11
REMARK H PARENT
REMARK Flexibility Score: inf
ROOT
ATOM      1  C   UNL     1      13.992 -27.673  39.581  1.00  0.00     0.008 C 
ATOM      2  C   UNL     1      13.369 -26.276  39.493  1.00  0.00    -0.006 C 
ATOM      3  C   UNL     1      13.832 -25.402  40.669  1.00  0.00     0.008 C 
ATOM      4  C   UNL     1      13.300 -23.968  40.542  1.00  0.00     0.039 C 
ATOM      5  C   UNL     1      11.792 -23.921  40.335  1.00  0.00    -0.006 C 
ATOM      6  C   UNL     1      11.043 -22.885  40.815  1.00  0.00    -0.070 C 
ATOM      7  C   UNL     1       9.539 -22.855  40.666  1.00  0.00     0.039 C 
ATOM      8  C   UNL     1      11.682 -21.732  41.554  1.00  0.00     0.039 C 
ATOM      9  C   UNL     1      11.212 -25.005  39.488  1.00  0.00     0.159 C 
ATOM     10  O   UNL     1      10.202 -24.800  38.764  1.00  0.00    -0.295 OA
ATOM     11  C   UNL     1      11.836 -26.370  39.480  1.00  0.00     0.084 C 
ENDROOT
TORSDOF 0
ENDMDL
MODEL 4
REMARK VINA RESULT:    -3.813      2.007      4.348
REMARK INTER + INTRA:          -3.813
REMARK INTER:                  -3.813
REMARK INTRA:                   0.000
REMARK UNBOUND:                 0.000
REMARK SMILES CC(C)=C1CC[C@@H](C)CC1=O
REMARK SMILES IDX 8 1 7 2 6 3 5 4 4 5 2 6 1 7 3 8 10 9 11 10 9 11
REMARK H PARENT
REMARK Flexibility Score: inf
ROOT
ATOM      1  C   UNL     1       9.305 -24.465  39.164  1.00  0.00     0.008 C 
ATOM      2  C   UNL     1      10.365 -24.109  40.211  1.00  0.00    -0.006 C 
ATOM      3  C   UNL     1      10.226 -22.640  40.643  1.00  0.00     0.008 C 
ATOM      4  C   UNL     1      11.214 -22.293  41.765  1.00  0.00     0.039 C 
ATOM      5  C   UNL     1      12.648 -22.668  41.418  1.00  0.00    -0.006 C 
ATOM      6  C   UNL     1      13.704 -21.942  41.888  1.00  0.00    -0.070 C 
ATOM      7  C   UNL     1      15.130 -22.270  41.505  1.00  0.00     0.039 C 
ATOM      8  C   UNL     1      13.495 -20.746  42.789  1.00  0.00     0.039 C 
ATOM      9  C   UNL     1      12.826 -23.929  40.638  1.00  0.00     0.159 C 
ATOM     10  O   UNL     1      13.846 -24.653  40.789  1.00  0.00    -0.295 OA
ATOM     11  C   UNL     1      11.775 -24.362  39.657  1.00  0.00     0.084 C 
ENDROOT
TORSDOF 0
ENDMDL
MODEL 5
REMARK VINA RESULT:    -3.773      1.652      4.599
REMARK INTER + INTRA:          -3.773
REMARK INTER:                  -3.773
REMARK INTRA:                   0.000
REMARK UNBOUND:                 0.000
REMARK SMILES CC(C)=C1CC[C@@H](C)CC1=O
REMARK SMILES IDX 8 1 7 2 6 3 5 4 4 5 2 6 1 7 3 8 10 9 11 10 9 11
REMARK H PARENT
REMARK Flexibility Score: inf
ROOT
ATOM      1  C   UNL     1       8.027 -27.508  41.117  1.00  0.00     0.008 C 
ATOM      2  C   UNL     1       9.055 -26.474  40.647  1.00  0.00    -0.006 C 
ATOM      3  C   UNL     1      10.443 -26.787  41.228  1.00  0.00     0.008 C 
ATOM      4  C   UNL     1      11.506 -25.822  40.686  1.00  0.00     0.039 C 
ATOM      5  C   UNL     1      11.114 -24.362  40.864  1.00  0.00    -0.006 C 
ATOM      6  C   UNL     1      12.055 -23.395  41.070  1.00  0.00    -0.070 C 
ATOM      7  C   UNL     1      11.675 -21.950  41.303  1.00  0.00     0.039 C 
ATOM      8  C   UNL     1      13.528 -23.730  41.111  1.00  0.00     0.039 C 
ATOM      9  C   UNL     1       9.665 -24.045  40.685  1.00  0.00     0.159 C 
ATOM     10  O   UNL     1       9.290 -22.938  40.217  1.00  0.00    -0.295 OA
ATOM     11  C   UNL     1       8.622 -25.059  41.057  1.00  0.00     0.084 C 
ENDROOT
TORSDOF 0
ENDMDL
MODEL 6
REMARK VINA RESULT:    -3.772      1.465      2.481
REMARK INTER + INTRA:          -3.772
REMARK INTER:                  -3.772
REMARK INTRA:                   0.000
REMARK UNBOUND:                 0.000
REMARK SMILES CC(C)=C1CC[C@@H](C)CC1=O
REMARK SMILES IDX 8 1 7 2 6 3 5 4 4 5 2 6 1 7 3 8 10 9 11 10 9 11
REMARK H PARENT
REMARK Flexibility Score: inf
ROOT
ATOM      1  C   UNL     1       9.654 -23.023  40.266  1.00  0.00     0.008 C 
ATOM      2  C   UNL     1       9.736 -24.553  40.243  1.00  0.00    -0.006 C 
ATOM      3  C   UNL     1       8.623 -25.167  41.107  1.00  0.00     0.008 C 
ATOM      4  C   UNL     1       8.626 -26.699  41.014  1.00  0.00     0.039 C 
ATOM      5  C   UNL     1       9.993 -27.299  41.309  1.00  0.00    -0.006 C 
ATOM      6  C   UNL     1      10.118 -28.525  41.898  1.00  0.00    -0.070 C 
ATOM      7  C   UNL     1      11.469 -29.107  42.247  1.00  0.00     0.039 C 
ATOM      8  C   UNL     1       8.903 -29.345  42.266  1.00  0.00     0.039 C 
ATOM      9  C   UNL     1      11.170 -26.525  40.814  1.00  0.00     0.159 C 
ATOM     10  O   UNL     1      12.225 -27.104  40.442  1.00  0.00    -0.295 OA
ATOM     11  C   UNL     1      11.109 -25.026  40.742  1.00  0.00     0.084 C 
ENDROOT
TORSDOF 0
ENDMDL
MODEL 7
REMARK VINA RESULT:    -3.747      3.182      5.856
REMARK INTER + INTRA:          -3.747
REMARK INTER:                  -3.747
REMARK INTRA:                   0.000
REMARK UNBOUND:                 0.000
REMARK SMILES CC(C)=C1CC[C@@H](C)CC1=O
REMARK SMILES IDX 8 1 7 2 6 3 5 4 4 5 2 6 1 7 3 8 10 9 11 10 9 11
REMARK H PARENT
REMARK Flexibility Score: inf
ROOT
ATOM      1  C   UNL     1      10.522 -23.214  40.257  1.00  0.00     0.008 C 
ATOM      2  C   UNL     1      11.774 -22.791  41.033  1.00  0.00    -0.006 C 
ATOM      3  C   UNL     1      11.440 -22.565  42.517  1.00  0.00     0.008 C 
ATOM      4  C   UNL     1      12.701 -22.240  43.329  1.00  0.00     0.039 C 
ATOM      5  C   UNL     1      13.503 -21.094  42.729  1.00  0.00    -0.006 C 
ATOM      6  C   UNL     1      14.220 -20.241  43.518  1.00  0.00    -0.070 C 
ATOM      7  C   UNL     1      14.975 -19.066  42.940  1.00  0.00     0.039 C 
ATOM      8  C   UNL     1      14.264 -20.411  45.019  1.00  0.00     0.039 C 
ATOM      9  C   UNL     1      13.546 -21.034  41.238  1.00  0.00     0.159 C 
ATOM     10  O   UNL     1      14.558 -20.593  40.630  1.00  0.00    -0.295 OA
ATOM     11  C   UNL     1      12.375 -21.512  40.430  1.00  0.00     0.084 C 
ENDROOT
TORSDOF 0
ENDMDL
MODEL 8
REMARK VINA RESULT:    -3.676      2.017      3.203
REMARK INTER + INTRA:          -3.676
REMARK INTER:                  -3.676
REMARK INTRA:                   0.000
REMARK UNBOUND:                 0.000
REMARK SMILES CC(C)=C1CC[C@@H](C)CC1=O
REMARK SMILES IDX 8 1 7 2 6 3 5 4 4 5 2 6 1 7 3 8 10 9 11 10 9 11
REMARK H PARENT
REMARK Flexibility Score: inf
ROOT
ATOM      1  C   UNL     1       9.634 -22.784  40.625  1.00  0.00     0.008 C 
ATOM      2  C   UNL     1      10.256 -24.099  40.142  1.00  0.00    -0.006 C 
ATOM      3  C   UNL     1      10.367 -25.102  41.302  1.00  0.00     0.008 C 
ATOM      4  C   UNL     1      10.892 -26.459  40.817  1.00  0.00     0.039 C 
ATOM      5  C   UNL     1      12.187 -26.336  40.025  1.00  0.00    -0.006 C 
ATOM      6  C   UNL     1      13.131 -27.322  40.050  1.00  0.00    -0.070 C 
ATOM      7  C   UNL     1      14.444 -27.186  39.314  1.00  0.00     0.039 C 
ATOM      8  C   UNL     1      12.921 -28.587  40.851  1.00  0.00     0.039 C 
ATOM      9  C   UNL     1      12.303 -25.137  39.142  1.00  0.00     0.159 C 
ATOM     10  O   UNL     1      12.944 -25.183  38.058  1.00  0.00    -0.295 OA
ATOM     11  C   UNL     1      11.643 -23.847  39.533  1.00  0.00     0.084 C 
ENDROOT
TORSDOF 0
ENDMDL
MODEL 9
REMARK VINA RESULT:    -3.655      2.844      4.939
REMARK INTER + INTRA:          -3.655
REMARK INTER:                  -3.655
REMARK INTRA:                   0.000
REMARK UNBOUND:                 0.000
REMARK SMILES CC(C)=C1CC[C@@H](C)CC1=O
REMARK SMILES IDX 8 1 7 2 6 3 5 4 4 5 2 6 1 7 3 8 10 9 11 10 9 11
REMARK H PARENT
REMARK Flexibility Score: inf
ROOT
ATOM      1  C   UNL     1       9.515 -22.861  40.520  1.00  0.00     0.008 C 
ATOM      2  C   UNL     1      11.030 -22.668  40.647  1.00  0.00    -0.006 C 
ATOM      3  C   UNL     1      11.761 -24.010  40.483  1.00  0.00     0.008 C 
ATOM      4  C   UNL     1      13.284 -23.821  40.505  1.00  0.00     0.039 C 
ATOM      5  C   UNL     1      13.759 -23.042  41.723  1.00  0.00    -0.006 C 
ATOM      6  C   UNL     1      14.977 -23.284  42.290  1.00  0.00    -0.070 C 
ATOM      7  C   UNL     1      15.436 -22.556  43.533  1.00  0.00     0.039 C 
ATOM      8  C   UNL     1      15.915 -24.323  41.718  1.00  0.00     0.039 C 
ATOM      9  C   UNL     1      12.868 -21.934  42.181  1.00  0.00     0.159 C 
ATOM     10  O   UNL     1      13.338 -20.893  42.712  1.00  0.00    -0.295 OA
ATOM     11  C   UNL     1      11.381 -22.042  42.005  1.00  0.00     0.084 C 
ENDROOT
TORSDOF 0
ENDMDL
