MODEL 1
REMARK VINA RESULT:    -4.667      0.000      0.000
REMARK INTER + INTRA:         -11.305
REMARK INTER:                  -9.032
REMARK INTRA:                  -2.273
REMARK UNBOUND:                -2.273
REMARK SMILES CCCCCCCCCCCCCCCCCC(=O)[O-]
REMARK SMILES IDX 10 1 11 2 12 3 13 4 14 5 15 6 16 7 17 8 18 9 19 10 20 11
REMARK SMILES IDX 9 12 8 13 7 14 6 15 5 16 4 17 3 18 2 19 1 20
REMARK H PARENT
REMARK Flexibility Score: inf
ROOT
ATOM      1  C   UNL     1      62.558 -25.583  -3.187  1.00  0.00     0.000 C 
ENDROOT
BRANCH   1   2
ATOM      2  C   UNL     1      63.549 -26.509  -2.459  1.00  0.00     0.000 C 
BRANCH   2   3
ATOM      3  C   UNL     1      63.054 -27.951  -2.226  1.00  0.00     0.000 C 
BRANCH   3   4
ATOM      4  C   UNL     1      63.409 -28.556  -0.855  1.00  0.00     0.000 C 
BRANCH   4   5
ATOM      5  C   UNL     1      62.197 -29.185  -0.149  1.00  0.00     0.000 C 
BRANCH   5   6
ATOM      6  C   UNL     1      60.897 -29.021  -0.953  1.00  0.00     0.000 C 
BRANCH   6   7
ATOM      7  C   UNL     1      59.644 -29.003  -0.058  1.00  0.00     0.006 C 
BRANCH   7   8
ATOM      8  C   UNL     1      59.921 -29.579   1.337  1.00  0.00     0.053 C 
BRANCH   8   9
ATOM      9  C   UNL     1      59.025 -28.975   2.375  1.00  0.00     0.041 C 
ATOM     10  O   UNL     1      58.087 -28.207   2.033  1.00  0.00    -0.550 OA
ATOM     11  O   UNL     1      59.248 -29.232   3.721  1.00  0.00    -0.550 OA
ENDBRANCH   8   9
ENDBRANCH   7   8
ENDBRANCH   6   7
ENDBRANCH   5   6
ENDBRANCH   4   5
ENDBRANCH   3   4
ENDBRANCH   2   3
ENDBRANCH   1   2
BRANCH   1  12
ATOM     12  C   UNL     1      61.175 -26.230  -3.390  1.00  0.00     0.000 C 
BRANCH  12  13
ATOM     13  C   UNL     1      60.082 -25.556  -2.546  1.00  0.00    -0.000 C 
BRANCH  13  14
ATOM     14  C   UNL     1      58.804 -26.403  -2.446  1.00  0.00    -0.000 C 
BRANCH  14  15
ATOM     15  C   UNL     1      58.447 -27.024  -3.805  1.00  0.00    -0.000 C 
BRANCH  15  16
ATOM     16  C   UNL     1      57.670 -26.050  -4.711  1.00  0.00    -0.000 C 
BRANCH  16  17
ATOM     17  C   UNL     1      58.454 -25.587  -5.956  1.00  0.00    -0.000 C 
BRANCH  17  18
ATOM     18  C   UNL     1      59.155 -24.224  -5.793  1.00  0.00    -0.000 C 
BRANCH  18  19
ATOM     19  C   UNL     1      60.534 -24.187  -6.470  1.00  0.00    -0.003 C 
ATOM     20  C   UNL     1      60.897 -25.550  -7.055  1.00  0.00     0.004 C 
ENDBRANCH  18  19
ENDBRANCH  17  18
ENDBRANCH  16  17
ENDBRANCH  15  16
ENDBRANCH  14  15
ENDBRANCH  13  14
ENDBRANCH  12  13
ENDBRANCH   1  12
TORSDOF 16
ENDMDL
MODEL 2
REMARK VINA RESULT:    -4.582      3.259      6.983
REMARK INTER + INTRA:         -11.140
REMARK INTER:                  -9.176
REMARK INTRA:                  -1.964
REMARK UNBOUND:                -2.273
REMARK SMILES CCCCCCCCCCCCCCCCCC(=O)[O-]
REMARK SMILES IDX 10 1 11 2 12 3 13 4 14 5 15 6 16 7 17 8 18 9 19 10 20 11
REMARK SMILES IDX 9 12 8 13 7 14 6 15 5 16 4 17 3 18 2 19 1 20
REMARK H PARENT
REMARK Flexibility Score: inf
ROOT
ATOM      1  C   UNL     1      62.107 -29.005  -0.222  1.00  0.00     0.000 C 
ENDROOT
BRANCH   1   2
ATOM      2  C   UNL     1      63.412 -28.545  -0.895  1.00  0.00     0.000 C 
BRANCH   2   3
ATOM      3  C   UNL     1      63.249 -27.943  -2.306  1.00  0.00     0.000 C 
BRANCH   3   4
ATOM      4  C   UNL     1      63.350 -26.408  -2.382  1.00  0.00     0.000 C 
BRANCH   4   5
ATOM      5  C   UNL     1      62.269 -25.783  -3.280  1.00  0.00     0.000 C 
BRANCH   5   6
ATOM      6  C   UNL     1      60.856 -25.942  -2.696  1.00  0.00     0.000 C 
BRANCH   6   7
ATOM      7  C   UNL     1      59.773 -26.043  -3.785  1.00  0.00     0.006 C 
BRANCH   7   8
ATOM      8  C   UNL     1      60.250 -25.479  -5.130  1.00  0.00     0.053 C 
BRANCH   8   9
ATOM      9  C   UNL     1      59.433 -24.297  -5.557  1.00  0.00     0.041 C 
ATOM     10  O   UNL     1      59.457 -23.234  -4.883  1.00  0.00    -0.550 OA
ATOM     11  O   UNL     1      58.620 -24.382  -6.679  1.00  0.00    -0.550 OA
ENDBRANCH   8   9
ENDBRANCH   7   8
ENDBRANCH   6   7
ENDBRANCH   5   6
ENDBRANCH   4   5
ENDBRANCH   3   4
ENDBRANCH   2   3
ENDBRANCH   1   2
BRANCH   1  12
ATOM     12  C   UNL     1      60.929 -29.108  -1.208  1.00  0.00     0.000 C 
BRANCH  12  13
ATOM     13  C   UNL     1      59.577 -28.802  -0.544  1.00  0.00    -0.000 C 
BRANCH  13  14
ATOM     14  C   UNL     1      58.847 -30.069  -0.075  1.00  0.00    -0.000 C 
BRANCH  14  15
ATOM     15  C   UNL     1      57.612 -29.713   0.767  1.00  0.00    -0.000 C 
BRANCH  15  16
ATOM     16  C   UNL     1      57.482 -28.196   1.008  1.00  0.00    -0.000 C 
BRANCH  16  17
ATOM     17  C   UNL     1      57.184 -27.815   2.472  1.00  0.00    -0.000 C 
BRANCH  17  18
ATOM     18  C   UNL     1      58.005 -28.603   3.512  1.00  0.00    -0.000 C 
BRANCH  18  19
ATOM     19  C   UNL     1      59.439 -28.069   3.657  1.00  0.00    -0.003 C 
ATOM     20  C   UNL     1      60.461 -29.098   3.182  1.00  0.00     0.004 C 
ENDBRANCH  18  19
ENDBRANCH  17  18
ENDBRANCH  16  17
ENDBRANCH  15  16
ENDBRANCH  14  15
ENDBRANCH  13  14
ENDBRANCH  12  13
ENDBRANCH   1  12
TORSDOF 16
ENDMDL
MODEL 3
REMARK VINA RESULT:    -4.539      3.435      7.045
REMARK INTER + INTRA:         -11.057
REMARK INTER:                  -9.151
REMARK INTRA:                  -1.906
REMARK UNBOUND:                -2.273
REMARK SMILES CCCCCCCCCCCCCCCCCC(=O)[O-]
REMARK SMILES IDX 10 1 11 2 12 3 13 4 14 5 15 6 16 7 17 8 18 9 19 10 20 11
REMARK SMILES IDX 9 12 8 13 7 14 6 15 5 16 4 17 3 18 2 19 1 20
REMARK H PARENT
REMARK Flexibility Score: inf
ROOT
ATOM      1  C   UNL     1      63.654 -27.368  -1.609  1.00  0.00     0.000 C 
ENDROOT
BRANCH   1   2
ATOM      2  C   UNL     1      63.598 -26.674  -2.982  1.00  0.00     0.000 C 
BRANCH   2   3
ATOM      3  C   UNL     1      62.469 -25.636  -3.150  1.00  0.00     0.000 C 
BRANCH   3   4
ATOM      4  C   UNL     1      61.049 -26.221  -3.259  1.00  0.00     0.000 C 
BRANCH   4   5
ATOM      5  C   UNL     1      59.966 -25.256  -2.745  1.00  0.00     0.000 C 
BRANCH   5   6
ATOM      6  C   UNL     1      58.725 -25.229  -3.652  1.00  0.00     0.000 C 
BRANCH   6   7
ATOM      7  C   UNL     1      58.819 -26.229  -4.818  1.00  0.00     0.006 C 
BRANCH   7   8
ATOM      8  C   UNL     1      58.723 -25.536  -6.184  1.00  0.00     0.053 C 
BRANCH   8   9
ATOM      9  C   UNL     1      60.075 -25.161  -6.712  1.00  0.00     0.041 C 
ATOM     10  O   UNL     1      60.663 -24.136  -6.276  1.00  0.00    -0.550 OA
ATOM     11  O   UNL     1      60.669 -25.923  -7.708  1.00  0.00    -0.550 OA
ENDBRANCH   8   9
ENDBRANCH   7   8
ENDBRANCH   6   7
ENDBRANCH   5   6
ENDBRANCH   4   5
ENDBRANCH   3   4
ENDBRANCH   2   3
ENDBRANCH   1   2
BRANCH   1  12
ATOM     12  C   UNL     1      62.994 -28.759  -1.615  1.00  0.00     0.000 C 
BRANCH  12  13
ATOM     13  C   UNL     1      61.888 -28.889  -0.555  1.00  0.00    -0.000 C 
BRANCH  13  14
ATOM     14  C   UNL     1      60.536 -29.302  -1.157  1.00  0.00    -0.000 C 
BRANCH  14  15
ATOM     15  C   UNL     1      59.430 -28.315  -0.754  1.00  0.00    -0.000 C 
BRANCH  15  16
ATOM     16  C   UNL     1      58.079 -29.013  -0.508  1.00  0.00    -0.000 C 
BRANCH  16  17
ATOM     17  C   UNL     1      58.014 -29.814   0.808  1.00  0.00    -0.000 C 
BRANCH  17  18
ATOM     18  C   UNL     1      58.654 -29.100   2.016  1.00  0.00    -0.000 C 
BRANCH  18  19
ATOM     19  C   UNL     1      59.926 -29.807   2.510  1.00  0.00    -0.003 C 
ATOM     20  C   UNL     1      60.633 -28.983   3.583  1.00  0.00     0.004 C 
ENDBRANCH  18  19
ENDBRANCH  17  18
ENDBRANCH  16  17
ENDBRANCH  15  16
ENDBRANCH  14  15
ENDBRANCH  13  14
ENDBRANCH  12  13
ENDBRANCH   1  12
TORSDOF 16
ENDMDL
MODEL 4
REMARK VINA RESULT:    -4.497      3.268      6.817
REMARK INTER + INTRA:         -10.975
REMARK INTER:                  -8.608
REMARK INTRA:                  -2.367
REMARK UNBOUND:                -2.273
REMARK SMILES CCCCCCCCCCCCCCCCCC(=O)[O-]
REMARK SMILES IDX 10 1 11 2 12 3 13 4 14 5 15 6 16 7 17 8 18 9 19 10 20 11
REMARK SMILES IDX 9 12 8 13 7 14 6 15 5 16 4 17 3 18 2 19 1 20
REMARK H PARENT
REMARK Flexibility Score: inf
ROOT
ATOM      1  C   UNL     1      56.774 -27.293   1.266  1.00  0.00     0.000 C 
ENDROOT
BRANCH   1   2
ATOM      2  C   UNL     1      56.423 -27.244  -0.232  1.00  0.00     0.000 C 
BRANCH   2   3
ATOM      3  C   UNL     1      57.477 -26.569  -1.134  1.00  0.00     0.000 C 
BRANCH   3   4
ATOM      4  C   UNL     1      57.959 -27.411  -2.328  1.00  0.00     0.000 C 
BRANCH   4   5
ATOM      5  C   UNL     1      59.347 -26.986  -2.837  1.00  0.00     0.000 C 
BRANCH   5   6
ATOM      6  C   UNL     1      59.710 -25.551  -2.424  1.00  0.00     0.000 C 
BRANCH   6   7
ATOM      7  C   UNL     1      60.461 -24.787  -3.530  1.00  0.00     0.006 C 
BRANCH   7   8
ATOM      8  C   UNL     1      60.571 -25.604  -4.824  1.00  0.00     0.053 C 
BRANCH   8   9
ATOM      9  C   UNL     1      59.754 -25.004  -5.929  1.00  0.00     0.041 C 
ATOM     10  O   UNL     1      60.322 -24.455  -6.910  1.00  0.00    -0.550 OA
ATOM     11  O   UNL     1      58.368 -25.023  -5.859  1.00  0.00    -0.550 OA
ENDBRANCH   8   9
ENDBRANCH   7   8
ENDBRANCH   6   7
ENDBRANCH   5   6
ENDBRANCH   4   5
ENDBRANCH   3   4
ENDBRANCH   2   3
ENDBRANCH   1   2
BRANCH   1  12
ATOM     12  C   UNL     1      57.963 -28.220   1.572  1.00  0.00     0.000 C 
BRANCH  12  13
ATOM     13  C   UNL     1      57.783 -29.625   0.975  1.00  0.00    -0.000 C 
BRANCH  13  14
ATOM     14  C   UNL     1      59.007 -30.091   0.174  1.00  0.00    -0.000 C 
BRANCH  14  15
ATOM     15  C   UNL     1      60.206 -29.160   0.409  1.00  0.00    -0.000 C 
BRANCH  15  16
ATOM     16  C   UNL     1      61.235 -29.225  -0.735  1.00  0.00    -0.000 C 
BRANCH  16  17
ATOM     17  C   UNL     1      62.683 -28.919  -0.299  1.00  0.00    -0.000 C 
BRANCH  17  18
ATOM     18  C   UNL     1      63.597 -28.427  -1.440  1.00  0.00    -0.000 C 
BRANCH  18  19
ATOM     19  C   UNL     1      62.871 -27.480  -2.408  1.00  0.00    -0.003 C 
ATOM     20  C   UNL     1      63.773 -26.320  -2.823  1.00  0.00     0.004 C 
ENDBRANCH  18  19
ENDBRANCH  17  18
ENDBRANCH  16  17
ENDBRANCH  15  16
ENDBRANCH  14  15
ENDBRANCH  13  14
ENDBRANCH  12  13
ENDBRANCH   1  12
TORSDOF 16
ENDMDL
MODEL 5
REMARK VINA RESULT:    -4.493      3.268      6.726
REMARK INTER + INTRA:         -10.968
REMARK INTER:                  -8.512
REMARK INTRA:                  -2.456
REMARK UNBOUND:                -2.273
REMARK SMILES CCCCCCCCCCCCCCCCCC(=O)[O-]
REMARK SMILES IDX 10 1 11 2 12 3 13 4 14 5 15 6 16 7 17 8 18 9 19 10 20 11
REMARK SMILES IDX 9 12 8 13 7 14 6 15 5 16 4 17 3 18 2 19 1 20
REMARK H PARENT
REMARK Flexibility Score: inf
ROOT
ATOM      1  C   UNL     1      60.829 -25.627  -3.341  1.00  0.00     0.000 C 
ENDROOT
BRANCH   1   2
ATOM      2  C   UNL     1      59.812 -26.305  -2.405  1.00  0.00     0.000 C 
BRANCH   2   3
ATOM      3  C   UNL     1      59.131 -27.566  -2.975  1.00  0.00     0.000 C 
BRANCH   3   4
ATOM      4  C   UNL     1      57.615 -27.664  -2.728  1.00  0.00     0.000 C 
BRANCH   4   5
ATOM      5  C   UNL     1      57.164 -26.899  -1.472  1.00  0.00     0.000 C 
BRANCH   5   6
ATOM      6  C   UNL     1      56.205 -25.743  -1.800  1.00  0.00     0.000 C 
BRANCH   6   7
ATOM      7  C   UNL     1      56.097 -25.472  -3.311  1.00  0.00     0.006 C 
BRANCH   7   8
ATOM      8  C   UNL     1      56.697 -24.114  -3.699  1.00  0.00     0.053 C 
BRANCH   8   9
ATOM      9  C   UNL     1      57.677 -24.242  -4.826  1.00  0.00     0.041 C 
ATOM     10  O   UNL     1      58.341 -23.242  -5.205  1.00  0.00    -0.550 OA
ATOM     11  O   UNL     1      57.830 -25.458  -5.479  1.00  0.00    -0.550 OA
ENDBRANCH   8   9
ENDBRANCH   7   8
ENDBRANCH   6   7
ENDBRANCH   5   6
ENDBRANCH   4   5
ENDBRANCH   3   4
ENDBRANCH   2   3
ENDBRANCH   1   2
BRANCH   1  12
ATOM     12  C   UNL     1      62.283 -25.784  -2.860  1.00  0.00     0.000 C 
BRANCH  12  13
ATOM     13  C   UNL     1      62.707 -27.257  -2.739  1.00  0.00    -0.000 C 
BRANCH  13  14
ATOM     14  C   UNL     1      63.739 -27.487  -1.625  1.00  0.00    -0.000 C 
BRANCH  14  15
ATOM     15  C   UNL     1      63.292 -28.619  -0.686  1.00  0.00    -0.000 C 
BRANCH  15  16
ATOM     16  C   UNL     1      61.816 -29.007  -0.894  1.00  0.00    -0.000 C 
BRANCH  16  17
ATOM     17  C   UNL     1      61.040 -29.259   0.415  1.00  0.00    -0.000 C 
BRANCH  17  18
ATOM     18  C   UNL     1      59.534 -28.939   0.331  1.00  0.00    -0.000 C 
BRANCH  18  19
ATOM     19  C   UNL     1      58.669 -30.206   0.240  1.00  0.00    -0.003 C 
ATOM     20  C   UNL     1      57.249 -29.939   0.734  1.00  0.00     0.004 C 
ENDBRANCH  18  19
ENDBRANCH  17  18
ENDBRANCH  16  17
ENDBRANCH  15  16
ENDBRANCH  14  15
ENDBRANCH  13  14
ENDBRANCH  12  13
ENDBRANCH   1  12
TORSDOF 16
ENDMDL
MODEL 6
REMARK VINA RESULT:    -4.417      3.199      6.149
REMARK INTER + INTRA:         -10.821
REMARK INTER:                  -8.701
REMARK INTRA:                  -2.120
REMARK UNBOUND:                -2.273
REMARK SMILES CCCCCCCCCCCCCCCCCC(=O)[O-]
REMARK SMILES IDX 10 1 11 2 12 3 13 4 14 5 15 6 16 7 17 8 18 9 19 10 20 11
REMARK SMILES IDX 9 12 8 13 7 14 6 15 5 16 4 17 3 18 2 19 1 20
REMARK H PARENT
REMARK Flexibility Score: inf
ROOT
ATOM      1  C   UNL     1      61.909 -28.939  -0.479  1.00  0.00     0.000 C 
ENDROOT
BRANCH   1   2
ATOM      2  C   UNL     1      62.964 -28.779  -1.589  1.00  0.00     0.000 C 
BRANCH   2   3
ATOM      3  C   UNL     1      63.687 -27.417  -1.618  1.00  0.00     0.000 C 
BRANCH   3   4
ATOM      4  C   UNL     1      63.544 -26.623  -2.929  1.00  0.00     0.000 C 
BRANCH   4   5
ATOM      5  C   UNL     1      62.399 -25.598  -2.884  1.00  0.00     0.000 C 
BRANCH   5   6
ATOM      6  C   UNL     1      61.390 -25.792  -4.028  1.00  0.00     0.000 C 
BRANCH   6   7
ATOM      7  C   UNL     1      60.013 -26.264  -3.530  1.00  0.00     0.006 C 
BRANCH   7   8
ATOM      8  C   UNL     1      59.040 -25.095  -3.323  1.00  0.00     0.053 C 
BRANCH   8   9
ATOM      9  C   UNL     1      58.640 -24.470  -4.625  1.00  0.00     0.041 C 
ATOM     10  O   UNL     1      57.993 -25.136  -5.475  1.00  0.00    -0.550 OA
ATOM     11  O   UNL     1      59.011 -23.163  -4.913  1.00  0.00    -0.550 OA
ENDBRANCH   8   9
ENDBRANCH   7   8
ENDBRANCH   6   7
ENDBRANCH   5   6
ENDBRANCH   4   5
ENDBRANCH   3   4
ENDBRANCH   2   3
ENDBRANCH   1   2
BRANCH   1  12
ATOM     12  C   UNL     1      60.466 -28.863  -1.011  1.00  0.00     0.000 C 
BRANCH  12  13
ATOM     13  C   UNL     1      59.476 -29.651  -0.139  1.00  0.00    -0.000 C 
BRANCH  13  14
ATOM     14  C   UNL     1      59.766 -29.511   1.363  1.00  0.00    -0.000 C 
BRANCH  14  15
ATOM     15  C   UNL     1      58.647 -28.730   2.069  1.00  0.00    -0.000 C 
BRANCH  15  16
ATOM     16  C   UNL     1      57.247 -29.290   1.751  1.00  0.00    -0.000 C 
BRANCH  16  17
ATOM     17  C   UNL     1      56.335 -28.310   0.986  1.00  0.00    -0.000 C 
BRANCH  17  18
ATOM     18  C   UNL     1      56.868 -26.864   0.925  1.00  0.00    -0.000 C 
BRANCH  18  19
ATOM     19  C   UNL     1      57.032 -26.358  -0.517  1.00  0.00    -0.003 C 
ATOM     20  C   UNL     1      56.757 -27.471  -1.525  1.00  0.00     0.004 C 
ENDBRANCH  18  19
ENDBRANCH  17  18
ENDBRANCH  16  17
ENDBRANCH  15  16
ENDBRANCH  14  15
ENDBRANCH  13  14
ENDBRANCH  12  13
ENDBRANCH   1  12
TORSDOF 16
ENDMDL
MODEL 7
REMARK VINA RESULT:    -4.396      1.705      2.277
REMARK INTER + INTRA:         -10.781
REMARK INTER:                  -8.691
REMARK INTRA:                  -2.091
REMARK UNBOUND:                -2.273
REMARK SMILES CCCCCCCCCCCCCCCCCC(=O)[O-]
REMARK SMILES IDX 10 1 11 2 12 3 13 4 14 5 15 6 16 7 17 8 18 9 19 10 20 11
REMARK SMILES IDX 9 12 8 13 7 14 6 15 5 16 4 17 3 18 2 19 1 20
REMARK H PARENT
REMARK Flexibility Score: inf
ROOT
ATOM      1  C   UNL     1      63.075 -26.242  -2.410  1.00  0.00     0.000 C 
ENDROOT
BRANCH   1   2
ATOM      2  C   UNL     1      63.380 -27.751  -2.404  1.00  0.00     0.000 C 
BRANCH   2   3
ATOM      3  C   UNL     1      63.078 -28.478  -1.078  1.00  0.00     0.000 C 
BRANCH   3   4
ATOM      4  C   UNL     1      61.606 -28.873  -0.863  1.00  0.00     0.000 C 
BRANCH   4   5
ATOM      5  C   UNL     1      61.273 -29.159   0.611  1.00  0.00     0.000 C 
BRANCH   5   6
ATOM      6  C   UNL     1      59.760 -29.253   0.865  1.00  0.00     0.000 C 
BRANCH   6   7
ATOM      7  C   UNL     1      58.933 -29.137  -0.428  1.00  0.00     0.006 C 
BRANCH   7   8
ATOM      8  C   UNL     1      57.790 -28.121  -0.294  1.00  0.00     0.053 C 
BRANCH   8   9
ATOM      9  C   UNL     1      56.541 -28.599  -0.970  1.00  0.00     0.041 C 
ATOM     10  O   UNL     1      56.559 -28.906  -2.191  1.00  0.00    -0.550 OA
ATOM     11  O   UNL     1      55.350 -28.671  -0.260  1.00  0.00    -0.550 OA
ENDBRANCH   8   9
ENDBRANCH   7   8
ENDBRANCH   6   7
ENDBRANCH   5   6
ENDBRANCH   4   5
ENDBRANCH   3   4
ENDBRANCH   2   3
ENDBRANCH   1   2
BRANCH   1  12
ATOM     12  C   UNL     1      61.970 -25.860  -3.412  1.00  0.00     0.000 C 
BRANCH  12  13
ATOM     13  C   UNL     1      60.579 -25.805  -2.761  1.00  0.00    -0.000 C 
BRANCH  13  14
ATOM     14  C   UNL     1      59.634 -26.896  -3.288  1.00  0.00    -0.000 C 
BRANCH  14  15
ATOM     15  C   UNL     1      58.348 -26.280  -3.861  1.00  0.00    -0.000 C 
BRANCH  15  16
ATOM     16  C   UNL     1      58.459 -25.982  -5.369  1.00  0.00    -0.000 C 
BRANCH  16  17
ATOM     17  C   UNL     1      58.703 -24.496  -5.701  1.00  0.00    -0.000 C 
BRANCH  17  18
ATOM     18  C   UNL     1      60.138 -24.178  -6.167  1.00  0.00    -0.000 C 
BRANCH  18  19
ATOM     19  C   UNL     1      60.813 -25.378  -6.850  1.00  0.00    -0.003 C 
ATOM     20  C   UNL     1      60.548 -25.378  -8.353  1.00  0.00     0.004 C 
ENDBRANCH  18  19
ENDBRANCH  17  18
ENDBRANCH  16  17
ENDBRANCH  15  16
ENDBRANCH  14  15
ENDBRANCH  13  14
ENDBRANCH  12  13
ENDBRANCH   1  12
TORSDOF 16
ENDMDL
MODEL 8
REMARK VINA RESULT:    -4.391      2.017      6.167
REMARK INTER + INTRA:         -10.770
REMARK INTER:                  -8.843
REMARK INTRA:                  -1.928
REMARK UNBOUND:                -2.273
REMARK SMILES CCCCCCCCCCCCCCCCCC(=O)[O-]
REMARK SMILES IDX 10 1 11 2 12 3 13 4 14 5 15 6 16 7 17 8 18 9 19 10 20 11
REMARK SMILES IDX 9 12 8 13 7 14 6 15 5 16 4 17 3 18 2 19 1 20
REMARK H PARENT
REMARK Flexibility Score: inf
ROOT
ATOM      1  C   UNL     1      63.620 -28.458  -1.264  1.00  0.00     0.000 C 
ENDROOT
BRANCH   1   2
ATOM      2  C   UNL     1      62.843 -27.788  -2.412  1.00  0.00     0.000 C 
BRANCH   2   3
ATOM      3  C   UNL     1      63.429 -26.452  -2.911  1.00  0.00     0.000 C 
BRANCH   3   4
ATOM      4  C   UNL     1      62.415 -25.487  -3.552  1.00  0.00     0.000 C 
BRANCH   4   5
ATOM      5  C   UNL     1      60.965 -25.774  -3.125  1.00  0.00     0.000 C 
BRANCH   5   6
ATOM      6  C   UNL     1      59.976 -25.678  -4.298  1.00  0.00     0.000 C 
BRANCH   6   7
ATOM      7  C   UNL     1      58.786 -26.643  -4.151  1.00  0.00     0.006 C 
BRANCH   7   8
ATOM      8  C   UNL     1      58.894 -27.506  -2.886  1.00  0.00     0.053 C 
BRANCH   8   9
ATOM      9  C   UNL     1      57.703 -27.331  -1.993  1.00  0.00     0.041 C 
ATOM     10  O   UNL     1      57.713 -26.454  -1.089  1.00  0.00    -0.550 OA
ATOM     11  O   UNL     1      56.598 -28.159  -2.136  1.00  0.00    -0.550 OA
ENDBRANCH   8   9
ENDBRANCH   7   8
ENDBRANCH   6   7
ENDBRANCH   5   6
ENDBRANCH   4   5
ENDBRANCH   3   4
ENDBRANCH   2   3
ENDBRANCH   1   2
BRANCH   1  12
ATOM     12  C   UNL     1      62.697 -29.074  -0.197  1.00  0.00     0.000 C 
BRANCH  12  13
ATOM     13  C   UNL     1      61.245 -29.213  -0.683  1.00  0.00    -0.000 C 
BRANCH  13  14
ATOM     14  C   UNL     1      60.237 -29.294   0.473  1.00  0.00    -0.000 C 
BRANCH  14  15
ATOM     15  C   UNL     1      58.943 -29.991   0.027  1.00  0.00    -0.000 C 
BRANCH  15  16
ATOM     16  C   UNL     1      57.773 -29.735   0.997  1.00  0.00    -0.000 C 
BRANCH  16  17
ATOM     17  C   UNL     1      57.881 -28.410   1.778  1.00  0.00    -0.000 C 
BRANCH  17  18
ATOM     18  C   UNL     1      58.082 -28.585   3.297  1.00  0.00    -0.000 C 
BRANCH  18  19
ATOM     19  C   UNL     1      59.332 -27.853   3.812  1.00  0.00    -0.003 C 
ATOM     20  C   UNL     1      60.467 -28.834   4.096  1.00  0.00     0.004 C 
ENDBRANCH  18  19
ENDBRANCH  17  18
ENDBRANCH  16  17
ENDBRANCH  15  16
ENDBRANCH  14  15
ENDBRANCH  13  14
ENDBRANCH  12  13
ENDBRANCH   1  12
TORSDOF 16
ENDMDL
MODEL 9
REMARK VINA RESULT:    -4.382      2.259      4.261
REMARK INTER + INTRA:         -10.754
REMARK INTER:                  -8.729
REMARK INTRA:                  -2.025
REMARK UNBOUND:                -2.273
REMARK SMILES CCCCCCCCCCCCCCCCCC(=O)[O-]
REMARK SMILES IDX 10 1 11 2 12 3 13 4 14 5 15 6 16 7 17 8 18 9 19 10 20 11
REMARK SMILES IDX 9 12 8 13 7 14 6 15 5 16 4 17 3 18 2 19 1 20
REMARK H PARENT
REMARK Flexibility Score: inf
ROOT
ATOM      1  C   UNL     1      62.569 -28.895  -0.666  1.00  0.00     0.000 C 
ENDROOT
BRANCH   1   2
ATOM      2  C   UNL     1      61.151 -28.923  -1.264  1.00  0.00     0.000 C 
BRANCH   2   3
ATOM      3  C   UNL     1      60.027 -29.294  -0.275  1.00  0.00     0.000 C 
BRANCH   3   4
ATOM      4  C   UNL     1      60.417 -29.247   1.213  1.00  0.00     0.000 C 
BRANCH   4   5
ATOM      5  C   UNL     1      59.198 -29.271   2.150  1.00  0.00     0.000 C 
BRANCH   5   6
ATOM      6  C   UNL     1      57.865 -29.238   1.384  1.00  0.00     0.000 C 
BRANCH   6   7
ATOM      7  C   UNL     1      56.755 -28.504   2.157  1.00  0.00     0.006 C 
BRANCH   7   8
ATOM      8  C   UNL     1      55.766 -29.478   2.813  1.00  0.00     0.053 C 
BRANCH   8   9
ATOM      9  C   UNL     1      54.941 -30.202   1.792  1.00  0.00     0.041 C 
ATOM     10  O   UNL     1      54.453 -29.578   0.814  1.00  0.00    -0.550 OA
ATOM     11  O   UNL     1      54.685 -31.559   1.941  1.00  0.00    -0.550 OA
ENDBRANCH   8   9
ENDBRANCH   7   8
ENDBRANCH   6   7
ENDBRANCH   5   6
ENDBRANCH   4   5
ENDBRANCH   3   4
ENDBRANCH   2   3
ENDBRANCH   1   2
BRANCH   1  12
ATOM     12  C   UNL     1      63.443 -27.771  -1.251  1.00  0.00     0.000 C 
BRANCH  12  13
ATOM     13  C   UNL     1      62.988 -27.343  -2.656  1.00  0.00    -0.000 C 
BRANCH  13  14
ATOM     14  C   UNL     1      62.689 -25.840  -2.750  1.00  0.00    -0.000 C 
BRANCH  14  15
ATOM     15  C   UNL     1      61.606 -25.559  -3.804  1.00  0.00    -0.000 C 
BRANCH  15  16
ATOM     16  C   UNL     1      60.269 -26.250  -3.472  1.00  0.00    -0.000 C 
BRANCH  16  17
ATOM     17  C   UNL     1      59.449 -25.541  -2.375  1.00  0.00    -0.000 C 
BRANCH  17  18
ATOM     18  C   UNL     1      58.331 -26.406  -1.761  1.00  0.00    -0.000 C 
BRANCH  18  19
ATOM     19  C   UNL     1      57.885 -27.541  -2.697  1.00  0.00    -0.003 C 
ATOM     20  C   UNL     1      56.874 -28.456  -2.011  1.00  0.00     0.004 C 
ENDBRANCH  18  19
ENDBRANCH  17  18
ENDBRANCH  16  17
ENDBRANCH  15  16
ENDBRANCH  14  15
ENDBRANCH  13  14
ENDBRANCH  12  13
ENDBRANCH   1  12
TORSDOF 16
ENDMDL
