MODEL 1
REMARK VINA RESULT:    -4.908      0.000      0.000
REMARK INTER + INTRA:          -6.029
REMARK INTER:                  -5.912
REMARK INTRA:                  -0.117
REMARK UNBOUND:                -0.117
REMARK SMILES NC(=O)C[C@H]([NH3+])C(=O)[O-]
REMARK SMILES IDX 4 1 5 2 6 3 7 7 8 8 9 9 2 10 3 11 1 12
REMARK H PARENT 6 4 6 5 6 6 1 13 1 14
REMARK Flexibility Score: inf
ROOT
ATOM      1  C   UNL     1      21.964  70.447  -1.220  1.00  0.00     0.171 C 
ENDROOT
BRANCH   1   2
ATOM      2  C   UNL     1      22.074  69.705   0.127  1.00  0.00     0.237 C 
BRANCH   2   3
ATOM      3  N   UNL     1      23.367  69.018   0.230  1.00  0.00    -0.350 N 
ATOM      4  H   UNL     1      23.476  68.610   1.187  1.00  0.00     0.345 HD
ATOM      5  H   UNL     1      23.408  68.236  -0.464  1.00  0.00     0.345 HD
ATOM      6  H   UNL     1      24.155  69.682   0.049  1.00  0.00     0.345 HD
ENDBRANCH   2   3
BRANCH   2   7
ATOM      7  C   UNL     1      20.948  68.716   0.290  1.00  0.00     0.100 C 
ATOM      8  O   UNL     1      20.086  68.584  -0.617  1.00  0.00    -0.544 OA
ATOM      9  O   UNL     1      20.863  67.934   1.437  1.00  0.00    -0.544 OA
ENDBRANCH   2   7
ENDBRANCH   1   2
BRANCH   1  10
ATOM     10  C   UNL     1      21.666  71.907  -1.024  1.00  0.00     0.223 C 
ATOM     11  O   UNL     1      21.205  72.308   0.077  1.00  0.00    -0.275 OA
ATOM     12  N   UNL     1      21.863  72.837  -2.090  1.00  0.00    -0.369 N 
ATOM     13  H   UNL     1      22.226  72.518  -3.015  1.00  0.00     0.159 HD
ATOM     14  H   UNL     1      21.640  73.847  -1.954  1.00  0.00     0.159 HD
ENDBRANCH   1  10
TORSDOF 4
ENDMDL
MODEL 2
REMARK VINA RESULT:    -4.817      2.884      4.766
REMARK INTER + INTRA:          -5.920
REMARK INTER:                  -5.811
REMARK INTRA:                  -0.110
REMARK UNBOUND:                -0.117
REMARK SMILES NC(=O)C[C@H]([NH3+])C(=O)[O-]
REMARK SMILES IDX 4 1 5 2 6 3 7 7 8 8 9 9 2 10 3 11 1 12
REMARK H PARENT 6 4 6 5 6 6 1 13 1 14
REMARK Flexibility Score: inf
ROOT
ATOM      1  C   UNL     1      19.331  67.839   0.702  1.00  0.00     0.171 C 
ENDROOT
BRANCH   1   2
ATOM      2  C   UNL     1      19.547  69.349   0.927  1.00  0.00     0.237 C 
BRANCH   2   3
ATOM      3  N   UNL     1      18.265  70.063   0.870  1.00  0.00    -0.350 N 
ATOM      4  H   UNL     1      17.830  69.935  -0.072  1.00  0.00     0.345 HD
ATOM      5  H   UNL     1      17.611  69.675   1.588  1.00  0.00     0.345 HD
ATOM      6  H   UNL     1      18.403  71.085   1.046  1.00  0.00     0.345 HD
ENDBRANCH   2   3
BRANCH   2   7
ATOM      7  C   UNL     1      20.499  69.915  -0.095  1.00  0.00     0.100 C 
ATOM      8  O   UNL     1      20.850  69.221  -1.085  1.00  0.00    -0.544 OA
ATOM      9  O   UNL     1      20.984  71.211   0.041  1.00  0.00    -0.544 OA
ENDBRANCH   2   7
ENDBRANCH   1   2
BRANCH   1  10
ATOM     10  C   UNL     1      19.982  67.021   1.781  1.00  0.00     0.223 C 
ATOM     11  O   UNL     1      20.911  67.522   2.470  1.00  0.00    -0.275 OA
ATOM     12  N   UNL     1      19.584  65.668   2.006  1.00  0.00    -0.369 N 
ATOM     13  H   UNL     1      18.831  65.231   1.430  1.00  0.00     0.159 HD
ATOM     14  H   UNL     1      20.050  65.099   2.746  1.00  0.00     0.159 HD
ENDBRANCH   1  10
TORSDOF 4
ENDMDL
MODEL 3
REMARK VINA RESULT:    -4.766      2.239      2.390
REMARK INTER + INTRA:          -5.858
REMARK INTER:                  -5.626
REMARK INTRA:                  -0.232
REMARK UNBOUND:                -0.117
REMARK SMILES NC(=O)C[C@H]([NH3+])C(=O)[O-]
REMARK SMILES IDX 4 1 5 2 6 3 7 7 8 8 9 9 2 10 3 11 1 12
REMARK H PARENT 6 4 6 5 6 6 1 13 1 14
REMARK Flexibility Score: inf
ROOT
ATOM      1  C   UNL     1      20.926  70.309   0.565  1.00  0.00     0.171 C 
ENDROOT
BRANCH   1   2
ATOM      2  C   UNL     1      19.482  69.791   0.416  1.00  0.00     0.237 C 
BRANCH   2   3
ATOM      3  N   UNL     1      18.699  70.104   1.618  1.00  0.00    -0.350 N 
ATOM      4  H   UNL     1      19.341  70.380   2.397  1.00  0.00     0.345 HD
ATOM      5  H   UNL     1      18.058  70.907   1.424  1.00  0.00     0.345 HD
ATOM      6  H   UNL     1      18.134  69.276   1.918  1.00  0.00     0.345 HD
ENDBRANCH   2   3
BRANCH   2   7
ATOM      7  C   UNL     1      19.466  68.305   0.162  1.00  0.00     0.100 C 
ATOM      8  O   UNL     1      19.451  67.865  -1.017  1.00  0.00    -0.544 OA
ATOM      9  O   UNL     1      19.480  67.411   1.228  1.00  0.00    -0.544 OA
ENDBRANCH   2   7
ENDBRANCH   1   2
BRANCH   1  10
ATOM     10  C   UNL     1      21.432  70.910  -0.715  1.00  0.00     0.223 C 
ATOM     11  O   UNL     1      21.618  72.154  -0.791  1.00  0.00    -0.275 OA
ATOM     12  N   UNL     1      21.668  70.089  -1.860  1.00  0.00    -0.369 N 
ATOM     13  H   UNL     1      21.500  69.060  -1.821  1.00  0.00     0.159 HD
ATOM     14  H   UNL     1      22.005  70.514  -2.752  1.00  0.00     0.159 HD
ENDBRANCH   1  10
TORSDOF 4
ENDMDL
MODEL 4
REMARK VINA RESULT:    -4.709      1.951      3.748
REMARK INTER + INTRA:          -5.790
REMARK INTER:                  -5.576
REMARK INTRA:                  -0.214
REMARK UNBOUND:                -0.117
REMARK SMILES NC(=O)C[C@H]([NH3+])C(=O)[O-]
REMARK SMILES IDX 4 1 5 2 6 3 7 7 8 8 9 9 2 10 3 11 1 12
REMARK H PARENT 6 4 6 5 6 6 1 13 1 14
REMARK Flexibility Score: inf
ROOT
ATOM      1  C   UNL     1      21.041  69.044   0.227  1.00  0.00     0.171 C 
ENDROOT
BRANCH   1   2
ATOM      2  C   UNL     1      21.621  69.824  -0.969  1.00  0.00     0.237 C 
BRANCH   2   3
ATOM      3  N   UNL     1      23.017  69.437  -1.206  1.00  0.00    -0.350 N 
ATOM      4  H   UNL     1      23.398  69.967  -2.024  1.00  0.00     0.345 HD
ATOM      5  H   UNL     1      23.597  69.670  -0.367  1.00  0.00     0.345 HD
ATOM      6  H   UNL     1      23.089  68.412  -1.401  1.00  0.00     0.345 HD
ENDBRANCH   2   3
BRANCH   2   7
ATOM      7  C   UNL     1      21.530  71.311  -0.737  1.00  0.00     0.100 C 
ATOM      8  O   UNL     1      21.120  71.755   0.368  1.00  0.00    -0.544 OA
ATOM      9  O   UNL     1      21.909  72.201  -1.736  1.00  0.00    -0.544 OA
ENDBRANCH   2   7
ENDBRANCH   1   2
BRANCH   1  10
ATOM     10  C   UNL     1      19.568  68.798   0.065  1.00  0.00     0.223 C 
ATOM     11  O   UNL     1      19.169  67.832  -0.639  1.00  0.00    -0.275 OA
ATOM     12  N   UNL     1      18.616  69.673   0.671  1.00  0.00    -0.369 N 
ATOM     13  H   UNL     1      18.929  70.489   1.242  1.00  0.00     0.159 HD
ATOM     14  H   UNL     1      17.593  69.507   0.544  1.00  0.00     0.159 HD
ENDBRANCH   1  10
TORSDOF 4
ENDMDL
MODEL 5
REMARK VINA RESULT:    -4.616      2.010      3.440
REMARK INTER + INTRA:          -5.677
REMARK INTER:                  -5.484
REMARK INTRA:                  -0.193
REMARK UNBOUND:                -0.117
REMARK SMILES NC(=O)C[C@H]([NH3+])C(=O)[O-]
REMARK SMILES IDX 4 1 5 2 6 3 7 7 8 8 9 9 2 10 3 11 1 12
REMARK H PARENT 6 4 6 5 6 6 1 13 1 14
REMARK Flexibility Score: inf
ROOT
ATOM      1  C   UNL     1      21.003  68.962   1.199  1.00  0.00     0.171 C 
ENDROOT
BRANCH   1   2
ATOM      2  C   UNL     1      22.057  68.967   0.075  1.00  0.00     0.237 C 
BRANCH   2   3
ATOM      3  N   UNL     1      23.400  69.174   0.632  1.00  0.00    -0.350 N 
ATOM      4  H   UNL     1      23.950  69.806   0.005  1.00  0.00     0.345 HD
ATOM      5  H   UNL     1      23.327  69.629   1.571  1.00  0.00     0.345 HD
ATOM      6  H   UNL     1      23.906  68.263   0.728  1.00  0.00     0.345 HD
ENDBRANCH   2   3
BRANCH   2   7
ATOM      7  C   UNL     1      21.752  70.033  -0.946  1.00  0.00     0.100 C 
ATOM      8  O   UNL     1      21.536  69.717  -2.146  1.00  0.00    -0.544 OA
ATOM      9  O   UNL     1      21.694  71.370  -0.568  1.00  0.00    -0.544 OA
ENDBRANCH   2   7
ENDBRANCH   1   2
BRANCH   1  10
ATOM     10  C   UNL     1      19.620  68.731   0.659  1.00  0.00     0.223 C 
ATOM     11  O   UNL     1      19.357  67.659   0.053  1.00  0.00    -0.275 OA
ATOM     12  N   UNL     1      18.612  69.734   0.793  1.00  0.00    -0.369 N 
ATOM     13  H   UNL     1      18.819  70.637   1.275  1.00  0.00     0.159 HD
ATOM     14  H   UNL     1      17.657  69.576   0.403  1.00  0.00     0.159 HD
ENDBRANCH   1  10
TORSDOF 4
ENDMDL
MODEL 6
REMARK VINA RESULT:    -4.542      2.604      3.626
REMARK INTER + INTRA:          -5.589
REMARK INTER:                  -5.320
REMARK INTRA:                  -0.269
REMARK UNBOUND:                -0.117
REMARK SMILES NC(=O)C[C@H]([NH3+])C(=O)[O-]
REMARK SMILES IDX 4 1 5 2 6 3 7 7 8 8 9 9 2 10 3 11 1 12
REMARK H PARENT 6 4 6 5 6 6 1 13 1 14
REMARK Flexibility Score: inf
ROOT
ATOM      1  C   UNL     1      20.353  68.587   1.171  1.00  0.00     0.171 C 
ENDROOT
BRANCH   1   2
ATOM      2  C   UNL     1      21.362  69.713   0.870  1.00  0.00     0.237 C 
BRANCH   2   3
ATOM      3  N   UNL     1      20.737  70.754   0.045  1.00  0.00    -0.350 N 
ATOM      4  H   UNL     1      21.464  71.222  -0.545  1.00  0.00     0.345 HD
ATOM      5  H   UNL     1      20.028  70.323  -0.592  1.00  0.00     0.345 HD
ATOM      6  H   UNL     1      20.271  71.473   0.646  1.00  0.00     0.345 HD
ENDBRANCH   2   3
BRANCH   2   7
ATOM      7  C   UNL     1      22.585  69.169   0.177  1.00  0.00     0.100 C 
ATOM      8  O   UNL     1      22.767  69.389  -1.049  1.00  0.00    -0.544 OA
ATOM      9  O   UNL     1      23.526  68.433   0.889  1.00  0.00    -0.544 OA
ENDBRANCH   2   7
ENDBRANCH   1   2
BRANCH   1  10
ATOM     10  C   UNL     1      19.306  68.482   0.098  1.00  0.00     0.223 C 
ATOM     11  O   UNL     1      19.618  68.036  -1.038  1.00  0.00    -0.275 OA
ATOM     12  N   UNL     1      17.969  68.921   0.344  1.00  0.00    -0.369 N 
ATOM     13  H   UNL     1      17.699  69.311   1.273  1.00  0.00     0.159 HD
ATOM     14  H   UNL     1      17.249  68.860  -0.409  1.00  0.00     0.159 HD
ENDBRANCH   1  10
TORSDOF 4
ENDMDL
MODEL 7
REMARK VINA RESULT:    -4.510      1.926      2.335
REMARK INTER + INTRA:          -5.550
REMARK INTER:                  -5.389
REMARK INTRA:                  -0.161
REMARK UNBOUND:                -0.117
REMARK SMILES NC(=O)C[C@H]([NH3+])C(=O)[O-]
REMARK SMILES IDX 4 1 5 2 6 3 7 7 8 8 9 9 2 10 3 11 1 12
REMARK H PARENT 6 4 6 5 6 6 1 13 1 14
REMARK Flexibility Score: inf
ROOT
ATOM      1  C   UNL     1      21.937  68.980   0.350  1.00  0.00     0.171 C 
ENDROOT
BRANCH   1   2
ATOM      2  C   UNL     1      20.657  68.833   1.197  1.00  0.00     0.237 C 
BRANCH   2   3
ATOM      3  N   UNL     1      20.728  67.623   2.027  1.00  0.00    -0.350 N 
ATOM      4  H   UNL     1      21.657  67.160   1.899  1.00  0.00     0.345 HD
ATOM      5  H   UNL     1      20.626  67.879   3.036  1.00  0.00     0.345 HD
ATOM      6  H   UNL     1      19.972  66.949   1.764  1.00  0.00     0.345 HD
ENDBRANCH   2   3
BRANCH   2   7
ATOM      7  C   UNL     1      19.432  68.786   0.320  1.00  0.00     0.100 C 
ATOM      8  O   UNL     1      18.524  69.647   0.455  1.00  0.00    -0.544 OA
ATOM      9  O   UNL     1      19.304  67.800  -0.653  1.00  0.00    -0.544 OA
ENDBRANCH   2   7
ENDBRANCH   1   2
BRANCH   1  10
ATOM     10  C   UNL     1      21.804  70.078  -0.666  1.00  0.00     0.223 C 
ATOM     11  O   UNL     1      21.823  71.281  -0.293  1.00  0.00    -0.275 OA
ATOM     12  N   UNL     1      21.616  69.768  -2.048  1.00  0.00    -0.369 N 
ATOM     13  H   UNL     1      21.578  68.777  -2.372  1.00  0.00     0.159 HD
ATOM     14  H   UNL     1      21.509  70.535  -2.749  1.00  0.00     0.159 HD
ENDBRANCH   1  10
TORSDOF 4
ENDMDL
MODEL 8
REMARK VINA RESULT:    -4.410      1.930      2.257
REMARK INTER + INTRA:          -5.430
REMARK INTER:                  -4.937
REMARK INTRA:                  -0.493
REMARK UNBOUND:                -0.117
REMARK SMILES NC(=O)C[C@H]([NH3+])C(=O)[O-]
REMARK SMILES IDX 4 1 5 2 6 3 7 7 8 8 9 9 2 10 3 11 1 12
REMARK H PARENT 6 4 6 5 6 6 1 13 1 14
REMARK Flexibility Score: inf
ROOT
ATOM      1  C   UNL     1      22.198  69.793   0.263  1.00  0.00     0.171 C 
ENDROOT
BRANCH   1   2
ATOM      2  C   UNL     1      21.183  68.634   0.293  1.00  0.00     0.237 C 
BRANCH   2   3
ATOM      3  N   UNL     1      20.264  68.727  -0.849  1.00  0.00    -0.350 N 
ATOM      4  H   UNL     1      19.425  69.292  -0.583  1.00  0.00     0.345 HD
ATOM      5  H   UNL     1      20.740  69.204  -1.648  1.00  0.00     0.345 HD
ATOM      6  H   UNL     1      19.953  67.775  -1.152  1.00  0.00     0.345 HD
ENDBRANCH   2   3
BRANCH   2   7
ATOM      7  C   UNL     1      20.403  68.633   1.583  1.00  0.00     0.100 C 
ATOM      8  O   UNL     1      20.592  67.726   2.436  1.00  0.00    -0.544 OA
ATOM      9  O   UNL     1      19.480  69.639   1.846  1.00  0.00    -0.544 OA
ENDBRANCH   2   7
ENDBRANCH   1   2
BRANCH   1  10
ATOM     10  C   UNL     1      21.668  70.972  -0.503  1.00  0.00     0.223 C 
ATOM     11  O   UNL     1      21.850  71.040  -1.748  1.00  0.00    -0.275 OA
ATOM     12  N   UNL     1      20.994  72.034   0.173  1.00  0.00    -0.369 N 
ATOM     13  H   UNL     1      20.852  72.003   1.206  1.00  0.00     0.159 HD
ATOM     14  H   UNL     1      20.641  72.858  -0.362  1.00  0.00     0.159 HD
ENDBRANCH   1  10
TORSDOF 4
ENDMDL
MODEL 9
REMARK VINA RESULT:    -4.391      2.819      3.252
REMARK INTER + INTRA:          -5.407
REMARK INTER:                  -5.088
REMARK INTRA:                  -0.318
REMARK UNBOUND:                -0.117
REMARK SMILES NC(=O)C[C@H]([NH3+])C(=O)[O-]
REMARK SMILES IDX 4 1 5 2 6 3 7 7 8 8 9 9 2 10 3 11 1 12
REMARK H PARENT 6 4 6 5 6 6 1 13 1 14
REMARK Flexibility Score: inf
ROOT
ATOM      1  C   UNL     1      20.569  70.679   0.226  1.00  0.00     0.171 C 
ENDROOT
BRANCH   1   2
ATOM      2  C   UNL     1      20.914  69.687  -0.903  1.00  0.00     0.237 C 
BRANCH   2   3
ATOM      3  N   UNL     1      20.011  68.530  -0.863  1.00  0.00    -0.350 N 
ATOM      4  H   UNL     1      19.426  68.568   0.004  1.00  0.00     0.345 HD
ATOM      5  H   UNL     1      19.371  68.551  -1.690  1.00  0.00     0.345 HD
ATOM      6  H   UNL     1      20.554  67.636  -0.869  1.00  0.00     0.345 HD
ENDBRANCH   2   3
BRANCH   2   7
ATOM      7  C   UNL     1      22.346  69.228  -0.798  1.00  0.00     0.100 C 
ATOM      8  O   UNL     1      23.102  69.280  -1.804  1.00  0.00    -0.544 OA
ATOM      9  O   UNL     1      22.845  68.756   0.411  1.00  0.00    -0.544 OA
ENDBRANCH   2   7
ENDBRANCH   1   2
BRANCH   1  10
ATOM     10  C   UNL     1      19.480  70.147   1.115  1.00  0.00     0.223 C 
ATOM     11  O   UNL     1      19.705  69.150   1.851  1.00  0.00    -0.275 OA
ATOM     12  N   UNL     1      18.181  70.740   1.103  1.00  0.00    -0.369 N 
ATOM     13  H   UNL     1      17.972  71.554   0.484  1.00  0.00     0.159 HD
ATOM     14  H   UNL     1      17.423  70.358   1.711  1.00  0.00     0.159 HD
ENDBRANCH   1  10
TORSDOF 4
ENDMDL
