MODEL 1
REMARK VINA RESULT:     6.182      0.000      0.000
REMARK INTER + INTRA:           9.270
REMARK INTER:                   8.892
REMARK INTRA:                   0.378
REMARK UNBOUND:                 0.378
REMARK SMILES CC(C)=CCCC(C)=CCCC(C)=CCO
REMARK SMILES IDX 10 1 9 2 7 3 8 4 6 5 5 6 4 7 1 8 2 9 3 10 11 11 12 12 14 13
REMARK SMILES IDX 13 14 15 15 16 16
REMARK H PARENT 16 17
REMARK Flexibility Score: inf
ROOT
ATOM      1  C   UNL     1     -34.428  -4.150 -56.118  1.00  0.00     0.032 C 
ENDROOT
BRANCH   1   2
ATOM      2  C   UNL     1     -34.753  -2.740 -55.684  1.00  0.00    -0.028 C 
ATOM      3  C   UNL     1     -35.975  -2.315 -55.293  1.00  0.00    -0.077 C 
ATOM      4  C   UNL     1     -37.165  -3.243 -55.245  1.00  0.00     0.039 C 
BRANCH   3   5
ATOM      5  C   UNL     1     -36.140  -0.877 -54.848  1.00  0.00     0.034 C 
BRANCH   5   6
ATOM      6  C   UNL     1     -34.806  -0.123 -54.910  1.00  0.00     0.032 C 
BRANCH   6   7
ATOM      7  C   UNL     1     -34.377   0.318 -53.533  1.00  0.00    -0.028 C 
ATOM      8  C   UNL     1     -32.867   1.221 -51.818  1.00  0.00     0.039 C 
ATOM      9  C   UNL     1     -33.172   0.860 -53.248  1.00  0.00    -0.080 C 
ATOM     10  C   UNL     1     -32.140   1.123 -54.320  1.00  0.00     0.039 C 
ENDBRANCH   6   7
ENDBRANCH   5   6
ENDBRANCH   3   5
ENDBRANCH   1   2
BRANCH   1  11
ATOM     11  C   UNL     1     -32.924  -4.463 -56.038  1.00  0.00     0.034 C 
BRANCH  11  12
ATOM     12  C   UNL     1     -32.380  -5.054 -57.331  1.00  0.00    -0.075 C 
ATOM     13  C   UNL     1     -32.844  -4.709 -58.555  1.00  0.00    -0.000 C 
ATOM     14  C   UNL     1     -31.299  -6.103 -57.255  1.00  0.00     0.039 C 
BRANCH  13  15
ATOM     15  C   UNL     1     -33.977  -3.753 -58.806  1.00  0.00     0.183 C 
BRANCH  15  16
ATOM     16  O   UNL     1     -33.677  -2.928 -59.894  1.00  0.00    -0.392 OA
ATOM     17  H   UNL     1     -33.892  -3.454 -60.707  1.00  0.00     0.210 HD
ENDBRANCH  15  16
ENDBRANCH  13  15
ENDBRANCH  11  12
ENDBRANCH   1  11
TORSDOF 8
ENDMDL
MODEL 2
REMARK VINA RESULT:     6.910      2.549      6.413
REMARK INTER + INTRA:          10.317
REMARK INTER:                  10.812
REMARK INTRA:                  -0.495
REMARK UNBOUND:                 0.378
REMARK SMILES CC(C)=CCCC(C)=CCCC(C)=CCO
REMARK SMILES IDX 10 1 9 2 7 3 8 4 6 5 5 6 4 7 1 8 2 9 3 10 11 11 12 12 14 13
REMARK SMILES IDX 13 14 15 15 16 16
REMARK H PARENT 16 17
REMARK Flexibility Score: inf
ROOT
ATOM      1  C   UNL     1     -34.630   0.362 -54.788  1.00  0.00     0.032 C 
ENDROOT
BRANCH   1   2
ATOM      2  C   UNL     1     -34.885  -1.109 -55.013  1.00  0.00    -0.028 C 
ATOM      3  C   UNL     1     -36.107  -1.689 -55.019  1.00  0.00    -0.077 C 
ATOM      4  C   UNL     1     -37.369  -0.890 -54.802  1.00  0.00     0.039 C 
BRANCH   3   5
ATOM      5  C   UNL     1     -36.209  -3.173 -55.297  1.00  0.00     0.034 C 
BRANCH   5   6
ATOM      6  C   UNL     1     -35.429  -3.553 -56.562  1.00  0.00     0.032 C 
BRANCH   6   7
ATOM      7  C   UNL     1     -34.119  -4.208 -56.205  1.00  0.00    -0.028 C 
ATOM      8  C   UNL     1     -31.954  -5.299 -56.607  1.00  0.00     0.039 C 
ATOM      9  C   UNL     1     -33.206  -4.628 -57.108  1.00  0.00    -0.080 C 
ATOM     10  C   UNL     1     -33.401  -4.428 -58.594  1.00  0.00     0.039 C 
ENDBRANCH   6   7
ENDBRANCH   5   6
ENDBRANCH   3   5
ENDBRANCH   1   2
BRANCH   1  11
ATOM     11  C   UNL     1     -34.309   0.690 -53.320  1.00  0.00     0.034 C 
BRANCH  11  12
ATOM     12  C   UNL     1     -32.839   1.018 -53.100  1.00  0.00    -0.075 C 
ATOM     13  C   UNL     1     -32.254   1.013 -51.879  1.00  0.00    -0.000 C 
ATOM     14  C   UNL     1     -31.993   1.404 -54.287  1.00  0.00     0.039 C 
BRANCH  13  15
ATOM     15  C   UNL     1     -32.971   0.743 -50.585  1.00  0.00     0.183 C 
BRANCH  15  16
ATOM     16  O   UNL     1     -33.342  -0.603 -50.514  1.00  0.00    -0.392 OA
ATOM     17  H   UNL     1     -32.681  -1.101 -51.059  1.00  0.00     0.210 HD
ENDBRANCH  15  16
ENDBRANCH  13  15
ENDBRANCH  11  12
ENDBRANCH   1  11
TORSDOF 8
ENDMDL
MODEL 3
REMARK VINA RESULT:     7.844      1.466      2.016
REMARK INTER + INTRA:          11.661
REMARK INTER:                  12.265
REMARK INTRA:                  -0.604
REMARK UNBOUND:                 0.378
REMARK SMILES CC(C)=CCCC(C)=CCCC(C)=CCO
REMARK SMILES IDX 10 1 9 2 7 3 8 4 6 5 5 6 4 7 1 8 2 9 3 10 11 11 12 12 14 13
REMARK SMILES IDX 13 14 15 15 16 16
REMARK H PARENT 16 17
REMARK Flexibility Score: inf
ROOT
ATOM      1  C   UNL     1     -34.597  -4.238 -56.135  1.00  0.00     0.032 C 
ENDROOT
BRANCH   1   2
ATOM      2  C   UNL     1     -34.833  -2.814 -55.692  1.00  0.00    -0.028 C 
ATOM      3  C   UNL     1     -36.030  -2.311 -55.315  1.00  0.00    -0.077 C 
ATOM      4  C   UNL     1     -37.280  -3.157 -55.293  1.00  0.00     0.039 C 
BRANCH   3   5
ATOM      5  C   UNL     1     -36.104  -0.869 -54.858  1.00  0.00     0.034 C 
BRANCH   5   6
ATOM      6  C   UNL     1     -34.722  -0.207 -54.892  1.00  0.00     0.032 C 
BRANCH   6   7
ATOM      7  C   UNL     1     -34.334   0.292 -53.522  1.00  0.00    -0.028 C 
ATOM      8  C   UNL     1     -32.876   1.264 -51.801  1.00  0.00     0.039 C 
ATOM      9  C   UNL     1     -33.137   0.843 -53.223  1.00  0.00    -0.080 C 
ATOM     10  C   UNL     1     -32.071   1.058 -54.273  1.00  0.00     0.039 C 
ENDBRANCH   6   7
ENDBRANCH   5   6
ENDBRANCH   3   5
ENDBRANCH   1   2
BRANCH   1  11
ATOM     11  C   UNL     1     -33.131  -4.506 -56.516  1.00  0.00     0.034 C 
BRANCH  11  12
ATOM     12  C   UNL     1     -32.942  -4.702 -58.014  1.00  0.00    -0.075 C 
ATOM     13  C   UNL     1     -32.046  -5.570 -58.538  1.00  0.00    -0.000 C 
ATOM     14  C   UNL     1     -33.760  -3.868 -58.967  1.00  0.00     0.039 C 
BRANCH  13  15
ATOM     15  C   UNL     1     -31.089  -6.407 -57.735  1.00  0.00     0.183 C 
BRANCH  15  16
ATOM     16  O   UNL     1     -30.587  -7.449 -58.521  1.00  0.00    -0.392 OA
ATOM     17  H   UNL     1     -30.028  -7.023 -59.220  1.00  0.00     0.210 HD
ENDBRANCH  15  16
ENDBRANCH  13  15
ENDBRANCH  11  12
ENDBRANCH   1  11
TORSDOF 8
ENDMDL
MODEL 4
REMARK VINA RESULT:     8.546      1.460      2.236
REMARK INTER + INTRA:          12.671
REMARK INTER:                  12.262
REMARK INTRA:                   0.409
REMARK UNBOUND:                 0.378
REMARK SMILES CC(C)=CCCC(C)=CCCC(C)=CCO
REMARK SMILES IDX 10 1 9 2 7 3 8 4 6 5 5 6 4 7 1 8 2 9 3 10 11 11 12 12 14 13
REMARK SMILES IDX 13 14 15 15 16 16
REMARK H PARENT 16 17
REMARK Flexibility Score: inf
ROOT
ATOM      1  C   UNL     1     -34.621  -3.918 -55.915  1.00  0.00     0.032 C 
ENDROOT
BRANCH   1   2
ATOM      2  C   UNL     1     -34.764  -2.448 -55.600  1.00  0.00    -0.028 C 
ATOM      3  C   UNL     1     -35.934  -1.826 -55.331  1.00  0.00    -0.077 C 
ATOM      4  C   UNL     1     -37.247  -2.572 -55.313  1.00  0.00     0.039 C 
BRANCH   3   5
ATOM      5  C   UNL     1     -35.916  -0.351 -54.994  1.00  0.00     0.034 C 
BRANCH   5   6
ATOM      6  C   UNL     1     -35.018  -0.071 -53.783  1.00  0.00     0.032 C 
BRANCH   6   7
ATOM      7  C   UNL     1     -33.704   0.527 -54.219  1.00  0.00    -0.028 C 
ATOM      8  C   UNL     1     -31.525   1.631 -53.954  1.00  0.00     0.039 C 
ATOM      9  C   UNL     1     -32.779   1.032 -53.373  1.00  0.00    -0.080 C 
ATOM     10  C   UNL     1     -32.963   0.997 -51.873  1.00  0.00     0.039 C 
ENDBRANCH   6   7
ENDBRANCH   5   6
ENDBRANCH   3   5
ENDBRANCH   1   2
BRANCH   1  11
ATOM     11  C   UNL     1     -34.879  -4.234 -57.398  1.00  0.00     0.034 C 
BRANCH  11  12
ATOM     12  C   UNL     1     -33.610  -4.187 -58.237  1.00  0.00    -0.075 C 
ATOM     13  C   UNL     1     -32.440  -4.741 -57.841  1.00  0.00    -0.000 C 
ATOM     14  C   UNL     1     -33.636  -3.459 -59.557  1.00  0.00     0.039 C 
BRANCH  13  15
ATOM     15  C   UNL     1     -32.216  -5.420 -56.518  1.00  0.00     0.183 C 
BRANCH  15  16
ATOM     16  O   UNL     1     -31.802  -4.486 -55.564  1.00  0.00    -0.392 OA
ATOM     17  H   UNL     1     -32.455  -3.741 -55.603  1.00  0.00     0.210 HD
ENDBRANCH  15  16
ENDBRANCH  13  15
ENDBRANCH  11  12
ENDBRANCH   1  11
TORSDOF 8
ENDMDL
MODEL 5
REMARK VINA RESULT:     8.577      3.420      5.072
REMARK INTER + INTRA:          12.715
REMARK INTER:                  13.264
REMARK INTRA:                  -0.549
REMARK UNBOUND:                 0.378
REMARK SMILES CC(C)=CCCC(C)=CCCC(C)=CCO
REMARK SMILES IDX 10 1 9 2 7 3 8 4 6 5 5 6 4 7 1 8 2 9 3 10 11 11 12 12 14 13
REMARK SMILES IDX 13 14 15 15 16 16
REMARK H PARENT 16 17
REMARK Flexibility Score: inf
ROOT
ATOM      1  C   UNL     1     -38.698  -3.115 -56.376  1.00  0.00     0.032 C 
ENDROOT
BRANCH   1   2
ATOM      2  C   UNL     1     -37.460  -2.280 -56.150  1.00  0.00    -0.028 C 
ATOM      3  C   UNL     1     -36.326  -2.723 -55.561  1.00  0.00    -0.077 C 
ATOM      4  C   UNL     1     -36.187  -4.143 -55.068  1.00  0.00     0.039 C 
BRANCH   3   5
ATOM      5  C   UNL     1     -35.151  -1.778 -55.438  1.00  0.00     0.034 C 
BRANCH   5   6
ATOM      6  C   UNL     1     -35.594  -0.411 -54.904  1.00  0.00     0.032 C 
BRANCH   6   7
ATOM      7  C   UNL     1     -34.871  -0.077 -53.623  1.00  0.00    -0.028 C 
ATOM      8  C   UNL     1     -33.168   0.975 -52.198  1.00  0.00     0.039 C 
ATOM      9  C   UNL     1     -33.815   0.762 -53.541  1.00  0.00    -0.080 C 
ATOM     10  C   UNL     1     -33.282   1.497 -54.750  1.00  0.00     0.039 C 
ENDBRANCH   6   7
ENDBRANCH   5   6
ENDBRANCH   3   5
ENDBRANCH   1   2
BRANCH   1  11
ATOM     11  C   UNL     1     -39.188  -3.066 -57.833  1.00  0.00     0.034 C 
BRANCH  11  12
ATOM     12  C   UNL     1     -40.429  -3.917 -58.062  1.00  0.00    -0.075 C 
ATOM     13  C   UNL     1     -40.966  -4.127 -59.287  1.00  0.00    -0.000 C 
ATOM     14  C   UNL     1     -41.124  -4.528 -56.871  1.00  0.00     0.039 C 
BRANCH  13  15
ATOM     15  C   UNL     1     -40.457  -3.518 -60.564  1.00  0.00     0.183 C 
BRANCH  15  16
ATOM     16  O   UNL     1     -40.704  -4.379 -61.638  1.00  0.00    -0.392 OA
ATOM     17  H   UNL     1     -40.781  -5.289 -61.251  1.00  0.00     0.210 HD
ENDBRANCH  15  16
ENDBRANCH  13  15
ENDBRANCH  11  12
ENDBRANCH   1  11
TORSDOF 8
ENDMDL
