MODEL 1
REMARK VINA RESULT:     1.559      0.000      0.000
REMARK INTER + INTRA:           4.607
REMARK INTER:                   1.923
REMARK INTRA:                   2.684
REMARK UNBOUND:                 2.684
REMARK SMILES C=C1CC[C@@H]2[C@@H]([C@H]3[C@H](C)CC[C@H]13)C2(C)C
REMARK SMILES IDX 3 1 2 2 1 3 12 4 9 5 8 6 10 7 7 8 11 9 4 11 5 12 6 13 13 14
REMARK SMILES IDX 14 16 15 17
REMARK H PARENT
REMARK Flexibility Score: 80.00
ROOT
ATOM      1  C   UNL     1     151.900 134.875 162.840  1.00  0.00     0.031 C 
ENDROOT
BRANCH   1   2
ATOM      2  C   UNL     1     153.186 135.657 163.128  1.00  0.00    -0.074 C 
ATOM      3  C   UNL     1     154.372 135.031 163.023  1.00  0.00     0.008 C 
BRANCH   2   4
ATOM      4  C   UNL     1     153.072 137.178 163.247  1.00  0.00     0.018 C 
ATOM      5  C   UNL     1     153.795 140.231 161.180  1.00  0.00     0.008 C 
ATOM      6  C   UNL     1     153.178 139.357 162.277  1.00  0.00    -0.010 C 
ATOM      7  C   UNL     1     153.996 139.388 163.587  1.00  0.00     0.004 C 
ATOM      8  C   UNL     1     153.121 137.878 161.888  1.00  0.00     0.003 CG0
ATOM      9  C   UNL     1     154.085 137.941 164.095  1.00  0.00     0.008 C 
ATOM     10  G   UNL     1     151.864 137.466 161.099  1.00  0.00     0.000 G0
ENDBRANCH   2   4
ENDBRANCH   1   2
BRANCH   1  11
ATOM     11  C   UNL     1     151.348 135.018 161.384  1.00  0.00     0.009 C 
BRANCH  11  12
ATOM     12  C   UNL     1     152.151 136.029 160.550  1.00  0.00    -0.001 C 
ATOM     13  C   UNL     1     151.860 137.455 161.099  1.00  0.00     0.002 CG0
ATOM     14  C   UNL     1     151.662 137.128 159.619  1.00  0.00    -0.029 C 
ATOM     15  G   UNL     1     153.134 137.859 161.865  1.00  0.00     0.000 G0
ATOM     16  C   UNL     1     150.219 137.004 159.118  1.00  0.00     0.011 C 
ATOM     17  C   UNL     1     152.696 137.685 158.635  1.00  0.00     0.011 C 
ENDBRANCH  11  12
ENDBRANCH   1  11
TORSDOF 0
ENDMDL
