MODEL 1
REMARK VINA RESULT:    -4.605      0.000      0.000
REMARK INTER + INTRA:          -4.973
REMARK INTER:                  -4.875
REMARK INTRA:                  -0.098
REMARK UNBOUND:                -0.098
REMARK SMILES C=C(C)[C@H]1CC=C(C)C(=O)C1
REMARK SMILES IDX 8 1 7 2 6 3 5 4 4 5 11 6 9 7 10 8 2 9 1 10 3 11
REMARK H PARENT
REMARK Flexibility Score: inf
ROOT
ATOM      1  C   UNL     1     -29.386 -15.064  22.370  1.00  0.00     0.048 C 
ATOM      2  C   UNL     1     -29.215 -13.658  22.873  1.00  0.00    -0.012 C 
ATOM      3  C   UNL     1     -30.078 -13.162  23.778  1.00  0.00    -0.019 C 
ATOM      4  C   UNL     1     -29.965 -11.754  24.301  1.00  0.00     0.036 C 
ATOM      5  C   UNL     1     -28.493 -11.303  24.366  1.00  0.00     0.025 C 
ATOM      6  C   UNL     1     -27.823 -11.469  22.990  1.00  0.00     0.089 C 
ATOM      7  C   UNL     1     -28.028 -12.864  22.466  1.00  0.00     0.158 C 
ATOM      8  O   UNL     1     -27.200 -13.340  21.644  1.00  0.00    -0.295 OA
ENDROOT
BRANCH   5   9
ATOM      9  C   UNL     1     -28.364  -9.878  24.885  1.00  0.00    -0.077 C 
ATOM     10  C   UNL     1     -27.280  -9.131  24.617  1.00  0.00     0.008 C 
ATOM     11  C   UNL     1     -29.466  -9.273  25.717  1.00  0.00     0.039 C 
ENDBRANCH   5   9
TORSDOF 1
ENDMDL
MODEL 2
REMARK VINA RESULT:    -4.524      1.589      2.378
REMARK INTER + INTRA:          -4.886
REMARK INTER:                  -4.792
REMARK INTRA:                  -0.094
REMARK UNBOUND:                -0.098
REMARK SMILES C=C(C)[C@H]1CC=C(C)C(=O)C1
REMARK SMILES IDX 8 1 7 2 6 3 5 4 4 5 11 6 9 7 10 8 2 9 1 10 3 11
REMARK H PARENT
REMARK Flexibility Score: inf
ROOT
ATOM      1  C   UNL     1     -28.631 -14.499  22.381  1.00  0.00     0.048 C 
ATOM      2  C   UNL     1     -28.415 -13.293  23.252  1.00  0.00    -0.012 C 
ATOM      3  C   UNL     1     -27.689 -12.258  22.794  1.00  0.00    -0.019 C 
ATOM      4  C   UNL     1     -27.426 -11.035  23.632  1.00  0.00     0.036 C 
ATOM      5  C   UNL     1     -28.610 -10.742  24.572  1.00  0.00     0.025 C 
ATOM      6  C   UNL     1     -28.929 -11.979  25.432  1.00  0.00     0.089 C 
ATOM      7  C   UNL     1     -29.104 -13.195  24.564  1.00  0.00     0.158 C 
ATOM      8  O   UNL     1     -29.813 -14.150  24.980  1.00  0.00    -0.295 OA
ENDROOT
BRANCH   5   9
ATOM      9  C   UNL     1     -28.354  -9.511  25.432  1.00  0.00    -0.077 C 
ATOM     10  C   UNL     1     -29.351  -8.902  26.096  1.00  0.00     0.008 C 
ATOM     11  C   UNL     1     -26.960  -8.952  25.556  1.00  0.00     0.039 C 
ENDBRANCH   5   9
TORSDOF 1
ENDMDL
MODEL 3
REMARK VINA RESULT:    -4.218      1.797      4.318
REMARK INTER + INTRA:          -4.563
REMARK INTER:                  -4.465
REMARK INTRA:                  -0.098
REMARK UNBOUND:                -0.098
REMARK SMILES C=C(C)[C@H]1CC=C(C)C(=O)C1
REMARK SMILES IDX 8 1 7 2 6 3 5 4 4 5 11 6 9 7 10 8 2 9 1 10 3 11
REMARK H PARENT
REMARK Flexibility Score: inf
ROOT
ATOM      1  C   UNL     1     -29.527  -8.522  26.119  1.00  0.00     0.048 C 
ATOM      2  C   UNL     1     -29.222  -9.811  25.409  1.00  0.00    -0.012 C 
ATOM      3  C   UNL     1     -30.125 -10.809  25.416  1.00  0.00    -0.019 C 
ATOM      4  C   UNL     1     -29.863 -12.127  24.737  1.00  0.00     0.036 C 
ATOM      5  C   UNL     1     -28.984 -11.942  23.486  1.00  0.00     0.025 C 
ATOM      6  C   UNL     1     -27.681 -11.207  23.853  1.00  0.00     0.089 C 
ATOM      7  C   UNL     1     -27.983  -9.937  24.601  1.00  0.00     0.158 C 
ATOM      8  O   UNL     1     -27.152  -8.990  24.564  1.00  0.00    -0.295 OA
ENDROOT
BRANCH   5   9
ATOM      9  C   UNL     1     -28.703 -13.269  22.795  1.00  0.00    -0.077 C 
ATOM     10  C   UNL     1     -27.615 -13.442  22.026  1.00  0.00     0.008 C 
ATOM     11  C   UNL     1     -29.655 -14.426  22.965  1.00  0.00     0.039 C 
ENDBRANCH   5   9
TORSDOF 1
ENDMDL
MODEL 4
REMARK VINA RESULT:    -4.201      2.109      4.705
REMARK INTER + INTRA:          -4.544
REMARK INTER:                  -4.451
REMARK INTRA:                  -0.093
REMARK UNBOUND:                -0.098
REMARK SMILES C=C(C)[C@H]1CC=C(C)C(=O)C1
REMARK SMILES IDX 8 1 7 2 6 3 5 4 4 5 11 6 9 7 10 8 2 9 1 10 3 11
REMARK H PARENT
REMARK Flexibility Score: inf
ROOT
ATOM      1  C   UNL     1     -27.487  -9.321  25.957  1.00  0.00     0.048 C 
ATOM      2  C   UNL     1     -28.083 -10.231  24.920  1.00  0.00    -0.012 C 
ATOM      3  C   UNL     1     -27.342 -10.621  23.867  1.00  0.00    -0.019 C 
ATOM      4  C   UNL     1     -27.894 -11.516  22.790  1.00  0.00     0.036 C 
ATOM      5  C   UNL     1     -28.930 -12.501  23.364  1.00  0.00     0.025 C 
ATOM      6  C   UNL     1     -30.038 -11.737  24.111  1.00  0.00     0.089 C 
ATOM      7  C   UNL     1     -29.442 -10.794  25.121  1.00  0.00     0.158 C 
ATOM      8  O   UNL     1     -30.125 -10.457  26.125  1.00  0.00    -0.295 OA
ENDROOT
BRANCH   5   9
ATOM      9  C   UNL     1     -29.504 -13.407  22.283  1.00  0.00    -0.077 C 
ATOM     10  C   UNL     1     -30.123 -12.902  21.202  1.00  0.00     0.008 C 
ATOM     11  C   UNL     1     -29.385 -14.904  22.409  1.00  0.00     0.039 C 
ENDBRANCH   5   9
TORSDOF 1
ENDMDL
MODEL 5
REMARK VINA RESULT:    -4.080      1.501      1.853
REMARK INTER + INTRA:          -4.417
REMARK INTER:                  -4.326
REMARK INTRA:                  -0.091
REMARK UNBOUND:                -0.098
REMARK SMILES C=C(C)[C@H]1CC=C(C)C(=O)C1
REMARK SMILES IDX 8 1 7 2 6 3 5 4 4 5 11 6 9 7 10 8 2 9 1 10 3 11
REMARK H PARENT
REMARK Flexibility Score: inf
ROOT
ATOM      1  C   UNL     1     -28.139 -14.534  22.378  1.00  0.00     0.048 C 
ATOM      2  C   UNL     1     -28.203 -13.347  23.297  1.00  0.00    -0.012 C 
ATOM      3  C   UNL     1     -27.248 -13.168  24.227  1.00  0.00    -0.019 C 
ATOM      4  C   UNL     1     -27.274 -12.006  25.185  1.00  0.00     0.036 C 
ATOM      5  C   UNL     1     -27.904 -10.762  24.531  1.00  0.00     0.025 C 
ATOM      6  C   UNL     1     -29.304 -11.097  23.984  1.00  0.00     0.089 C 
ATOM      7  C   UNL     1     -29.248 -12.311  23.097  1.00  0.00     0.158 C 
ATOM      8  O   UNL     1     -30.124 -12.460  22.203  1.00  0.00    -0.295 OA
ENDROOT
BRANCH   5   9
ATOM      9  C   UNL     1     -27.946  -9.582  25.493  1.00  0.00    -0.077 C 
ATOM     10  C   UNL     1     -26.835  -8.891  25.801  1.00  0.00     0.008 C 
ATOM     11  C   UNL     1     -29.250  -9.164  26.122  1.00  0.00     0.039 C 
ENDBRANCH   5   9
TORSDOF 1
ENDMDL
MODEL 6
REMARK VINA RESULT:    -3.522      1.307      4.649
REMARK INTER + INTRA:          -3.826
REMARK INTER:                  -3.732
REMARK INTRA:                  -0.093
REMARK UNBOUND:                -0.098
REMARK SMILES C=C(C)[C@H]1CC=C(C)C(=O)C1
REMARK SMILES IDX 8 1 7 2 6 3 5 4 4 5 11 6 9 7 10 8 2 9 1 10 3 11
REMARK H PARENT
REMARK Flexibility Score: inf
ROOT
ATOM      1  C   UNL     1     -28.593 -10.587  24.704  1.00  0.00     0.048 C 
ATOM      2  C   UNL     1     -28.827 -12.008  24.273  1.00  0.00    -0.012 C 
ATOM      3  C   UNL     1     -29.856 -12.703  24.790  1.00  0.00    -0.019 C 
ATOM      4  C   UNL     1     -30.125 -14.135  24.408  1.00  0.00     0.036 C 
ATOM      5  C   UNL     1     -29.716 -14.405  22.947  1.00  0.00     0.025 C 
ATOM      6  C   UNL     1     -28.245 -14.008  22.722  1.00  0.00     0.089 C 
ATOM      7  C   UNL     1     -28.000 -12.600  23.192  1.00  0.00     0.158 C 
ATOM      8  O   UNL     1     -27.056 -11.938  22.682  1.00  0.00    -0.295 OA
ENDROOT
BRANCH   5   9
ATOM      9  C   UNL     1     -29.973 -15.852  22.550  1.00  0.00    -0.077 C 
ATOM     10  C   UNL     1     -30.082 -16.215  21.261  1.00  0.00     0.008 C 
ATOM     11  C   UNL     1     -30.111 -16.914  23.611  1.00  0.00     0.039 C 
ENDBRANCH   5   9
TORSDOF 1
ENDMDL
MODEL 7
REMARK VINA RESULT:    -3.443      1.881      4.837
REMARK INTER + INTRA:          -3.742
REMARK INTER:                  -3.645
REMARK INTRA:                  -0.096
REMARK UNBOUND:                -0.098
REMARK SMILES C=C(C)[C@H]1CC=C(C)C(=O)C1
REMARK SMILES IDX 8 1 7 2 6 3 5 4 4 5 11 6 9 7 10 8 2 9 1 10 3 11
REMARK H PARENT
REMARK Flexibility Score: inf
ROOT
ATOM      1  C   UNL     1     -27.529 -10.280  24.091  1.00  0.00     0.048 C 
ATOM      2  C   UNL     1     -28.258 -11.532  23.692  1.00  0.00    -0.012 C 
ATOM      3  C   UNL     1     -28.312 -11.892  22.397  1.00  0.00    -0.019 C 
ATOM      4  C   UNL     1     -29.045 -13.126  21.941  1.00  0.00     0.036 C 
ATOM      5  C   UNL     1     -28.984 -14.234  23.009  1.00  0.00     0.025 C 
ATOM      6  C   UNL     1     -29.511 -13.708  24.357  1.00  0.00     0.089 C 
ATOM      7  C   UNL     1     -28.811 -12.432  24.736  1.00  0.00     0.158 C 
ATOM      8  O   UNL     1     -28.731 -12.113  25.953  1.00  0.00    -0.295 OA
ENDROOT
BRANCH   5   9
ATOM      9  C   UNL     1     -29.730 -15.485  22.565  1.00  0.00    -0.077 C 
ATOM     10  C   UNL     1     -30.049 -15.689  21.276  1.00  0.00     0.008 C 
ATOM     11  C   UNL     1     -30.125 -16.530  23.577  1.00  0.00     0.039 C 
ENDBRANCH   5   9
TORSDOF 1
ENDMDL
