MODEL 1
REMARK VINA RESULT:    -5.008      0.000      0.000
REMARK INTER + INTRA:         -12.215
REMARK INTER:                  -9.692
REMARK INTRA:                  -2.523
REMARK UNBOUND:                -2.523
REMARK SMILES CCCCCC=CCC=CCCCCCCCCOC(C)=O
REMARK SMILES IDX 12 1 11 2 10 3 9 4 8 5 7 6 6 7 5 8 4 9 3 10 2 11 1 12 13 13
REMARK SMILES IDX 14 14 15 15 16 16 17 17 18 18 19 19 20 20 22 21 21 22
REMARK H PARENT
REMARK Flexibility Score: inf
ROOT
ATOM      1  C   UNL     1      94.802 -58.952 104.428  1.00  0.00     0.004 C 
ENDROOT
BRANCH   1   2
ATOM      2  C   UNL     1      96.151 -58.873 105.153  1.00  0.00     0.027 C 
BRANCH   2   3
ATOM      3  C   UNL     1      96.887 -60.186 105.096  1.00  0.00    -0.031 C 
ATOM      4  C   UNL     1      98.164 -60.295 105.495  1.00  0.00    -0.027 C 
BRANCH   4   5
ATOM      5  C   UNL     1      98.879 -61.617 105.478  1.00  0.00     0.054 C 
BRANCH   5   6
ATOM      6  C   UNL     1      98.915 -62.235 106.854  1.00  0.00    -0.027 C 
ATOM      7  C   UNL     1      98.293 -63.384 107.171  1.00  0.00    -0.031 C 
BRANCH   7   8
ATOM      8  C   UNL     1      97.442 -64.186 106.216  1.00  0.00     0.027 C 
BRANCH   8   9
ATOM      9  C   UNL     1      95.956 -63.813 106.310  1.00  0.00     0.004 C 
BRANCH   9  10
ATOM     10  C   UNL     1      95.328 -63.585 104.924  1.00  0.00     0.000 C 
BRANCH  10  11
ATOM     11  C   UNL     1      96.191 -64.156 103.787  1.00  0.00    -0.003 C 
ATOM     12  C   UNL     1      96.582 -63.099 102.756  1.00  0.00     0.004 C 
ENDBRANCH  10  11
ENDBRANCH   9  10
ENDBRANCH   8   9
ENDBRANCH   7   8
ENDBRANCH   5   6
ENDBRANCH   4   5
ENDBRANCH   2   3
ENDBRANCH   1   2
BRANCH   1  13
ATOM     13  C   UNL     1      94.653 -60.249 103.614  1.00  0.00     0.000 C 
BRANCH  13  14
ATOM     14  C   UNL     1      93.934 -60.026 102.275  1.00  0.00     0.000 C 
BRANCH  14  15
ATOM     15  C   UNL     1      92.583 -60.756 102.201  1.00  0.00     0.000 C 
BRANCH  15  16
ATOM     16  C   UNL     1      92.618 -62.144 102.864  1.00  0.00     0.003 C 
BRANCH  16  17
ATOM     17  C   UNL     1      91.745 -63.193 102.144  1.00  0.00     0.042 C 
BRANCH  17  18
ATOM     18  C   UNL     1      91.995 -64.614 102.664  1.00  0.00     0.233 C 
BRANCH  18  19
ATOM     19  O   UNL     1      90.886 -65.067 103.437  1.00  0.00    -0.466 OA
BRANCH  19  20
ATOM     20  C   UNL     1      90.837 -66.324 104.051  1.00  0.00     0.302 C 
ATOM     21  O   UNL     1      89.748 -66.953 104.150  1.00  0.00    -0.253 OA
ATOM     22  C   UNL     1      92.078 -66.897 104.647  1.00  0.00     0.139 C 
ENDBRANCH  19  20
ENDBRANCH  18  19
ENDBRANCH  17  18
ENDBRANCH  16  17
ENDBRANCH  15  16
ENDBRANCH  14  15
ENDBRANCH  13  14
ENDBRANCH   1  13
TORSDOF 16
ENDMDL
MODEL 2
REMARK VINA RESULT:    -4.798      1.564      2.781
REMARK INTER + INTRA:         -11.808
REMARK INTER:                  -9.383
REMARK INTRA:                  -2.425
REMARK UNBOUND:                -2.523
REMARK SMILES CCCCCC=CCC=CCCCCCCCCOC(C)=O
REMARK SMILES IDX 12 1 11 2 10 3 9 4 8 5 7 6 6 7 5 8 4 9 3 10 2 11 1 12 13 13
REMARK SMILES IDX 14 14 15 15 16 16 17 17 18 18 19 19 20 20 22 21 21 22
REMARK H PARENT
REMARK Flexibility Score: inf
ROOT
ATOM      1  C   UNL     1      96.903 -60.086 105.165  1.00  0.00     0.004 C 
ENDROOT
BRANCH   1   2
ATOM      2  C   UNL     1      98.381 -60.131 105.573  1.00  0.00     0.027 C 
BRANCH   2   3
ATOM      3  C   UNL     1      98.736 -61.442 106.222  1.00  0.00    -0.031 C 
ATOM      4  C   UNL     1      98.014 -62.553 106.008  1.00  0.00    -0.027 C 
BRANCH   4   5
ATOM      5  C   UNL     1      98.401 -63.868 106.623  1.00  0.00     0.054 C 
BRANCH   5   6
ATOM      6  C   UNL     1      97.220 -64.524 107.295  1.00  0.00    -0.027 C 
ATOM      7  C   UNL     1      96.295 -65.245 106.637  1.00  0.00    -0.031 C 
BRANCH   7   8
ATOM      8  C   UNL     1      96.283 -65.459 105.143  1.00  0.00     0.027 C 
BRANCH   8   9
ATOM      9  C   UNL     1      94.999 -64.927 104.491  1.00  0.00     0.004 C 
BRANCH   9  10
ATOM     10  C   UNL     1      95.069 -63.413 104.226  1.00  0.00     0.000 C 
BRANCH  10  11
ATOM     11  C   UNL     1      95.668 -63.085 102.849  1.00  0.00    -0.003 C 
ATOM     12  C   UNL     1      95.227 -64.066 101.764  1.00  0.00     0.004 C 
ENDBRANCH  10  11
ENDBRANCH   9  10
ENDBRANCH   8   9
ENDBRANCH   7   8
ENDBRANCH   5   6
ENDBRANCH   4   5
ENDBRANCH   2   3
ENDBRANCH   1   2
BRANCH   1  13
ATOM     13  C   UNL     1      96.340 -58.654 105.177  1.00  0.00     0.000 C 
BRANCH  13  14
ATOM     14  C   UNL     1      94.977 -58.551 104.477  1.00  0.00     0.000 C 
BRANCH  14  15
ATOM     15  C   UNL     1      94.621 -59.820 103.685  1.00  0.00     0.000 C 
BRANCH  15  16
ATOM     16  C   UNL     1      93.201 -59.776 103.094  1.00  0.00     0.003 C 
BRANCH  16  17
ATOM     17  C   UNL     1      93.150 -60.109 101.588  1.00  0.00     0.042 C 
BRANCH  17  18
ATOM     18  C   UNL     1      92.422 -61.430 101.309  1.00  0.00     0.233 C 
BRANCH  18  19
ATOM     19  O   UNL     1      92.132 -62.109 102.529  1.00  0.00    -0.466 OA
BRANCH  19  20
ATOM     20  C   UNL     1      91.736 -63.450 102.588  1.00  0.00     0.302 C 
ATOM     21  O   UNL     1      91.682 -64.061 103.691  1.00  0.00    -0.253 OA
ATOM     22  C   UNL     1      91.432 -64.180 101.324  1.00  0.00     0.139 C 
ENDBRANCH  19  20
ENDBRANCH  18  19
ENDBRANCH  17  18
ENDBRANCH  16  17
ENDBRANCH  15  16
ENDBRANCH  14  15
ENDBRANCH  13  14
ENDBRANCH   1  13
TORSDOF 16
ENDMDL
MODEL 3
REMARK VINA RESULT:    -4.777      2.802      6.299
REMARK INTER + INTRA:         -11.767
REMARK INTER:                  -9.351
REMARK INTRA:                  -2.416
REMARK UNBOUND:                -2.523
REMARK SMILES CCCCCC=CCC=CCCCCCCCCOC(C)=O
REMARK SMILES IDX 12 1 11 2 10 3 9 4 8 5 7 6 6 7 5 8 4 9 3 10 2 11 1 12 13 13
REMARK SMILES IDX 14 14 15 15 16 16 17 17 18 18 19 19 20 20 22 21 21 22
REMARK H PARENT
REMARK Flexibility Score: inf
ROOT
ATOM      1  C   UNL     1      97.362 -60.452 105.444  1.00  0.00     0.004 C 
ENDROOT
BRANCH   1   2
ATOM      2  C   UNL     1      96.480 -59.244 105.105  1.00  0.00     0.027 C 
BRANCH   2   3
ATOM      3  C   UNL     1      95.084 -59.665 104.731  1.00  0.00    -0.031 C 
ATOM      4  C   UNL     1      94.487 -59.214 103.617  1.00  0.00    -0.027 C 
BRANCH   4   5
ATOM      5  C   UNL     1      93.110 -59.673 103.226  1.00  0.00     0.054 C 
BRANCH   5   6
ATOM      6  C   UNL     1      93.057 -60.061 101.769  1.00  0.00    -0.027 C 
ATOM      7  C   UNL     1      92.631 -61.260 101.333  1.00  0.00    -0.031 C 
BRANCH   7   8
ATOM      8  C   UNL     1      92.194 -62.390 102.233  1.00  0.00     0.027 C 
BRANCH   8   9
ATOM      9  C   UNL     1      93.316 -63.413 102.467  1.00  0.00     0.004 C 
BRANCH   9  10
ATOM     10  C   UNL     1      93.862 -63.355 103.904  1.00  0.00     0.000 C 
BRANCH  10  11
ATOM     11  C   UNL     1      95.392 -63.216 103.946  1.00  0.00    -0.003 C 
ATOM     12  C   UNL     1      95.977 -62.724 102.623  1.00  0.00     0.004 C 
ENDBRANCH  10  11
ENDBRANCH   9  10
ENDBRANCH   8   9
ENDBRANCH   7   8
ENDBRANCH   5   6
ENDBRANCH   4   5
ENDBRANCH   2   3
ENDBRANCH   1   2
BRANCH   1  13
ATOM     13  C   UNL     1      98.841 -60.063 105.614  1.00  0.00     0.000 C 
BRANCH  13  14
ATOM     14  C   UNL     1      99.556 -60.914 106.673  1.00  0.00     0.000 C 
BRANCH  14  15
ATOM     15  C   UNL     1      98.945 -62.318 106.816  1.00  0.00     0.000 C 
BRANCH  15  16
ATOM     16  C   UNL     1      99.513 -63.322 105.799  1.00  0.00     0.003 C 
BRANCH  16  17
ATOM     17  C   UNL     1     100.334 -64.457 106.445  1.00  0.00     0.042 C 
BRANCH  17  18
ATOM     18  C   UNL     1      99.525 -65.753 106.588  1.00  0.00     0.233 C 
BRANCH  18  19
ATOM     19  O   UNL     1      98.661 -65.681 107.720  1.00  0.00    -0.466 OA
BRANCH  19  20
ATOM     20  C   UNL     1      97.273 -65.833 107.640  1.00  0.00     0.302 C 
ATOM     21  O   UNL     1      96.755 -66.969 107.462  1.00  0.00    -0.253 OA
ATOM     22  C   UNL     1      96.399 -64.626 107.707  1.00  0.00     0.139 C 
ENDBRANCH  19  20
ENDBRANCH  18  19
ENDBRANCH  17  18
ENDBRANCH  16  17
ENDBRANCH  15  16
ENDBRANCH  14  15
ENDBRANCH  13  14
ENDBRANCH   1  13
TORSDOF 16
ENDMDL
MODEL 4
REMARK VINA RESULT:    -4.772      2.644      5.168
REMARK INTER + INTRA:         -11.758
REMARK INTER:                  -9.910
REMARK INTRA:                  -1.849
REMARK UNBOUND:                -2.523
REMARK SMILES CCCCCC=CCC=CCCCCCCCCOC(C)=O
REMARK SMILES IDX 12 1 11 2 10 3 9 4 8 5 7 6 6 7 5 8 4 9 3 10 2 11 1 12 13 13
REMARK SMILES IDX 14 14 15 15 16 16 17 17 18 18 19 19 20 20 22 21 21 22
REMARK H PARENT
REMARK Flexibility Score: inf
ROOT
ATOM      1  C   UNL     1      92.911 -60.393 101.442  1.00  0.00     0.004 C 
ENDROOT
BRANCH   1   2
ATOM      2  C   UNL     1      92.974 -59.628 102.769  1.00  0.00     0.027 C 
BRANCH   2   3
ATOM      3  C   UNL     1      94.307 -59.801 103.446  1.00  0.00    -0.031 C 
ATOM      4  C   UNL     1      94.746 -58.932 104.371  1.00  0.00    -0.027 C 
BRANCH   4   5
ATOM      5  C   UNL     1      96.058 -59.135 105.075  1.00  0.00     0.054 C 
BRANCH   5   6
ATOM      6  C   UNL     1      96.533 -60.561 104.943  1.00  0.00    -0.027 C 
ATOM      7  C   UNL     1      97.755 -60.978 105.322  1.00  0.00    -0.031 C 
BRANCH   7   8
ATOM      8  C   UNL     1      98.827 -60.077 105.884  1.00  0.00     0.027 C 
BRANCH   8   9
ATOM      9  C   UNL     1      99.838 -60.847 106.747  1.00  0.00     0.004 C 
BRANCH   9  10
ATOM     10  C   UNL     1     101.021 -61.376 105.917  1.00  0.00     0.000 C 
BRANCH  10  11
ATOM     11  C   UNL     1     102.373 -61.152 106.613  1.00  0.00    -0.003 C 
ATOM     12  C   UNL     1     103.317 -60.271 105.797  1.00  0.00     0.004 C 
ENDBRANCH  10  11
ENDBRANCH   9  10
ENDBRANCH   8   9
ENDBRANCH   7   8
ENDBRANCH   5   6
ENDBRANCH   4   5
ENDBRANCH   2   3
ENDBRANCH   1   2
BRANCH   1  13
ATOM     13  C   UNL     1      92.183 -61.741 101.581  1.00  0.00     0.000 C 
BRANCH  13  14
ATOM     14  C   UNL     1      92.957 -62.741 102.453  1.00  0.00     0.000 C 
BRANCH  14  15
ATOM     15  C   UNL     1      94.356 -63.053 101.896  1.00  0.00     0.000 C 
BRANCH  15  16
ATOM     16  C   UNL     1      95.299 -63.653 102.952  1.00  0.00     0.003 C 
BRANCH  16  17
ATOM     17  C   UNL     1      94.696 -63.680 104.373  1.00  0.00     0.042 C 
BRANCH  17  18
ATOM     18  C   UNL     1      95.391 -64.703 105.281  1.00  0.00     0.233 C 
BRANCH  18  19
ATOM     19  O   UNL     1      96.093 -64.043 106.332  1.00  0.00    -0.466 OA
BRANCH  19  20
ATOM     20  C   UNL     1      97.474 -64.161 106.526  1.00  0.00     0.302 C 
ATOM     21  O   UNL     1      98.234 -64.507 105.580  1.00  0.00    -0.253 OA
ATOM     22  C   UNL     1      98.045 -63.933 107.885  1.00  0.00     0.139 C 
ENDBRANCH  19  20
ENDBRANCH  18  19
ENDBRANCH  17  18
ENDBRANCH  16  17
ENDBRANCH  15  16
ENDBRANCH  14  15
ENDBRANCH  13  14
ENDBRANCH   1  13
TORSDOF 16
ENDMDL
MODEL 5
REMARK VINA RESULT:    -4.744      2.567      6.056
REMARK INTER + INTRA:         -11.703
REMARK INTER:                  -8.810
REMARK INTRA:                  -2.893
REMARK UNBOUND:                -2.523
REMARK SMILES CCCCCC=CCC=CCCCCCCCCOC(C)=O
REMARK SMILES IDX 12 1 11 2 10 3 9 4 8 5 7 6 6 7 5 8 4 9 3 10 2 11 1 12 13 13
REMARK SMILES IDX 14 14 15 15 16 16 17 17 18 18 19 19 20 20 22 21 21 22
REMARK H PARENT
REMARK Flexibility Score: inf
ROOT
ATOM      1  C   UNL     1      95.623 -60.040 104.941  1.00  0.00     0.004 C 
ENDROOT
BRANCH   1   2
ATOM      2  C   UNL     1      94.594 -59.255 104.117  1.00  0.00     0.027 C 
BRANCH   2   3
ATOM      3  C   UNL     1      94.184 -60.009 102.880  1.00  0.00    -0.031 C 
ATOM      4  C   UNL     1      93.065 -60.750 102.846  1.00  0.00    -0.027 C 
BRANCH   4   5
ATOM      5  C   UNL     1      92.637 -61.465 101.595  1.00  0.00     0.054 C 
BRANCH   5   6
ATOM      6  C   UNL     1      91.786 -62.668 101.917  1.00  0.00    -0.027 C 
ATOM      7  C   UNL     1      92.138 -63.931 101.617  1.00  0.00    -0.031 C 
BRANCH   7   8
ATOM      8  C   UNL     1      93.399 -64.314 100.882  1.00  0.00     0.027 C 
BRANCH   8   9
ATOM      9  C   UNL     1      94.502 -64.797 101.835  1.00  0.00     0.004 C 
BRANCH   9  10
ATOM     10  C   UNL     1      95.553 -63.706 102.103  1.00  0.00     0.000 C 
BRANCH  10  11
ATOM     11  C   UNL     1      95.614 -63.300 103.584  1.00  0.00    -0.003 C 
ATOM     12  C   UNL     1      94.522 -63.960 104.423  1.00  0.00     0.004 C 
ENDBRANCH  10  11
ENDBRANCH   9  10
ENDBRANCH   8   9
ENDBRANCH   7   8
ENDBRANCH   5   6
ENDBRANCH   4   5
ENDBRANCH   2   3
ENDBRANCH   1   2
BRANCH   1  13
ATOM     13  C   UNL     1      96.851 -59.186 105.302  1.00  0.00     0.000 C 
BRANCH  13  14
ATOM     14  C   UNL     1      98.113 -60.034 105.523  1.00  0.00     0.000 C 
BRANCH  14  15
ATOM     15  C   UNL     1      97.813 -61.541 105.568  1.00  0.00     0.000 C 
BRANCH  15  16
ATOM     16  C   UNL     1      98.976 -62.364 106.149  1.00  0.00     0.003 C 
BRANCH  16  17
ATOM     17  C   UNL     1      98.526 -63.435 107.165  1.00  0.00     0.042 C 
BRANCH  17  18
ATOM     18  C   UNL     1      97.624 -64.499 106.527  1.00  0.00     0.233 C 
BRANCH  18  19
ATOM     19  O   UNL     1      98.395 -65.401 105.737  1.00  0.00    -0.466 OA
BRANCH  19  20
ATOM     20  C   UNL     1      98.169 -65.615 104.373  1.00  0.00     0.302 C 
ATOM     21  O   UNL     1      97.292 -66.435 103.984  1.00  0.00    -0.253 OA
ATOM     22  C   UNL     1      99.016 -64.909 103.369  1.00  0.00     0.139 C 
ENDBRANCH  19  20
ENDBRANCH  18  19
ENDBRANCH  17  18
ENDBRANCH  16  17
ENDBRANCH  15  16
ENDBRANCH  14  15
ENDBRANCH  13  14
ENDBRANCH   1  13
TORSDOF 16
ENDMDL
MODEL 6
REMARK VINA RESULT:    -4.717      1.696      2.275
REMARK INTER + INTRA:         -11.653
REMARK INTER:                  -9.280
REMARK INTRA:                  -2.373
REMARK UNBOUND:                -2.523
REMARK SMILES CCCCCC=CCC=CCCCCCCCCOC(C)=O
REMARK SMILES IDX 12 1 11 2 10 3 9 4 8 5 7 6 6 7 5 8 4 9 3 10 2 11 1 12 13 13
REMARK SMILES IDX 14 14 15 15 16 16 17 17 18 18 19 19 20 20 22 21 21 22
REMARK H PARENT
REMARK Flexibility Score: inf
ROOT
ATOM      1  C   UNL     1      94.938 -58.819 104.394  1.00  0.00     0.004 C 
ENDROOT
BRANCH   1   2
ATOM      2  C   UNL     1      96.266 -58.761 105.159  1.00  0.00     0.027 C 
BRANCH   2   3
ATOM      3  C   UNL     1      96.975 -60.089 105.140  1.00  0.00    -0.031 C 
ATOM      4  C   UNL     1      98.257 -60.209 105.519  1.00  0.00    -0.027 C 
BRANCH   4   5
ATOM      5  C   UNL     1      98.945 -61.545 105.540  1.00  0.00     0.054 C 
BRANCH   5   6
ATOM      6  C   UNL     1      98.871 -62.175 106.908  1.00  0.00    -0.027 C 
ATOM      7  C   UNL     1      98.361 -63.398 107.138  1.00  0.00    -0.031 C 
BRANCH   7   8
ATOM      8  C   UNL     1      97.755 -64.284 106.077  1.00  0.00     0.027 C 
BRANCH   8   9
ATOM      9  C   UNL     1      96.224 -64.346 106.177  1.00  0.00     0.004 C 
BRANCH   9  10
ATOM     10  C   UNL     1      95.539 -63.446 105.134  1.00  0.00     0.000 C 
BRANCH  10  11
ATOM     11  C   UNL     1      96.242 -63.490 103.768  1.00  0.00    -0.003 C 
ATOM     12  C   UNL     1      95.473 -64.311 102.734  1.00  0.00     0.004 C 
ENDBRANCH  10  11
ENDBRANCH   9  10
ENDBRANCH   8   9
ENDBRANCH   7   8
ENDBRANCH   5   6
ENDBRANCH   4   5
ENDBRANCH   2   3
ENDBRANCH   1   2
BRANCH   1  13
ATOM     13  C   UNL     1      94.719 -60.181 103.712  1.00  0.00     0.000 C 
BRANCH  13  14
ATOM     14  C   UNL     1      93.937 -60.062 102.396  1.00  0.00     0.000 C 
BRANCH  14  15
ATOM     15  C   UNL     1      92.553 -60.728 102.469  1.00  0.00     0.000 C 
BRANCH  15  16
ATOM     16  C   UNL     1      92.528 -62.124 101.823  1.00  0.00     0.003 C 
BRANCH  16  17
ATOM     17  C   UNL     1      91.977 -63.224 102.755  1.00  0.00     0.042 C 
BRANCH  17  18
ATOM     18  C   UNL     1      91.319 -64.370 101.975  1.00  0.00     0.233 C 
BRANCH  18  19
ATOM     19  O   UNL     1      92.037 -64.634 100.772  1.00  0.00    -0.466 OA
BRANCH  19  20
ATOM     20  C   UNL     1      91.414 -64.904  99.548  1.00  0.00     0.302 C 
ATOM     21  O   UNL     1      92.093 -65.044  98.494  1.00  0.00    -0.253 OA
ATOM     22  C   UNL     1      89.926 -64.967  99.482  1.00  0.00     0.139 C 
ENDBRANCH  19  20
ENDBRANCH  18  19
ENDBRANCH  17  18
ENDBRANCH  16  17
ENDBRANCH  15  16
ENDBRANCH  14  15
ENDBRANCH  13  14
ENDBRANCH   1  13
TORSDOF 16
ENDMDL
MODEL 7
REMARK VINA RESULT:    -4.680      2.523      5.458
REMARK INTER + INTRA:         -11.581
REMARK INTER:                  -9.295
REMARK INTRA:                  -2.286
REMARK UNBOUND:                -2.523
REMARK SMILES CCCCCC=CCC=CCCCCCCCCOC(C)=O
REMARK SMILES IDX 12 1 11 2 10 3 9 4 8 5 7 6 6 7 5 8 4 9 3 10 2 11 1 12 13 13
REMARK SMILES IDX 14 14 15 15 16 16 17 17 18 18 19 19 20 20 22 21 21 22
REMARK H PARENT
REMARK Flexibility Score: inf
ROOT
ATOM      1  C   UNL     1      96.730 -60.093 105.162  1.00  0.00     0.004 C 
ENDROOT
BRANCH   1   2
ATOM      2  C   UNL     1      96.172 -58.665 105.109  1.00  0.00     0.027 C 
BRANCH   2   3
ATOM      3  C   UNL     1      94.807 -58.627 104.477  1.00  0.00    -0.031 C 
ATOM      4  C   UNL     1      94.378 -59.607 103.667  1.00  0.00    -0.027 C 
BRANCH   4   5
ATOM      5  C   UNL     1      92.996 -59.585 103.075  1.00  0.00     0.054 C 
BRANCH   5   6
ATOM      6  C   UNL     1      92.977 -60.226 101.709  1.00  0.00    -0.027 C 
ATOM      7  C   UNL     1      92.595 -61.497 101.489  1.00  0.00    -0.031 C 
BRANCH   7   8
ATOM      8  C   UNL     1      92.179 -62.464 102.571  1.00  0.00     0.027 C 
BRANCH   8   9
ATOM      9  C   UNL     1      93.380 -63.187 103.196  1.00  0.00     0.004 C 
BRANCH   9  10
ATOM     10  C   UNL     1      93.971 -64.249 102.252  1.00  0.00     0.000 C 
BRANCH  10  11
ATOM     11  C   UNL     1      95.461 -64.014 101.961  1.00  0.00    -0.003 C 
ATOM     12  C   UNL     1      95.988 -62.722 102.584  1.00  0.00     0.004 C 
ENDBRANCH  10  11
ENDBRANCH   9  10
ENDBRANCH   8   9
ENDBRANCH   7   8
ENDBRANCH   5   6
ENDBRANCH   4   5
ENDBRANCH   2   3
ENDBRANCH   1   2
BRANCH   1  13
ATOM     13  C   UNL     1      98.217 -60.123 105.556  1.00  0.00     0.000 C 
BRANCH  13  14
ATOM     14  C   UNL     1      98.845 -61.513 105.383  1.00  0.00     0.000 C 
BRANCH  14  15
ATOM     15  C   UNL     1      98.444 -62.487 106.504  1.00  0.00     0.000 C 
BRANCH  15  16
ATOM     16  C   UNL     1      97.937 -63.837 105.968  1.00  0.00     0.003 C 
BRANCH  16  17
ATOM     17  C   UNL     1      96.434 -64.076 106.224  1.00  0.00     0.042 C 
BRANCH  17  18
ATOM     18  C   UNL     1      95.899 -65.291 105.454  1.00  0.00     0.233 C 
BRANCH  18  19
ATOM     19  O   UNL     1      95.558 -66.343 106.354  1.00  0.00    -0.466 OA
BRANCH  19  20
ATOM     20  C   UNL     1      96.379 -67.451 106.589  1.00  0.00     0.302 C 
ATOM     21  O   UNL     1      97.448 -67.613 105.938  1.00  0.00    -0.253 OA
ATOM     22  C   UNL     1      95.955 -68.481 107.580  1.00  0.00     0.139 C 
ENDBRANCH  19  20
ENDBRANCH  18  19
ENDBRANCH  17  18
ENDBRANCH  16  17
ENDBRANCH  15  16
ENDBRANCH  14  15
ENDBRANCH  13  14
ENDBRANCH   1  13
TORSDOF 16
ENDMDL
MODEL 8
REMARK VINA RESULT:    -4.673      3.183      6.522
REMARK INTER + INTRA:         -11.567
REMARK INTER:                  -9.194
REMARK INTRA:                  -2.372
REMARK UNBOUND:                -2.523
REMARK SMILES CCCCCC=CCC=CCCCCCCCCOC(C)=O
REMARK SMILES IDX 12 1 11 2 10 3 9 4 8 5 7 6 6 7 5 8 4 9 3 10 2 11 1 12 13 13
REMARK SMILES IDX 14 14 15 15 16 16 17 17 18 18 19 19 20 20 22 21 21 22
REMARK H PARENT
REMARK Flexibility Score: inf
ROOT
ATOM      1  C   UNL     1      93.016 -59.103 101.976  1.00  0.00     0.004 C 
ENDROOT
BRANCH   1   2
ATOM      2  C   UNL     1      92.447 -60.045 100.909  1.00  0.00     0.027 C 
BRANCH   2   3
ATOM      3  C   UNL     1      92.273 -61.443 101.440  1.00  0.00    -0.031 C 
ATOM      4  C   UNL     1      92.067 -62.487 100.622  1.00  0.00    -0.027 C 
BRANCH   4   5
ATOM      5  C   UNL     1      91.940 -63.886 101.156  1.00  0.00     0.054 C 
BRANCH   5   6
ATOM      6  C   UNL     1      91.438 -63.884 102.578  1.00  0.00    -0.027 C 
ATOM      7  C   UNL     1      91.994 -64.609 103.565  1.00  0.00    -0.031 C 
BRANCH   7   8
ATOM      8  C   UNL     1      93.158 -65.552 103.380  1.00  0.00     0.027 C 
BRANCH   8   9
ATOM      9  C   UNL     1      94.259 -65.327 104.426  1.00  0.00     0.004 C 
BRANCH   9  10
ATOM     10  C   UNL     1      94.829 -63.899 104.368  1.00  0.00     0.000 C 
BRANCH  10  11
ATOM     11  C   UNL     1      95.943 -63.753 103.320  1.00  0.00    -0.003 C 
ATOM     12  C   UNL     1      95.583 -62.768 102.209  1.00  0.00     0.004 C 
ENDBRANCH  10  11
ENDBRANCH   9  10
ENDBRANCH   8   9
ENDBRANCH   7   8
ENDBRANCH   5   6
ENDBRANCH   4   5
ENDBRANCH   2   3
ENDBRANCH   1   2
BRANCH   1  13
ATOM     13  C   UNL     1      93.576 -59.868 103.188  1.00  0.00     0.000 C 
BRANCH  13  14
ATOM     14  C   UNL     1      94.501 -59.001 104.056  1.00  0.00     0.000 C 
BRANCH  14  15
ATOM     15  C   UNL     1      95.494 -59.838 104.879  1.00  0.00     0.000 C 
BRANCH  15  16
ATOM     16  C   UNL     1      96.787 -59.073 105.211  1.00  0.00     0.003 C 
BRANCH  16  17
ATOM     17  C   UNL     1      97.989 -59.994 105.509  1.00  0.00     0.042 C 
BRANCH  17  18
ATOM     18  C   UNL     1      97.624 -61.480 105.404  1.00  0.00     0.233 C 
BRANCH  18  19
ATOM     19  O   UNL     1      98.612 -62.284 106.043  1.00  0.00    -0.466 OA
BRANCH  19  20
ATOM     20  C   UNL     1      99.754 -62.763 105.390  1.00  0.00     0.302 C 
ATOM     21  O   UNL     1     100.820 -62.981 106.029  1.00  0.00    -0.253 OA
ATOM     22  C   UNL     1      99.725 -62.959 103.912  1.00  0.00     0.139 C 
ENDBRANCH  19  20
ENDBRANCH  18  19
ENDBRANCH  17  18
ENDBRANCH  16  17
ENDBRANCH  15  16
ENDBRANCH  14  15
ENDBRANCH  13  14
ENDBRANCH   1  13
TORSDOF 16
ENDMDL
MODEL 9
REMARK VINA RESULT:    -4.634      2.498      4.108
REMARK INTER + INTRA:         -11.490
REMARK INTER:                  -8.740
REMARK INTRA:                  -2.751
REMARK UNBOUND:                -2.523
REMARK SMILES CCCCCC=CCC=CCCCCCCCCOC(C)=O
REMARK SMILES IDX 12 1 11 2 10 3 9 4 8 5 7 6 6 7 5 8 4 9 3 10 2 11 1 12 13 13
REMARK SMILES IDX 14 14 15 15 16 16 17 17 18 18 19 19 20 20 22 21 21 22
REMARK H PARENT
REMARK Flexibility Score: inf
ROOT
ATOM      1  C   UNL     1      95.516 -61.510 104.779  1.00  0.00     0.004 C 
ENDROOT
BRANCH   1   2
ATOM      2  C   UNL     1      95.922 -60.073 105.127  1.00  0.00     0.027 C 
BRANCH   2   3
ATOM      3  C   UNL     1      97.418 -59.904 105.122  1.00  0.00    -0.031 C 
ATOM      4  C   UNL     1      98.224 -60.737 105.801  1.00  0.00    -0.027 C 
BRANCH   4   5
ATOM      5  C   UNL     1      99.719 -60.589 105.755  1.00  0.00     0.054 C 
BRANCH   5   6
ATOM      6  C   UNL     1     100.405 -61.909 106.007  1.00  0.00    -0.027 C 
ATOM      7  C   UNL     1     100.475 -62.897 105.098  1.00  0.00    -0.031 C 
BRANCH   7   8
ATOM      8  C   UNL     1      99.844 -62.843 103.728  1.00  0.00     0.027 C 
BRANCH   8   9
ATOM      9  C   UNL     1      98.644 -63.793 103.603  1.00  0.00     0.004 C 
BRANCH   9  10
ATOM     10  C   UNL     1      98.492 -64.697 104.839  1.00  0.00     0.000 C 
BRANCH  10  11
ATOM     11  C   UNL     1      97.156 -64.478 105.566  1.00  0.00    -0.003 C 
ATOM     12  C   UNL     1      97.335 -64.156 107.048  1.00  0.00     0.004 C 
ENDBRANCH  10  11
ENDBRANCH   9  10
ENDBRANCH   8   9
ENDBRANCH   7   8
ENDBRANCH   5   6
ENDBRANCH   4   5
ENDBRANCH   2   3
ENDBRANCH   1   2
BRANCH   1  13
ATOM     13  C   UNL     1      95.427 -61.737 103.260  1.00  0.00     0.000 C 
BRANCH  13  14
ATOM     14  C   UNL     1      95.027 -63.176 102.901  1.00  0.00     0.000 C 
BRANCH  14  15
ATOM     15  C   UNL     1      93.769 -63.644 103.650  1.00  0.00     0.000 C 
BRANCH  15  16
ATOM     16  C   UNL     1      92.471 -63.078 103.048  1.00  0.00     0.003 C 
BRANCH  16  17
ATOM     17  C   UNL     1      92.528 -62.902 101.515  1.00  0.00     0.042 C 
BRANCH  17  18
ATOM     18  C   UNL     1      92.257 -61.455 101.085  1.00  0.00     0.233 C 
BRANCH  18  19
ATOM     19  O   UNL     1      92.227 -60.593 102.220  1.00  0.00    -0.466 OA
BRANCH  19  20
ATOM     20  C   UNL     1      92.797 -59.315 102.230  1.00  0.00     0.302 C 
ATOM     21  O   UNL     1      93.247 -58.816 103.298  1.00  0.00    -0.253 OA
ATOM     22  C   UNL     1      92.818 -58.512 100.974  1.00  0.00     0.139 C 
ENDBRANCH  19  20
ENDBRANCH  18  19
ENDBRANCH  17  18
ENDBRANCH  16  17
ENDBRANCH  15  16
ENDBRANCH  14  15
ENDBRANCH  13  14
ENDBRANCH   1  13
TORSDOF 16
ENDMDL
