MODEL 1
REMARK VINA RESULT:    -5.319      0.000      0.000
REMARK INTER + INTRA:          -6.639
REMARK INTER:                  -6.563
REMARK INTRA:                  -0.076
REMARK UNBOUND:                -0.076
REMARK SMILES CCCCCC(=O)[O-]
REMARK SMILES IDX 4 1 5 2 6 3 7 4 8 5 3 6 2 7 1 8
REMARK H PARENT
REMARK Flexibility Score: inf
ROOT
ATOM      1  C   UNL     1      -8.155  -6.080 -19.367  1.00  0.00     0.006 C 
ENDROOT
BRANCH   1   2
ATOM      2  C   UNL     1      -7.035  -5.345 -20.121  1.00  0.00     0.053 C 
BRANCH   2   3
ATOM      3  C   UNL     1      -7.393  -3.919 -20.408  1.00  0.00     0.041 C 
ATOM      4  O   UNL     1      -7.930  -3.210 -19.517  1.00  0.00    -0.550 OA
ATOM      5  O   UNL     1      -7.164  -3.384 -21.668  1.00  0.00    -0.550 OA
ENDBRANCH   2   3
ENDBRANCH   1   2
BRANCH   1   6
ATOM      6  C   UNL     1      -8.747  -7.281 -20.127  1.00  0.00     0.000 C 
BRANCH   6   7
ATOM      7  C   UNL     1      -8.424  -8.626 -19.459  1.00  0.00    -0.003 C 
ATOM      8  C   UNL     1      -7.996  -9.664 -20.493  1.00  0.00     0.004 C 
ENDBRANCH   6   7
ENDBRANCH   1   6
TORSDOF 4
ENDMDL
MODEL 2
REMARK VINA RESULT:    -5.191      0.958      1.300
REMARK INTER + INTRA:          -6.481
REMARK INTER:                  -6.436
REMARK INTRA:                  -0.046
REMARK UNBOUND:                -0.076
REMARK SMILES CCCCCC(=O)[O-]
REMARK SMILES IDX 4 1 5 2 6 3 7 4 8 5 3 6 2 7 1 8
REMARK H PARENT
REMARK Flexibility Score: inf
ROOT
ATOM      1  C   UNL     1      -7.437  -5.339 -19.977  1.00  0.00     0.006 C 
ENDROOT
BRANCH   1   2
ATOM      2  C   UNL     1      -7.693  -3.948 -19.374  1.00  0.00     0.053 C 
BRANCH   2   3
ATOM      3  C   UNL     1      -7.477  -2.854 -20.375  1.00  0.00     0.041 C 
ATOM      4  O   UNL     1      -7.540  -1.649 -20.017  1.00  0.00    -0.550 OA
ATOM      5  O   UNL     1      -7.239  -3.166 -21.706  1.00  0.00    -0.550 OA
ENDBRANCH   2   3
ENDBRANCH   1   2
BRANCH   1   6
ATOM      6  C   UNL     1      -8.230  -6.475 -19.307  1.00  0.00     0.000 C 
BRANCH   6   7
ATOM      7  C   UNL     1      -8.238  -7.766 -20.139  1.00  0.00    -0.003 C 
ATOM      8  C   UNL     1      -8.562  -8.978 -19.270  1.00  0.00     0.004 C 
ENDBRANCH   6   7
ENDBRANCH   1   6
TORSDOF 4
ENDMDL
MODEL 3
REMARK VINA RESULT:    -5.154      1.336      2.110
REMARK INTER + INTRA:          -6.435
REMARK INTER:                  -6.320
REMARK INTRA:                  -0.115
REMARK UNBOUND:                -0.076
REMARK SMILES CCCCCC(=O)[O-]
REMARK SMILES IDX 4 1 5 2 6 3 7 4 8 5 3 6 2 7 1 8
REMARK H PARENT
REMARK Flexibility Score: inf
ROOT
ATOM      1  C   UNL     1      -7.386  -4.280 -19.073  1.00  0.00     0.006 C 
ENDROOT
BRANCH   1   2
ATOM      2  C   UNL     1      -6.824  -4.437 -20.495  1.00  0.00     0.053 C 
BRANCH   2   3
ATOM      3  C   UNL     1      -6.490  -3.115 -21.116  1.00  0.00     0.041 C 
ATOM      4  O   UNL     1      -5.315  -2.875 -21.499  1.00  0.00    -0.550 OA
ATOM      5  O   UNL     1      -7.468  -2.138 -21.240  1.00  0.00    -0.550 OA
ENDBRANCH   2   3
ENDBRANCH   1   2
BRANCH   1   6
ATOM      6  C   UNL     1      -8.250  -5.463 -18.599  1.00  0.00     0.000 C 
BRANCH   6   7
ATOM      7  C   UNL     1      -8.806  -6.298 -19.763  1.00  0.00    -0.003 C 
ATOM      8  C   UNL     1      -8.344  -7.749 -19.668  1.00  0.00     0.004 C 
ENDBRANCH   6   7
ENDBRANCH   1   6
TORSDOF 4
ENDMDL
MODEL 4
REMARK VINA RESULT:    -4.978      1.685      2.439
REMARK INTER + INTRA:          -6.218
REMARK INTER:                  -6.141
REMARK INTRA:                  -0.077
REMARK UNBOUND:                -0.076
REMARK SMILES CCCCCC(=O)[O-]
REMARK SMILES IDX 4 1 5 2 6 3 7 4 8 5 3 6 2 7 1 8
REMARK H PARENT
REMARK Flexibility Score: inf
ROOT
ATOM      1  C   UNL     1      -7.679  -3.855 -19.895  1.00  0.00     0.006 C 
ENDROOT
BRANCH   1   2
ATOM      2  C   UNL     1      -6.947  -3.006 -20.948  1.00  0.00     0.053 C 
BRANCH   2   3
ATOM      3  C   UNL     1      -5.554  -2.660 -20.520  1.00  0.00     0.041 C 
ATOM      4  O   UNL     1      -5.281  -2.530 -19.299  1.00  0.00    -0.550 OA
ATOM      5  O   UNL     1      -4.567  -2.449 -21.473  1.00  0.00    -0.550 OA
ENDBRANCH   2   3
ENDBRANCH   1   2
BRANCH   1   6
ATOM      6  C   UNL     1      -7.404  -5.366 -19.998  1.00  0.00     0.000 C 
BRANCH   6   7
ATOM      7  C   UNL     1      -8.577  -6.220 -19.492  1.00  0.00    -0.003 C 
ATOM      8  C   UNL     1      -8.323  -7.704 -19.740  1.00  0.00     0.004 C 
ENDBRANCH   6   7
ENDBRANCH   1   6
TORSDOF 4
ENDMDL
MODEL 5
REMARK VINA RESULT:    -4.955      1.862      2.581
REMARK INTER + INTRA:          -6.190
REMARK INTER:                  -6.141
REMARK INTRA:                  -0.049
REMARK UNBOUND:                -0.076
REMARK SMILES CCCCCC(=O)[O-]
REMARK SMILES IDX 4 1 5 2 6 3 7 4 8 5 3 6 2 7 1 8
REMARK H PARENT
REMARK Flexibility Score: inf
ROOT
ATOM      1  C   UNL     1      -7.392  -4.054 -19.254  1.00  0.00     0.006 C 
ENDROOT
BRANCH   1   2
ATOM      2  C   UNL     1      -7.517  -2.832 -20.179  1.00  0.00     0.053 C 
BRANCH   2   3
ATOM      3  C   UNL     1      -6.935  -1.598 -19.560  1.00  0.00     0.041 C 
ATOM      4  O   UNL     1      -7.576  -0.515 -19.586  1.00  0.00    -0.550 OA
ATOM      5  O   UNL     1      -5.672  -1.637 -18.987  1.00  0.00    -0.550 OA
ENDBRANCH   2   3
ENDBRANCH   1   2
BRANCH   1   6
ATOM      6  C   UNL     1      -7.374  -5.405 -19.991  1.00  0.00     0.000 C 
BRANCH   6   7
ATOM      7  C   UNL     1      -8.645  -6.232 -19.747  1.00  0.00    -0.003 C 
ATOM      8  C   UNL     1      -8.322  -7.720 -19.647  1.00  0.00     0.004 C 
ENDBRANCH   6   7
ENDBRANCH   1   6
TORSDOF 4
ENDMDL
MODEL 6
REMARK VINA RESULT:    -4.760      3.583      5.016
REMARK INTER + INTRA:          -5.950
REMARK INTER:                  -5.897
REMARK INTRA:                  -0.053
REMARK UNBOUND:                -0.076
REMARK SMILES CCCCCC(=O)[O-]
REMARK SMILES IDX 4 1 5 2 6 3 7 4 8 5 3 6 2 7 1 8
REMARK H PARENT
REMARK Flexibility Score: inf
ROOT
ATOM      1  C   UNL     1      -8.644  -7.475 -20.111  1.00  0.00     0.006 C 
ENDROOT
BRANCH   1   2
ATOM      2  C   UNL     1      -8.389  -8.870 -19.517  1.00  0.00     0.053 C 
BRANCH   2   3
ATOM      3  C   UNL     1      -8.095  -9.886 -20.577  1.00  0.00     0.041 C 
ATOM      4  O   UNL     1      -7.556 -10.982 -20.271  1.00  0.00    -0.550 OA
ATOM      5  O   UNL     1      -8.385  -9.609 -21.906  1.00  0.00    -0.550 OA
ENDBRANCH   2   3
ENDBRANCH   1   2
BRANCH   1   6
ATOM      6  C   UNL     1      -8.164  -6.312 -19.224  1.00  0.00     0.000 C 
BRANCH   6   7
ATOM      7  C   UNL     1      -7.406  -5.235 -20.013  1.00  0.00    -0.003 C 
ATOM      8  C   UNL     1      -6.457  -4.455 -19.107  1.00  0.00     0.004 C 
ENDBRANCH   6   7
ENDBRANCH   1   6
TORSDOF 4
ENDMDL
MODEL 7
REMARK VINA RESULT:    -4.644      2.973      5.088
REMARK INTER + INTRA:          -5.806
REMARK INTER:                  -5.629
REMARK INTRA:                  -0.177
REMARK UNBOUND:                -0.076
REMARK SMILES CCCCCC(=O)[O-]
REMARK SMILES IDX 4 1 5 2 6 3 7 4 8 5 3 6 2 7 1 8
REMARK H PARENT
REMARK Flexibility Score: inf
ROOT
ATOM      1  C   UNL     1      -7.369  -1.901 -20.499  1.00  0.00     0.006 C 
ENDROOT
BRANCH   1   2
ATOM      2  C   UNL     1      -7.142  -3.276 -21.148  1.00  0.00     0.053 C 
BRANCH   2   3
ATOM      3  C   UNL     1      -7.459  -4.399 -20.209  1.00  0.00     0.041 C 
ATOM      4  O   UNL     1      -6.825  -5.483 -20.284  1.00  0.00    -0.550 OA
ATOM      5  O   UNL     1      -8.477  -4.259 -19.276  1.00  0.00    -0.550 OA
ENDBRANCH   2   3
ENDBRANCH   1   2
BRANCH   1   6
ATOM      6  C   UNL     1      -6.308  -1.512 -19.453  1.00  0.00     0.000 C 
BRANCH   6   7
ATOM      7  C   UNL     1      -4.878  -1.848 -19.901  1.00  0.00    -0.003 C 
ATOM      8  C   UNL     1      -4.106  -2.555 -18.791  1.00  0.00     0.004 C 
ENDBRANCH   6   7
ENDBRANCH   1   6
TORSDOF 4
ENDMDL
MODEL 8
REMARK VINA RESULT:    -4.629      2.535      5.093
REMARK INTER + INTRA:          -5.788
REMARK INTER:                  -5.738
REMARK INTRA:                  -0.050
REMARK UNBOUND:                -0.076
REMARK SMILES CCCCCC(=O)[O-]
REMARK SMILES IDX 4 1 5 2 6 3 7 4 8 5 3 6 2 7 1 8
REMARK H PARENT
REMARK Flexibility Score: inf
ROOT
ATOM      1  C   UNL     1      -6.920  -4.083 -19.192  1.00  0.00     0.006 C 
ENDROOT
BRANCH   1   2
ATOM      2  C   UNL     1      -7.076  -5.311 -20.104  1.00  0.00     0.053 C 
BRANCH   2   3
ATOM      3  C   UNL     1      -8.244  -6.160 -19.708  1.00  0.00     0.041 C 
ATOM      4  O   UNL     1      -9.391  -5.651 -19.610  1.00  0.00    -0.550 OA
ATOM      5  O   UNL     1      -8.060  -7.505 -19.416  1.00  0.00    -0.550 OA
ENDBRANCH   2   3
ENDBRANCH   1   2
BRANCH   1   6
ATOM      6  C   UNL     1      -7.485  -2.779 -19.783  1.00  0.00     0.000 C 
BRANCH   6   7
ATOM      7  C   UNL     1      -6.630  -1.550 -19.439  1.00  0.00    -0.003 C 
ATOM      8  C   UNL     1      -7.465  -0.273 -19.476  1.00  0.00     0.004 C 
ENDBRANCH   6   7
ENDBRANCH   1   6
TORSDOF 4
ENDMDL
MODEL 9
REMARK VINA RESULT:    -4.552      3.652      4.754
REMARK INTER + INTRA:          -5.693
REMARK INTER:                  -5.464
REMARK INTRA:                  -0.229
REMARK UNBOUND:                -0.076
REMARK SMILES CCCCCC(=O)[O-]
REMARK SMILES IDX 4 1 5 2 6 3 7 4 8 5 3 6 2 7 1 8
REMARK H PARENT
REMARK Flexibility Score: inf
ROOT
ATOM      1  C   UNL     1      -7.113  -1.499 -19.813  1.00  0.00     0.006 C 
ENDROOT
BRANCH   1   2
ATOM      2  C   UNL     1      -6.003  -0.851 -18.971  1.00  0.00     0.053 C 
BRANCH   2   3
ATOM      3  C   UNL     1      -4.671  -1.496 -19.204  1.00  0.00     0.041 C 
ATOM      4  O   UNL     1      -3.872  -1.662 -18.246  1.00  0.00    -0.550 OA
ATOM      5  O   UNL     1      -4.300  -1.881 -20.485  1.00  0.00    -0.550 OA
ENDBRANCH   2   3
ENDBRANCH   1   2
BRANCH   1   6
ATOM      6  C   UNL     1      -7.495  -2.923 -19.370  1.00  0.00     0.000 C 
BRANCH   6   7
ATOM      7  C   UNL     1      -7.468  -3.934 -20.526  1.00  0.00    -0.003 C 
ATOM      8  C   UNL     1      -7.123  -3.250 -21.846  1.00  0.00     0.004 C 
ENDBRANCH   6   7
ENDBRANCH   1   6
TORSDOF 4
ENDMDL
