MODEL 1
REMARK VINA RESULT:    -4.905      0.000      0.000
REMARK INTER + INTRA:         -17.005
REMARK INTER:                 -12.361
REMARK INTRA:                  -4.644
REMARK UNBOUND:                -4.644
REMARK SMILES CCCCCCCCCCCCCCCCCCCCCCCCCCCC(=O)[O-]
REMARK SMILES IDX 15 1 16 2 17 3 18 4 19 5 20 6 21 7 22 8 23 9 24 10 25 11
REMARK SMILES IDX 26 12 27 13 28 14 29 15 30 16 14 17 13 18 12 19 11 20 10 21
REMARK SMILES IDX 9 22 8 23 7 24 6 25 5 26 4 27 3 28 2 29 1 30
REMARK H PARENT
REMARK Flexibility Score: inf
ROOT
ATOM      1  C   UNL     1     -18.120 -10.769  -1.637  1.00  0.00     0.000 C 
ENDROOT
BRANCH   1   2
ATOM      2  C   UNL     1     -18.507  -9.311  -1.323  1.00  0.00     0.000 C 
BRANCH   2   3
ATOM      3  C   UNL     1     -19.675  -9.150  -0.331  1.00  0.00     0.000 C 
BRANCH   3   4
ATOM      4  C   UNL     1     -19.366  -8.199   0.845  1.00  0.00     0.000 C 
BRANCH   4   5
ATOM      5  C   UNL     1     -17.920  -8.339   1.352  1.00  0.00     0.000 C 
BRANCH   5   6
ATOM      6  C   UNL     1     -17.010  -7.190   0.863  1.00  0.00     0.000 C 
BRANCH   6   7
ATOM      7  C   UNL     1     -15.642  -7.659   0.328  1.00  0.00     0.000 C 
BRANCH   7   8
ATOM      8  C   UNL     1     -15.297  -9.129   0.619  1.00  0.00     0.000 C 
BRANCH   8   9
ATOM      9  C   UNL     1     -14.640  -9.833  -0.583  1.00  0.00     0.000 C 
BRANCH   9  10
ATOM     10  C   UNL     1     -13.639  -8.933  -1.323  1.00  0.00     0.000 C 
BRANCH  10  11
ATOM     11  C   UNL     1     -14.009  -8.725  -2.803  1.00  0.00     0.000 C 
BRANCH  11  12
ATOM     12  C   UNL     1     -14.993  -9.784  -3.325  1.00  0.00     0.006 C 
BRANCH  12  13
ATOM     13  C   UNL     1     -15.728  -9.335  -4.596  1.00  0.00     0.053 C 
BRANCH  13  14
ATOM     14  C   UNL     1     -16.394  -8.011  -4.387  1.00  0.00     0.041 C 
ATOM     15  O   UNL     1     -16.696  -7.290  -5.375  1.00  0.00    -0.550 OA
ATOM     16  O   UNL     1     -16.687  -7.574  -3.101  1.00  0.00    -0.550 OA
ENDBRANCH  13  14
ENDBRANCH  12  13
ENDBRANCH  11  12
ENDBRANCH  10  11
ENDBRANCH   9  10
ENDBRANCH   8   9
ENDBRANCH   7   8
ENDBRANCH   6   7
ENDBRANCH   5   6
ENDBRANCH   4   5
ENDBRANCH   3   4
ENDBRANCH   2   3
ENDBRANCH   1   2
BRANCH   1  17
ATOM     17  C   UNL     1     -17.863 -11.661  -0.406  1.00  0.00     0.000 C 
BRANCH  17  18
ATOM     18  C   UNL     1     -18.472 -13.074  -0.481  1.00  0.00     0.000 C 
BRANCH  18  19
ATOM     19  C   UNL     1     -19.660 -13.218  -1.452  1.00  0.00     0.000 C 
BRANCH  19  20
ATOM     20  C   UNL     1     -19.327 -13.899  -2.796  1.00  0.00     0.000 C 
BRANCH  20  21
ATOM     21  C   UNL     1     -18.454 -15.167  -2.689  1.00  0.00     0.000 C 
BRANCH  21  22
ATOM     22  C   UNL     1     -17.025 -15.032  -3.252  1.00  0.00    -0.000 C 
BRANCH  22  23
ATOM     23  C   UNL     1     -16.604 -13.597  -3.608  1.00  0.00    -0.000 C 
BRANCH  23  24
ATOM     24  C   UNL     1     -15.393 -13.113  -2.791  1.00  0.00    -0.000 C 
BRANCH  24  25
ATOM     25  C   UNL     1     -15.062 -14.055  -1.617  1.00  0.00    -0.000 C 
BRANCH  25  26
ATOM     26  C   UNL     1     -13.923 -13.547  -0.714  1.00  0.00    -0.000 C 
BRANCH  26  27
ATOM     27  C   UNL     1     -14.414 -13.180   0.697  1.00  0.00    -0.000 C 
BRANCH  27  28
ATOM     28  C   UNL     1     -15.523 -14.122   1.197  1.00  0.00    -0.000 C 
BRANCH  28  29
ATOM     29  C   UNL     1     -15.544 -14.237   2.729  1.00  0.00    -0.003 C 
ATOM     30  C   UNL     1     -15.520 -15.696   3.174  1.00  0.00     0.004 C 
ENDBRANCH  28  29
ENDBRANCH  27  28
ENDBRANCH  26  27
ENDBRANCH  25  26
ENDBRANCH  24  25
ENDBRANCH  23  24
ENDBRANCH  22  23
ENDBRANCH  21  22
ENDBRANCH  20  21
ENDBRANCH  19  20
ENDBRANCH  18  19
ENDBRANCH  17  18
ENDBRANCH   1  17
TORSDOF 26
ENDMDL
MODEL 2
REMARK VINA RESULT:    -4.714      2.400      6.744
REMARK INTER + INTRA:         -16.523
REMARK INTER:                 -11.680
REMARK INTRA:                  -4.843
REMARK UNBOUND:                -4.644
REMARK SMILES CCCCCCCCCCCCCCCCCCCCCCCCCCCC(=O)[O-]
REMARK SMILES IDX 15 1 16 2 17 3 18 4 19 5 20 6 21 7 22 8 23 9 24 10 25 11
REMARK SMILES IDX 26 12 27 13 28 14 29 15 30 16 14 17 13 18 12 19 11 20 10 21
REMARK SMILES IDX 9 22 8 23 7 24 6 25 5 26 4 27 3 28 2 29 1 30
REMARK H PARENT
REMARK Flexibility Score: inf
ROOT
ATOM      1  C   UNL     1     -17.648 -10.964  -1.491  1.00  0.00     0.000 C 
ENDROOT
BRANCH   1   2
ATOM      2  C   UNL     1     -18.030 -11.852  -0.291  1.00  0.00     0.000 C 
BRANCH   2   3
ATOM      3  C   UNL     1     -18.561 -13.249  -0.663  1.00  0.00     0.000 C 
BRANCH   3   4
ATOM      4  C   UNL     1     -19.717 -13.224  -1.687  1.00  0.00     0.000 C 
BRANCH   4   5
ATOM      5  C   UNL     1     -19.532 -14.261  -2.808  1.00  0.00     0.000 C 
BRANCH   5   6
ATOM      6  C   UNL     1     -18.068 -14.740  -2.934  1.00  0.00     0.000 C 
BRANCH   6   7
ATOM      7  C   UNL     1     -17.221 -13.914  -3.922  1.00  0.00     0.000 C 
BRANCH   7   8
ATOM      8  C   UNL     1     -15.846 -13.473  -3.393  1.00  0.00     0.000 C 
BRANCH   8   9
ATOM      9  C   UNL     1     -15.419 -14.245  -2.131  1.00  0.00     0.000 C 
BRANCH   9  10
ATOM     10  C   UNL     1     -13.898 -14.230  -1.913  1.00  0.00     0.000 C 
BRANCH  10  11
ATOM     11  C   UNL     1     -13.497 -13.595  -0.570  1.00  0.00     0.000 C 
BRANCH  11  12
ATOM     12  C   UNL     1     -14.598 -12.700   0.018  1.00  0.00     0.006 C 
BRANCH  12  13
ATOM     13  C   UNL     1     -14.753 -12.868   1.536  1.00  0.00     0.053 C 
BRANCH  13  14
ATOM     14  C   UNL     1     -15.562 -14.086   1.857  1.00  0.00     0.041 C 
ATOM     15  O   UNL     1     -16.292 -14.613   0.976  1.00  0.00    -0.550 OA
ATOM     16  O   UNL     1     -15.504 -14.646   3.128  1.00  0.00    -0.550 OA
ENDBRANCH  13  14
ENDBRANCH  12  13
ENDBRANCH  11  12
ENDBRANCH  10  11
ENDBRANCH   9  10
ENDBRANCH   8   9
ENDBRANCH   7   8
ENDBRANCH   6   7
ENDBRANCH   5   6
ENDBRANCH   4   5
ENDBRANCH   3   4
ENDBRANCH   2   3
ENDBRANCH   1   2
BRANCH   1  17
ATOM     17  C   UNL     1     -18.399  -9.620  -1.581  1.00  0.00     0.000 C 
BRANCH  17  18
ATOM     18  C   UNL     1     -19.588  -9.467  -0.614  1.00  0.00     0.000 C 
BRANCH  18  19
ATOM     19  C   UNL     1     -19.423  -8.362   0.447  1.00  0.00     0.000 C 
BRANCH  19  20
ATOM     20  C   UNL     1     -18.156  -8.478   1.319  1.00  0.00     0.000 C 
BRANCH  20  21
ATOM     21  C   UNL     1     -17.137  -7.332   1.151  1.00  0.00     0.000 C 
BRANCH  21  22
ATOM     22  C   UNL     1     -15.977  -7.620   0.177  1.00  0.00    -0.000 C 
BRANCH  22  23
ATOM     23  C   UNL     1     -15.199  -8.915   0.464  1.00  0.00    -0.000 C 
BRANCH  23  24
ATOM     24  C   UNL     1     -14.620  -9.556  -0.810  1.00  0.00    -0.000 C 
BRANCH  24  25
ATOM     25  C   UNL     1     -13.801  -8.557  -1.650  1.00  0.00    -0.000 C 
BRANCH  25  26
ATOM     26  C   UNL     1     -13.907  -8.788  -3.169  1.00  0.00    -0.000 C 
BRANCH  26  27
ATOM     27  C   UNL     1     -14.856  -9.947  -3.520  1.00  0.00    -0.000 C 
BRANCH  27  28
ATOM     28  C   UNL     1     -16.044  -9.493  -4.387  1.00  0.00    -0.000 C 
BRANCH  28  29
ATOM     29  C   UNL     1     -16.428  -8.029  -4.128  1.00  0.00    -0.003 C 
ATOM     30  C   UNL     1     -16.799  -7.316  -5.425  1.00  0.00     0.004 C 
ENDBRANCH  28  29
ENDBRANCH  27  28
ENDBRANCH  26  27
ENDBRANCH  25  26
ENDBRANCH  24  25
ENDBRANCH  23  24
ENDBRANCH  22  23
ENDBRANCH  21  22
ENDBRANCH  20  21
ENDBRANCH  19  20
ENDBRANCH  18  19
ENDBRANCH  17  18
ENDBRANCH   1  17
TORSDOF 26
ENDMDL
MODEL 3
REMARK VINA RESULT:    -4.483      2.412      6.493
REMARK INTER + INTRA:         -15.941
REMARK INTER:                 -11.218
REMARK INTRA:                  -4.723
REMARK UNBOUND:                -4.644
REMARK SMILES CCCCCCCCCCCCCCCCCCCCCCCCCCCC(=O)[O-]
REMARK SMILES IDX 15 1 16 2 17 3 18 4 19 5 20 6 21 7 22 8 23 9 24 10 25 11
REMARK SMILES IDX 26 12 27 13 28 14 29 15 30 16 14 17 13 18 12 19 11 20 10 21
REMARK SMILES IDX 9 22 8 23 7 24 6 25 5 26 4 27 3 28 2 29 1 30
REMARK H PARENT
REMARK Flexibility Score: inf
ROOT
ATOM      1  C   UNL     1     -18.652  -9.198   0.836  1.00  0.00     0.000 C 
ENDROOT
BRANCH   1   2
ATOM      2  C   UNL     1     -18.998  -9.033  -0.657  1.00  0.00     0.000 C 
BRANCH   2   3
ATOM      3  C   UNL     1     -18.725 -10.276  -1.525  1.00  0.00     0.000 C 
BRANCH   3   4
ATOM      4  C   UNL     1     -17.801 -11.315  -0.853  1.00  0.00     0.000 C 
BRANCH   4   5
ATOM      5  C   UNL     1     -18.585 -12.476  -0.217  1.00  0.00     0.000 C 
BRANCH   5   6
ATOM      6  C   UNL     1     -19.851 -12.844  -1.023  1.00  0.00     0.000 C 
BRANCH   6   7
ATOM      7  C   UNL     1     -19.655 -14.027  -1.992  1.00  0.00     0.000 C 
BRANCH   7   8
ATOM      8  C   UNL     1     -18.977 -13.673  -3.326  1.00  0.00     0.000 C 
BRANCH   8   9
ATOM      9  C   UNL     1     -17.594 -14.332  -3.482  1.00  0.00     0.000 C 
BRANCH   9  10
ATOM     10  C   UNL     1     -17.118 -15.023  -2.195  1.00  0.00     0.000 C 
BRANCH  10  11
ATOM     11  C   UNL     1     -15.592 -14.942  -2.007  1.00  0.00     0.000 C 
BRANCH  11  12
ATOM     12  C   UNL     1     -15.183 -14.025  -0.845  1.00  0.00     0.006 C 
BRANCH  12  13
ATOM     13  C   UNL     1     -16.048 -14.231   0.407  1.00  0.00     0.053 C 
BRANCH  13  14
ATOM     14  C   UNL     1     -15.300 -13.833   1.641  1.00  0.00     0.041 C 
ATOM     15  O   UNL     1     -15.600 -14.341   2.755  1.00  0.00    -0.550 OA
ATOM     16  O   UNL     1     -14.267 -12.907   1.562  1.00  0.00    -0.550 OA
ENDBRANCH  13  14
ENDBRANCH  12  13
ENDBRANCH  11  12
ENDBRANCH  10  11
ENDBRANCH   9  10
ENDBRANCH   8   9
ENDBRANCH   7   8
ENDBRANCH   6   7
ENDBRANCH   5   6
ENDBRANCH   4   5
ENDBRANCH   3   4
ENDBRANCH   2   3
ENDBRANCH   1   2
BRANCH   1  17
ATOM     17  C   UNL     1     -17.952  -7.987   1.487  1.00  0.00     0.000 C 
BRANCH  17  18
ATOM     18  C   UNL     1     -16.604  -7.591   0.855  1.00  0.00     0.000 C 
BRANCH  18  19
ATOM     19  C   UNL     1     -15.377  -8.320   1.437  1.00  0.00     0.000 C 
BRANCH  19  20
ATOM     20  C   UNL     1     -15.127  -9.733   0.871  1.00  0.00     0.000 C 
BRANCH  20  21
ATOM     21  C   UNL     1     -14.916  -9.800  -0.656  1.00  0.00     0.000 C 
BRANCH  21  22
ATOM     22  C   UNL     1     -13.797  -8.892  -1.206  1.00  0.00    -0.000 C 
BRANCH  22  23
ATOM     23  C   UNL     1     -14.281  -7.741  -2.104  1.00  0.00    -0.000 C 
BRANCH  23  24
ATOM     24  C   UNL     1     -15.798  -7.786  -2.362  1.00  0.00    -0.000 C 
BRANCH  24  25
ATOM     25  C   UNL     1     -16.136  -7.844  -3.865  1.00  0.00    -0.000 C 
BRANCH  25  26
ATOM     26  C   UNL     1     -16.424  -9.266  -4.383  1.00  0.00    -0.000 C 
BRANCH  26  27
ATOM     27  C   UNL     1     -15.168 -10.154  -4.385  1.00  0.00    -0.000 C 
BRANCH  27  28
ATOM     28  C   UNL     1     -15.419 -11.528  -3.737  1.00  0.00    -0.000 C 
BRANCH  28  29
ATOM     29  C   UNL     1     -14.484 -12.613  -4.293  1.00  0.00    -0.003 C 
ATOM     30  C   UNL     1     -14.475 -12.607  -5.819  1.00  0.00     0.004 C 
ENDBRANCH  28  29
ENDBRANCH  27  28
ENDBRANCH  26  27
ENDBRANCH  25  26
ENDBRANCH  24  25
ENDBRANCH  23  24
ENDBRANCH  22  23
ENDBRANCH  21  22
ENDBRANCH  20  21
ENDBRANCH  19  20
ENDBRANCH  18  19
ENDBRANCH  17  18
ENDBRANCH   1  17
TORSDOF 26
ENDMDL
MODEL 4
REMARK VINA RESULT:    -4.320      2.344      6.249
REMARK INTER + INTRA:         -15.530
REMARK INTER:                 -11.188
REMARK INTRA:                  -4.342
REMARK UNBOUND:                -4.644
REMARK SMILES CCCCCCCCCCCCCCCCCCCCCCCCCCCC(=O)[O-]
REMARK SMILES IDX 15 1 16 2 17 3 18 4 19 5 20 6 21 7 22 8 23 9 24 10 25 11
REMARK SMILES IDX 26 12 27 13 28 14 29 15 30 16 14 17 13 18 12 19 11 20 10 21
REMARK SMILES IDX 9 22 8 23 7 24 6 25 5 26 4 27 3 28 2 29 1 30
REMARK H PARENT
REMARK Flexibility Score: inf
ROOT
ATOM      1  C   UNL     1     -17.900 -11.206  -0.094  1.00  0.00     0.000 C 
ENDROOT
BRANCH   1   2
ATOM      2  C   UNL     1     -19.316 -11.789  -0.263  1.00  0.00     0.000 C 
BRANCH   2   3
ATOM      3  C   UNL     1     -19.365 -13.204  -0.872  1.00  0.00     0.000 C 
BRANCH   3   4
ATOM      4  C   UNL     1     -20.008 -13.256  -2.275  1.00  0.00     0.000 C 
BRANCH   4   5
ATOM      5  C   UNL     1     -19.188 -14.097  -3.267  1.00  0.00     0.000 C 
BRANCH   5   6
ATOM      6  C   UNL     1     -18.250 -15.099  -2.557  1.00  0.00     0.000 C 
BRANCH   6   7
ATOM      7  C   UNL     1     -16.755 -14.886  -2.866  1.00  0.00     0.000 C 
BRANCH   7   8
ATOM      8  C   UNL     1     -16.417 -13.563  -3.573  1.00  0.00     0.000 C 
BRANCH   8   9
ATOM      9  C   UNL     1     -15.282 -12.790  -2.877  1.00  0.00     0.000 C 
BRANCH   9  10
ATOM     10  C   UNL     1     -14.090 -13.689  -2.513  1.00  0.00     0.000 C 
BRANCH  10  11
ATOM     11  C   UNL     1     -13.801 -13.708  -1.001  1.00  0.00     0.000 C 
BRANCH  11  12
ATOM     12  C   UNL     1     -14.503 -12.569  -0.246  1.00  0.00     0.006 C 
BRANCH  12  13
ATOM     13  C   UNL     1     -14.576 -12.817   1.268  1.00  0.00     0.053 C 
BRANCH  13  14
ATOM     14  C   UNL     1     -15.598 -13.862   1.587  1.00  0.00     0.041 C 
ATOM     15  O   UNL     1     -15.626 -14.394   2.729  1.00  0.00    -0.550 OA
ATOM     16  O   UNL     1     -16.526 -14.247   0.626  1.00  0.00    -0.550 OA
ENDBRANCH  13  14
ENDBRANCH  12  13
ENDBRANCH  11  12
ENDBRANCH  10  11
ENDBRANCH   9  10
ENDBRANCH   8   9
ENDBRANCH   7   8
ENDBRANCH   6   7
ENDBRANCH   5   6
ENDBRANCH   4   5
ENDBRANCH   3   4
ENDBRANCH   2   3
ENDBRANCH   1   2
BRANCH   1  17
ATOM     17  C   UNL     1     -17.244 -10.686  -1.389  1.00  0.00     0.000 C 
BRANCH  17  18
ATOM     18  C   UNL     1     -18.013  -9.564  -2.110  1.00  0.00     0.000 C 
BRANCH  18  19
ATOM     19  C   UNL     1     -17.138  -8.400  -2.617  1.00  0.00     0.000 C 
BRANCH  19  20
ATOM     20  C   UNL     1     -17.004  -8.304  -4.151  1.00  0.00     0.000 C 
BRANCH  20  21
ATOM     21  C   UNL     1     -15.657  -8.792  -4.723  1.00  0.00     0.000 C 
BRANCH  21  22
ATOM     22  C   UNL     1     -14.752  -9.544  -3.727  1.00  0.00    -0.000 C 
BRANCH  22  23
ATOM     23  C   UNL     1     -13.767  -8.656  -2.949  1.00  0.00    -0.000 C 
BRANCH  23  24
ATOM     24  C   UNL     1     -13.719  -8.994  -1.449  1.00  0.00    -0.000 C 
BRANCH  24  25
ATOM     25  C   UNL     1     -14.787  -8.232  -0.640  1.00  0.00    -0.000 C 
BRANCH  25  26
ATOM     26  C   UNL     1     -15.149  -8.902   0.699  1.00  0.00    -0.000 C 
BRANCH  26  27
ATOM     27  C   UNL     1     -15.972  -7.977   1.613  1.00  0.00    -0.000 C 
BRANCH  27  28
ATOM     28  C   UNL     1     -17.242  -7.448   0.923  1.00  0.00    -0.000 C 
BRANCH  28  29
ATOM     29  C   UNL     1     -18.523  -8.049   1.521  1.00  0.00    -0.003 C 
ATOM     30  C   UNL     1     -19.600  -8.228   0.455  1.00  0.00     0.004 C 
ENDBRANCH  28  29
ENDBRANCH  27  28
ENDBRANCH  26  27
ENDBRANCH  25  26
ENDBRANCH  24  25
ENDBRANCH  23  24
ENDBRANCH  22  23
ENDBRANCH  21  22
ENDBRANCH  20  21
ENDBRANCH  19  20
ENDBRANCH  18  19
ENDBRANCH  17  18
ENDBRANCH   1  17
TORSDOF 26
ENDMDL
MODEL 5
REMARK VINA RESULT:    -4.132      3.902      4.961
REMARK INTER + INTRA:         -15.055
REMARK INTER:                 -11.981
REMARK INTRA:                  -3.074
REMARK UNBOUND:                -4.644
REMARK SMILES CCCCCCCCCCCCCCCCCCCCCCCCCCCC(=O)[O-]
REMARK SMILES IDX 15 1 16 2 17 3 18 4 19 5 20 6 21 7 22 8 23 9 24 10 25 11
REMARK SMILES IDX 26 12 27 13 28 14 29 15 30 16 14 17 13 18 12 19 11 20 10 21
REMARK SMILES IDX 9 22 8 23 7 24 6 25 5 26 4 27 3 28 2 29 1 30
REMARK H PARENT
REMARK Flexibility Score: inf
ROOT
ATOM      1  C   UNL     1     -18.150  -9.131   0.868  1.00  0.00     0.000 C 
ENDROOT
BRANCH   1   2
ATOM      2  C   UNL     1     -17.581  -7.745   1.226  1.00  0.00     0.000 C 
BRANCH   2   3
ATOM      3  C   UNL     1     -16.098  -7.540   0.864  1.00  0.00     0.000 C 
BRANCH   3   4
ATOM      4  C   UNL     1     -15.480  -8.717   0.079  1.00  0.00     0.000 C 
BRANCH   4   5
ATOM      5  C   UNL     1     -15.357  -8.420  -1.426  1.00  0.00     0.000 C 
BRANCH   5   6
ATOM      6  C   UNL     1     -14.071  -9.016  -2.041  1.00  0.00     0.000 C 
BRANCH   6   7
ATOM      7  C   UNL     1     -12.906  -8.013  -2.152  1.00  0.00     0.000 C 
BRANCH   7   8
ATOM      8  C   UNL     1     -11.618  -8.425  -1.419  1.00  0.00     0.000 C 
BRANCH   8   9
ATOM      9  C   UNL     1     -10.409  -7.552  -1.804  1.00  0.00     0.000 C 
BRANCH   9  10
ATOM     10  C   UNL     1      -9.272  -8.364  -2.443  1.00  0.00     0.000 C 
BRANCH  10  11
ATOM     11  C   UNL     1      -7.995  -7.530  -2.657  1.00  0.00     0.000 C 
BRANCH  11  12
ATOM     12  C   UNL     1      -6.759  -8.397  -2.944  1.00  0.00     0.006 C 
BRANCH  12  13
ATOM     13  C   UNL     1      -7.034  -9.898  -2.776  1.00  0.00     0.053 C 
BRANCH  13  14
ATOM     14  C   UNL     1      -6.966 -10.602  -4.095  1.00  0.00     0.041 C 
ATOM     15  O   UNL     1      -6.883 -11.858  -4.140  1.00  0.00    -0.550 OA
ATOM     16  O   UNL     1      -7.003  -9.872  -5.277  1.00  0.00    -0.550 OA
ENDBRANCH  13  14
ENDBRANCH  12  13
ENDBRANCH  11  12
ENDBRANCH  10  11
ENDBRANCH   9  10
ENDBRANCH   8   9
ENDBRANCH   7   8
ENDBRANCH   6   7
ENDBRANCH   5   6
ENDBRANCH   4   5
ENDBRANCH   3   4
ENDBRANCH   2   3
ENDBRANCH   1   2
BRANCH   1  17
ATOM     17  C   UNL     1     -19.183  -9.142  -0.277  1.00  0.00     0.000 C 
BRANCH  17  18
ATOM     18  C   UNL     1     -18.756  -9.917  -1.538  1.00  0.00     0.000 C 
BRANCH  18  19
ATOM     19  C   UNL     1     -17.927 -11.188  -1.270  1.00  0.00     0.000 C 
BRANCH  19  20
ATOM     20  C   UNL     1     -18.684 -12.321  -0.548  1.00  0.00     0.000 C 
BRANCH  20  21
ATOM     21  C   UNL     1     -19.397 -13.327  -1.475  1.00  0.00     0.000 C 
BRANCH  21  22
ATOM     22  C   UNL     1     -18.709 -13.573  -2.833  1.00  0.00    -0.000 C 
BRANCH  22  23
ATOM     23  C   UNL     1     -17.850 -14.846  -2.901  1.00  0.00    -0.000 C 
BRANCH  23  24
ATOM     24  C   UNL     1     -16.477 -14.673  -2.227  1.00  0.00    -0.000 C 
BRANCH  24  25
ATOM     25  C   UNL     1     -15.693 -13.472  -2.789  1.00  0.00    -0.000 C 
BRANCH  25  26
ATOM     26  C   UNL     1     -14.902 -12.692  -1.723  1.00  0.00    -0.000 C 
BRANCH  26  27
ATOM     27  C   UNL     1     -13.981 -13.603  -0.894  1.00  0.00    -0.000 C 
BRANCH  27  28
ATOM     28  C   UNL     1     -14.047 -13.291   0.612  1.00  0.00    -0.000 C 
BRANCH  28  29
ATOM     29  C   UNL     1     -15.489 -13.279   1.142  1.00  0.00    -0.003 C 
ATOM     30  C   UNL     1     -15.700 -14.365   2.192  1.00  0.00     0.004 C 
ENDBRANCH  28  29
ENDBRANCH  27  28
ENDBRANCH  26  27
ENDBRANCH  25  26
ENDBRANCH  24  25
ENDBRANCH  23  24
ENDBRANCH  22  23
ENDBRANCH  21  22
ENDBRANCH  20  21
ENDBRANCH  19  20
ENDBRANCH  18  19
ENDBRANCH  17  18
ENDBRANCH   1  17
TORSDOF 26
ENDMDL
MODEL 6
REMARK VINA RESULT:    -4.099      4.757      6.252
REMARK INTER + INTRA:         -14.973
REMARK INTER:                 -11.633
REMARK INTRA:                  -3.340
REMARK UNBOUND:                -4.644
REMARK SMILES CCCCCCCCCCCCCCCCCCCCCCCCCCCC(=O)[O-]
REMARK SMILES IDX 15 1 16 2 17 3 18 4 19 5 20 6 21 7 22 8 23 9 24 10 25 11
REMARK SMILES IDX 26 12 27 13 28 14 29 15 30 16 14 17 13 18 12 19 11 20 10 21
REMARK SMILES IDX 9 22 8 23 7 24 6 25 5 26 4 27 3 28 2 29 1 30
REMARK H PARENT
REMARK Flexibility Score: inf
ROOT
ATOM      1  C   UNL     1     -15.669  -7.962  -0.299  1.00  0.00     0.000 C 
ENDROOT
BRANCH   1   2
ATOM      2  C   UNL     1     -15.849  -8.106  -1.823  1.00  0.00     0.000 C 
BRANCH   2   3
ATOM      3  C   UNL     1     -14.639  -8.705  -2.564  1.00  0.00     0.000 C 
BRANCH   3   4
ATOM      4  C   UNL     1     -13.370  -8.824  -1.691  1.00  0.00     0.000 C 
BRANCH   4   5
ATOM      5  C   UNL     1     -12.223  -7.933  -2.196  1.00  0.00     0.000 C 
BRANCH   5   6
ATOM      6  C   UNL     1     -10.890  -8.219  -1.468  1.00  0.00     0.000 C 
BRANCH   6   7
ATOM      7  C   UNL     1      -9.666  -7.534  -2.108  1.00  0.00     0.000 C 
BRANCH   7   8
ATOM      8  C   UNL     1      -8.520  -8.481  -2.501  1.00  0.00     0.000 C 
BRANCH   8   9
ATOM      9  C   UNL     1      -7.482  -7.808  -3.418  1.00  0.00     0.000 C 
BRANCH   9  10
ATOM     10  C   UNL     1      -6.416  -8.790  -3.928  1.00  0.00     0.000 C 
BRANCH  10  11
ATOM     11  C   UNL     1      -7.028 -10.037  -4.593  1.00  0.00     0.000 C 
BRANCH  11  12
ATOM     12  C   UNL     1      -6.393 -11.347  -4.101  1.00  0.00     0.006 C 
BRANCH  12  13
ATOM     13  C   UNL     1      -7.044 -11.877  -2.816  1.00  0.00     0.053 C 
BRANCH  13  14
ATOM     14  C   UNL     1      -7.085 -13.373  -2.818  1.00  0.00     0.041 C 
ATOM     15  O   UNL     1      -6.741 -14.015  -3.846  1.00  0.00    -0.550 OA
ATOM     16  O   UNL     1      -7.497 -14.061  -1.682  1.00  0.00    -0.550 OA
ENDBRANCH  13  14
ENDBRANCH  12  13
ENDBRANCH  11  12
ENDBRANCH  10  11
ENDBRANCH   9  10
ENDBRANCH   8   9
ENDBRANCH   7   8
ENDBRANCH   6   7
ENDBRANCH   5   6
ENDBRANCH   4   5
ENDBRANCH   3   4
ENDBRANCH   2   3
ENDBRANCH   1   2
BRANCH   1  17
ATOM     17  C   UNL     1     -16.970  -7.747   0.499  1.00  0.00     0.000 C 
BRANCH  17  18
ATOM     18  C   UNL     1     -17.856  -8.997   0.662  1.00  0.00     0.000 C 
BRANCH  18  19
ATOM     19  C   UNL     1     -18.971  -9.143  -0.393  1.00  0.00     0.000 C 
BRANCH  19  20
ATOM     20  C   UNL     1     -18.954 -10.469  -1.181  1.00  0.00     0.000 C 
BRANCH  20  21
ATOM     21  C   UNL     1     -19.141 -11.741  -0.328  1.00  0.00     0.000 C 
BRANCH  21  22
ATOM     22  C   UNL     1     -19.339 -13.045  -1.126  1.00  0.00    -0.000 C 
BRANCH  22  23
ATOM     23  C   UNL     1     -18.730 -13.038  -2.538  1.00  0.00    -0.000 C 
BRANCH  23  24
ATOM     24  C   UNL     1     -17.588 -14.058  -2.697  1.00  0.00    -0.000 C 
BRANCH  24  25
ATOM     25  C   UNL     1     -16.426 -13.509  -3.548  1.00  0.00    -0.000 C 
BRANCH  25  26
ATOM     26  C   UNL     1     -15.726 -12.285  -2.929  1.00  0.00    -0.000 C 
BRANCH  26  27
ATOM     27  C   UNL     1     -15.008 -12.626  -1.611  1.00  0.00    -0.000 C 
BRANCH  27  28
ATOM     28  C   UNL     1     -15.464 -11.731  -0.445  1.00  0.00    -0.000 C 
BRANCH  28  29
ATOM     29  C   UNL     1     -16.010 -12.547   0.736  1.00  0.00    -0.003 C 
ATOM     30  C   UNL     1     -15.071 -13.695   1.095  1.00  0.00     0.004 C 
ENDBRANCH  28  29
ENDBRANCH  27  28
ENDBRANCH  26  27
ENDBRANCH  25  26
ENDBRANCH  24  25
ENDBRANCH  23  24
ENDBRANCH  22  23
ENDBRANCH  21  22
ENDBRANCH  20  21
ENDBRANCH  19  20
ENDBRANCH  18  19
ENDBRANCH  17  18
ENDBRANCH   1  17
TORSDOF 26
ENDMDL
MODEL 7
REMARK VINA RESULT:    -4.069      2.250      6.456
REMARK INTER + INTRA:         -14.897
REMARK INTER:                  -9.975
REMARK INTRA:                  -4.922
REMARK UNBOUND:                -4.644
REMARK SMILES CCCCCCCCCCCCCCCCCCCCCCCCCCCC(=O)[O-]
REMARK SMILES IDX 15 1 16 2 17 3 18 4 19 5 20 6 21 7 22 8 23 9 24 10 25 11
REMARK SMILES IDX 26 12 27 13 28 14 29 15 30 16 14 17 13 18 12 19 11 20 10 21
REMARK SMILES IDX 9 22 8 23 7 24 6 25 5 26 4 27 3 28 2 29 1 30
REMARK H PARENT
REMARK Flexibility Score: inf
ROOT
ATOM      1  C   UNL     1     -17.550 -10.948  -1.434  1.00  0.00     0.000 C 
ENDROOT
BRANCH   1   2
ATOM      2  C   UNL     1     -17.385 -11.506  -0.007  1.00  0.00     0.000 C 
BRANCH   2   3
ATOM      3  C   UNL     1     -17.555 -13.032   0.115  1.00  0.00     0.000 C 
BRANCH   3   4
ATOM      4  C   UNL     1     -16.360 -13.740   0.789  1.00  0.00     0.000 C 
BRANCH   4   5
ATOM      5  C   UNL     1     -15.331 -12.747   1.355  1.00  0.00     0.000 C 
BRANCH   5   6
ATOM      6  C   UNL     1     -13.968 -12.832   0.632  1.00  0.00     0.000 C 
BRANCH   6   7
ATOM      7  C   UNL     1     -13.834 -14.045  -0.311  1.00  0.00     0.000 C 
BRANCH   7   8
ATOM      8  C   UNL     1     -13.643 -13.698  -1.797  1.00  0.00     0.000 C 
BRANCH   8   9
ATOM      9  C   UNL     1     -14.605 -12.596  -2.278  1.00  0.00     0.000 C 
BRANCH   9  10
ATOM     10  C   UNL     1     -15.707 -13.134  -3.204  1.00  0.00     0.000 C 
BRANCH  10  11
ATOM     11  C   UNL     1     -15.979 -14.635  -2.993  1.00  0.00     0.000 C 
BRANCH  11  12
ATOM     12  C   UNL     1     -17.462 -14.941  -2.733  1.00  0.00     0.006 C 
BRANCH  12  13
ATOM     13  C   UNL     1     -18.399 -13.871  -3.310  1.00  0.00     0.053 C 
BRANCH  13  14
ATOM     14  C   UNL     1     -19.792 -14.048  -2.792  1.00  0.00     0.041 C 
ATOM     15  O   UNL     1     -20.687 -14.535  -3.533  1.00  0.00    -0.550 OA
ATOM     16  O   UNL     1     -20.102 -13.682  -1.488  1.00  0.00    -0.550 OA
ENDBRANCH  13  14
ENDBRANCH  12  13
ENDBRANCH  11  12
ENDBRANCH  10  11
ENDBRANCH   9  10
ENDBRANCH   8   9
ENDBRANCH   7   8
ENDBRANCH   6   7
ENDBRANCH   5   6
ENDBRANCH   4   5
ENDBRANCH   3   4
ENDBRANCH   2   3
ENDBRANCH   1   2
BRANCH   1  17
ATOM     17  C   UNL     1     -18.584  -9.813  -1.581  1.00  0.00     0.000 C 
BRANCH  17  18
ATOM     18  C   UNL     1     -19.699  -9.800  -0.519  1.00  0.00     0.000 C 
BRANCH  18  19
ATOM     19  C   UNL     1     -19.711  -8.558   0.394  1.00  0.00     0.000 C 
BRANCH  19  20
ATOM     20  C   UNL     1     -18.444  -8.367   1.253  1.00  0.00     0.000 C 
BRANCH  20  21
ATOM     21  C   UNL     1     -17.580  -7.144   0.884  1.00  0.00     0.000 C 
BRANCH  21  22
ATOM     22  C   UNL     1     -16.058  -7.391   0.880  1.00  0.00    -0.000 C 
BRANCH  22  23
ATOM     23  C   UNL     1     -15.642  -8.868   0.782  1.00  0.00    -0.000 C 
BRANCH  23  24
ATOM     24  C   UNL     1     -14.495  -9.098  -0.217  1.00  0.00    -0.000 C 
BRANCH  24  25
ATOM     25  C   UNL     1     -14.723  -8.364  -1.553  1.00  0.00    -0.000 C 
BRANCH  25  26
ATOM     26  C   UNL     1     -14.112  -9.082  -2.770  1.00  0.00    -0.000 C 
BRANCH  26  27
ATOM     27  C   UNL     1     -15.158  -9.385  -3.857  1.00  0.00    -0.000 C 
BRANCH  27  28
ATOM     28  C   UNL     1     -16.296  -8.349  -3.882  1.00  0.00    -0.000 C 
BRANCH  28  29
ATOM     29  C   UNL     1     -16.706  -7.969  -5.313  1.00  0.00    -0.003 C 
ATOM     30  C   UNL     1     -16.667  -6.456  -5.516  1.00  0.00     0.004 C 
ENDBRANCH  28  29
ENDBRANCH  27  28
ENDBRANCH  26  27
ENDBRANCH  25  26
ENDBRANCH  24  25
ENDBRANCH  23  24
ENDBRANCH  22  23
ENDBRANCH  21  22
ENDBRANCH  20  21
ENDBRANCH  19  20
ENDBRANCH  18  19
ENDBRANCH  17  18
ENDBRANCH   1  17
TORSDOF 26
ENDMDL
MODEL 8
REMARK VINA RESULT:    -4.010      2.084      6.053
REMARK INTER + INTRA:         -14.748
REMARK INTER:                 -10.555
REMARK INTRA:                  -4.193
REMARK UNBOUND:                -4.644
REMARK SMILES CCCCCCCCCCCCCCCCCCCCCCCCCCCC(=O)[O-]
REMARK SMILES IDX 15 1 16 2 17 3 18 4 19 5 20 6 21 7 22 8 23 9 24 10 25 11
REMARK SMILES IDX 26 12 27 13 28 14 29 15 30 16 14 17 13 18 12 19 11 20 10 21
REMARK SMILES IDX 9 22 8 23 7 24 6 25 5 26 4 27 3 28 2 29 1 30
REMARK H PARENT
REMARK Flexibility Score: inf
ROOT
ATOM      1  C   UNL     1     -19.750 -13.994  -2.866  1.00  0.00     0.000 C 
ENDROOT
BRANCH   1   2
ATOM      2  C   UNL     1     -18.266 -13.922  -3.274  1.00  0.00     0.000 C 
BRANCH   2   3
ATOM      3  C   UNL     1     -17.510 -15.263  -3.204  1.00  0.00     0.000 C 
BRANCH   3   4
ATOM      4  C   UNL     1     -16.263 -15.228  -2.294  1.00  0.00     0.000 C 
BRANCH   4   5
ATOM      5  C   UNL     1     -16.602 -14.830  -0.847  1.00  0.00     0.000 C 
BRANCH   5   6
ATOM      6  C   UNL     1     -15.342 -14.691   0.037  1.00  0.00     0.000 C 
BRANCH   6   7
ATOM      7  C   UNL     1     -15.538 -13.787   1.270  1.00  0.00     0.000 C 
BRANCH   7   8
ATOM      8  C   UNL     1     -14.703 -12.496   1.272  1.00  0.00     0.000 C 
BRANCH   8   9
ATOM      9  C   UNL     1     -15.391 -11.343   0.518  1.00  0.00     0.000 C 
BRANCH   9  10
ATOM     10  C   UNL     1     -14.796 -11.110  -0.880  1.00  0.00     0.000 C 
BRANCH  10  11
ATOM     11  C   UNL     1     -15.677 -11.686  -2.003  1.00  0.00     0.000 C 
BRANCH  11  12
ATOM     12  C   UNL     1     -14.878 -12.514  -3.021  1.00  0.00     0.006 C 
BRANCH  12  13
ATOM     13  C   UNL     1     -15.268 -12.207  -4.474  1.00  0.00     0.053 C 
BRANCH  13  14
ATOM     14  C   UNL     1     -14.358 -12.914  -5.430  1.00  0.00     0.041 C 
ATOM     15  O   UNL     1     -14.557 -12.834  -6.671  1.00  0.00    -0.550 OA
ATOM     16  O   UNL     1     -13.285 -13.655  -4.950  1.00  0.00    -0.550 OA
ENDBRANCH  13  14
ENDBRANCH  12  13
ENDBRANCH  11  12
ENDBRANCH  10  11
ENDBRANCH   9  10
ENDBRANCH   8   9
ENDBRANCH   7   8
ENDBRANCH   6   7
ENDBRANCH   5   6
ENDBRANCH   4   5
ENDBRANCH   3   4
ENDBRANCH   2   3
ENDBRANCH   1   2
BRANCH   1  17
ATOM     17  C   UNL     1     -20.082 -13.391  -1.486  1.00  0.00     0.000 C 
BRANCH  17  18
ATOM     18  C   UNL     1     -18.865 -12.946  -0.653  1.00  0.00     0.000 C 
BRANCH  18  19
ATOM     19  C   UNL     1     -19.015 -11.575   0.035  1.00  0.00     0.000 C 
BRANCH  19  20
ATOM     20  C   UNL     1     -18.538 -10.369  -0.801  1.00  0.00     0.000 C 
BRANCH  20  21
ATOM     21  C   UNL     1     -19.353  -9.073  -0.606  1.00  0.00     0.000 C 
BRANCH  21  22
ATOM     22  C   UNL     1     -19.150  -8.366   0.749  1.00  0.00    -0.000 C 
BRANCH  22  23
ATOM     23  C   UNL     1     -17.730  -8.473   1.329  1.00  0.00    -0.000 C 
BRANCH  23  24
ATOM     24  C   UNL     1     -16.838  -7.280   0.939  1.00  0.00    -0.000 C 
BRANCH  24  25
ATOM     25  C   UNL     1     -15.667  -7.696   0.028  1.00  0.00    -0.000 C 
BRANCH  25  26
ATOM     26  C   UNL     1     -16.033  -7.757  -1.467  1.00  0.00    -0.000 C 
BRANCH  26  27
ATOM     27  C   UNL     1     -14.794  -7.898  -2.368  1.00  0.00    -0.000 C 
BRANCH  27  28
ATOM     28  C   UNL     1     -15.058  -8.786  -3.597  1.00  0.00    -0.000 C 
BRANCH  28  29
ATOM     29  C   UNL     1     -16.523  -8.724  -4.056  1.00  0.00    -0.003 C 
ATOM     30  C   UNL     1     -16.728  -7.632  -5.103  1.00  0.00     0.004 C 
ENDBRANCH  28  29
ENDBRANCH  27  28
ENDBRANCH  26  27
ENDBRANCH  25  26
ENDBRANCH  24  25
ENDBRANCH  23  24
ENDBRANCH  22  23
ENDBRANCH  21  22
ENDBRANCH  20  21
ENDBRANCH  19  20
ENDBRANCH  18  19
ENDBRANCH  17  18
ENDBRANCH   1  17
TORSDOF 26
ENDMDL
MODEL 9
REMARK VINA RESULT:    -3.999      2.353      6.492
REMARK INTER + INTRA:         -14.722
REMARK INTER:                 -10.787
REMARK INTRA:                  -3.936
REMARK UNBOUND:                -4.644
REMARK SMILES CCCCCCCCCCCCCCCCCCCCCCCCCCCC(=O)[O-]
REMARK SMILES IDX 15 1 16 2 17 3 18 4 19 5 20 6 21 7 22 8 23 9 24 10 25 11
REMARK SMILES IDX 26 12 27 13 28 14 29 15 30 16 14 17 13 18 12 19 11 20 10 21
REMARK SMILES IDX 9 22 8 23 7 24 6 25 5 26 4 27 3 28 2 29 1 30
REMARK H PARENT
REMARK Flexibility Score: inf
ROOT
ATOM      1  C   UNL     1     -16.769 -11.401  -3.236  1.00  0.00     0.000 C 
ENDROOT
BRANCH   1   2
ATOM      2  C   UNL     1     -17.481 -10.808  -2.005  1.00  0.00     0.000 C 
BRANCH   2   3
ATOM      3  C   UNL     1     -17.187 -11.529  -0.676  1.00  0.00     0.000 C 
BRANCH   3   4
ATOM      4  C   UNL     1     -18.320 -12.472  -0.215  1.00  0.00     0.000 C 
BRANCH   4   5
ATOM      5  C   UNL     1     -19.548 -12.412  -1.140  1.00  0.00     0.000 C 
BRANCH   5   6
ATOM      6  C   UNL     1     -20.094 -13.815  -1.487  1.00  0.00     0.000 C 
BRANCH   6   7
ATOM      7  C   UNL     1     -19.825 -14.250  -2.942  1.00  0.00     0.000 C 
BRANCH   7   8
ATOM      8  C   UNL     1     -18.417 -13.928  -3.469  1.00  0.00     0.000 C 
BRANCH   8   9
ATOM      9  C   UNL     1     -17.440 -15.108  -3.311  1.00  0.00     0.000 C 
BRANCH   9  10
ATOM     10  C   UNL     1     -16.661 -15.058  -1.987  1.00  0.00     0.000 C 
BRANCH  10  11
ATOM     11  C   UNL     1     -15.272 -14.413  -2.139  1.00  0.00     0.000 C 
BRANCH  11  12
ATOM     12  C   UNL     1     -14.661 -13.991  -0.794  1.00  0.00     0.006 C 
BRANCH  12  13
ATOM     13  C   UNL     1     -15.526 -14.400   0.407  1.00  0.00     0.053 C 
BRANCH  13  14
ATOM     14  C   UNL     1     -15.104 -13.667   1.641  1.00  0.00     0.041 C 
ATOM     15  O   UNL     1     -14.460 -12.588   1.549  1.00  0.00    -0.550 OA
ATOM     16  O   UNL     1     -15.429 -14.170   2.896  1.00  0.00    -0.550 OA
ENDBRANCH  13  14
ENDBRANCH  12  13
ENDBRANCH  11  12
ENDBRANCH  10  11
ENDBRANCH   9  10
ENDBRANCH   8   9
ENDBRANCH   7   8
ENDBRANCH   6   7
ENDBRANCH   5   6
ENDBRANCH   4   5
ENDBRANCH   3   4
ENDBRANCH   2   3
ENDBRANCH   1   2
BRANCH   1  17
ATOM     17  C   UNL     1     -15.280 -11.027  -3.378  1.00  0.00     0.000 C 
BRANCH  17  18
ATOM     18  C   UNL     1     -14.986  -9.848  -4.323  1.00  0.00     0.000 C 
BRANCH  18  19
ATOM     19  C   UNL     1     -16.215  -8.997  -4.700  1.00  0.00     0.000 C 
BRANCH  19  20
ATOM     20  C   UNL     1     -16.367  -7.682  -3.907  1.00  0.00     0.000 C 
BRANCH  20  21
ATOM     21  C   UNL     1     -16.350  -7.837  -2.372  1.00  0.00     0.000 C 
BRANCH  21  22
ATOM     22  C   UNL     1     -15.108  -7.259  -1.666  1.00  0.00    -0.000 C 
BRANCH  22  23
ATOM     23  C   UNL     1     -13.904  -8.213  -1.591  1.00  0.00    -0.000 C 
BRANCH  23  24
ATOM     24  C   UNL     1     -14.200  -9.478  -0.765  1.00  0.00    -0.000 C 
BRANCH  24  25
ATOM     25  C   UNL     1     -14.491  -9.159   0.714  1.00  0.00    -0.000 C 
BRANCH  25  26
ATOM     26  C   UNL     1     -15.991  -9.053   1.044  1.00  0.00    -0.000 C 
BRANCH  26  27
ATOM     27  C   UNL     1     -16.428  -7.605   1.328  1.00  0.00    -0.000 C 
BRANCH  27  28
ATOM     28  C   UNL     1     -17.957  -7.435   1.291  1.00  0.00    -0.000 C 
BRANCH  28  29
ATOM     29  C   UNL     1     -18.690  -8.778   1.162  1.00  0.00    -0.003 C 
ATOM     30  C   UNL     1     -19.579  -8.805  -0.079  1.00  0.00     0.004 C 
ENDBRANCH  28  29
ENDBRANCH  27  28
ENDBRANCH  26  27
ENDBRANCH  25  26
ENDBRANCH  24  25
ENDBRANCH  23  24
ENDBRANCH  22  23
ENDBRANCH  21  22
ENDBRANCH  20  21
ENDBRANCH  19  20
ENDBRANCH  18  19
ENDBRANCH  17  18
ENDBRANCH   1  17
TORSDOF 26
ENDMDL
