MODEL 1
REMARK VINA RESULT:    -7.105      0.000      0.000
REMARK INTER + INTRA:         -12.142
REMARK INTER:                 -10.844
REMARK INTRA:                  -1.298
REMARK UNBOUND:                -1.298
REMARK SMILES OC[C@H]1O[C@@H](O[C@@]2(CO)O[C@H](CO)[C@@H](O)[C@H]2O)[C@@H](O)[C@@H](O)[C@@H]1O
REMARK SMILES IDX 6 1 5 2 3 3 22 4 4 5 20 6 18 7 2 8 1 9 23 11 21 13 19 15
REMARK SMILES IDX 7 17 16 18 10 19 14 20 11 21 8 22 9 23 17 25 15 27 12 29
REMARK SMILES IDX 13 30
REMARK H PARENT 1 10 23 12 21 14 19 16 9 24 17 26 15 28 13 31
REMARK Flexibility Score: inf
ROOT
ATOM      1  O   UNL     1      -0.449  12.437  21.775  1.00  0.00    -0.313 OA
ENDROOT
BRANCH   1   2
ATOM      2  C   UNL     1      -1.087  12.548  20.507  1.00  0.00     0.285 C 
ATOM      3  C   UNL     1      -1.189  14.941  20.523  1.00  0.00     0.178 C 
ATOM      4  C   UNL     1      -2.720  14.935  20.782  1.00  0.00     0.177 C 
ATOM      5  O   UNL     1      -0.714  13.765  19.874  1.00  0.00    -0.341 OA
ATOM      6  C   UNL     1      -3.193  13.624  21.423  1.00  0.00     0.179 C 
ATOM      7  C   UNL     1      -2.617  12.427  20.647  1.00  0.00     0.202 C 
BRANCH   3   8
ATOM      8  C   UNL     1      -0.352  15.329  21.761  1.00  0.00     0.191 C 
BRANCH   8   9
ATOM      9  O   UNL     1      -0.031  16.694  21.731  1.00  0.00    -0.394 OA
ATOM     10  H   UNL     1       0.621  16.848  22.463  1.00  0.00     0.210 HD
ENDBRANCH   8   9
ENDBRANCH   3   8
BRANCH   4  11
ATOM     11  O   UNL     1      -3.402  15.113  19.565  1.00  0.00    -0.387 OA
ATOM     12  H   UNL     1      -3.631  16.078  19.501  1.00  0.00     0.211 HD
ENDBRANCH   4  11
BRANCH   6  13
ATOM     13  O   UNL     1      -2.811  13.582  22.775  1.00  0.00    -0.387 OA
ATOM     14  H   UNL     1      -3.642  13.634  23.315  1.00  0.00     0.211 HD
ENDBRANCH   6  13
BRANCH   7  15
ATOM     15  O   UNL     1      -2.950  11.220  21.281  1.00  0.00    -0.385 OA
ATOM     16  H   UNL     1      -3.785  11.386  21.793  1.00  0.00     0.211 HD
ENDBRANCH   7  15
ENDBRANCH   1   2
BRANCH   1  17
ATOM     17  C   UNL     1       0.467  11.351  21.921  1.00  0.00     0.224 C 
ATOM     18  C   UNL     1       1.863  11.848  22.359  1.00  0.00     0.208 C 
ATOM     19  O   UNL     1       0.608  10.581  20.736  1.00  0.00    -0.337 OA
ATOM     20  C   UNL     1       2.787  10.847  21.699  1.00  0.00     0.180 C 
ATOM     21  C   UNL     1       1.987  10.409  20.475  1.00  0.00     0.179 C 
BRANCH  17  22
ATOM     22  C   UNL     1      -0.124  10.410  22.992  1.00  0.00     0.225 C 
BRANCH  22  23
ATOM     23  O   UNL     1      -0.949   9.433  22.412  1.00  0.00    -0.391 OA
ATOM     24  H   UNL     1      -0.354   8.803  21.928  1.00  0.00     0.210 HD
ENDBRANCH  22  23
ENDBRANCH  17  22
BRANCH  18  25
ATOM     25  O   UNL     1       2.113  13.173  21.946  1.00  0.00    -0.385 OA
ATOM     26  H   UNL     1       2.308  13.173  20.974  1.00  0.00     0.211 HD
ENDBRANCH  18  25
BRANCH  20  27
ATOM     27  O   UNL     1       4.016  11.415  21.325  1.00  0.00    -0.387 OA
ATOM     28  H   UNL     1       4.057  11.365  20.334  1.00  0.00     0.211 HD
ENDBRANCH  20  27
BRANCH  21  29
ATOM     29  C   UNL     1       2.271   8.948  20.103  1.00  0.00     0.191 C 
BRANCH  29  30
ATOM     30  O   UNL     1       3.618   8.788  19.745  1.00  0.00    -0.394 OA
ATOM     31  H   UNL     1       3.627   8.342  18.858  1.00  0.00     0.210 HD
ENDBRANCH  29  30
ENDBRANCH  21  29
ENDBRANCH   1  17
TORSDOF 13
ENDMDL
MODEL 2
REMARK VINA RESULT:    -6.998      1.356      6.067
REMARK INTER + INTRA:         -11.978
REMARK INTER:                 -10.235
REMARK INTRA:                  -1.743
REMARK UNBOUND:                -1.298
REMARK SMILES OC[C@H]1O[C@@H](O[C@@]2(CO)O[C@H](CO)[C@@H](O)[C@H]2O)[C@@H](O)[C@@H](O)[C@@H]1O
REMARK SMILES IDX 6 1 5 2 3 3 22 4 4 5 20 6 18 7 2 8 1 9 23 11 21 13 19 15
REMARK SMILES IDX 7 17 16 18 10 19 14 20 11 21 8 22 9 23 17 25 15 27 12 29
REMARK SMILES IDX 13 30
REMARK H PARENT 1 10 23 12 21 14 19 16 9 24 17 26 15 28 13 31
REMARK Flexibility Score: inf
ROOT
ATOM      1  O   UNL     1       0.450  12.457  21.876  1.00  0.00    -0.313 OA
ENDROOT
BRANCH   1   2
ATOM      2  C   UNL     1       0.992  12.214  20.583  1.00  0.00     0.285 C 
ATOM      3  C   UNL     1       1.280   9.858  20.905  1.00  0.00     0.178 C 
ATOM      4  C   UNL     1       2.822  10.001  21.023  1.00  0.00     0.177 C 
ATOM      5  O   UNL     1       0.665  10.900  20.151  1.00  0.00    -0.341 OA
ATOM      6  C   UNL     1       3.242  11.416  21.440  1.00  0.00     0.179 C 
ATOM      7  C   UNL     1       2.514  12.454  20.568  1.00  0.00     0.202 C 
BRANCH   3   8
ATOM      8  C   UNL     1       0.577   9.590  22.252  1.00  0.00     0.191 C 
BRANCH   8   9
ATOM      9  O   UNL     1      -0.811   9.510  22.077  1.00  0.00    -0.394 OA
ATOM     10  H   UNL     1      -0.966   9.350  21.109  1.00  0.00     0.210 HD
ENDBRANCH   8   9
ENDBRANCH   3   8
BRANCH   4  11
ATOM     11  O   UNL     1       3.417   9.702  19.785  1.00  0.00    -0.387 OA
ATOM     12  H   UNL     1       2.761   9.950  19.081  1.00  0.00     0.211 HD
ENDBRANCH   4  11
BRANCH   6  13
ATOM     13  O   UNL     1       2.965  11.619  22.804  1.00  0.00    -0.387 OA
ATOM     14  H   UNL     1       3.163  10.766  23.272  1.00  0.00     0.211 HD
ENDBRANCH   6  13
BRANCH   7  15
ATOM     15  O   UNL     1       2.802  13.756  21.006  1.00  0.00    -0.385 OA
ATOM     16  H   UNL     1       1.979  14.295  20.863  1.00  0.00     0.211 HD
ENDBRANCH   7  15
ENDBRANCH   1   2
BRANCH   1  17
ATOM     17  C   UNL     1      -0.398  13.599  21.995  1.00  0.00     0.224 C 
ATOM     18  C   UNL     1      -1.818  13.200  22.454  1.00  0.00     0.208 C 
ATOM     19  O   UNL     1      -0.501  14.341  20.789  1.00  0.00    -0.337 OA
ATOM     20  C   UNL     1      -2.686  14.235  21.770  1.00  0.00     0.180 C 
ATOM     21  C   UNL     1      -1.869  14.588  20.530  1.00  0.00     0.179 C 
BRANCH  17  22
ATOM     22  C   UNL     1       0.255  14.534  23.034  1.00  0.00     0.225 C 
BRANCH  22  23
ATOM     23  O   UNL     1       1.034  15.523  22.413  1.00  0.00    -0.391 OA
ATOM     24  H   UNL     1       0.465  16.333  22.339  1.00  0.00     0.210 HD
ENDBRANCH  22  23
ENDBRANCH  17  22
BRANCH  18  25
ATOM     25  O   UNL     1      -2.150  11.881  22.082  1.00  0.00    -0.385 OA
ATOM     26  H   UNL     1      -2.297  11.853  21.101  1.00  0.00     0.211 HD
ENDBRANCH  18  25
BRANCH  20  27
ATOM     27  O   UNL     1      -3.948  13.731  21.418  1.00  0.00    -0.387 OA
ATOM     28  H   UNL     1      -3.795  12.821  21.053  1.00  0.00     0.211 HD
ENDBRANCH  20  27
BRANCH  21  29
ATOM     29  C   UNL     1      -2.067  16.052  20.116  1.00  0.00     0.191 C 
BRANCH  29  30
ATOM     30  O   UNL     1      -3.415  16.296  19.815  1.00  0.00    -0.394 OA
ATOM     31  H   UNL     1      -3.839  16.628  20.649  1.00  0.00     0.210 HD
ENDBRANCH  29  30
ENDBRANCH  21  29
ENDBRANCH   1  17
TORSDOF 13
ENDMDL
MODEL 3
REMARK VINA RESULT:    -6.978      1.797      5.818
REMARK INTER + INTRA:         -11.948
REMARK INTER:                 -10.176
REMARK INTRA:                  -1.772
REMARK UNBOUND:                -1.298
REMARK SMILES OC[C@H]1O[C@@H](O[C@@]2(CO)O[C@H](CO)[C@@H](O)[C@H]2O)[C@@H](O)[C@@H](O)[C@@H]1O
REMARK SMILES IDX 6 1 5 2 3 3 22 4 4 5 20 6 18 7 2 8 1 9 23 11 21 13 19 15
REMARK SMILES IDX 7 17 16 18 10 19 14 20 11 21 8 22 9 23 17 25 15 27 12 29
REMARK SMILES IDX 13 30
REMARK H PARENT 1 10 23 12 21 14 19 16 9 24 17 26 15 28 13 31
REMARK Flexibility Score: inf
ROOT
ATOM      1  O   UNL     1       1.336  12.678  21.864  1.00  0.00    -0.313 OA
ENDROOT
BRANCH   1   2
ATOM      2  C   UNL     1       1.790  12.349  20.556  1.00  0.00     0.285 C 
ATOM      3  C   UNL     1       0.951  10.106  20.590  1.00  0.00     0.178 C 
ATOM      4  C   UNL     1       2.376   9.509  20.741  1.00  0.00     0.177 C 
ATOM      5  O   UNL     1       0.929  11.386  19.963  1.00  0.00    -0.341 OA
ATOM      6  C   UNL     1       3.367  10.520  21.333  1.00  0.00     0.179 C 
ATOM      7  C   UNL     1       3.252  11.861  20.587  1.00  0.00     0.202 C 
BRANCH   3   8
ATOM      8  C   UNL     1       0.116  10.053  21.887  1.00  0.00     0.191 C 
BRANCH   8   9
ATOM      9  O   UNL     1      -1.087  10.756  21.728  1.00  0.00    -0.394 OA
ATOM     10  H   UNL     1      -1.209  10.894  20.753  1.00  0.00     0.210 HD
ENDBRANCH   8   9
ENDBRANCH   3   8
BRANCH   4  11
ATOM     11  O   UNL     1       2.849   9.101  19.481  1.00  0.00    -0.387 OA
ATOM     12  H   UNL     1       2.279   9.545  18.800  1.00  0.00     0.211 HD
ENDBRANCH   4  11
BRANCH   6  13
ATOM     13  O   UNL     1       3.125  10.684  22.708  1.00  0.00    -0.387 OA
ATOM     14  H   UNL     1       3.316  11.633  22.927  1.00  0.00     0.211 HD
ENDBRANCH   6  13
BRANCH   7  15
ATOM     15  O   UNL     1       4.072  12.831  21.184  1.00  0.00    -0.385 OA
ATOM     16  H   UNL     1       4.841  12.972  20.570  1.00  0.00     0.211 HD
ENDBRANCH   7  15
ENDBRANCH   1   2
BRANCH   1  17
ATOM     17  C   UNL     1       0.533  13.854  21.970  1.00  0.00     0.224 C 
ATOM     18  C   UNL     1       1.398  15.100  22.269  1.00  0.00     0.208 C 
ATOM     19  O   UNL     1      -0.475  13.750  22.964  1.00  0.00    -0.337 OA
ATOM     20  C   UNL     1       0.466  15.950  23.106  1.00  0.00     0.180 C 
ATOM     21  C   UNL     1      -0.428  14.909  23.773  1.00  0.00     0.179 C 
BRANCH  17  22
ATOM     22  C   UNL     1      -0.194  14.022  20.619  1.00  0.00     0.225 C 
BRANCH  22  23
ATOM     23  O   UNL     1      -1.467  13.431  20.649  1.00  0.00    -0.391 OA
ATOM     24  H   UNL     1      -1.655  13.197  21.595  1.00  0.00     0.210 HD
ENDBRANCH  22  23
ENDBRANCH  17  22
BRANCH  18  25
ATOM     25  O   UNL     1       2.591  14.773  22.946  1.00  0.00    -0.385 OA
ATOM     26  H   UNL     1       2.422  14.804  23.923  1.00  0.00     0.211 HD
ENDBRANCH  18  25
BRANCH  20  27
ATOM     27  O   UNL     1       1.151  16.717  24.062  1.00  0.00    -0.387 OA
ATOM     28  H   UNL     1       0.493  16.925  24.777  1.00  0.00     0.211 HD
ENDBRANCH  20  27
BRANCH  21  29
ATOM     29  C   UNL     1      -1.848  15.442  24.005  1.00  0.00     0.191 C 
BRANCH  29  30
ATOM     30  O   UNL     1      -2.721  14.952  23.022  1.00  0.00    -0.394 OA
ATOM     31  H   UNL     1      -3.609  15.357  23.202  1.00  0.00     0.210 HD
ENDBRANCH  29  30
ENDBRANCH  21  29
ENDBRANCH   1  17
TORSDOF 13
ENDMDL
MODEL 4
REMARK VINA RESULT:    -6.948      1.734      2.846
REMARK INTER + INTRA:         -11.902
REMARK INTER:                 -10.074
REMARK INTRA:                  -1.828
REMARK UNBOUND:                -1.298
REMARK SMILES OC[C@H]1O[C@@H](O[C@@]2(CO)O[C@H](CO)[C@@H](O)[C@H]2O)[C@@H](O)[C@@H](O)[C@@H]1O
REMARK SMILES IDX 6 1 5 2 3 3 22 4 4 5 20 6 18 7 2 8 1 9 23 11 21 13 19 15
REMARK SMILES IDX 7 17 16 18 10 19 14 20 11 21 8 22 9 23 17 25 15 27 12 29
REMARK SMILES IDX 13 30
REMARK H PARENT 1 10 23 12 21 14 19 16 9 24 17 26 15 28 13 31
REMARK Flexibility Score: inf
ROOT
ATOM      1  O   UNL     1      -1.306  12.370  21.821  1.00  0.00    -0.313 OA
ENDROOT
BRANCH   1   2
ATOM      2  C   UNL     1      -1.677  12.747  20.499  1.00  0.00     0.285 C 
ATOM      3  C   UNL     1      -0.929  15.013  20.700  1.00  0.00     0.178 C 
ATOM      4  C   UNL     1      -2.383  15.552  20.771  1.00  0.00     0.177 C 
ATOM      5  O   UNL     1      -0.812  13.767  20.018  1.00  0.00    -0.341 OA
ATOM      6  C   UNL     1      -3.375  14.479  21.240  1.00  0.00     0.179 C 
ATOM      7  C   UNL     1      -3.154  13.182  20.443  1.00  0.00     0.202 C 
BRANCH   3   8
ATOM      8  C   UNL     1      -0.193  15.031  22.057  1.00  0.00     0.191 C 
BRANCH   8   9
ATOM      9  O   UNL     1       1.009  14.315  21.976  1.00  0.00    -0.394 OA
ATOM     10  H   UNL     1       0.841  13.430  22.392  1.00  0.00     0.210 HD
ENDBRANCH   8   9
ENDBRANCH   3   8
BRANCH   4  11
ATOM     11  O   UNL     1      -2.779  16.005  19.500  1.00  0.00    -0.387 OA
ATOM     12  H   UNL     1      -2.843  15.205  18.915  1.00  0.00     0.211 HD
ENDBRANCH   4  11
BRANCH   6  13
ATOM     13  O   UNL     1      -3.228  14.256  22.620  1.00  0.00    -0.387 OA
ATOM     14  H   UNL     1      -2.903  13.325  22.733  1.00  0.00     0.211 HD
ENDBRANCH   6  13
BRANCH   7  15
ATOM     15  O   UNL     1      -3.978  12.155  20.931  1.00  0.00    -0.385 OA
ATOM     16  H   UNL     1      -4.068  11.488  20.200  1.00  0.00     0.211 HD
ENDBRANCH   7  15
ENDBRANCH   1   2
BRANCH   1  17
ATOM     17  C   UNL     1      -0.494  11.201  21.934  1.00  0.00     0.224 C 
ATOM     18  C   UNL     1      -1.351   9.946  22.211  1.00  0.00     0.208 C 
ATOM     19  O   UNL     1       0.496  11.309  22.945  1.00  0.00    -0.337 OA
ATOM     20  C   UNL     1      -0.425   9.100  23.060  1.00  0.00     0.180 C 
ATOM     21  C   UNL     1       0.447  10.146  23.747  1.00  0.00     0.179 C 
BRANCH  17  22
ATOM     22  C   UNL     1       0.257  11.048  20.594  1.00  0.00     0.225 C 
BRANCH  22  23
ATOM     23  O   UNL     1       1.521  11.656  20.647  1.00  0.00    -0.391 OA
ATOM     24  H   UNL     1       1.474  12.470  20.080  1.00  0.00     0.210 HD
ENDBRANCH  22  23
ENDBRANCH  17  22
BRANCH  18  25
ATOM     25  O   UNL     1      -2.558  10.257  22.870  1.00  0.00    -0.385 OA
ATOM     26  H   UNL     1      -2.526   9.883  23.789  1.00  0.00     0.211 HD
ENDBRANCH  18  25
BRANCH  20  27
ATOM     27  O   UNL     1      -1.118   8.321  24.000  1.00  0.00    -0.387 OA
ATOM     28  H   UNL     1      -0.916   7.373  23.782  1.00  0.00     0.211 HD
ENDBRANCH  20  27
BRANCH  21  29
ATOM     29  C   UNL     1       1.868   9.625  24.000  1.00  0.00     0.191 C 
BRANCH  29  30
ATOM     30  O   UNL     1       2.726  10.025  22.965  1.00  0.00    -0.394 OA
ATOM     31  H   UNL     1       2.240   9.868  22.113  1.00  0.00     0.210 HD
ENDBRANCH  29  30
ENDBRANCH  21  29
ENDBRANCH   1  17
TORSDOF 13
ENDMDL
MODEL 5
REMARK VINA RESULT:    -6.859      1.769      2.343
REMARK INTER + INTRA:         -11.765
REMARK INTER:                  -9.820
REMARK INTRA:                  -1.945
REMARK UNBOUND:                -1.298
REMARK SMILES OC[C@H]1O[C@@H](O[C@@]2(CO)O[C@H](CO)[C@@H](O)[C@H]2O)[C@@H](O)[C@@H](O)[C@@H]1O
REMARK SMILES IDX 6 1 5 2 3 3 22 4 4 5 20 6 18 7 2 8 1 9 23 11 21 13 19 15
REMARK SMILES IDX 7 17 16 18 10 19 14 20 11 21 8 22 9 23 17 25 15 27 12 29
REMARK SMILES IDX 13 30
REMARK H PARENT 1 10 23 12 21 14 19 16 9 24 17 26 15 28 13 31
REMARK Flexibility Score: inf
ROOT
ATOM      1  O   UNL     1      -0.420  13.290  21.628  1.00  0.00    -0.313 OA
ENDROOT
BRANCH   1   2
ATOM      2  C   UNL     1      -0.542  14.244  20.579  1.00  0.00     0.285 C 
ATOM      3  C   UNL     1      -2.386  15.415  21.562  1.00  0.00     0.178 C 
ATOM      4  C   UNL     1      -3.387  14.830  20.530  1.00  0.00     0.177 C 
ATOM      5  O   UNL     1      -1.043  15.473  21.088  1.00  0.00    -0.341 OA
ATOM      6  C   UNL     1      -2.879  13.523  19.908  1.00  0.00     0.179 C 
ATOM      7  C   UNL     1      -1.425  13.699  19.439  1.00  0.00     0.202 C 
BRANCH   3   8
ATOM      8  C   UNL     1      -2.504  14.787  22.967  1.00  0.00     0.191 C 
BRANCH   8   9
ATOM      9  O   UNL     1      -1.467  15.234  23.797  1.00  0.00    -0.394 OA
ATOM     10  H   UNL     1      -1.452  14.630  24.584  1.00  0.00     0.210 HD
ENDBRANCH   8   9
ENDBRANCH   3   8
BRANCH   4  11
ATOM     11  O   UNL     1      -3.600  15.765  19.501  1.00  0.00    -0.387 OA
ATOM     12  H   UNL     1      -4.195  16.470  19.870  1.00  0.00     0.211 HD
ENDBRANCH   4  11
BRANCH   6  13
ATOM     13  O   UNL     1      -2.988  12.473  20.837  1.00  0.00    -0.387 OA
ATOM     14  H   UNL     1      -3.439  12.840  21.641  1.00  0.00     0.211 HD
ENDBRANCH   6  13
BRANCH   7  15
ATOM     15  O   UNL     1      -0.907  12.484  18.966  1.00  0.00    -0.385 OA
ATOM     16  H   UNL     1      -1.534  12.157  18.268  1.00  0.00     0.211 HD
ENDBRANCH   7  15
ENDBRANCH   1   2
BRANCH   1  17
ATOM     17  C   UNL     1       0.882  12.737  21.823  1.00  0.00     0.224 C 
ATOM     18  C   UNL     1       1.666  13.511  22.905  1.00  0.00     0.208 C 
ATOM     19  O   UNL     1       1.656  12.708  20.632  1.00  0.00    -0.337 OA
ATOM     20  C   UNL     1       3.096  13.388  22.424  1.00  0.00     0.180 C 
ATOM     21  C   UNL     1       2.930  13.254  20.913  1.00  0.00     0.179 C 
BRANCH  17  22
ATOM     22  C   UNL     1       0.683  11.269  22.256  1.00  0.00     0.225 C 
BRANCH  22  23
ATOM     23  O   UNL     1      -0.414  10.688  21.601  1.00  0.00    -0.391 OA
ATOM     24  H   UNL     1      -0.291  10.853  20.630  1.00  0.00     0.210 HD
ENDBRANCH  22  23
ENDBRANCH  17  22
BRANCH  18  25
ATOM     25  O   UNL     1       1.245  14.853  23.015  1.00  0.00    -0.385 OA
ATOM     26  H   UNL     1       0.799  14.977  23.892  1.00  0.00     0.211 HD
ENDBRANCH  18  25
BRANCH  20  27
ATOM     27  O   UNL     1       3.873  14.511  22.750  1.00  0.00    -0.387 OA
ATOM     28  H   UNL     1       3.973  15.035  21.913  1.00  0.00     0.211 HD
ENDBRANCH  20  27
BRANCH  21  29
ATOM     29  C   UNL     1       4.023  12.373  20.295  1.00  0.00     0.191 C 
BRANCH  29  30
ATOM     30  O   UNL     1       4.871  11.874  21.295  1.00  0.00    -0.394 OA
ATOM     31  H   UNL     1       5.650  11.467  20.833  1.00  0.00     0.210 HD
ENDBRANCH  29  30
ENDBRANCH  21  29
ENDBRANCH   1  17
TORSDOF 13
ENDMDL
MODEL 6
REMARK VINA RESULT:    -6.856      1.713      5.855
REMARK INTER + INTRA:         -11.762
REMARK INTER:                  -9.927
REMARK INTRA:                  -1.835
REMARK UNBOUND:                -1.298
REMARK SMILES OC[C@H]1O[C@@H](O[C@@]2(CO)O[C@H](CO)[C@@H](O)[C@H]2O)[C@@H](O)[C@@H](O)[C@@H]1O
REMARK SMILES IDX 6 1 5 2 3 3 22 4 4 5 20 6 18 7 2 8 1 9 23 11 21 13 19 15
REMARK SMILES IDX 7 17 16 18 10 19 14 20 11 21 8 22 9 23 17 25 15 27 12 29
REMARK SMILES IDX 13 30
REMARK H PARENT 1 10 23 12 21 14 19 16 9 24 17 26 15 28 13 31
REMARK Flexibility Score: inf
ROOT
ATOM      1  O   UNL     1       0.551  11.767  21.594  1.00  0.00    -0.313 OA
ENDROOT
BRANCH   1   2
ATOM      2  C   UNL     1       0.659  10.839  20.521  1.00  0.00     0.285 C 
ATOM      3  C   UNL     1       2.464   9.596  21.486  1.00  0.00     0.178 C 
ATOM      4  C   UNL     1       3.489  10.183  20.478  1.00  0.00     0.177 C 
ATOM      5  O   UNL     1       1.125   9.584  21.000  1.00  0.00    -0.341 OA
ATOM      6  C   UNL     1       3.019  11.519  19.887  1.00  0.00     0.179 C 
ATOM      7  C   UNL     1       1.564  11.391  19.403  1.00  0.00     0.202 C 
BRANCH   3   8
ATOM      8  C   UNL     1       2.587  10.183  22.908  1.00  0.00     0.191 C 
BRANCH   8   9
ATOM      9  O   UNL     1       1.535   9.735  23.719  1.00  0.00    -0.394 OA
ATOM     10  H   UNL     1       1.782   8.824  24.027  1.00  0.00     0.210 HD
ENDBRANCH   8   9
ENDBRANCH   3   8
BRANCH   4  11
ATOM     11  O   UNL     1       3.687   9.271  19.426  1.00  0.00    -0.387 OA
ATOM     12  H   UNL     1       2.790   9.050  19.062  1.00  0.00     0.211 HD
ENDBRANCH   4  11
BRANCH   6  13
ATOM     13  O   UNL     1       3.145  12.540  20.845  1.00  0.00    -0.387 OA
ATOM     14  H   UNL     1       3.620  12.152  21.625  1.00  0.00     0.211 HD
ENDBRANCH   6  13
BRANCH   7  15
ATOM     15  O   UNL     1       1.081  12.632  18.958  1.00  0.00    -0.385 OA
ATOM     16  H   UNL     1       0.868  13.164  19.770  1.00  0.00     0.211 HD
ENDBRANCH   7  15
ENDBRANCH   1   2
BRANCH   1  17
ATOM     17  C   UNL     1      -0.744  12.327  21.809  1.00  0.00     0.224 C 
ATOM     18  C   UNL     1      -1.536  11.524  22.865  1.00  0.00     0.208 C 
ATOM     19  O   UNL     1      -1.519  12.406  20.622  1.00  0.00    -0.337 OA
ATOM     20  C   UNL     1      -2.965  11.681  22.390  1.00  0.00     0.180 C 
ATOM     21  C   UNL     1      -2.799  11.865  20.884  1.00  0.00     0.179 C 
BRANCH  17  22
ATOM     22  C   UNL     1      -0.529  13.777  22.293  1.00  0.00     0.225 C 
BRANCH  22  23
ATOM     23  O   UNL     1       0.229  14.515  21.370  1.00  0.00    -0.391 OA
ATOM     24  H   UNL     1       1.181  14.281  21.526  1.00  0.00     0.210 HD
ENDBRANCH  22  23
ENDBRANCH  17  22
BRANCH  18  25
ATOM     25  O   UNL     1      -1.130  10.175  22.927  1.00  0.00    -0.385 OA
ATOM     26  H   UNL     1      -0.811   9.980  23.846  1.00  0.00     0.211 HD
ENDBRANCH  18  25
BRANCH  20  27
ATOM     27  O   UNL     1      -3.755  10.556  22.678  1.00  0.00    -0.387 OA
ATOM     28  H   UNL     1      -4.662  10.898  22.891  1.00  0.00     0.211 HD
ENDBRANCH  20  27
BRANCH  21  29
ATOM     29  C   UNL     1      -3.883  12.780  20.299  1.00  0.00     0.191 C 
BRANCH  29  30
ATOM     30  O   UNL     1      -4.691  13.296  21.323  1.00  0.00    -0.394 OA
ATOM     31  H   UNL     1      -4.562  12.708  22.113  1.00  0.00     0.210 HD
ENDBRANCH  29  30
ENDBRANCH  21  29
ENDBRANCH   1  17
TORSDOF 13
ENDMDL
MODEL 7
REMARK VINA RESULT:    -6.812      1.447      5.838
REMARK INTER + INTRA:         -11.694
REMARK INTER:                 -10.112
REMARK INTRA:                  -1.582
REMARK UNBOUND:                -1.298
REMARK SMILES OC[C@H]1O[C@@H](O[C@@]2(CO)O[C@H](CO)[C@@H](O)[C@H]2O)[C@@H](O)[C@@H](O)[C@@H]1O
REMARK SMILES IDX 6 1 5 2 3 3 22 4 4 5 20 6 18 7 2 8 1 9 23 11 21 13 19 15
REMARK SMILES IDX 7 17 16 18 10 19 14 20 11 21 8 22 9 23 17 25 15 27 12 29
REMARK SMILES IDX 13 30
REMARK H PARENT 1 10 23 12 21 14 19 16 9 24 17 26 15 28 13 31
REMARK Flexibility Score: inf
ROOT
ATOM      1  O   UNL     1      -0.322  12.153  21.471  1.00  0.00    -0.313 OA
ENDROOT
BRANCH   1   2
ATOM      2  C   UNL     1       1.023  12.288  21.916  1.00  0.00     0.285 C 
ATOM      3  C   UNL     1       2.010  11.656  19.827  1.00  0.00     0.178 C 
ATOM      4  C   UNL     1       2.447  10.273  20.382  1.00  0.00     0.177 C 
ATOM      5  O   UNL     1       1.866  12.656  20.832  1.00  0.00    -0.341 OA
ATOM      6  C   UNL     1       1.603   9.841  21.588  1.00  0.00     0.179 C 
ATOM      7  C   UNL     1       1.510  10.995  22.600  1.00  0.00     0.202 C 
BRANCH   3   8
ATOM      8  C   UNL     1       0.805  11.586  18.866  1.00  0.00     0.191 C 
BRANCH   8   9
ATOM      9  O   UNL     1       0.367  12.875  18.530  1.00  0.00    -0.394 OA
ATOM     10  H   UNL     1       0.959  13.196  17.801  1.00  0.00     0.210 HD
ENDBRANCH   8   9
ENDBRANCH   3   8
BRANCH   4  11
ATOM     11  O   UNL     1       3.796  10.329  20.774  1.00  0.00    -0.387 OA
ATOM     12  H   UNL     1       3.825  10.110  21.742  1.00  0.00     0.211 HD
ENDBRANCH   4  11
BRANCH   6  13
ATOM     13  O   UNL     1       0.325   9.437  21.162  1.00  0.00    -0.387 OA
ATOM     14  H   UNL     1      -0.288  10.203  21.312  1.00  0.00     0.211 HD
ENDBRANCH   6  13
BRANCH   7  15
ATOM     15  O   UNL     1       0.653  10.657  23.659  1.00  0.00    -0.385 OA
ATOM     16  H   UNL     1       0.743   9.677  23.799  1.00  0.00     0.211 HD
ENDBRANCH   7  15
ENDBRANCH   1   2
BRANCH   1  17
ATOM     17  C   UNL     1      -1.171  13.278  21.697  1.00  0.00     0.224 C 
ATOM     18  C   UNL     1      -2.566  12.838  22.196  1.00  0.00     0.208 C 
ATOM     19  O   UNL     1      -1.336  14.089  20.543  1.00  0.00    -0.337 OA
ATOM     20  C   UNL     1      -3.472  13.903  21.615  1.00  0.00     0.180 C 
ATOM     21  C   UNL     1      -2.716  14.337  20.362  1.00  0.00     0.179 C 
BRANCH  17  22
ATOM     22  C   UNL     1      -0.477  14.156  22.759  1.00  0.00     0.225 C 
BRANCH  22  23
ATOM     23  O   UNL     1      -0.136  15.413  22.237  1.00  0.00    -0.391 OA
ATOM     24  H   UNL     1       0.740  15.308  21.782  1.00  0.00     0.210 HD
ENDBRANCH  22  23
ENDBRANCH  17  22
BRANCH  18  25
ATOM     25  O   UNL     1      -2.905  11.540  21.761  1.00  0.00    -0.385 OA
ATOM     26  H   UNL     1      -3.149  10.992  22.551  1.00  0.00     0.211 HD
ENDBRANCH  18  25
BRANCH  20  27
ATOM     27  O   UNL     1      -4.746  13.409  21.292  1.00  0.00    -0.387 OA
ATOM     28  H   UNL     1      -5.303  13.518  22.108  1.00  0.00     0.211 HD
ENDBRANCH  20  27
BRANCH  21  29
ATOM     29  C   UNL     1      -2.943  15.821  20.046  1.00  0.00     0.191 C 
BRANCH  29  30
ATOM     30  O   UNL     1      -2.569  16.617  21.139  1.00  0.00    -0.394 OA
ATOM     31  H   UNL     1      -1.688  17.014  20.915  1.00  0.00     0.210 HD
ENDBRANCH  29  30
ENDBRANCH  21  29
ENDBRANCH   1  17
TORSDOF 13
ENDMDL
MODEL 8
REMARK VINA RESULT:    -6.795      1.340      2.222
REMARK INTER + INTRA:         -11.668
REMARK INTER:                 -10.106
REMARK INTRA:                  -1.562
REMARK UNBOUND:                -1.298
REMARK SMILES OC[C@H]1O[C@@H](O[C@@]2(CO)O[C@H](CO)[C@@H](O)[C@H]2O)[C@@H](O)[C@@H](O)[C@@H]1O
REMARK SMILES IDX 6 1 5 2 3 3 22 4 4 5 20 6 18 7 2 8 1 9 23 11 21 13 19 15
REMARK SMILES IDX 7 17 16 18 10 19 14 20 11 21 8 22 9 23 17 25 15 27 12 29
REMARK SMILES IDX 13 30
REMARK H PARENT 1 10 23 12 21 14 19 16 9 24 17 26 15 28 13 31
REMARK Flexibility Score: inf
ROOT
ATOM      1  O   UNL     1       0.349  12.870  21.428  1.00  0.00    -0.313 OA
ENDROOT
BRANCH   1   2
ATOM      2  C   UNL     1      -0.989  12.728  21.894  1.00  0.00     0.285 C 
ATOM      3  C   UNL     1      -2.011  13.340  19.816  1.00  0.00     0.178 C 
ATOM      4  C   UNL     1      -2.449  14.724  20.368  1.00  0.00     0.177 C 
ATOM      5  O   UNL     1      -1.844  12.347  20.825  1.00  0.00    -0.341 OA
ATOM      6  C   UNL     1      -1.590  15.170  21.559  1.00  0.00     0.179 C 
ATOM      7  C   UNL     1      -1.475  14.022  22.577  1.00  0.00     0.202 C 
BRANCH   3   8
ATOM      8  C   UNL     1      -0.820  13.412  18.836  1.00  0.00     0.191 C 
BRANCH   8   9
ATOM      9  O   UNL     1      -0.339  12.126  18.550  1.00  0.00    -0.394 OA
ATOM     10  H   UNL     1      -0.263  11.652  19.419  1.00  0.00     0.210 HD
ENDBRANCH   8   9
ENDBRANCH   3   8
BRANCH   4  11
ATOM     11  O   UNL     1      -3.791  14.660  20.781  1.00  0.00    -0.387 OA
ATOM     12  H   UNL     1      -3.826  15.014  21.708  1.00  0.00     0.211 HD
ENDBRANCH   4  11
BRANCH   6  13
ATOM     13  O   UNL     1      -0.321  15.579  21.112  1.00  0.00    -0.387 OA
ATOM     14  H   UNL     1       0.227  15.764  21.919  1.00  0.00     0.211 HD
ENDBRANCH   6  13
BRANCH   7  15
ATOM     15  O   UNL     1      -0.605  14.373  23.621  1.00  0.00    -0.385 OA
ATOM     16  H   UNL     1      -0.253  15.278  23.409  1.00  0.00     0.211 HD
ENDBRANCH   7  15
ENDBRANCH   1   2
BRANCH   1  17
ATOM     17  C   UNL     1       1.206  11.748  21.638  1.00  0.00     0.224 C 
ATOM     18  C   UNL     1       2.580  12.186  22.194  1.00  0.00     0.208 C 
ATOM     19  O   UNL     1       1.415  10.981  20.462  1.00  0.00    -0.337 OA
ATOM     20  C   UNL     1       3.516  11.154  21.602  1.00  0.00     0.180 C 
ATOM     21  C   UNL     1       2.803  10.757  20.312  1.00  0.00     0.179 C 
BRANCH  17  22
ATOM     22  C   UNL     1       0.493  10.824  22.648  1.00  0.00     0.225 C 
BRANCH  22  23
ATOM     23  O   UNL     1       0.195   9.577  22.075  1.00  0.00    -0.391 OA
ATOM     24  H   UNL     1       1.046   9.215  21.714  1.00  0.00     0.210 HD
ENDBRANCH  22  23
ENDBRANCH  17  22
BRANCH  18  25
ATOM     25  O   UNL     1       2.915  13.503  21.816  1.00  0.00    -0.385 OA
ATOM     26  H   UNL     1       2.206  13.853  21.216  1.00  0.00     0.211 HD
ENDBRANCH  18  25
BRANCH  20  27
ATOM     27  O   UNL     1       4.792  11.675  21.334  1.00  0.00    -0.387 OA
ATOM     28  H   UNL     1       5.195  11.894  22.215  1.00  0.00     0.211 HD
ENDBRANCH  20  27
BRANCH  21  29
ATOM     29  C   UNL     1       3.059   9.288  19.950  1.00  0.00     0.191 C 
BRANCH  29  30
ATOM     30  O   UNL     1       2.691   8.451  21.014  1.00  0.00    -0.394 OA
ATOM     31  H   UNL     1       3.506   7.950  21.279  1.00  0.00     0.210 HD
ENDBRANCH  29  30
ENDBRANCH  21  29
ENDBRANCH   1  17
TORSDOF 13
ENDMDL
MODEL 9
REMARK VINA RESULT:    -6.789      1.882      3.697
REMARK INTER + INTRA:         -11.659
REMARK INTER:                 -10.034
REMARK INTRA:                  -1.625
REMARK UNBOUND:                -1.298
REMARK SMILES OC[C@H]1O[C@@H](O[C@@]2(CO)O[C@H](CO)[C@@H](O)[C@H]2O)[C@@H](O)[C@@H](O)[C@@H]1O
REMARK SMILES IDX 6 1 5 2 3 3 22 4 4 5 20 6 18 7 2 8 1 9 23 11 21 13 19 15
REMARK SMILES IDX 7 17 16 18 10 19 14 20 11 21 8 22 9 23 17 25 15 27 12 29
REMARK SMILES IDX 13 30
REMARK H PARENT 1 10 23 12 21 14 19 16 9 24 17 26 15 28 13 31
REMARK Flexibility Score: inf
ROOT
ATOM      1  O   UNL     1       0.912  13.824  21.640  1.00  0.00    -0.313 OA
ENDROOT
BRANCH   1   2
ATOM      2  C   UNL     1       0.473  14.134  22.958  1.00  0.00     0.285 C 
ATOM      3  C   UNL     1      -1.856  13.829  22.490  1.00  0.00     0.178 C 
ATOM      4  C   UNL     1      -2.127  15.358  22.531  1.00  0.00     0.177 C 
ATOM      5  O   UNL     1      -0.723  13.428  23.257  1.00  0.00    -0.341 OA
ATOM      6  C   UNL     1      -0.859  16.178  22.262  1.00  0.00     0.179 C 
ATOM      7  C   UNL     1       0.295  15.655  23.135  1.00  0.00     0.202 C 
BRANCH   3   8
ATOM      8  C   UNL     1      -1.863  13.236  21.066  1.00  0.00     0.191 C 
BRANCH   8   9
ATOM      9  O   UNL     1      -1.400  11.912  21.080  1.00  0.00    -0.394 OA
ATOM     10  H   UNL     1      -1.400  11.622  22.030  1.00  0.00     0.210 HD
ENDBRANCH   8   9
ENDBRANCH   3   8
BRANCH   4  11
ATOM     11  O   UNL     1      -2.632  15.711  23.795  1.00  0.00    -0.387 OA
ATOM     12  H   UNL     1      -2.662  14.879  24.337  1.00  0.00     0.211 HD
ENDBRANCH   4  11
BRANCH   6  13
ATOM     13  O   UNL     1      -0.527  16.119  20.897  1.00  0.00    -0.387 OA
ATOM     14  H   UNL     1      -1.294  16.499  20.394  1.00  0.00     0.211 HD
ENDBRANCH   6  13
BRANCH   7  15
ATOM     15  O   UNL     1       1.491  16.321  22.825  1.00  0.00    -0.385 OA
ATOM     16  H   UNL     1       1.913  16.568  23.690  1.00  0.00     0.211 HD
ENDBRANCH   7  15
ENDBRANCH   1   2
BRANCH   1  17
ATOM     17  C   UNL     1       1.895  12.794  21.534  1.00  0.00     0.224 C 
ATOM     18  C   UNL     1       2.121  12.381  20.062  1.00  0.00     0.208 C 
ATOM     19  O   UNL     1       1.569  11.636  22.288  1.00  0.00    -0.337 OA
ATOM     20  C   UNL     1       2.463  10.911  20.185  1.00  0.00     0.180 C 
ATOM     21  C   UNL     1       1.727  10.502  21.458  1.00  0.00     0.179 C 
BRANCH  17  22
ATOM     22  C   UNL     1       3.200  13.359  22.135  1.00  0.00     0.225 C 
BRANCH  22  23
ATOM     23  O   UNL     1       3.539  14.590  21.552  1.00  0.00    -0.391 OA
ATOM     24  H   UNL     1       2.689  15.018  21.267  1.00  0.00     0.210 HD
ENDBRANCH  22  23
ENDBRANCH  17  22
BRANCH  18  25
ATOM     25  O   UNL     1       0.983  12.608  19.262  1.00  0.00    -0.385 OA
ATOM     26  H   UNL     1       0.914  11.882  18.590  1.00  0.00     0.211 HD
ENDBRANCH  18  25
BRANCH  20  27
ATOM     27  O   UNL     1       2.022  10.162  19.082  1.00  0.00    -0.387 OA
ATOM     28  H   UNL     1       1.392  10.744  18.582  1.00  0.00     0.211 HD
ENDBRANCH  20  27
BRANCH  21  29
ATOM     29  C   UNL     1       2.475   9.399  22.218  1.00  0.00     0.191 C 
BRANCH  29  30
ATOM     30  O   UNL     1       2.507   9.687  23.591  1.00  0.00    -0.394 OA
ATOM     31  H   UNL     1       3.334  10.213  23.753  1.00  0.00     0.210 HD
ENDBRANCH  29  30
ENDBRANCH  21  29
ENDBRANCH   1  17
TORSDOF 13
ENDMDL
