MODEL 1
REMARK VINA RESULT:    -2.532      0.000      0.000
REMARK INTER + INTRA:          -2.532
REMARK INTER:                  -2.532
REMARK INTRA:                   0.000
REMARK UNBOUND:                 0.000
REMARK SMILES CC(=O)[O-]
REMARK SMILES IDX 1 1 2 2 3 3 4 4
REMARK H PARENT
REMARK Flexibility Score: inf
ROOT
ATOM      1  C   UNL     1      27.621  -4.688  -0.540  1.00  0.00     0.063 C 
ATOM      2  C   UNL     1      26.883  -4.601  -1.832  1.00  0.00     0.038 C 
ATOM      3  O   UNL     1      26.577  -3.478  -2.309  1.00  0.00    -0.550 OA
ATOM      4  O   UNL     1      26.580  -5.757  -2.539  1.00  0.00    -0.550 OA
ENDROOT
TORSDOF 0
ENDMDL
MODEL 2
REMARK VINA RESULT:    -2.524      0.088      1.620
REMARK INTER + INTRA:          -2.524
REMARK INTER:                  -2.524
REMARK INTRA:                   0.000
REMARK UNBOUND:                 0.000
REMARK SMILES CC(=O)[O-]
REMARK SMILES IDX 1 1 2 2 3 3 4 4
REMARK H PARENT
REMARK Flexibility Score: inf
ROOT
ATOM      1  C   UNL     1      27.628  -4.720  -0.555  1.00  0.00     0.063 C 
ATOM      2  C   UNL     1      26.910  -4.637  -1.859  1.00  0.00     0.038 C 
ATOM      3  O   UNL     1      26.653  -5.686  -2.505  1.00  0.00    -0.550 OA
ATOM      4  O   UNL     1      26.476  -3.408  -2.337  1.00  0.00    -0.550 OA
ENDROOT
TORSDOF 0
ENDMDL
MODEL 3
REMARK VINA RESULT:    -2.385      1.377      2.125
REMARK INTER + INTRA:          -2.385
REMARK INTER:                  -2.385
REMARK INTRA:                   0.000
REMARK UNBOUND:                 0.000
REMARK SMILES CC(=O)[O-]
REMARK SMILES IDX 1 1 2 2 3 3 4 4
REMARK H PARENT
REMARK Flexibility Score: inf
ROOT
ATOM      1  C   UNL     1      26.440  -3.482  -2.545  1.00  0.00     0.063 C 
ATOM      2  C   UNL     1      26.908  -4.749  -1.913  1.00  0.00     0.038 C 
ATOM      3  O   UNL     1      26.653  -5.856  -2.455  1.00  0.00    -0.550 OA
ATOM      4  O   UNL     1      27.674  -4.708  -0.756  1.00  0.00    -0.550 OA
ENDROOT
TORSDOF 0
ENDMDL
MODEL 4
REMARK VINA RESULT:    -2.027     18.829     18.890
REMARK INTER + INTRA:          -2.027
REMARK INTER:                  -2.027
REMARK INTRA:                   0.000
REMARK UNBOUND:                 0.000
REMARK SMILES CC(=O)[O-]
REMARK SMILES IDX 1 1 2 2 3 3 4 4
REMARK H PARENT
REMARK Flexibility Score: inf
ROOT
ATOM      1  C   UNL     1      10.343  -5.386   4.885  1.00  0.00     0.063 C 
ATOM      2  C   UNL     1       9.924  -5.078   6.282  1.00  0.00     0.038 C 
ATOM      3  O   UNL     1      10.230  -3.974   6.803  1.00  0.00    -0.550 OA
ATOM      4  O   UNL     1       9.150  -5.985   6.992  1.00  0.00    -0.550 OA
ENDROOT
TORSDOF 0
ENDMDL
MODEL 5
REMARK VINA RESULT:    -2.012     18.862     18.898
REMARK INTER + INTRA:          -2.012
REMARK INTER:                  -2.012
REMARK INTRA:                   0.000
REMARK UNBOUND:                 0.000
REMARK SMILES CC(=O)[O-]
REMARK SMILES IDX 1 1 2 2 3 3 4 4
REMARK H PARENT
REMARK Flexibility Score: inf
ROOT
ATOM      1  C   UNL     1       8.896  -5.886   7.125  1.00  0.00     0.063 C 
ATOM      2  C   UNL     1       9.941  -5.170   6.338  1.00  0.00     0.038 C 
ATOM      3  O   UNL     1      10.315  -4.020   6.686  1.00  0.00    -0.550 OA
ATOM      4  O   UNL     1      10.541  -5.793   5.252  1.00  0.00    -0.550 OA
ENDROOT
TORSDOF 0
ENDMDL
MODEL 6
REMARK VINA RESULT:    -1.929      1.754      2.139
REMARK INTER + INTRA:          -1.929
REMARK INTER:                  -1.929
REMARK INTRA:                   0.000
REMARK UNBOUND:                 0.000
REMARK SMILES CC(=O)[O-]
REMARK SMILES IDX 1 1 2 2 3 3 4 4
REMARK H PARENT
REMARK Flexibility Score: inf
ROOT
ATOM      1  C   UNL     1      26.885  -5.418  -2.008  1.00  0.00     0.063 C 
ATOM      2  C   UNL     1      26.865  -4.890  -3.402  1.00  0.00     0.038 C 
ATOM      3  O   UNL     1      25.849  -5.056  -4.125  1.00  0.00    -0.550 OA
ATOM      4  O   UNL     1      27.947  -4.167  -3.887  1.00  0.00    -0.550 OA
ENDROOT
TORSDOF 0
ENDMDL
MODEL 7
REMARK VINA RESULT:    -1.878      9.055      9.721
REMARK INTER + INTRA:          -1.878
REMARK INTER:                  -1.878
REMARK INTRA:                   0.000
REMARK UNBOUND:                 0.000
REMARK SMILES CC(=O)[O-]
REMARK SMILES IDX 1 1 2 2 3 3 4 4
REMARK H PARENT
REMARK Flexibility Score: inf
ROOT
ATOM      1  C   UNL     1      24.583   4.298  -2.325  1.00  0.00     0.063 C 
ATOM      2  C   UNL     1      25.758   4.716  -1.508  1.00  0.00     0.038 C 
ATOM      3  O   UNL     1      26.473   3.849  -0.943  1.00  0.00    -0.550 OA
ATOM      4  O   UNL     1      26.098   6.059  -1.414  1.00  0.00    -0.550 OA
ENDROOT
TORSDOF 0
ENDMDL
MODEL 8
REMARK VINA RESULT:    -1.876     22.848     23.064
REMARK INTER + INTRA:          -1.876
REMARK INTER:                  -1.876
REMARK INTRA:                   0.000
REMARK UNBOUND:                 0.000
REMARK SMILES CC(=O)[O-]
REMARK SMILES IDX 1 1 2 2 3 3 4 4
REMARK H PARENT
REMARK Flexibility Score: inf
ROOT
ATOM      1  C   UNL     1       9.688  -2.962  13.873  1.00  0.00     0.063 C 
ATOM      2  C   UNL     1      10.353  -1.629  13.810  1.00  0.00     0.038 C 
ATOM      3  O   UNL     1      11.594  -1.551  13.616  1.00  0.00    -0.550 OA
ATOM      4  O   UNL     1       9.596  -0.469  13.909  1.00  0.00    -0.550 OA
ENDROOT
TORSDOF 0
ENDMDL
MODEL 9
REMARK VINA RESULT:    -1.700     23.113     23.255
REMARK INTER + INTRA:          -1.700
REMARK INTER:                  -1.700
REMARK INTRA:                   0.000
REMARK UNBOUND:                 0.000
REMARK SMILES CC(=O)[O-]
REMARK SMILES IDX 1 1 2 2 3 3 4 4
REMARK H PARENT
REMARK Flexibility Score: inf
ROOT
ATOM      1  C   UNL     1       8.980  -0.949  13.474  1.00  0.00     0.063 C 
ATOM      2  C   UNL     1      10.022  -1.961  13.810  1.00  0.00     0.038 C 
ATOM      3  O   UNL     1      11.168  -1.590  14.173  1.00  0.00    -0.550 OA
ATOM      4  O   UNL     1       9.714  -3.314  13.777  1.00  0.00    -0.550 OA
ENDROOT
TORSDOF 0
ENDMDL
