MODEL 1
REMARK VINA RESULT:    -3.392      0.000      0.000
REMARK INTER + INTRA:          -4.036
REMARK INTER:                  -3.987
REMARK INTRA:                  -0.049
REMARK UNBOUND:                -0.049
REMARK SMILES O=C([O-])CCC(=O)[O-]
REMARK SMILES IDX 4 1 2 2 1 3 3 4 5 5 6 6 7 7 8 8
REMARK H PARENT
REMARK Flexibility Score: inf
ROOT
ATOM      1  C   UNL     1      28.334  -1.537  45.612  1.00  0.00     0.059 C 
ENDROOT
BRANCH   1   2
ATOM      2  C   UNL     1      27.760  -2.742  46.294  1.00  0.00     0.042 C 
ATOM      3  O   UNL     1      28.304  -3.868  46.155  1.00  0.00    -0.550 OA
ATOM      4  O   UNL     1      26.599  -2.627  47.049  1.00  0.00    -0.550 OA
ENDBRANCH   1   2
BRANCH   1   5
ATOM      5  C   UNL     1      29.825  -1.369  45.925  1.00  0.00     0.059 C 
BRANCH   5   6
ATOM      6  C   UNL     1      30.686  -1.961  44.850  1.00  0.00     0.042 C 
ATOM      7  O   UNL     1      30.728  -1.430  43.708  1.00  0.00    -0.550 OA
ATOM      8  O   UNL     1      31.409  -3.120  45.097  1.00  0.00    -0.550 OA
ENDBRANCH   5   6
ENDBRANCH   1   5
TORSDOF 3
ENDMDL
MODEL 2
REMARK VINA RESULT:    -3.386      0.058      3.819
REMARK INTER + INTRA:          -4.029
REMARK INTER:                  -3.989
REMARK INTRA:                  -0.040
REMARK UNBOUND:                -0.049
REMARK SMILES O=C([O-])CCC(=O)[O-]
REMARK SMILES IDX 4 1 2 2 1 3 3 4 5 5 6 6 7 7 8 8
REMARK H PARENT
REMARK Flexibility Score: inf
ROOT
ATOM      1  C   UNL     1      29.776  -1.343  45.923  1.00  0.00     0.059 C 
ENDROOT
BRANCH   1   2
ATOM      2  C   UNL     1      30.625  -1.939  44.843  1.00  0.00     0.042 C 
ATOM      3  O   UNL     1      30.632  -1.433  43.690  1.00  0.00    -0.550 OA
ATOM      4  O   UNL     1      31.378  -3.080  45.098  1.00  0.00    -0.550 OA
ENDBRANCH   1   2
BRANCH   1   5
ATOM      5  C   UNL     1      28.282  -1.524  45.632  1.00  0.00     0.059 C 
BRANCH   5   6
ATOM      6  C   UNL     1      27.730  -2.742  46.309  1.00  0.00     0.042 C 
ATOM      7  O   UNL     1      28.282  -3.862  46.144  1.00  0.00    -0.550 OA
ATOM      8  O   UNL     1      26.586  -2.646  47.089  1.00  0.00    -0.550 OA
ENDBRANCH   5   6
ENDBRANCH   1   5
TORSDOF 3
ENDMDL
MODEL 3
REMARK VINA RESULT:    -3.368      0.279      1.632
REMARK INTER + INTRA:          -4.007
REMARK INTER:                  -3.942
REMARK INTRA:                  -0.065
REMARK UNBOUND:                -0.049
REMARK SMILES O=C([O-])CCC(=O)[O-]
REMARK SMILES IDX 4 1 2 2 1 3 3 4 5 5 6 6 7 7 8 8
REMARK H PARENT
REMARK Flexibility Score: inf
ROOT
ATOM      1  C   UNL     1      28.560  -1.418  45.533  1.00  0.00     0.059 C 
ENDROOT
BRANCH   1   2
ATOM      2  C   UNL     1      27.805  -2.559  46.145  1.00  0.00     0.042 C 
ATOM      3  O   UNL     1      26.727  -2.348  46.760  1.00  0.00    -0.550 OA
ATOM      4  O   UNL     1      28.314  -3.850  46.071  1.00  0.00    -0.550 OA
ENDBRANCH   1   2
BRANCH   1   5
ATOM      5  C   UNL     1      30.034  -1.428  45.952  1.00  0.00     0.059 C 
BRANCH   5   6
ATOM      6  C   UNL     1      30.904  -2.044  44.899  1.00  0.00     0.042 C 
ATOM      7  O   UNL     1      31.427  -3.174  45.092  1.00  0.00    -0.550 OA
ATOM      8  O   UNL     1      31.169  -1.355  43.723  1.00  0.00    -0.550 OA
ENDBRANCH   5   6
ENDBRANCH   1   5
TORSDOF 3
ENDMDL
MODEL 4
REMARK VINA RESULT:    -3.349      1.316      1.888
REMARK INTER + INTRA:          -3.985
REMARK INTER:                  -3.878
REMARK INTRA:                  -0.107
REMARK UNBOUND:                -0.049
REMARK SMILES O=C([O-])CCC(=O)[O-]
REMARK SMILES IDX 4 1 2 2 1 3 3 4 5 5 6 6 7 7 8 8
REMARK H PARENT
REMARK Flexibility Score: inf
ROOT
ATOM      1  C   UNL     1      29.434  -1.856  46.025  1.00  0.00     0.059 C 
ENDROOT
BRANCH   1   2
ATOM      2  C   UNL     1      28.587  -3.091  46.067  1.00  0.00     0.042 C 
ATOM      3  O   UNL     1      27.569  -3.137  46.806  1.00  0.00    -0.550 OA
ATOM      4  O   UNL     1      28.945  -4.207  45.321  1.00  0.00    -0.550 OA
ENDBRANCH   1   2
BRANCH   1   5
ATOM      5  C   UNL     1      30.786  -2.121  45.354  1.00  0.00     0.059 C 
BRANCH   5   6
ATOM      6  C   UNL     1      30.853  -1.511  43.987  1.00  0.00     0.042 C 
ATOM      7  O   UNL     1      31.932  -1.012  43.569  1.00  0.00    -0.550 OA
ATOM      8  O   UNL     1      29.717  -1.459  43.191  1.00  0.00    -0.550 OA
ENDBRANCH   5   6
ENDBRANCH   1   5
TORSDOF 3
ENDMDL
MODEL 5
REMARK VINA RESULT:    -3.340      1.315      3.778
REMARK INTER + INTRA:          -3.975
REMARK INTER:                  -3.869
REMARK INTRA:                  -0.106
REMARK UNBOUND:                -0.049
REMARK SMILES O=C([O-])CCC(=O)[O-]
REMARK SMILES IDX 4 1 2 2 1 3 3 4 5 5 6 6 7 7 8 8
REMARK H PARENT
REMARK Flexibility Score: inf
ROOT
ATOM      1  C   UNL     1      30.793  -2.112  45.352  1.00  0.00     0.059 C 
ENDROOT
BRANCH   1   2
ATOM      2  C   UNL     1      30.865  -1.510  43.982  1.00  0.00     0.042 C 
ATOM      3  O   UNL     1      31.947  -1.025  43.559  1.00  0.00    -0.550 OA
ATOM      4  O   UNL     1      29.726  -1.447  43.188  1.00  0.00    -0.550 OA
ENDBRANCH   1   2
BRANCH   1   5
ATOM      5  C   UNL     1      29.437  -1.848  46.015  1.00  0.00     0.059 C 
BRANCH   5   6
ATOM      6  C   UNL     1      28.591  -3.084  46.054  1.00  0.00     0.042 C 
ATOM      7  O   UNL     1      27.568  -3.128  46.789  1.00  0.00    -0.550 OA
ATOM      8  O   UNL     1      28.953  -4.199  45.311  1.00  0.00    -0.550 OA
ENDBRANCH   5   6
ENDBRANCH   1   5
TORSDOF 3
ENDMDL
MODEL 6
REMARK VINA RESULT:    -2.974      1.844      3.237
REMARK INTER + INTRA:          -3.544
REMARK INTER:                  -3.440
REMARK INTRA:                  -0.104
REMARK UNBOUND:                -0.049
REMARK SMILES O=C([O-])CCC(=O)[O-]
REMARK SMILES IDX 4 1 2 2 1 3 3 4 5 5 6 6 7 7 8 8
REMARK H PARENT
REMARK Flexibility Score: inf
ROOT
ATOM      1  C   UNL     1      28.409  -1.131  44.534  1.00  0.00     0.059 C 
ENDROOT
BRANCH   1   2
ATOM      2  C   UNL     1      28.716  -1.599  43.145  1.00  0.00     0.042 C 
ATOM      3  O   UNL     1      27.897  -2.327  42.526  1.00  0.00    -0.550 OA
ATOM      4  O   UNL     1      29.927  -1.265  42.548  1.00  0.00    -0.550 OA
ENDBRANCH   1   2
BRANCH   1   5
ATOM      5  C   UNL     1      28.278  -2.305  45.510  1.00  0.00     0.059 C 
BRANCH   5   6
ATOM      6  C   UNL     1      29.454  -3.231  45.421  1.00  0.00     0.042 C 
ATOM      7  O   UNL     1      29.274  -4.469  45.268  1.00  0.00    -0.550 OA
ATOM      8  O   UNL     1      30.743  -2.733  45.547  1.00  0.00    -0.550 OA
ENDBRANCH   5   6
ENDBRANCH   1   5
TORSDOF 3
ENDMDL
MODEL 7
REMARK VINA RESULT:    -2.949      2.275      3.748
REMARK INTER + INTRA:          -3.516
REMARK INTER:                  -3.355
REMARK INTRA:                  -0.160
REMARK UNBOUND:                -0.049
REMARK SMILES O=C([O-])CCC(=O)[O-]
REMARK SMILES IDX 4 1 2 2 1 3 3 4 5 5 6 6 7 7 8 8
REMARK H PARENT
REMARK Flexibility Score: inf
ROOT
ATOM      1  C   UNL     1      28.257  -2.338  43.444  1.00  0.00     0.059 C 
ENDROOT
BRANCH   1   2
ATOM      2  C   UNL     1      28.904  -1.238  42.659  1.00  0.00     0.042 C 
ATOM      3  O   UNL     1      30.156  -1.191  42.548  1.00  0.00    -0.550 OA
ATOM      4  O   UNL     1      28.124  -0.241  42.085  1.00  0.00    -0.550 OA
ENDBRANCH   1   2
BRANCH   1   5
ATOM      5  C   UNL     1      28.925  -2.526  44.810  1.00  0.00     0.059 C 
BRANCH   5   6
ATOM      6  C   UNL     1      28.694  -1.346  45.705  1.00  0.00     0.042 C 
ATOM      7  O   UNL     1      27.521  -0.947  45.937  1.00  0.00    -0.550 OA
ATOM      8  O   UNL     1      29.773  -0.663  46.250  1.00  0.00    -0.550 OA
ENDBRANCH   5   6
ENDBRANCH   1   5
TORSDOF 3
ENDMDL
MODEL 8
REMARK VINA RESULT:    -2.906     12.220     13.964
REMARK INTER + INTRA:          -3.465
REMARK INTER:                  -3.351
REMARK INTRA:                  -0.114
REMARK UNBOUND:                -0.049
REMARK SMILES O=C([O-])CCC(=O)[O-]
REMARK SMILES IDX 4 1 2 2 1 3 3 4 5 5 6 6 7 7 8 8
REMARK H PARENT
REMARK Flexibility Score: inf
ROOT
ATOM      1  C   UNL     1      20.801 -12.200  45.260  1.00  0.00     0.059 C 
ENDROOT
BRANCH   1   2
ATOM      2  C   UNL     1      22.065 -11.687  44.641  1.00  0.00     0.042 C 
ATOM      3  O   UNL     1      22.224 -10.452  44.454  1.00  0.00    -0.550 OA
ATOM      4  O   UNL     1      23.051 -12.577  44.231  1.00  0.00    -0.550 OA
ENDBRANCH   1   2
BRANCH   1   5
ATOM      5  C   UNL     1      21.045 -13.482  46.063  1.00  0.00     0.059 C 
BRANCH   5   6
ATOM      6  C   UNL     1      20.447 -14.679  45.388  1.00  0.00     0.042 C 
ATOM      7  O   UNL     1      20.289 -15.753  46.028  1.00  0.00    -0.550 OA
ATOM      8  O   UNL     1      20.103 -14.621  44.044  1.00  0.00    -0.550 OA
ENDBRANCH   5   6
ENDBRANCH   1   5
TORSDOF 3
ENDMDL
MODEL 9
REMARK VINA RESULT:    -2.906     12.292     13.654
REMARK INTER + INTRA:          -3.465
REMARK INTER:                  -3.350
REMARK INTRA:                  -0.115
REMARK UNBOUND:                -0.049
REMARK SMILES O=C([O-])CCC(=O)[O-]
REMARK SMILES IDX 4 1 2 2 1 3 3 4 5 5 6 6 7 7 8 8
REMARK H PARENT
REMARK Flexibility Score: inf
ROOT
ATOM      1  C   UNL     1      20.987 -13.526  46.050  1.00  0.00     0.059 C 
ENDROOT
BRANCH   1   2
ATOM      2  C   UNL     1      20.430 -14.754  45.398  1.00  0.00     0.042 C 
ATOM      3  O   UNL     1      20.317 -15.823  46.052  1.00  0.00    -0.550 OA
ATOM      4  O   UNL     1      20.074 -14.729  44.054  1.00  0.00    -0.550 OA
ENDBRANCH   1   2
BRANCH   1   5
ATOM      5  C   UNL     1      20.764 -12.278  45.188  1.00  0.00     0.059 C 
BRANCH   5   6
ATOM      6  C   UNL     1      22.050 -11.766  44.613  1.00  0.00     0.042 C 
ATOM      7  O   UNL     1      22.231 -10.528  44.469  1.00  0.00    -0.550 OA
ATOM      8  O   UNL     1      23.031 -12.658  44.199  1.00  0.00    -0.550 OA
ENDBRANCH   5   6
ENDBRANCH   1   5
TORSDOF 3
ENDMDL
