MODEL 1
REMARK VINA RESULT:    -5.895      0.000      0.000
REMARK INTER + INTRA:          -9.391
REMARK INTER:                  -7.791
REMARK INTRA:                  -1.601
REMARK UNBOUND:                -1.601
REMARK SMILES CC(C)=CCC[C@@H](C(=O)[O-])[C@H]1CC[C@@]2(C)C3=C(CC[C@@]12C)[C@]1(C)CC[C@H](O)C(C)(C)[C@@H]1CC3
REMARK SMILES IDX 6 1 7 2 8 3 9 4 10 5 11 6 12 7 20 8 13 9 14 10 19 11 21 12
REMARK SMILES IDX 15 13 16 14 18 15 17 16 33 17 22 18 32 19 31 20 24 21 23 22
REMARK SMILES IDX 28 23 25 24 26 25 29 26 30 27 27 28 5 30 4 31 2 32 1 33 3 34
REMARK H PARENT 27 29
REMARK Flexibility Score: inf
ROOT
ATOM      1  C   UNL     1      -8.402  33.104  58.128  1.00  0.00     0.014 C 
ENDROOT
BRANCH   1   2
ATOM      2  C   UNL     1      -9.685  32.960  57.273  1.00  0.00     0.039 C 
BRANCH   2   3
ATOM      3  C   UNL     1     -10.599  34.166  57.402  1.00  0.00     0.045 C 
ATOM      4  O   UNL     1     -11.034  34.769  56.386  1.00  0.00    -0.550 OA
ATOM      5  O   UNL     1     -10.910  34.667  58.661  1.00  0.00    -0.550 OA
ENDBRANCH   2   3
BRANCH   2   6
ATOM      6  C   UNL     1      -9.391  32.486  55.804  1.00  0.00     0.004 C 
ATOM      7  C   UNL     1      -7.925  32.681  55.379  1.00  0.00     0.006 C 
ATOM      8  C   UNL     1      -9.819  31.061  55.299  1.00  0.00    -0.020 C 
ATOM      9  C   UNL     1      -7.549  31.500  54.494  1.00  0.00     0.012 C 
ATOM     10  C   UNL     1      -8.860  30.806  54.077  1.00  0.00    -0.006 C 
ATOM     11  C   UNL     1      -9.572  29.965  56.360  1.00  0.00     0.012 C 
ATOM     12  C   UNL     1     -11.327  31.039  54.894  1.00  0.00     0.012 C 
ATOM     13  C   UNL     1      -9.401  31.491  52.782  1.00  0.00     0.017 C 
ATOM     14  C   UNL     1      -8.563  29.317  53.779  1.00  0.00    -0.064 C 
ATOM     15  C   UNL     1      -9.835  28.572  55.797  1.00  0.00     0.032 C 
ATOM     16  C   UNL     1      -9.070  28.286  54.513  1.00  0.00    -0.064 C 
ATOM     17  C   UNL     1      -7.621  28.972  52.657  1.00  0.00     0.032 C 
ATOM     18  C   UNL     1      -8.848  26.797  54.097  1.00  0.00    -0.008 C 
ATOM     19  C   UNL     1      -8.292  27.936  51.778  1.00  0.00     0.009 C 
ATOM     20  C   UNL     1      -8.479  26.602  52.546  1.00  0.00     0.007 C 
ATOM     21  C   UNL     1      -7.725  26.236  55.007  1.00  0.00     0.014 C 
ATOM     22  C   UNL     1     -10.169  26.024  54.392  1.00  0.00     0.016 C 
ATOM     23  C   UNL     1      -7.352  25.520  52.222  1.00  0.00    -0.006 C 
ATOM     24  C   UNL     1      -7.327  24.777  54.721  1.00  0.00     0.033 C 
ATOM     25  C   UNL     1      -7.466  24.344  53.241  1.00  0.00     0.120 C 
ATOM     26  C   UNL     1      -5.906  26.098  52.225  1.00  0.00     0.014 C 
ATOM     27  C   UNL     1      -7.605  24.937  50.803  1.00  0.00     0.014 C 
BRANCH  25  28
ATOM     28  O   UNL     1      -6.583  23.287  52.943  1.00  0.00    -0.393 OA
ATOM     29  H   UNL     1      -6.134  23.482  52.079  1.00  0.00     0.210 HD
ENDBRANCH  25  28
ENDBRANCH   2   6
ENDBRANCH   1   2
BRANCH   1  30
ATOM     30  C   UNL     1      -8.244  31.958  59.140  1.00  0.00     0.028 C 
BRANCH  30  31
ATOM     31  C   UNL     1      -6.821  31.864  59.634  1.00  0.00    -0.028 C 
ATOM     32  C   UNL     1      -5.883  31.032  59.130  1.00  0.00    -0.080 C 
ATOM     33  C   UNL     1      -6.193  30.045  58.027  1.00  0.00     0.039 C 
ATOM     34  C   UNL     1      -4.493  31.087  59.710  1.00  0.00     0.039 C 
ENDBRANCH  30  31
ENDBRANCH   1  30
TORSDOF 6
ENDMDL
MODEL 2
REMARK VINA RESULT:    -5.717      2.039      2.746
REMARK INTER + INTRA:          -9.155
REMARK INTER:                  -7.819
REMARK INTRA:                  -1.337
REMARK UNBOUND:                -1.601
REMARK SMILES CC(C)=CCC[C@@H](C(=O)[O-])[C@H]1CC[C@@]2(C)C3=C(CC[C@@]12C)[C@]1(C)CC[C@H](O)C(C)(C)[C@@H]1CC3
REMARK SMILES IDX 6 1 7 2 8 3 9 4 10 5 11 6 12 7 20 8 13 9 14 10 19 11 21 12
REMARK SMILES IDX 15 13 16 14 18 15 17 16 33 17 22 18 32 19 31 20 24 21 23 22
REMARK SMILES IDX 28 23 25 24 26 25 29 26 30 27 27 28 5 30 4 31 2 32 1 33 3 34
REMARK H PARENT 27 29
REMARK Flexibility Score: inf
ROOT
ATOM      1  C   UNL     1      -8.274  32.723  57.523  1.00  0.00     0.014 C 
ENDROOT
BRANCH   1   2
ATOM      2  C   UNL     1      -9.232  31.604  57.049  1.00  0.00     0.039 C 
BRANCH   2   3
ATOM      3  C   UNL     1     -10.585  31.678  57.734  1.00  0.00     0.045 C 
ATOM      4  O   UNL     1     -11.630  31.264  57.167  1.00  0.00    -0.550 OA
ATOM      5  O   UNL     1     -10.696  32.277  58.983  1.00  0.00    -0.550 OA
ENDBRANCH   2   3
BRANCH   2   6
ATOM      6  C   UNL     1      -9.272  31.454  55.485  1.00  0.00     0.004 C 
ATOM      7  C   UNL     1      -8.444  32.520  54.746  1.00  0.00     0.006 C 
ATOM      8  C   UNL     1      -8.967  30.082  54.782  1.00  0.00    -0.020 C 
ATOM      9  C   UNL     1      -7.814  31.845  53.534  1.00  0.00     0.012 C 
ATOM     10  C   UNL     1      -8.548  30.506  53.325  1.00  0.00    -0.006 C 
ATOM     11  C   UNL     1      -7.785  29.337  55.442  1.00  0.00     0.012 C 
ATOM     12  C   UNL     1     -10.222  29.152  54.799  1.00  0.00     0.012 C 
ATOM     13  C   UNL     1      -9.800  30.754  52.427  1.00  0.00     0.017 C 
ATOM     14  C   UNL     1      -7.593  29.521  52.608  1.00  0.00    -0.064 C 
ATOM     15  C   UNL     1      -7.396  28.093  54.648  1.00  0.00     0.032 C 
ATOM     16  C   UNL     1      -7.126  28.375  53.179  1.00  0.00    -0.064 C 
ATOM     17  C   UNL     1      -7.099  29.861  51.227  1.00  0.00     0.032 C 
ATOM     18  C   UNL     1      -6.269  27.349  52.370  1.00  0.00    -0.008 C 
ATOM     19  C   UNL     1      -7.328  28.658  50.335  1.00  0.00     0.009 C 
ATOM     20  C   UNL     1      -6.440  27.467  50.778  1.00  0.00     0.007 C 
ATOM     21  C   UNL     1      -4.791  27.567  52.786  1.00  0.00     0.014 C 
ATOM     22  C   UNL     1      -6.710  25.919  52.810  1.00  0.00     0.016 C 
ATOM     23  C   UNL     1      -5.107  27.314  49.914  1.00  0.00    -0.006 C 
ATOM     24  C   UNL     1      -3.774  26.668  52.060  1.00  0.00     0.033 C 
ATOM     25  C   UNL     1      -4.163  26.286  50.611  1.00  0.00     0.120 C 
ATOM     26  C   UNL     1      -4.356  28.658  49.673  1.00  0.00     0.014 C 
ATOM     27  C   UNL     1      -5.474  26.742  48.516  1.00  0.00     0.014 C 
BRANCH  25  28
ATOM     28  O   UNL     1      -3.016  26.002  49.842  1.00  0.00    -0.393 OA
ATOM     29  H   UNL     1      -3.026  26.578  49.034  1.00  0.00     0.210 HD
ENDBRANCH  25  28
ENDBRANCH   2   6
ENDBRANCH   1   2
BRANCH   1  30
ATOM     30  C   UNL     1      -7.257  32.220  58.559  1.00  0.00     0.028 C 
BRANCH  30  31
ATOM     31  C   UNL     1      -6.693  30.879  58.156  1.00  0.00    -0.028 C 
ATOM     32  C   UNL     1      -5.578  30.322  58.681  1.00  0.00    -0.080 C 
ATOM     33  C   UNL     1      -4.732  31.034  59.712  1.00  0.00     0.039 C 
ATOM     34  C   UNL     1      -5.167  28.956  58.196  1.00  0.00     0.039 C 
ENDBRANCH  30  31
ENDBRANCH   1  30
TORSDOF 6
ENDMDL
MODEL 3
REMARK VINA RESULT:    -5.503     10.767     14.552
REMARK INTER + INTRA:          -8.873
REMARK INTER:                  -6.882
REMARK INTRA:                  -1.992
REMARK UNBOUND:                -1.601
REMARK SMILES CC(C)=CCC[C@@H](C(=O)[O-])[C@H]1CC[C@@]2(C)C3=C(CC[C@@]12C)[C@]1(C)CC[C@H](O)C(C)(C)[C@@H]1CC3
REMARK SMILES IDX 6 1 7 2 8 3 9 4 10 5 11 6 12 7 20 8 13 9 14 10 19 11 21 12
REMARK SMILES IDX 15 13 16 14 18 15 17 16 33 17 22 18 32 19 31 20 24 21 23 22
REMARK SMILES IDX 28 23 25 24 26 25 29 26 30 27 27 28 5 30 4 31 2 32 1 33 3 34
REMARK H PARENT 27 29
REMARK Flexibility Score: inf
ROOT
ATOM      1  C   UNL     1       2.356  30.156  44.085  1.00  0.00     0.014 C 
ENDROOT
BRANCH   1   2
ATOM      2  C   UNL     1       1.173  30.061  43.091  1.00  0.00     0.039 C 
BRANCH   2   3
ATOM      3  C   UNL     1       1.531  29.266  41.848  1.00  0.00     0.045 C 
ATOM      4  O   UNL     1       2.413  29.669  41.045  1.00  0.00    -0.550 OA
ATOM      5  O   UNL     1       0.830  28.106  41.542  1.00  0.00    -0.550 OA
ENDBRANCH   2   3
BRANCH   2   6
ATOM      6  C   UNL     1      -0.178  29.661  43.786  1.00  0.00     0.004 C 
ATOM      7  C   UNL     1      -0.137  29.778  45.319  1.00  0.00     0.006 C 
ATOM      8  C   UNL     1      -1.551  30.273  43.326  1.00  0.00    -0.020 C 
ATOM      9  C   UNL     1      -1.506  30.267  45.774  1.00  0.00     0.012 C 
ATOM     10  C   UNL     1      -2.473  30.084  44.588  1.00  0.00    -0.006 C 
ATOM     11  C   UNL     1      -1.444  31.781  43.011  1.00  0.00     0.012 C 
ATOM     12  C   UNL     1      -2.100  29.533  42.065  1.00  0.00     0.012 C 
ATOM     13  C   UNL     1      -3.068  28.641  44.642  1.00  0.00     0.017 C 
ATOM     14  C   UNL     1      -3.621  31.113  44.717  1.00  0.00    -0.064 C 
ATOM     15  C   UNL     1      -2.813  32.392  42.729  1.00  0.00     0.032 C 
ATOM     16  C   UNL     1      -3.831  32.124  43.827  1.00  0.00    -0.064 C 
ATOM     17  C   UNL     1      -4.531  31.044  45.915  1.00  0.00     0.032 C 
ATOM     18  C   UNL     1      -5.078  33.059  43.928  1.00  0.00    -0.008 C 
ATOM     19  C   UNL     1      -5.964  31.067  45.422  1.00  0.00     0.009 C 
ATOM     20  C   UNL     1      -6.297  32.432  44.765  1.00  0.00     0.007 C 
ATOM     21  C   UNL     1      -4.597  34.389  44.564  1.00  0.00     0.014 C 
ATOM     22  C   UNL     1      -5.572  33.344  42.476  1.00  0.00     0.016 C 
ATOM     23  C   UNL     1      -7.069  33.432  45.740  1.00  0.00    -0.006 C 
ATOM     24  C   UNL     1      -5.701  35.437  44.788  1.00  0.00     0.033 C 
ATOM     25  C   UNL     1      -7.101  34.851  45.092  1.00  0.00     0.120 C 
ATOM     26  C   UNL     1      -6.464  33.507  47.173  1.00  0.00     0.014 C 
ATOM     27  C   UNL     1      -8.540  32.953  45.893  1.00  0.00     0.014 C 
BRANCH  25  28
ATOM     28  O   UNL     1      -7.876  35.764  45.836  1.00  0.00    -0.393 OA
ATOM     29  H   UNL     1      -8.410  35.258  46.502  1.00  0.00     0.210 HD
ENDBRANCH  25  28
ENDBRANCH   2   6
ENDBRANCH   1   2
BRANCH   1  30
ATOM     30  C   UNL     1       2.982  31.560  44.113  1.00  0.00     0.028 C 
BRANCH  30  31
ATOM     31  C   UNL     1       1.920  32.628  44.033  1.00  0.00    -0.028 C 
ATOM     32  C   UNL     1       1.339  33.221  45.100  1.00  0.00    -0.080 C 
ATOM     33  C   UNL     1       1.668  32.819  46.521  1.00  0.00     0.039 C 
ATOM     34  C   UNL     1       0.318  34.300  44.851  1.00  0.00     0.039 C 
ENDBRANCH  30  31
ENDBRANCH   1  30
TORSDOF 6
ENDMDL
MODEL 4
REMARK VINA RESULT:    -5.435     11.462     13.874
REMARK INTER + INTRA:          -8.783
REMARK INTER:                  -7.734
REMARK INTRA:                  -1.048
REMARK UNBOUND:                -1.601
REMARK SMILES CC(C)=CCC[C@@H](C(=O)[O-])[C@H]1CC[C@@]2(C)C3=C(CC[C@@]12C)[C@]1(C)CC[C@H](O)C(C)(C)[C@@H]1CC3
REMARK SMILES IDX 6 1 7 2 8 3 9 4 10 5 11 6 12 7 20 8 13 9 14 10 19 11 21 12
REMARK SMILES IDX 15 13 16 14 18 15 17 16 33 17 22 18 32 19 31 20 24 21 23 22
REMARK SMILES IDX 28 23 25 24 26 25 29 26 30 27 27 28 5 30 4 31 2 32 1 33 3 34
REMARK H PARENT 27 29
REMARK Flexibility Score: inf
ROOT
ATOM      1  C   UNL     1      -5.936  35.852  45.426  1.00  0.00     0.014 C 
ENDROOT
BRANCH   1   2
ATOM      2  C   UNL     1      -5.962  36.578  44.060  1.00  0.00     0.039 C 
BRANCH   2   3
ATOM      3  C   UNL     1      -6.130  38.079  44.211  1.00  0.00     0.045 C 
ATOM      4  O   UNL     1      -6.554  38.789  43.262  1.00  0.00    -0.550 OA
ATOM      5  O   UNL     1      -5.743  38.703  45.391  1.00  0.00    -0.550 OA
ENDBRANCH   2   3
BRANCH   2   6
ATOM      6  C   UNL     1      -4.805  36.117  43.101  1.00  0.00     0.004 C 
ATOM      7  C   UNL     1      -3.525  36.960  43.236  1.00  0.00     0.006 C 
ATOM      8  C   UNL     1      -4.348  34.616  43.025  1.00  0.00    -0.020 C 
ATOM      9  C   UNL     1      -2.341  36.018  43.061  1.00  0.00     0.012 C 
ATOM     10  C   UNL     1      -2.884  34.711  42.453  1.00  0.00    -0.006 C 
ATOM     11  C   UNL     1      -4.294  33.950  44.419  1.00  0.00     0.012 C 
ATOM     12  C   UNL     1      -5.300  33.785  42.107  1.00  0.00     0.012 C 
ATOM     13  C   UNL     1      -2.895  34.846  40.897  1.00  0.00     0.017 C 
ATOM     14  C   UNL     1      -1.949  33.546  42.857  1.00  0.00    -0.064 C 
ATOM     15  C   UNL     1      -3.691  32.551  44.346  1.00  0.00     0.032 C 
ATOM     16  C   UNL     1      -2.335  32.512  43.658  1.00  0.00    -0.064 C 
ATOM     17  C   UNL     1      -0.516  33.569  42.396  1.00  0.00     0.032 C 
ATOM     18  C   UNL     1      -1.396  31.295  43.933  1.00  0.00    -0.008 C 
ATOM     19  C   UNL     1      -0.200  32.226  41.768  1.00  0.00     0.009 C 
ATOM     20  C   UNL     1      -0.243  31.098  42.831  1.00  0.00     0.007 C 
ATOM     21  C   UNL     1      -0.785  31.504  45.342  1.00  0.00     0.014 C 
ATOM     22  C   UNL     1      -2.283  30.012  43.953  1.00  0.00     0.016 C 
ATOM     23  C   UNL     1       1.197  30.695  43.386  1.00  0.00    -0.006 C 
ATOM     24  C   UNL     1       0.212  30.418  45.784  1.00  0.00     0.033 C 
ATOM     25  C   UNL     1       1.023  29.774  44.634  1.00  0.00     0.120 C 
ATOM     26  C   UNL     1       2.101  31.914  43.738  1.00  0.00     0.014 C 
ATOM     27  C   UNL     1       1.945  29.875  42.298  1.00  0.00     0.014 C 
BRANCH  25  28
ATOM     28  O   UNL     1       2.253  29.272  45.107  1.00  0.00    -0.393 OA
ATOM     29  H   UNL     1       2.989  29.709  44.603  1.00  0.00     0.210 HD
ENDBRANCH  25  28
ENDBRANCH   2   6
ENDBRANCH   1   2
BRANCH   1  30
ATOM     30  C   UNL     1      -7.301  35.246  45.791  1.00  0.00     0.028 C 
BRANCH  30  31
ATOM     31  C   UNL     1      -7.991  34.691  44.569  1.00  0.00    -0.028 C 
ATOM     32  C   UNL     1      -8.103  33.376  44.277  1.00  0.00    -0.080 C 
ATOM     33  C   UNL     1      -7.481  32.304  45.144  1.00  0.00     0.039 C 
ATOM     34  C   UNL     1      -8.857  32.982  43.033  1.00  0.00     0.039 C 
ENDBRANCH  30  31
ENDBRANCH   1  30
TORSDOF 6
ENDMDL
MODEL 5
REMARK VINA RESULT:    -5.422     11.738     13.846
REMARK INTER + INTRA:          -8.766
REMARK INTER:                  -7.918
REMARK INTRA:                  -0.848
REMARK UNBOUND:                -1.601
REMARK SMILES CC(C)=CCC[C@@H](C(=O)[O-])[C@H]1CC[C@@]2(C)C3=C(CC[C@@]12C)[C@]1(C)CC[C@H](O)C(C)(C)[C@@H]1CC3
REMARK SMILES IDX 6 1 7 2 8 3 9 4 10 5 11 6 12 7 20 8 13 9 14 10 19 11 21 12
REMARK SMILES IDX 15 13 16 14 18 15 17 16 33 17 22 18 32 19 31 20 24 21 23 22
REMARK SMILES IDX 28 23 25 24 26 25 29 26 30 27 27 28 5 30 4 31 2 32 1 33 3 34
REMARK H PARENT 27 29
REMARK Flexibility Score: inf
ROOT
ATOM      1  C   UNL     1      -6.977  34.999  45.439  1.00  0.00     0.014 C 
ENDROOT
BRANCH   1   2
ATOM      2  C   UNL     1      -6.694  35.964  44.262  1.00  0.00     0.039 C 
BRANCH   2   3
ATOM      3  C   UNL     1      -7.487  37.254  44.374  1.00  0.00     0.045 C 
ATOM      4  O   UNL     1      -7.217  38.253  43.658  1.00  0.00    -0.550 OA
ATOM      5  O   UNL     1      -8.488  37.370  45.332  1.00  0.00    -0.550 OA
ENDBRANCH   2   3
BRANCH   2   6
ATOM      6  C   UNL     1      -5.160  36.135  43.967  1.00  0.00     0.004 C 
ATOM      7  C   UNL     1      -4.357  36.647  45.174  1.00  0.00     0.006 C 
ATOM      8  C   UNL     1      -4.313  34.978  43.322  1.00  0.00    -0.020 C 
ATOM      9  C   UNL     1      -3.001  35.954  45.144  1.00  0.00     0.012 C 
ATOM     10  C   UNL     1      -2.838  35.331  43.745  1.00  0.00    -0.006 C 
ATOM     11  C   UNL     1      -4.678  33.593  43.901  1.00  0.00     0.012 C 
ATOM     12  C   UNL     1      -4.502  34.942  41.772  1.00  0.00     0.012 C 
ATOM     13  C   UNL     1      -2.217  36.398  42.788  1.00  0.00     0.017 C 
ATOM     14  C   UNL     1      -1.882  34.119  43.846  1.00  0.00    -0.064 C 
ATOM     15  C   UNL     1      -3.736  32.508  43.390  1.00  0.00     0.032 C 
ATOM     16  C   UNL     1      -2.266  32.833  43.608  1.00  0.00    -0.064 C 
ATOM     17  C   UNL     1      -0.460  34.348  44.287  1.00  0.00     0.032 C 
ATOM     18  C   UNL     1      -1.236  31.659  43.597  1.00  0.00    -0.008 C 
ATOM     19  C   UNL     1       0.458  33.664  43.294  1.00  0.00     0.009 C 
ATOM     20  C   UNL     1       0.282  32.125  43.351  1.00  0.00     0.007 C 
ATOM     21  C   UNL     1      -1.375  30.922  44.954  1.00  0.00     0.014 C 
ATOM     22  C   UNL     1      -1.645  30.685  42.450  1.00  0.00     0.016 C 
ATOM     23  C   UNL     1       1.393  31.392  44.230  1.00  0.00    -0.006 C 
ATOM     24  C   UNL     1      -0.404  29.745  45.156  1.00  0.00     0.033 C 
ATOM     25  C   UNL     1       0.967  29.908  44.456  1.00  0.00     0.120 C 
ATOM     26  C   UNL     1       1.675  32.086  45.596  1.00  0.00     0.014 C 
ATOM     27  C   UNL     1       2.734  31.381  43.442  1.00  0.00     0.014 C 
BRANCH  25  28
ATOM     28  O   UNL     1       1.961  29.159  45.120  1.00  0.00    -0.393 OA
ATOM     29  H   UNL     1       2.806  29.679  45.115  1.00  0.00     0.210 HD
ENDBRANCH  25  28
ENDBRANCH   2   6
ENDBRANCH   1   2
BRANCH   1  30
ATOM     30  C   UNL     1      -7.994  33.908  45.066  1.00  0.00     0.028 C 
BRANCH  30  31
ATOM     31  C   UNL     1      -8.055  33.712  43.571  1.00  0.00    -0.028 C 
ATOM     32  C   UNL     1      -8.860  32.829  42.941  1.00  0.00    -0.080 C 
ATOM     33  C   UNL     1      -9.765  31.883  43.698  1.00  0.00     0.039 C 
ATOM     34  C   UNL     1      -8.829  32.782  41.435  1.00  0.00     0.039 C 
ENDBRANCH  30  31
ENDBRANCH   1  30
TORSDOF 6
ENDMDL
MODEL 6
REMARK VINA RESULT:    -5.406     10.138     12.797
REMARK INTER + INTRA:          -8.745
REMARK INTER:                  -6.817
REMARK INTRA:                  -1.928
REMARK UNBOUND:                -1.601
REMARK SMILES CC(C)=CCC[C@@H](C(=O)[O-])[C@H]1CC[C@@]2(C)C3=C(CC[C@@]12C)[C@]1(C)CC[C@H](O)C(C)(C)[C@@H]1CC3
REMARK SMILES IDX 6 1 7 2 8 3 9 4 10 5 11 6 12 7 20 8 13 9 14 10 19 11 21 12
REMARK SMILES IDX 15 13 16 14 18 15 17 16 33 17 22 18 32 19 31 20 24 21 23 22
REMARK SMILES IDX 28 23 25 24 26 25 29 26 30 27 27 28 5 30 4 31 2 32 1 33 3 34
REMARK H PARENT 27 29
REMARK Flexibility Score: inf
ROOT
ATOM      1  C   UNL     1      -4.737  38.568  43.268  1.00  0.00     0.014 C 
ENDROOT
BRANCH   1   2
ATOM      2  C   UNL     1      -4.700  37.238  42.477  1.00  0.00     0.039 C 
BRANCH   2   3
ATOM      3  C   UNL     1      -3.969  37.379  41.153  1.00  0.00     0.045 C 
ATOM      4  O   UNL     1      -4.257  36.651  40.166  1.00  0.00    -0.550 OA
ATOM      5  O   UNL     1      -2.913  38.274  41.037  1.00  0.00    -0.550 OA
ENDBRANCH   2   3
BRANCH   2   6
ATOM      6  C   UNL     1      -4.271  36.012  43.361  1.00  0.00     0.004 C 
ATOM      7  C   UNL     1      -4.042  36.372  44.839  1.00  0.00     0.006 C 
ATOM      8  C   UNL     1      -5.082  34.665  43.347  1.00  0.00    -0.020 C 
ATOM      9  C   UNL     1      -4.532  35.196  45.674  1.00  0.00     0.012 C 
ATOM     10  C   UNL     1      -4.696  33.997  44.720  1.00  0.00    -0.006 C 
ATOM     11  C   UNL     1      -6.609  34.902  43.322  1.00  0.00     0.012 C 
ATOM     12  C   UNL     1      -4.688  33.785  42.119  1.00  0.00     0.012 C 
ATOM     13  C   UNL     1      -3.333  33.244  44.618  1.00  0.00     0.017 C 
ATOM     14  C   UNL     1      -5.765  33.040  45.302  1.00  0.00    -0.064 C 
ATOM     15  C   UNL     1      -7.379  33.594  43.478  1.00  0.00     0.032 C 
ATOM     16  C   UNL     1      -6.961  32.789  44.699  1.00  0.00    -0.064 C 
ATOM     17  C   UNL     1      -5.509  32.386  46.634  1.00  0.00     0.032 C 
ATOM     18  C   UNL     1      -7.951  31.719  45.258  1.00  0.00    -0.008 C 
ATOM     19  C   UNL     1      -5.760  30.899  46.486  1.00  0.00     0.009 C 
ATOM     20  C   UNL     1      -7.259  30.620  46.204  1.00  0.00     0.007 C 
ATOM     21  C   UNL     1      -9.063  32.484  46.021  1.00  0.00     0.014 C 
ATOM     22  C   UNL     1      -8.590  30.987  44.038  1.00  0.00     0.016 C 
ATOM     23  C   UNL     1      -8.080  30.194  47.503  1.00  0.00    -0.006 C 
ATOM     24  C   UNL     1     -10.124  31.592  46.688  1.00  0.00     0.033 C 
ATOM     25  C   UNL     1      -9.605  30.217  47.173  1.00  0.00     0.120 C 
ATOM     26  C   UNL     1      -7.786  31.077  48.752  1.00  0.00     0.014 C 
ATOM     27  C   UNL     1      -7.704  28.734  47.882  1.00  0.00     0.014 C 
BRANCH  25  28
ATOM     28  O   UNL     1     -10.393  29.730  48.236  1.00  0.00    -0.393 OA
ATOM     29  H   UNL     1     -11.239  30.248  48.268  1.00  0.00     0.210 HD
ENDBRANCH  25  28
ENDBRANCH   2   6
ENDBRANCH   1   2
BRANCH   1  30
ATOM     30  C   UNL     1      -6.133  39.211  43.262  1.00  0.00     0.028 C 
BRANCH  30  31
ATOM     31  C   UNL     1      -7.149  38.306  43.917  1.00  0.00    -0.028 C 
ATOM     32  C   UNL     1      -7.406  38.268  45.243  1.00  0.00    -0.080 C 
ATOM     33  C   UNL     1      -6.640  39.113  46.236  1.00  0.00     0.039 C 
ATOM     34  C   UNL     1      -8.480  37.332  45.736  1.00  0.00     0.039 C 
ENDBRANCH  30  31
ENDBRANCH   1  30
TORSDOF 6
ENDMDL
MODEL 7
REMARK VINA RESULT:    -5.401     10.456     13.004
REMARK INTER + INTRA:          -8.739
REMARK INTER:                  -7.015
REMARK INTRA:                  -1.723
REMARK UNBOUND:                -1.601
REMARK SMILES CC(C)=CCC[C@@H](C(=O)[O-])[C@H]1CC[C@@]2(C)C3=C(CC[C@@]12C)[C@]1(C)CC[C@H](O)C(C)(C)[C@@H]1CC3
REMARK SMILES IDX 6 1 7 2 8 3 9 4 10 5 11 6 12 7 20 8 13 9 14 10 19 11 21 12
REMARK SMILES IDX 15 13 16 14 18 15 17 16 33 17 22 18 32 19 31 20 24 21 23 22
REMARK SMILES IDX 28 23 25 24 26 25 29 26 30 27 27 28 5 30 4 31 2 32 1 33 3 34
REMARK H PARENT 27 29
REMARK Flexibility Score: inf
ROOT
ATOM      1  C   UNL     1      -6.311  37.784  43.811  1.00  0.00     0.014 C 
ENDROOT
BRANCH   1   2
ATOM      2  C   UNL     1      -6.533  37.159  45.210  1.00  0.00     0.039 C 
BRANCH   2   3
ATOM      3  C   UNL     1      -7.622  37.873  45.991  1.00  0.00     0.045 C 
ATOM      4  O   UNL     1      -7.400  38.357  47.132  1.00  0.00    -0.550 OA
ATOM      5  O   UNL     1      -8.912  37.939  45.477  1.00  0.00    -0.550 OA
ENDBRANCH   2   3
BRANCH   2   6
ATOM      6  C   UNL     1      -6.644  35.592  45.169  1.00  0.00     0.004 C 
ATOM      7  C   UNL     1      -6.946  35.036  43.767  1.00  0.00     0.006 C 
ATOM      8  C   UNL     1      -5.530  34.672  45.788  1.00  0.00    -0.020 C 
ATOM      9  C   UNL     1      -6.179  33.727  43.624  1.00  0.00     0.012 C 
ATOM     10  C   UNL     1      -5.733  33.303  45.036  1.00  0.00    -0.006 C 
ATOM     11  C   UNL     1      -4.107  35.196  45.490  1.00  0.00     0.012 C 
ATOM     12  C   UNL     1      -5.705  34.541  47.334  1.00  0.00     0.012 C 
ATOM     13  C   UNL     1      -6.873  32.462  45.693  1.00  0.00     0.017 C 
ATOM     14  C   UNL     1      -4.460  32.431  44.917  1.00  0.00    -0.064 C 
ATOM     15  C   UNL     1      -3.041  34.208  45.950  1.00  0.00     0.032 C 
ATOM     16  C   UNL     1      -3.242  32.803  45.403  1.00  0.00    -0.064 C 
ATOM     17  C   UNL     1      -4.541  31.123  44.176  1.00  0.00     0.032 C 
ATOM     18  C   UNL     1      -2.018  31.834  45.373  1.00  0.00    -0.008 C 
ATOM     19  C   UNL     1      -3.936  30.045  45.052  1.00  0.00     0.009 C 
ATOM     20  C   UNL     1      -2.416  30.283  45.246  1.00  0.00     0.007 C 
ATOM     21  C   UNL     1      -1.122  32.274  44.186  1.00  0.00     0.014 C 
ATOM     22  C   UNL     1      -1.227  32.034  46.702  1.00  0.00     0.016 C 
ATOM     23  C   UNL     1      -1.508  29.401  44.275  1.00  0.00    -0.006 C 
ATOM     24  C   UNL     1       0.129  31.407  43.961  1.00  0.00     0.033 C 
ATOM     25  C   UNL     1      -0.036  29.916  44.346  1.00  0.00     0.120 C 
ATOM     26  C   UNL     1      -2.001  29.381  42.797  1.00  0.00     0.014 C 
ATOM     27  C   UNL     1      -1.515  27.929  44.775  1.00  0.00     0.014 C 
BRANCH  25  28
ATOM     28  O   UNL     1       0.853  29.107  43.609  1.00  0.00    -0.393 OA
ATOM     29  H   UNL     1       0.817  28.184  43.974  1.00  0.00     0.210 HD
ENDBRANCH  25  28
ENDBRANCH   2   6
ENDBRANCH   1   2
BRANCH   1  30
ATOM     30  C   UNL     1      -4.821  38.014  43.506  1.00  0.00     0.028 C 
BRANCH  30  31
ATOM     31  C   UNL     1      -4.549  37.903  42.026  1.00  0.00    -0.028 C 
ATOM     32  C   UNL     1      -3.962  36.843  41.427  1.00  0.00    -0.080 C 
ATOM     33  C   UNL     1      -3.454  35.655  42.213  1.00  0.00     0.039 C 
ATOM     34  C   UNL     1      -3.795  36.870  39.930  1.00  0.00     0.039 C 
ENDBRANCH  30  31
ENDBRANCH   1  30
TORSDOF 6
ENDMDL
MODEL 8
REMARK VINA RESULT:    -5.390      9.811     13.666
REMARK INTER + INTRA:          -8.724
REMARK INTER:                  -6.959
REMARK INTRA:                  -1.765
REMARK UNBOUND:                -1.601
REMARK SMILES CC(C)=CCC[C@@H](C(=O)[O-])[C@H]1CC[C@@]2(C)C3=C(CC[C@@]12C)[C@]1(C)CC[C@H](O)C(C)(C)[C@@H]1CC3
REMARK SMILES IDX 6 1 7 2 8 3 9 4 10 5 11 6 12 7 20 8 13 9 14 10 19 11 21 12
REMARK SMILES IDX 15 13 16 14 18 15 17 16 33 17 22 18 32 19 31 20 24 21 23 22
REMARK SMILES IDX 28 23 25 24 26 25 29 26 30 27 27 28 5 30 4 31 2 32 1 33 3 34
REMARK H PARENT 27 29
REMARK Flexibility Score: inf
ROOT
ATOM      1  C   UNL     1     -11.100  27.267  43.277  1.00  0.00     0.014 C 
ENDROOT
BRANCH   1   2
ATOM      2  C   UNL     1     -11.210  28.733  43.761  1.00  0.00     0.039 C 
BRANCH   2   3
ATOM      3  C   UNL     1     -12.608  29.072  44.250  1.00  0.00     0.045 C 
ATOM      4  O   UNL     1     -12.875  29.130  45.479  1.00  0.00    -0.550 OA
ATOM      5  O   UNL     1     -13.636  29.254  43.333  1.00  0.00    -0.550 OA
ENDBRANCH   2   3
BRANCH   2   6
ATOM      6  C   UNL     1     -10.037  29.150  44.720  1.00  0.00     0.004 C 
ATOM      7  C   UNL     1      -8.789  28.261  44.584  1.00  0.00     0.006 C 
ATOM      8  C   UNL     1      -9.526  30.635  44.795  1.00  0.00    -0.020 C 
ATOM      9  C   UNL     1      -7.572  29.160  44.758  1.00  0.00     0.012 C 
ATOM     10  C   UNL     1      -8.066  30.486  45.367  1.00  0.00    -0.006 C 
ATOM     11  C   UNL     1      -9.448  31.298  43.402  1.00  0.00     0.012 C 
ATOM     12  C   UNL     1     -10.446  31.499  45.714  1.00  0.00     0.012 C 
ATOM     13  C   UNL     1      -8.080  30.351  46.923  1.00  0.00     0.017 C 
ATOM     14  C   UNL     1      -7.089  31.616  44.963  1.00  0.00    -0.064 C 
ATOM     15  C   UNL     1      -8.794  32.674  43.475  1.00  0.00     0.032 C 
ATOM     16  C   UNL     1      -7.437  32.663  44.162  1.00  0.00    -0.064 C 
ATOM     17  C   UNL     1      -5.658  31.541  45.423  1.00  0.00     0.032 C 
ATOM     18  C   UNL     1      -6.455  33.845  43.887  1.00  0.00    -0.008 C 
ATOM     19  C   UNL     1      -5.293  32.870  46.051  1.00  0.00     0.009 C 
ATOM     20  C   UNL     1      -5.295  33.999  44.988  1.00  0.00     0.007 C 
ATOM     21  C   UNL     1      -5.852  33.615  42.477  1.00  0.00     0.014 C 
ATOM     22  C   UNL     1      -7.294  35.160  43.868  1.00  0.00     0.016 C 
ATOM     23  C   UNL     1      -3.841  34.350  44.433  1.00  0.00    -0.006 C 
ATOM     24  C   UNL     1      -4.816  34.664  42.035  1.00  0.00     0.033 C 
ATOM     25  C   UNL     1      -3.982  35.277  43.185  1.00  0.00     0.120 C 
ATOM     26  C   UNL     1      -2.983  33.099  44.081  1.00  0.00     0.014 C 
ATOM     27  C   UNL     1      -3.063  35.142  45.521  1.00  0.00     0.014 C 
BRANCH  25  28
ATOM     28  O   UNL     1      -2.734  35.734  42.712  1.00  0.00    -0.393 OA
ATOM     29  H   UNL     1      -2.783  36.717  42.589  1.00  0.00     0.210 HD
ENDBRANCH  25  28
ENDBRANCH   2   6
ENDBRANCH   1   2
BRANCH   1  30
ATOM     30  C   UNL     1     -11.100  27.158  41.743  1.00  0.00     0.028 C 
BRANCH  30  31
ATOM     31  C   UNL     1     -10.688  28.464  41.108  1.00  0.00    -0.028 C 
ATOM     32  C   UNL     1      -9.505  28.684  40.494  1.00  0.00    -0.080 C 
ATOM     33  C   UNL     1      -8.423  27.629  40.430  1.00  0.00     0.039 C 
ATOM     34  C   UNL     1      -9.262  30.037  39.875  1.00  0.00     0.039 C 
ENDBRANCH  30  31
ENDBRANCH   1  30
TORSDOF 6
ENDMDL
MODEL 9
REMARK VINA RESULT:    -5.309     12.525     15.904
REMARK INTER + INTRA:          -8.617
REMARK INTER:                  -6.702
REMARK INTRA:                  -1.915
REMARK UNBOUND:                -1.601
REMARK SMILES CC(C)=CCC[C@@H](C(=O)[O-])[C@H]1CC[C@@]2(C)C3=C(CC[C@@]12C)[C@]1(C)CC[C@H](O)C(C)(C)[C@@H]1CC3
REMARK SMILES IDX 6 1 7 2 8 3 9 4 10 5 11 6 12 7 20 8 13 9 14 10 19 11 21 12
REMARK SMILES IDX 15 13 16 14 18 15 17 16 33 17 22 18 32 19 31 20 24 21 23 22
REMARK SMILES IDX 28 23 25 24 26 25 29 26 30 27 27 28 5 30 4 31 2 32 1 33 3 34
REMARK H PARENT 27 29
REMARK Flexibility Score: inf
ROOT
ATOM      1  C   UNL     1       2.132  30.330  44.579  1.00  0.00     0.014 C 
ENDROOT
BRANCH   1   2
ATOM      2  C   UNL     1       1.070  30.536  43.471  1.00  0.00     0.039 C 
BRANCH   2   3
ATOM      3  C   UNL     1       1.106  29.430  42.430  1.00  0.00     0.045 C 
ATOM      4  O   UNL     1       1.966  29.425  41.510  1.00  0.00    -0.550 OA
ATOM      5  O   UNL     1       0.133  28.438  42.441  1.00  0.00    -0.550 OA
ENDBRANCH   2   3
BRANCH   2   6
ATOM      6  C   UNL     1      -0.351  30.883  44.042  1.00  0.00     0.004 C 
ATOM      7  C   UNL     1      -0.313  31.478  45.461  1.00  0.00     0.006 C 
ATOM      8  C   UNL     1      -1.379  31.744  43.222  1.00  0.00    -0.020 C 
ATOM      9  C   UNL     1      -1.409  32.532  45.540  1.00  0.00     0.012 C 
ATOM     10  C   UNL     1      -2.340  32.315  44.332  1.00  0.00    -0.006 C 
ATOM     11  C   UNL     1      -0.703  32.927  42.494  1.00  0.00     0.012 C 
ATOM     12  C   UNL     1      -2.131  30.868  42.170  1.00  0.00     0.012 C 
ATOM     13  C   UNL     1      -3.435  31.273  44.721  1.00  0.00     0.017 C 
ATOM     14  C   UNL     1      -3.019  33.659  43.977  1.00  0.00    -0.064 C 
ATOM     15  C   UNL     1      -1.733  33.845  41.843  1.00  0.00     0.032 C 
ATOM     16  C   UNL     1      -2.807  34.325  42.806  1.00  0.00    -0.064 C 
ATOM     17  C   UNL     1      -3.922  34.310  44.992  1.00  0.00     0.032 C 
ATOM     18  C   UNL     1      -3.613  35.612  42.439  1.00  0.00    -0.008 C 
ATOM     19  C   UNL     1      -5.225  34.664  44.306  1.00  0.00     0.009 C 
ATOM     20  C   UNL     1      -5.002  35.761  43.233  1.00  0.00     0.007 C 
ATOM     21  C   UNL     1      -2.685  36.822  42.716  1.00  0.00     0.014 C 
ATOM     22  C   UNL     1      -3.922  35.553  40.911  1.00  0.00     0.016 C 
ATOM     23  C   UNL     1      -5.367  37.228  43.740  1.00  0.00    -0.006 C 
ATOM     24  C   UNL     1      -3.319  38.199  42.453  1.00  0.00     0.033 C 
ATOM     25  C   UNL     1      -4.844  38.271  42.704  1.00  0.00     0.120 C 
ATOM     26  C   UNL     1      -4.819  37.558  45.160  1.00  0.00     0.014 C 
ATOM     27  C   UNL     1      -6.914  37.368  43.808  1.00  0.00     0.014 C 
BRANCH  25  28
ATOM     28  O   UNL     1      -5.240  39.587  43.020  1.00  0.00    -0.393 OA
ATOM     29  H   UNL     1      -6.231  39.633  43.003  1.00  0.00     0.210 HD
ENDBRANCH  25  28
ENDBRANCH   2   6
ENDBRANCH   1   2
BRANCH   1  30
ATOM     30  C   UNL     1       3.256  31.376  44.510  1.00  0.00     0.028 C 
BRANCH  30  31
ATOM     31  C   UNL     1       2.764  32.659  43.886  1.00  0.00    -0.028 C 
ATOM     32  C   UNL     1       2.421  33.770  44.576  1.00  0.00    -0.080 C 
ATOM     33  C   UNL     1       2.442  33.817  46.087  1.00  0.00     0.039 C 
ATOM     34  C   UNL     1       1.983  34.985  43.800  1.00  0.00     0.039 C 
ENDBRANCH  30  31
ENDBRANCH   1  30
TORSDOF 6
ENDMDL
