MODEL 1
REMARK VINA RESULT:    -4.333      0.000      0.000
REMARK INTER + INTRA:          -9.195
REMARK INTER:                  -7.879
REMARK INTRA:                  -1.316
REMARK UNBOUND:                -1.316
REMARK SMILES CCCCCCCCCCCCCCCC(=O)[O-]
REMARK SMILES IDX 9 1 10 2 11 3 12 4 13 5 14 6 15 7 16 8 17 9 18 10 8 11 7 12
REMARK SMILES IDX 6 13 5 14 4 15 3 16 2 17 1 18
REMARK H PARENT
REMARK Flexibility Score: inf
ROOT
ATOM      1  C   UNL     1      98.759 -68.660   3.829  1.00  0.00     0.000 C 
ENDROOT
BRANCH   1   2
ATOM      2  C   UNL     1      97.739 -67.552   3.524  1.00  0.00     0.000 C 
BRANCH   2   3
ATOM      3  C   UNL     1      98.294 -66.144   3.804  1.00  0.00     0.000 C 
BRANCH   3   4
ATOM      4  C   UNL     1      98.979 -65.518   2.575  1.00  0.00     0.000 C 
BRANCH   4   5
ATOM      5  C   UNL     1      98.465 -66.030   1.218  1.00  0.00     0.000 C 
BRANCH   5   6
ATOM      6  C   UNL     1      99.596 -66.483   0.280  1.00  0.00     0.006 C 
BRANCH   6   7
ATOM      7  C   UNL     1     100.010 -67.939   0.532  1.00  0.00     0.053 C 
BRANCH   7   8
ATOM      8  C   UNL     1      99.066 -68.904  -0.116  1.00  0.00     0.041 C 
ATOM      9  O   UNL     1      98.690 -69.934   0.502  1.00  0.00    -0.550 OA
ATOM     10  O   UNL     1      98.572 -68.646  -1.389  1.00  0.00    -0.550 OA
ENDBRANCH   7   8
ENDBRANCH   6   7
ENDBRANCH   5   6
ENDBRANCH   4   5
ENDBRANCH   3   4
ENDBRANCH   2   3
ENDBRANCH   1   2
BRANCH   1  11
ATOM     11  C   UNL     1      99.734 -68.270   4.950  1.00  0.00     0.000 C 
BRANCH  11  12
ATOM     12  C   UNL     1     100.182 -69.504   5.743  1.00  0.00    -0.000 C 
BRANCH  12  13
ATOM     13  C   UNL     1     101.175 -69.118   6.849  1.00  0.00    -0.000 C 
BRANCH  13  14
ATOM     14  C   UNL     1     101.110 -67.625   7.207  1.00  0.00    -0.000 C 
BRANCH  14  15
ATOM     15  C   UNL     1     101.050 -67.384   8.726  1.00  0.00    -0.000 C 
BRANCH  15  16
ATOM     16  C   UNL     1     100.998 -68.692   9.531  1.00  0.00    -0.000 C 
BRANCH  16  17
ATOM     17  C   UNL     1     100.207 -68.549  10.838  1.00  0.00    -0.003 C 
ATOM     18  C   UNL     1     100.026 -67.082  11.214  1.00  0.00     0.004 C 
ENDBRANCH  16  17
ENDBRANCH  15  16
ENDBRANCH  14  15
ENDBRANCH  13  14
ENDBRANCH  12  13
ENDBRANCH  11  12
ENDBRANCH   1  11
TORSDOF 14
ENDMDL
MODEL 2
REMARK VINA RESULT:    -4.275      1.075      1.677
REMARK INTER + INTRA:          -9.090
REMARK INTER:                  -7.602
REMARK INTRA:                  -1.487
REMARK UNBOUND:                -1.316
REMARK SMILES CCCCCCCCCCCCCCCC(=O)[O-]
REMARK SMILES IDX 9 1 10 2 11 3 12 4 13 5 14 6 15 7 16 8 17 9 18 10 8 11 7 12
REMARK SMILES IDX 6 13 5 14 4 15 3 16 2 17 1 18
REMARK H PARENT
REMARK Flexibility Score: inf
ROOT
ATOM      1  C   UNL     1     100.194 -68.791   4.651  1.00  0.00     0.000 C 
ENDROOT
BRANCH   1   2
ATOM      2  C   UNL     1      98.754 -68.429   4.254  1.00  0.00     0.000 C 
BRANCH   2   3
ATOM      3  C   UNL     1      98.503 -66.911   4.263  1.00  0.00     0.000 C 
BRANCH   3   4
ATOM      4  C   UNL     1      97.396 -66.484   3.281  1.00  0.00     0.000 C 
BRANCH   4   5
ATOM      5  C   UNL     1      97.848 -65.500   2.187  1.00  0.00     0.000 C 
BRANCH   5   6
ATOM      6  C   UNL     1      99.166 -65.917   1.512  1.00  0.00     0.006 C 
BRANCH   6   7
ATOM      7  C   UNL     1      98.951 -66.986   0.432  1.00  0.00     0.053 C 
BRANCH   7   8
ATOM      8  C   UNL     1      99.711 -68.240   0.736  1.00  0.00     0.041 C 
ATOM      9  O   UNL     1      99.191 -69.365   0.516  1.00  0.00    -0.550 OA
ATOM     10  O   UNL     1     101.009 -68.167   1.228  1.00  0.00    -0.550 OA
ENDBRANCH   7   8
ENDBRANCH   6   7
ENDBRANCH   5   6
ENDBRANCH   4   5
ENDBRANCH   3   4
ENDBRANCH   2   3
ENDBRANCH   1   2
BRANCH   1  11
ATOM     11  C   UNL     1     100.250 -69.776   5.828  1.00  0.00     0.000 C 
BRANCH  11  12
ATOM     12  C   UNL     1     100.711 -69.074   7.111  1.00  0.00    -0.000 C 
BRANCH  12  13
ATOM     13  C   UNL     1     101.377 -67.727   6.793  1.00  0.00    -0.000 C 
BRANCH  13  14
ATOM     14  C   UNL     1     100.955 -66.614   7.765  1.00  0.00    -0.000 C 
BRANCH  14  15
ATOM     15  C   UNL     1     101.379 -66.904   9.216  1.00  0.00    -0.000 C 
BRANCH  15  16
ATOM     16  C   UNL     1     100.191 -66.899  10.191  1.00  0.00    -0.000 C 
BRANCH  16  17
ATOM     17  C   UNL     1     100.161 -68.143  11.090  1.00  0.00    -0.003 C 
ATOM     18  C   UNL     1     101.321 -69.080  10.771  1.00  0.00     0.004 C 
ENDBRANCH  16  17
ENDBRANCH  15  16
ENDBRANCH  14  15
ENDBRANCH  13  14
ENDBRANCH  12  13
ENDBRANCH  11  12
ENDBRANCH   1  11
TORSDOF 14
ENDMDL
MODEL 3
REMARK VINA RESULT:    -4.186      0.615      0.995
REMARK INTER + INTRA:          -8.927
REMARK INTER:                  -7.911
REMARK INTRA:                  -1.016
REMARK UNBOUND:                -1.316
REMARK SMILES CCCCCCCCCCCCCCCC(=O)[O-]
REMARK SMILES IDX 9 1 10 2 11 3 12 4 13 5 14 6 15 7 16 8 17 9 18 10 8 11 7 12
REMARK SMILES IDX 6 13 5 14 4 15 3 16 2 17 1 18
REMARK H PARENT
REMARK Flexibility Score: inf
ROOT
ATOM      1  C   UNL     1      98.827 -68.639   3.867  1.00  0.00     0.000 C 
ENDROOT
BRANCH   1   2
ATOM      2  C   UNL     1      97.722 -67.580   3.743  1.00  0.00     0.000 C 
BRANCH   2   3
ATOM      3  C   UNL     1      98.278 -66.179   3.428  1.00  0.00     0.000 C 
BRANCH   3   4
ATOM      4  C   UNL     1      98.245 -65.848   1.925  1.00  0.00     0.000 C 
BRANCH   4   5
ATOM      5  C   UNL     1      99.611 -65.923   1.218  1.00  0.00     0.000 C 
BRANCH   5   6
ATOM      6  C   UNL     1     100.012 -67.359   0.839  1.00  0.00     0.006 C 
BRANCH   6   7
ATOM      7  C   UNL     1      99.579 -67.725  -0.587  1.00  0.00     0.053 C 
BRANCH   7   8
ATOM      8  C   UNL     1      98.798 -69.002  -0.618  1.00  0.00     0.041 C 
ATOM      9  O   UNL     1      98.149 -69.323  -1.648  1.00  0.00    -0.550 OA
ATOM     10  O   UNL     1      98.816 -69.856   0.478  1.00  0.00    -0.550 OA
ENDBRANCH   7   8
ENDBRANCH   6   7
ENDBRANCH   5   6
ENDBRANCH   4   5
ENDBRANCH   3   4
ENDBRANCH   2   3
ENDBRANCH   1   2
BRANCH   1  11
ATOM     11  C   UNL     1      99.826 -68.319   4.989  1.00  0.00     0.000 C 
BRANCH  11  12
ATOM     12  C   UNL     1     100.288 -69.599   5.696  1.00  0.00    -0.000 C 
BRANCH  12  13
ATOM     13  C   UNL     1     100.817 -69.290   7.104  1.00  0.00    -0.000 C 
BRANCH  13  14
ATOM     14  C   UNL     1     100.960 -67.783   7.365  1.00  0.00    -0.000 C 
BRANCH  14  15
ATOM     15  C   UNL     1     101.233 -67.462   8.845  1.00  0.00    -0.000 C 
BRANCH  15  16
ATOM     16  C   UNL     1     100.564 -68.463   9.800  1.00  0.00    -0.000 C 
BRANCH  16  17
ATOM     17  C   UNL     1     100.232 -67.844  11.165  1.00  0.00    -0.003 C 
ATOM     18  C   UNL     1      99.873 -66.369  11.027  1.00  0.00     0.004 C 
ENDBRANCH  16  17
ENDBRANCH  15  16
ENDBRANCH  14  15
ENDBRANCH  13  14
ENDBRANCH  12  13
ENDBRANCH  11  12
ENDBRANCH   1  11
TORSDOF 14
ENDMDL
MODEL 4
REMARK VINA RESULT:    -4.003      1.201      2.538
REMARK INTER + INTRA:          -8.596
REMARK INTER:                  -6.640
REMARK INTRA:                  -1.955
REMARK UNBOUND:                -1.316
REMARK SMILES CCCCCCCCCCCCCCCC(=O)[O-]
REMARK SMILES IDX 9 1 10 2 11 3 12 4 13 5 14 6 15 7 16 8 17 9 18 10 8 11 7 12
REMARK SMILES IDX 6 13 5 14 4 15 3 16 2 17 1 18
REMARK H PARENT
REMARK Flexibility Score: inf
ROOT
ATOM      1  C   UNL     1      99.923 -69.364   5.406  1.00  0.00     0.000 C 
ENDROOT
BRANCH   1   2
ATOM      2  C   UNL     1      99.465 -68.777   4.062  1.00  0.00     0.000 C 
BRANCH   2   3
ATOM      3  C   UNL     1      98.184 -67.933   4.192  1.00  0.00     0.000 C 
BRANCH   3   4
ATOM      4  C   UNL     1      98.332 -66.525   3.587  1.00  0.00     0.000 C 
BRANCH   4   5
ATOM      5  C   UNL     1      99.339 -66.424   2.427  1.00  0.00     0.000 C 
BRANCH   5   6
ATOM      6  C   UNL     1      98.748 -66.869   1.079  1.00  0.00     0.006 C 
BRANCH   6   7
ATOM      7  C   UNL     1      99.688 -67.815   0.318  1.00  0.00     0.053 C 
BRANCH   7   8
ATOM      8  C   UNL     1      98.957 -69.003  -0.226  1.00  0.00     0.041 C 
ATOM      9  O   UNL     1      98.716 -69.992   0.514  1.00  0.00    -0.550 OA
ATOM     10  O   UNL     1      98.510 -69.002  -1.542  1.00  0.00    -0.550 OA
ENDBRANCH   7   8
ENDBRANCH   6   7
ENDBRANCH   5   6
ENDBRANCH   4   5
ENDBRANCH   3   4
ENDBRANCH   2   3
ENDBRANCH   1   2
BRANCH   1  11
ATOM     11  C   UNL     1     101.417 -69.719   5.413  1.00  0.00     0.000 C 
BRANCH  11  12
ATOM     12  C   UNL     1     102.056 -69.382   6.766  1.00  0.00    -0.000 C 
BRANCH  12  13
ATOM     13  C   UNL     1     101.003 -68.868   7.760  1.00  0.00    -0.000 C 
BRANCH  13  14
ATOM     14  C   UNL     1     101.540 -67.748   8.664  1.00  0.00    -0.000 C 
BRANCH  14  15
ATOM     15  C   UNL     1     100.640 -66.499   8.655  1.00  0.00    -0.000 C 
BRANCH  15  16
ATOM     16  C   UNL     1     101.177 -65.392   7.734  1.00  0.00    -0.000 C 
BRANCH  16  17
ATOM     17  C   UNL     1     100.595 -65.471   6.316  1.00  0.00    -0.003 C 
ATOM     18  C   UNL     1     101.641 -65.960   5.320  1.00  0.00     0.004 C 
ENDBRANCH  16  17
ENDBRANCH  15  16
ENDBRANCH  14  15
ENDBRANCH  13  14
ENDBRANCH  12  13
ENDBRANCH  11  12
ENDBRANCH   1  11
TORSDOF 14
ENDMDL
MODEL 5
REMARK VINA RESULT:    -3.864      4.051      8.337
REMARK INTER + INTRA:          -8.343
REMARK INTER:                  -7.192
REMARK INTRA:                  -1.151
REMARK UNBOUND:                -1.316
REMARK SMILES CCCCCCCCCCCCCCCC(=O)[O-]
REMARK SMILES IDX 9 1 10 2 11 3 12 4 13 5 14 6 15 7 16 8 17 9 18 10 8 11 7 12
REMARK SMILES IDX 6 13 5 14 4 15 3 16 2 17 1 18
REMARK H PARENT
REMARK Flexibility Score: inf
ROOT
ATOM      1  C   UNL     1      98.681 -68.630   3.686  1.00  0.00     0.000 C 
ENDROOT
BRANCH   1   2
ATOM      2  C   UNL     1      99.871 -68.323   4.609  1.00  0.00     0.000 C 
BRANCH   2   3
ATOM      3  C   UNL     1     100.300 -69.543   5.444  1.00  0.00     0.000 C 
BRANCH   3   4
ATOM      4  C   UNL     1     101.087 -69.153   6.709  1.00  0.00     0.000 C 
BRANCH   4   5
ATOM      5  C   UNL     1     100.993 -67.666   7.095  1.00  0.00     0.000 C 
BRANCH   5   6
ATOM      6  C   UNL     1     100.886 -67.446   8.614  1.00  0.00     0.006 C 
BRANCH   6   7
ATOM      7  C   UNL     1     100.766 -68.768   9.384  1.00  0.00     0.053 C 
BRANCH   7   8
ATOM      8  C   UNL     1     100.528 -68.539  10.845  1.00  0.00     0.041 C 
ATOM      9  O   UNL     1     100.982 -69.348  11.695  1.00  0.00    -0.550 OA
ATOM     10  O   UNL     1      99.835 -67.412  11.268  1.00  0.00    -0.550 OA
ENDBRANCH   7   8
ENDBRANCH   6   7
ENDBRANCH   5   6
ENDBRANCH   4   5
ENDBRANCH   3   4
ENDBRANCH   2   3
ENDBRANCH   1   2
BRANCH   1  11
ATOM     11  C   UNL     1      97.571 -67.573   3.786  1.00  0.00     0.000 C 
BRANCH  11  12
ATOM     12  C   UNL     1      98.134 -66.162   3.572  1.00  0.00    -0.000 C 
BRANCH  12  13
ATOM     13  C   UNL     1      97.866 -65.673   2.141  1.00  0.00    -0.000 C 
BRANCH  13  14
ATOM     14  C   UNL     1      99.086 -65.836   1.222  1.00  0.00    -0.000 C 
BRANCH  14  15
ATOM     15  C   UNL     1      98.717 -66.416  -0.155  1.00  0.00    -0.000 C 
BRANCH  15  16
ATOM     16  C   UNL     1      99.567 -67.640  -0.527  1.00  0.00    -0.000 C 
BRANCH  16  17
ATOM     17  C   UNL     1      98.718 -68.823  -1.015  1.00  0.00    -0.003 C 
ATOM     18  C   UNL     1      98.397 -69.778   0.130  1.00  0.00     0.004 C 
ENDBRANCH  16  17
ENDBRANCH  15  16
ENDBRANCH  14  15
ENDBRANCH  13  14
ENDBRANCH  12  13
ENDBRANCH  11  12
ENDBRANCH   1  11
TORSDOF 14
ENDMDL
MODEL 6
REMARK VINA RESULT:    -3.859      1.693      2.301
REMARK INTER + INTRA:          -8.334
REMARK INTER:                  -7.567
REMARK INTRA:                  -0.767
REMARK UNBOUND:                -1.316
REMARK SMILES CCCCCCCCCCCCCCCC(=O)[O-]
REMARK SMILES IDX 9 1 10 2 11 3 12 4 13 5 14 6 15 7 16 8 17 9 18 10 8 11 7 12
REMARK SMILES IDX 6 13 5 14 4 15 3 16 2 17 1 18
REMARK H PARENT
REMARK Flexibility Score: inf
ROOT
ATOM      1  C   UNL     1      99.122 -68.642   4.435  1.00  0.00     0.000 C 
ENDROOT
BRANCH   1   2
ATOM      2  C   UNL     1     100.090 -67.641   3.784  1.00  0.00     0.000 C 
BRANCH   2   3
ATOM      3  C   UNL     1     100.392 -67.982   2.314  1.00  0.00     0.000 C 
BRANCH   3   4
ATOM      4  C   UNL     1      99.219 -67.654   1.372  1.00  0.00     0.000 C 
BRANCH   4   5
ATOM      5  C   UNL     1      99.198 -68.461   0.061  1.00  0.00     0.000 C 
BRANCH   5   6
ATOM      6  C   UNL     1      99.488 -67.598  -1.179  1.00  0.00     0.006 C 
BRANCH   6   7
ATOM      7  C   UNL     1      98.235 -66.868  -1.682  1.00  0.00     0.053 C 
BRANCH   7   8
ATOM      8  C   UNL     1      97.829 -67.339  -3.044  1.00  0.00     0.041 C 
ATOM      9  O   UNL     1      96.818 -66.847  -3.609  1.00  0.00    -0.550 OA
ATOM     10  O   UNL     1      98.590 -68.295  -3.705  1.00  0.00    -0.550 OA
ENDBRANCH   7   8
ENDBRANCH   6   7
ENDBRANCH   5   6
ENDBRANCH   4   5
ENDBRANCH   3   4
ENDBRANCH   2   3
ENDBRANCH   1   2
BRANCH   1  11
ATOM     11  C   UNL     1      99.827 -69.586   5.420  1.00  0.00     0.000 C 
BRANCH  11  12
ATOM     12  C   UNL     1     101.344 -69.364   5.405  1.00  0.00    -0.000 C 
BRANCH  12  13
ATOM     13  C   UNL     1     101.864 -69.016   6.808  1.00  0.00    -0.000 C 
BRANCH  13  14
ATOM     14  C   UNL     1     101.185 -67.770   7.398  1.00  0.00    -0.000 C 
BRANCH  14  15
ATOM     15  C   UNL     1     101.405 -67.639   8.916  1.00  0.00    -0.000 C 
BRANCH  15  16
ATOM     16  C   UNL     1     100.605 -68.674   9.720  1.00  0.00    -0.000 C 
BRANCH  16  17
ATOM     17  C   UNL     1     100.242 -68.177  11.126  1.00  0.00    -0.003 C 
ATOM     18  C   UNL     1      99.972 -66.676  11.126  1.00  0.00     0.004 C 
ENDBRANCH  16  17
ENDBRANCH  15  16
ENDBRANCH  14  15
ENDBRANCH  13  14
ENDBRANCH  12  13
ENDBRANCH  11  12
ENDBRANCH   1  11
TORSDOF 14
ENDMDL
MODEL 7
REMARK VINA RESULT:    -3.832      1.405      2.758
REMARK INTER + INTRA:          -8.284
REMARK INTER:                  -6.909
REMARK INTRA:                  -1.375
REMARK UNBOUND:                -1.316
REMARK SMILES CCCCCCCCCCCCCCCC(=O)[O-]
REMARK SMILES IDX 9 1 10 2 11 3 12 4 13 5 14 6 15 7 16 8 17 9 18 10 8 11 7 12
REMARK SMILES IDX 6 13 5 14 4 15 3 16 2 17 1 18
REMARK H PARENT
REMARK Flexibility Score: inf
ROOT
ATOM      1  C   UNL     1     102.107 -68.837   5.510  1.00  0.00     0.000 C 
ENDROOT
BRANCH   1   2
ATOM      2  C   UNL     1     101.112 -68.722   4.345  1.00  0.00     0.000 C 
BRANCH   2   3
ATOM      3  C   UNL     1      99.653 -68.921   4.791  1.00  0.00     0.000 C 
BRANCH   3   4
ATOM      4  C   UNL     1      98.724 -67.787   4.320  1.00  0.00     0.000 C 
BRANCH   4   5
ATOM      5  C   UNL     1      99.448 -66.514   3.846  1.00  0.00     0.000 C 
BRANCH   5   6
ATOM      6  C   UNL     1      99.530 -66.406   2.314  1.00  0.00     0.006 C 
BRANCH   6   7
ATOM      7  C   UNL     1      98.671 -67.467   1.611  1.00  0.00     0.053 C 
BRANCH   7   8
ATOM      8  C   UNL     1      99.514 -68.487   0.910  1.00  0.00     0.041 C 
ATOM      9  O   UNL     1     100.749 -68.296   0.764  1.00  0.00    -0.550 OA
ATOM     10  O   UNL     1      98.941 -69.666   0.450  1.00  0.00    -0.550 OA
ENDBRANCH   7   8
ENDBRANCH   6   7
ENDBRANCH   5   6
ENDBRANCH   4   5
ENDBRANCH   3   4
ENDBRANCH   2   3
ENDBRANCH   1   2
BRANCH   1  11
ATOM     11  C   UNL     1     101.918 -67.730   6.557  1.00  0.00     0.000 C 
BRANCH  11  12
ATOM     12  C   UNL     1     102.087 -68.281   7.978  1.00  0.00    -0.000 C 
BRANCH  12  13
ATOM     13  C   UNL     1     100.744 -68.766   8.545  1.00  0.00    -0.000 C 
BRANCH  13  14
ATOM     14  C   UNL     1     100.700 -68.721  10.080  1.00  0.00    -0.000 C 
BRANCH  14  15
ATOM     15  C   UNL     1     101.171 -67.370  10.646  1.00  0.00    -0.000 C 
BRANCH  15  16
ATOM     16  C   UNL     1     100.025 -66.558  11.269  1.00  0.00    -0.000 C 
BRANCH  16  17
ATOM     17  C   UNL     1      99.837 -65.191  10.597  1.00  0.00    -0.003 C 
ATOM     18  C   UNL     1     100.624 -65.107   9.293  1.00  0.00     0.004 C 
ENDBRANCH  16  17
ENDBRANCH  15  16
ENDBRANCH  14  15
ENDBRANCH  13  14
ENDBRANCH  12  13
ENDBRANCH  11  12
ENDBRANCH   1  11
TORSDOF 14
ENDMDL
MODEL 8
REMARK VINA RESULT:    -3.826      1.442      2.625
REMARK INTER + INTRA:          -8.274
REMARK INTER:                  -6.962
REMARK INTRA:                  -1.311
REMARK UNBOUND:                -1.316
REMARK SMILES CCCCCCCCCCCCCCCC(=O)[O-]
REMARK SMILES IDX 9 1 10 2 11 3 12 4 13 5 14 6 15 7 16 8 17 9 18 10 8 11 7 12
REMARK SMILES IDX 6 13 5 14 4 15 3 16 2 17 1 18
REMARK H PARENT
REMARK Flexibility Score: inf
ROOT
ATOM      1  C   UNL     1      97.547 -65.998   3.464  1.00  0.00     0.000 C 
ENDROOT
BRANCH   1   2
ATOM      2  C   UNL     1      97.979 -65.896   1.993  1.00  0.00     0.000 C 
BRANCH   2   3
ATOM      3  C   UNL     1      99.347 -65.213   1.824  1.00  0.00     0.000 C 
BRANCH   3   4
ATOM      4  C   UNL     1      99.811 -65.159   0.356  1.00  0.00     0.000 C 
BRANCH   4   5
ATOM      5  C   UNL     1      98.813 -65.747  -0.658  1.00  0.00     0.000 C 
BRANCH   5   6
ATOM      6  C   UNL     1      99.383 -66.944  -1.437  1.00  0.00     0.006 C 
BRANCH   6   7
ATOM      7  C   UNL     1      98.602 -68.237  -1.166  1.00  0.00     0.053 C 
BRANCH   7   8
ATOM      8  C   UNL     1      99.204 -69.023  -0.042  1.00  0.00     0.041 C 
ATOM      9  O   UNL     1      98.674 -70.101   0.332  1.00  0.00    -0.550 OA
ATOM     10  O   UNL     1     100.372 -68.583   0.568  1.00  0.00    -0.550 OA
ENDBRANCH   7   8
ENDBRANCH   6   7
ENDBRANCH   5   6
ENDBRANCH   4   5
ENDBRANCH   3   4
ENDBRANCH   2   3
ENDBRANCH   1   2
BRANCH   1  11
ATOM     11  C   UNL     1      97.290 -67.447   3.903  1.00  0.00     0.000 C 
BRANCH  11  12
ATOM     12  C   UNL     1      98.468 -68.354   3.524  1.00  0.00    -0.000 C 
BRANCH  12  13
ATOM     13  C   UNL     1      99.635 -68.181   4.508  1.00  0.00    -0.000 C 
BRANCH  13  14
ATOM     14  C   UNL     1      99.823 -69.401   5.422  1.00  0.00    -0.000 C 
BRANCH  14  15
ATOM     15  C   UNL     1     101.299 -69.816   5.560  1.00  0.00    -0.000 C 
BRANCH  15  16
ATOM     16  C   UNL     1     102.049 -68.984   6.612  1.00  0.00    -0.000 C 
BRANCH  16  17
ATOM     17  C   UNL     1     101.226 -68.765   7.889  1.00  0.00    -0.003 C 
ATOM     18  C   UNL     1     100.991 -67.280   8.144  1.00  0.00     0.004 C 
ENDBRANCH  16  17
ENDBRANCH  15  16
ENDBRANCH  14  15
ENDBRANCH  13  14
ENDBRANCH  12  13
ENDBRANCH  11  12
ENDBRANCH   1  11
TORSDOF 14
ENDMDL
MODEL 9
REMARK VINA RESULT:    -3.767      4.041      7.477
REMARK INTER + INTRA:          -8.165
REMARK INTER:                  -5.988
REMARK INTRA:                  -2.178
REMARK UNBOUND:                -1.316
REMARK SMILES CCCCCCCCCCCCCCCC(=O)[O-]
REMARK SMILES IDX 9 1 10 2 11 3 12 4 13 5 14 6 15 7 16 8 17 9 18 10 8 11 7 12
REMARK SMILES IDX 6 13 5 14 4 15 3 16 2 17 1 18
REMARK H PARENT
REMARK Flexibility Score: inf
ROOT
ATOM      1  C   UNL     1      98.768 -68.641   3.836  1.00  0.00     0.000 C 
ENDROOT
BRANCH   1   2
ATOM      2  C   UNL     1      99.500 -69.102   5.106  1.00  0.00     0.000 C 
BRANCH   2   3
ATOM      3  C   UNL     1     101.003 -69.339   4.869  1.00  0.00     0.000 C 
BRANCH   3   4
ATOM      4  C   UNL     1     101.869 -68.929   6.075  1.00  0.00     0.000 C 
BRANCH   4   5
ATOM      5  C   UNL     1     101.249 -67.847   6.978  1.00  0.00     0.000 C 
BRANCH   5   6
ATOM      6  C   UNL     1     100.970 -68.345   8.406  1.00  0.00     0.006 C 
BRANCH   6   7
ATOM      7  C   UNL     1     100.929 -67.196   9.422  1.00  0.00     0.053 C 
BRANCH   7   8
ATOM      8  C   UNL     1     100.221 -67.595  10.681  1.00  0.00     0.041 C 
ATOM      9  O   UNL     1      99.677 -66.722  11.406  1.00  0.00    -0.550 OA
ATOM     10  O   UNL     1     100.132 -68.936  11.034  1.00  0.00    -0.550 OA
ENDBRANCH   7   8
ENDBRANCH   6   7
ENDBRANCH   5   6
ENDBRANCH   4   5
ENDBRANCH   3   4
ENDBRANCH   2   3
ENDBRANCH   1   2
BRANCH   1  11
ATOM     11  C   UNL     1      97.789 -67.489   4.107  1.00  0.00     0.000 C 
BRANCH  11  12
ATOM     12  C   UNL     1      98.328 -66.166   3.549  1.00  0.00    -0.000 C 
BRANCH  12  13
ATOM     13  C   UNL     1      99.081 -65.379   4.632  1.00  0.00    -0.000 C 
BRANCH  13  14
ATOM     14  C   UNL     1     100.593 -65.305   4.366  1.00  0.00    -0.000 C 
BRANCH  14  15
ATOM     15  C   UNL     1     100.959 -65.696   2.923  1.00  0.00    -0.000 C 
BRANCH  15  16
ATOM     16  C   UNL     1     102.074 -66.752   2.862  1.00  0.00    -0.000 C 
BRANCH  16  17
ATOM     17  C   UNL     1     102.066 -67.543   1.547  1.00  0.00    -0.003 C 
ATOM     18  C   UNL     1     100.671 -67.571   0.930  1.00  0.00     0.004 C 
ENDBRANCH  16  17
ENDBRANCH  15  16
ENDBRANCH  14  15
ENDBRANCH  13  14
ENDBRANCH  12  13
ENDBRANCH  11  12
ENDBRANCH   1  11
TORSDOF 14
ENDMDL
