MODEL 1
REMARK VINA RESULT:    -4.128      0.000      0.000
REMARK INTER + INTRA:         -14.814
REMARK INTER:                 -10.884
REMARK INTRA:                  -3.929
REMARK UNBOUND:                -3.929
REMARK SMILES CCCCCCCCCCCCCCCCCCCCCCCCCCCCCC(=O)[O-]
REMARK SMILES IDX 16 1 17 2 18 3 19 4 20 5 21 6 22 7 23 8 24 9 25 10 26 11
REMARK SMILES IDX 27 12 28 13 29 14 30 15 31 16 32 17 15 18 14 19 13 20 12 21
REMARK SMILES IDX 11 22 10 23 9 24 8 25 7 26 6 27 5 28 4 29 3 30 2 31 1 32
REMARK H PARENT
REMARK Flexibility Score: inf
ROOT
ATOM      1  C   UNL     1     152.391 134.317 167.350  1.00  0.00     0.000 C 
ENDROOT
BRANCH   1   2
ATOM      2  C   UNL     1     152.848 134.942 166.021  1.00  0.00     0.000 C 
BRANCH   2   3
ATOM      3  C   UNL     1     154.264 134.497 165.618  1.00  0.00     0.000 C 
BRANCH   3   4
ATOM      4  C   UNL     1     154.265 133.169 164.830  1.00  0.00     0.000 C 
BRANCH   4   5
ATOM      5  C   UNL     1     154.669 131.942 165.667  1.00  0.00     0.000 C 
BRANCH   5   6
ATOM      6  C   UNL     1     155.460 132.257 166.948  1.00  0.00     0.000 C 
BRANCH   6   7
ATOM      7  C   UNL     1     156.992 132.250 166.786  1.00  0.00     0.000 C 
BRANCH   7   8
ATOM      8  C   UNL     1     157.751 132.953 167.935  1.00  0.00     0.000 C 
BRANCH   8   9
ATOM      9  C   UNL     1     156.852 133.526 169.053  1.00  0.00     0.000 C 
BRANCH   9  10
ATOM     10  C   UNL     1     156.895 135.060 169.236  1.00  0.00     0.000 C 
BRANCH  10  11
ATOM     11  C   UNL     1     156.011 135.867 168.270  1.00  0.00     0.000 C 
BRANCH  11  12
ATOM     12  C   UNL     1     156.828 136.599 167.192  1.00  0.00     0.000 C 
BRANCH  12  13
ATOM     13  C   UNL     1     156.545 138.110 167.157  1.00  0.00     0.006 C 
BRANCH  13  14
ATOM     14  C   UNL     1     157.825 138.956 167.122  1.00  0.00     0.053 C 
BRANCH  14  15
ATOM     15  C   UNL     1     157.557 140.296 166.513  1.00  0.00     0.041 C 
ATOM     16  O   UNL     1     157.854 141.349 167.140  1.00  0.00    -0.550 OA
ATOM     17  O   UNL     1     156.948 140.388 165.264  1.00  0.00    -0.550 OA
ENDBRANCH  14  15
ENDBRANCH  13  14
ENDBRANCH  12  13
ENDBRANCH  11  12
ENDBRANCH  10  11
ENDBRANCH   9  10
ENDBRANCH   8   9
ENDBRANCH   7   8
ENDBRANCH   6   7
ENDBRANCH   5   6
ENDBRANCH   4   5
ENDBRANCH   3   4
ENDBRANCH   2   3
ENDBRANCH   1   2
BRANCH   1  18
ATOM     18  C   UNL     1     151.386 133.174 167.139  1.00  0.00     0.000 C 
BRANCH  18  19
ATOM     19  C   UNL     1     150.535 133.405 165.881  1.00  0.00     0.000 C 
BRANCH  19  20
ATOM     20  C   UNL     1     150.681 132.269 164.850  1.00  0.00     0.000 C 
BRANCH  20  21
ATOM     21  C   UNL     1     150.660 132.723 163.377  1.00  0.00     0.000 C 
BRANCH  21  22
ATOM     22  C   UNL     1     149.266 133.077 162.822  1.00  0.00     0.000 C 
BRANCH  22  23
ATOM     23  C   UNL     1     148.102 132.289 163.451  1.00  0.00     0.000 C 
BRANCH  23  24
ATOM     24  C   UNL     1     146.984 131.977 162.441  1.00  0.00    -0.000 C 
BRANCH  24  25
ATOM     25  C   UNL     1     146.858 133.050 161.349  1.00  0.00    -0.000 C 
BRANCH  25  26
ATOM     26  C   UNL     1     145.429 133.612 161.240  1.00  0.00    -0.000 C 
BRANCH  26  27
ATOM     27  C   UNL     1     145.370 135.131 161.463  1.00  0.00    -0.000 C 
BRANCH  27  28
ATOM     28  C   UNL     1     146.323 135.603 162.575  1.00  0.00    -0.000 C 
BRANCH  28  29
ATOM     29  C   UNL     1     146.451 137.134 162.627  1.00  0.00    -0.000 C 
BRANCH  29  30
ATOM     30  C   UNL     1     147.660 137.599 163.454  1.00  0.00    -0.000 C 
BRANCH  30  31
ATOM     31  C   UNL     1     148.207 136.456 164.316  1.00  0.00    -0.003 C 
ATOM     32  C   UNL     1     149.732 136.484 164.369  1.00  0.00     0.004 C 
ENDBRANCH  30  31
ENDBRANCH  29  30
ENDBRANCH  28  29
ENDBRANCH  27  28
ENDBRANCH  26  27
ENDBRANCH  25  26
ENDBRANCH  24  25
ENDBRANCH  23  24
ENDBRANCH  22  23
ENDBRANCH  21  22
ENDBRANCH  20  21
ENDBRANCH  19  20
ENDBRANCH  18  19
ENDBRANCH   1  18
TORSDOF 28
ENDMDL
MODEL 2
REMARK VINA RESULT:    -4.056      3.228      8.458
REMARK INTER + INTRA:         -14.624
REMARK INTER:                  -9.477
REMARK INTRA:                  -5.148
REMARK UNBOUND:                -3.929
REMARK SMILES CCCCCCCCCCCCCCCCCCCCCCCCCCCCCC(=O)[O-]
REMARK SMILES IDX 16 1 17 2 18 3 19 4 20 5 21 6 22 7 23 8 24 9 25 10 26 11
REMARK SMILES IDX 27 12 28 13 29 14 30 15 31 16 32 17 15 18 14 19 13 20 12 21
REMARK SMILES IDX 11 22 10 23 9 24 8 25 7 26 6 27 5 28 4 29 3 30 2 31 1 32
REMARK H PARENT
REMARK Flexibility Score: inf
ROOT
ATOM      1  C   UNL     1     155.157 136.048 166.682  1.00  0.00     0.000 C 
ENDROOT
BRANCH   1   2
ATOM      2  C   UNL     1     156.615 135.856 167.132  1.00  0.00     0.000 C 
BRANCH   2   3
ATOM      3  C   UNL     1     156.751 134.815 168.257  1.00  0.00     0.000 C 
BRANCH   3   4
ATOM      4  C   UNL     1     157.674 133.640 167.867  1.00  0.00     0.000 C 
BRANCH   4   5
ATOM      5  C   UNL     1     156.928 132.408 167.324  1.00  0.00     0.000 C 
BRANCH   5   6
ATOM      6  C   UNL     1     155.457 132.289 167.761  1.00  0.00     0.000 C 
BRANCH   6   7
ATOM      7  C   UNL     1     154.470 131.925 166.637  1.00  0.00     0.000 C 
BRANCH   7   8
ATOM      8  C   UNL     1     154.799 132.574 165.273  1.00  0.00     0.000 C 
BRANCH   8   9
ATOM      9  C   UNL     1     153.610 132.660 164.290  1.00  0.00     0.000 C 
BRANCH   9  10
ATOM     10  C   UNL     1     152.334 131.893 164.705  1.00  0.00     0.000 C 
BRANCH  10  11
ATOM     11  C   UNL     1     151.004 132.564 164.321  1.00  0.00     0.000 C 
BRANCH  11  12
ATOM     12  C   UNL     1     150.145 132.920 165.546  1.00  0.00     0.000 C 
BRANCH  12  13
ATOM     13  C   UNL     1     148.934 133.795 165.188  1.00  0.00     0.006 C 
BRANCH  13  14
ATOM     14  C   UNL     1     149.292 134.951 164.243  1.00  0.00     0.053 C 
BRANCH  14  15
ATOM     15  C   UNL     1     148.127 135.876 164.075  1.00  0.00     0.041 C 
ATOM     16  O   UNL     1     148.125 137.002 164.641  1.00  0.00    -0.550 OA
ATOM     17  O   UNL     1     147.027 135.483 163.318  1.00  0.00    -0.550 OA
ENDBRANCH  14  15
ENDBRANCH  13  14
ENDBRANCH  12  13
ENDBRANCH  11  12
ENDBRANCH  10  11
ENDBRANCH   9  10
ENDBRANCH   8   9
ENDBRANCH   7   8
ENDBRANCH   6   7
ENDBRANCH   5   6
ENDBRANCH   4   5
ENDBRANCH   3   4
ENDBRANCH   2   3
ENDBRANCH   1   2
BRANCH   1  18
ATOM     18  C   UNL     1     154.156 135.713 167.799  1.00  0.00     0.000 C 
BRANCH  18  19
ATOM     19  C   UNL     1     152.838 135.173 167.224  1.00  0.00     0.000 C 
BRANCH  19  20
ATOM     20  C   UNL     1     152.457 135.840 165.889  1.00  0.00     0.000 C 
BRANCH  20  21
ATOM     21  C   UNL     1     151.702 137.178 166.024  1.00  0.00     0.000 C 
BRANCH  21  22
ATOM     22  C   UNL     1     151.869 138.145 164.835  1.00  0.00     0.000 C 
BRANCH  22  23
ATOM     23  C   UNL     1     152.598 139.459 165.169  1.00  0.00     0.000 C 
BRANCH  23  24
ATOM     24  C   UNL     1     154.108 139.389 164.881  1.00  0.00    -0.000 C 
BRANCH  24  25
ATOM     25  C   UNL     1     154.960 139.596 166.142  1.00  0.00    -0.000 C 
BRANCH  25  26
ATOM     26  C   UNL     1     156.463 139.399 165.875  1.00  0.00    -0.000 C 
BRANCH  26  27
ATOM     27  C   UNL     1     157.315 139.543 167.146  1.00  0.00    -0.000 C 
BRANCH  27  28
ATOM     28  C   UNL     1     157.552 141.013 167.535  1.00  0.00    -0.000 C 
BRANCH  28  29
ATOM     29  C   UNL     1     158.010 141.868 166.341  1.00  0.00    -0.000 C 
BRANCH  29  30
ATOM     30  C   UNL     1     157.325 143.243 166.300  1.00  0.00    -0.000 C 
BRANCH  30  31
ATOM     31  C   UNL     1     155.832 143.101 165.982  1.00  0.00    -0.003 C 
ATOM     32  C   UNL     1     155.590 143.046 164.476  1.00  0.00     0.004 C 
ENDBRANCH  30  31
ENDBRANCH  29  30
ENDBRANCH  28  29
ENDBRANCH  27  28
ENDBRANCH  26  27
ENDBRANCH  25  26
ENDBRANCH  24  25
ENDBRANCH  23  24
ENDBRANCH  22  23
ENDBRANCH  21  22
ENDBRANCH  20  21
ENDBRANCH  19  20
ENDBRANCH  18  19
ENDBRANCH   1  18
TORSDOF 28
ENDMDL
MODEL 3
REMARK VINA RESULT:    -4.043      1.367      2.317
REMARK INTER + INTRA:         -14.589
REMARK INTER:                  -8.687
REMARK INTRA:                  -5.902
REMARK UNBOUND:                -3.929
REMARK SMILES CCCCCCCCCCCCCCCCCCCCCCCCCCCCCC(=O)[O-]
REMARK SMILES IDX 16 1 17 2 18 3 19 4 20 5 21 6 22 7 23 8 24 9 25 10 26 11
REMARK SMILES IDX 27 12 28 13 29 14 30 15 31 16 32 17 15 18 14 19 13 20 12 21
REMARK SMILES IDX 11 22 10 23 9 24 8 25 7 26 6 27 5 28 4 29 3 30 2 31 1 32
REMARK H PARENT
REMARK Flexibility Score: inf
ROOT
ATOM      1  C   UNL     1     152.866 136.123 167.383  1.00  0.00     0.000 C 
ENDROOT
BRANCH   1   2
ATOM      2  C   UNL     1     153.181 135.547 165.991  1.00  0.00     0.000 C 
BRANCH   2   3
ATOM      3  C   UNL     1     154.475 134.715 165.979  1.00  0.00     0.000 C 
BRANCH   3   4
ATOM      4  C   UNL     1     154.379 133.486 165.049  1.00  0.00     0.000 C 
BRANCH   4   5
ATOM      5  C   UNL     1     155.065 132.224 165.603  1.00  0.00     0.000 C 
BRANCH   5   6
ATOM      6  C   UNL     1     155.553 132.330 167.058  1.00  0.00     0.000 C 
BRANCH   6   7
ATOM      7  C   UNL     1     157.077 132.478 167.226  1.00  0.00     0.000 C 
BRANCH   7   8
ATOM      8  C   UNL     1     157.497 133.564 168.244  1.00  0.00     0.000 C 
BRANCH   8   9
ATOM      9  C   UNL     1     156.339 134.158 169.075  1.00  0.00     0.000 C 
BRANCH   9  10
ATOM     10  C   UNL     1     156.655 135.462 169.841  1.00  0.00     0.000 C 
BRANCH  10  11
ATOM     11  C   UNL     1     156.050 136.744 169.244  1.00  0.00     0.000 C 
BRANCH  11  12
ATOM     12  C   UNL     1     157.035 137.495 168.333  1.00  0.00     0.000 C 
BRANCH  12  13
ATOM     13  C   UNL     1     156.539 137.602 166.883  1.00  0.00     0.006 C 
BRANCH  13  14
ATOM     14  C   UNL     1     155.511 138.726 166.685  1.00  0.00     0.053 C 
BRANCH  14  15
ATOM     15  C   UNL     1     156.154 139.926 166.063  1.00  0.00     0.041 C 
ATOM     16  O   UNL     1     157.386 139.919 165.799  1.00  0.00    -0.550 OA
ATOM     17  O   UNL     1     155.400 141.067 165.803  1.00  0.00    -0.550 OA
ENDBRANCH  14  15
ENDBRANCH  13  14
ENDBRANCH  12  13
ENDBRANCH  11  12
ENDBRANCH  10  11
ENDBRANCH   9  10
ENDBRANCH   8   9
ENDBRANCH   7   8
ENDBRANCH   6   7
ENDBRANCH   5   6
ENDBRANCH   4   5
ENDBRANCH   3   4
ENDBRANCH   2   3
ENDBRANCH   1   2
BRANCH   1  18
ATOM     18  C   UNL     1     152.909 135.047 168.479  1.00  0.00     0.000 C 
BRANCH  18  19
ATOM     19  C   UNL     1     151.652 134.166 168.446  1.00  0.00     0.000 C 
BRANCH  19  20
ATOM     20  C   UNL     1     151.982 132.670 168.282  1.00  0.00     0.000 C 
BRANCH  20  21
ATOM     21  C   UNL     1     151.606 132.069 166.913  1.00  0.00     0.000 C 
BRANCH  21  22
ATOM     22  C   UNL     1     150.594 132.893 166.093  1.00  0.00     0.000 C 
BRANCH  22  23
ATOM     23  C   UNL     1     150.885 132.958 164.584  1.00  0.00     0.000 C 
BRANCH  23  24
ATOM     24  C   UNL     1     149.875 132.151 163.750  1.00  0.00    -0.000 C 
BRANCH  24  25
ATOM     25  C   UNL     1     149.168 133.007 162.688  1.00  0.00    -0.000 C 
BRANCH  25  26
ATOM     26  C   UNL     1     147.691 133.267 163.032  1.00  0.00    -0.000 C 
BRANCH  26  27
ATOM     27  C   UNL     1     147.367 134.764 163.167  1.00  0.00    -0.000 C 
BRANCH  27  28
ATOM     28  C   UNL     1     147.867 135.358 164.496  1.00  0.00    -0.000 C 
BRANCH  28  29
ATOM     29  C   UNL     1     149.104 136.252 164.309  1.00  0.00    -0.000 C 
BRANCH  29  30
ATOM     30  C   UNL     1     149.638 136.808 165.638  1.00  0.00    -0.000 C 
BRANCH  30  31
ATOM     31  C   UNL     1     149.006 136.081 166.830  1.00  0.00    -0.003 C 
ATOM     32  C   UNL     1     148.784 137.031 168.004  1.00  0.00     0.004 C 
ENDBRANCH  30  31
ENDBRANCH  29  30
ENDBRANCH  28  29
ENDBRANCH  27  28
ENDBRANCH  26  27
ENDBRANCH  25  26
ENDBRANCH  24  25
ENDBRANCH  23  24
ENDBRANCH  22  23
ENDBRANCH  21  22
ENDBRANCH  20  21
ENDBRANCH  19  20
ENDBRANCH  18  19
ENDBRANCH   1  18
TORSDOF 28
ENDMDL
MODEL 4
REMARK VINA RESULT:    -4.005      3.016      5.916
REMARK INTER + INTRA:         -14.491
REMARK INTER:                  -8.855
REMARK INTRA:                  -5.636
REMARK UNBOUND:                -3.929
REMARK SMILES CCCCCCCCCCCCCCCCCCCCCCCCCCCCCC(=O)[O-]
REMARK SMILES IDX 16 1 17 2 18 3 19 4 20 5 21 6 22 7 23 8 24 9 25 10 26 11
REMARK SMILES IDX 27 12 28 13 29 14 30 15 31 16 32 17 15 18 14 19 13 20 12 21
REMARK SMILES IDX 11 22 10 23 9 24 8 25 7 26 6 27 5 28 4 29 3 30 2 31 1 32
REMARK H PARENT
REMARK Flexibility Score: inf
ROOT
ATOM      1  C   UNL     1     151.939 132.390 165.325  1.00  0.00     0.000 C 
ENDROOT
BRANCH   1   2
ATOM      2  C   UNL     1     152.917 133.515 164.945  1.00  0.00     0.000 C 
BRANCH   2   3
ATOM      3  C   UNL     1     154.382 133.046 164.948  1.00  0.00     0.000 C 
BRANCH   3   4
ATOM      4  C   UNL     1     154.631 131.894 165.946  1.00  0.00     0.000 C 
BRANCH   4   5
ATOM      5  C   UNL     1     155.539 132.274 167.130  1.00  0.00     0.000 C 
BRANCH   5   6
ATOM      6  C   UNL     1     157.046 132.292 166.819  1.00  0.00     0.000 C 
BRANCH   6   7
ATOM      7  C   UNL     1     157.888 133.203 167.732  1.00  0.00     0.000 C 
BRANCH   7   8
ATOM      8  C   UNL     1     157.077 133.910 168.842  1.00  0.00     0.000 C 
BRANCH   8   9
ATOM      9  C   UNL     1     156.848 135.421 168.616  1.00  0.00     0.000 C 
BRANCH   9  10
ATOM     10  C   UNL     1     156.461 135.839 167.180  1.00  0.00     0.000 C 
BRANCH  10  11
ATOM     11  C   UNL     1     154.960 136.079 166.942  1.00  0.00     0.000 C 
BRANCH  11  12
ATOM     12  C   UNL     1     154.326 136.976 168.018  1.00  0.00     0.000 C 
BRANCH  12  13
ATOM     13  C   UNL     1     153.258 136.245 168.846  1.00  0.00     0.006 C 
BRANCH  13  14
ATOM     14  C   UNL     1     153.148 134.754 168.495  1.00  0.00     0.053 C 
BRANCH  14  15
ATOM     15  C   UNL     1     153.398 133.906 169.703  1.00  0.00     0.041 C 
ATOM     16  O   UNL     1     154.061 134.364 170.672  1.00  0.00    -0.550 OA
ATOM     17  O   UNL     1     152.927 132.597 169.748  1.00  0.00    -0.550 OA
ENDBRANCH  14  15
ENDBRANCH  13  14
ENDBRANCH  12  13
ENDBRANCH  11  12
ENDBRANCH  10  11
ENDBRANCH   9  10
ENDBRANCH   8   9
ENDBRANCH   7   8
ENDBRANCH   6   7
ENDBRANCH   5   6
ENDBRANCH   4   5
ENDBRANCH   3   4
ENDBRANCH   2   3
ENDBRANCH   1   2
BRANCH   1  18
ATOM     18  C   UNL     1     151.136 131.886 164.115  1.00  0.00     0.000 C 
BRANCH  18  19
ATOM     19  C   UNL     1     149.680 132.375 164.169  1.00  0.00     0.000 C 
BRANCH  19  20
ATOM     20  C   UNL     1     149.457 133.662 163.352  1.00  0.00     0.000 C 
BRANCH  20  21
ATOM     21  C   UNL     1     149.648 134.973 164.142  1.00  0.00     0.000 C 
BRANCH  21  22
ATOM     22  C   UNL     1     149.265 134.898 165.633  1.00  0.00     0.000 C 
BRANCH  22  23
ATOM     23  C   UNL     1     150.160 135.728 166.572  1.00  0.00     0.000 C 
BRANCH  23  24
ATOM     24  C   UNL     1     151.225 136.538 165.812  1.00  0.00    -0.000 C 
BRANCH  24  25
ATOM     25  C   UNL     1     151.075 138.052 166.022  1.00  0.00    -0.000 C 
BRANCH  25  26
ATOM     26  C   UNL     1     151.689 138.868 164.870  1.00  0.00    -0.000 C 
BRANCH  26  27
ATOM     27  C   UNL     1     152.851 139.763 165.330  1.00  0.00    -0.000 C 
BRANCH  27  28
ATOM     28  C   UNL     1     154.226 139.118 165.083  1.00  0.00    -0.000 C 
BRANCH  28  29
ATOM     29  C   UNL     1     155.226 140.097 164.445  1.00  0.00    -0.000 C 
BRANCH  29  30
ATOM     30  C   UNL     1     156.589 140.096 165.154  1.00  0.00    -0.000 C 
BRANCH  30  31
ATOM     31  C   UNL     1     156.433 139.754 166.640  1.00  0.00    -0.003 C 
ATOM     32  C   UNL     1     157.732 139.201 167.220  1.00  0.00     0.004 C 
ENDBRANCH  30  31
ENDBRANCH  29  30
ENDBRANCH  28  29
ENDBRANCH  27  28
ENDBRANCH  26  27
ENDBRANCH  25  26
ENDBRANCH  24  25
ENDBRANCH  23  24
ENDBRANCH  22  23
ENDBRANCH  21  22
ENDBRANCH  20  21
ENDBRANCH  19  20
ENDBRANCH  18  19
ENDBRANCH   1  18
TORSDOF 28
ENDMDL
MODEL 5
REMARK VINA RESULT:    -4.005      1.619      2.984
REMARK INTER + INTRA:         -14.489
REMARK INTER:                  -9.263
REMARK INTRA:                  -5.227
REMARK UNBOUND:                -3.929
REMARK SMILES CCCCCCCCCCCCCCCCCCCCCCCCCCCCCC(=O)[O-]
REMARK SMILES IDX 16 1 17 2 18 3 19 4 20 5 21 6 22 7 23 8 24 9 25 10 26 11
REMARK SMILES IDX 27 12 28 13 29 14 30 15 31 16 32 17 15 18 14 19 13 20 12 21
REMARK SMILES IDX 11 22 10 23 9 24 8 25 7 26 6 27 5 28 4 29 3 30 2 31 1 32
REMARK H PARENT
REMARK Flexibility Score: inf
ROOT
ATOM      1  C   UNL     1     152.570 135.747 168.613  1.00  0.00     0.000 C 
ENDROOT
BRANCH   1   2
ATOM      2  C   UNL     1     153.546 136.029 167.458  1.00  0.00     0.000 C 
BRANCH   2   3
ATOM      3  C   UNL     1     153.156 135.289 166.166  1.00  0.00     0.000 C 
BRANCH   3   4
ATOM      4  C   UNL     1     154.347 134.536 165.535  1.00  0.00     0.000 C 
BRANCH   4   5
ATOM      5  C   UNL     1     154.043 133.070 165.175  1.00  0.00     0.000 C 
BRANCH   5   6
ATOM      6  C   UNL     1     154.888 132.024 165.922  1.00  0.00     0.000 C 
BRANCH   6   7
ATOM      7  C   UNL     1     155.415 132.475 167.298  1.00  0.00     0.000 C 
BRANCH   7   8
ATOM      8  C   UNL     1     156.933 132.257 167.495  1.00  0.00     0.000 C 
BRANCH   8   9
ATOM      9  C   UNL     1     157.763 133.552 167.624  1.00  0.00     0.000 C 
BRANCH   9  10
ATOM     10  C   UNL     1     156.979 134.820 168.032  1.00  0.00     0.000 C 
BRANCH  10  11
ATOM     11  C   UNL     1     156.654 134.945 169.530  1.00  0.00     0.000 C 
BRANCH  11  12
ATOM     12  C   UNL     1     156.269 136.378 169.934  1.00  0.00     0.000 C 
BRANCH  12  13
ATOM     13  C   UNL     1     157.089 137.445 169.191  1.00  0.00     0.006 C 
BRANCH  13  14
ATOM     14  C   UNL     1     156.211 138.494 168.495  1.00  0.00     0.053 C 
BRANCH  14  15
ATOM     15  C   UNL     1     156.696 138.749 167.102  1.00  0.00     0.041 C 
ATOM     16  O   UNL     1     157.835 139.252 166.910  1.00  0.00    -0.550 OA
ATOM     17  O   UNL     1     155.878 138.460 166.013  1.00  0.00    -0.550 OA
ENDBRANCH  14  15
ENDBRANCH  13  14
ENDBRANCH  12  13
ENDBRANCH  11  12
ENDBRANCH  10  11
ENDBRANCH   9  10
ENDBRANCH   8   9
ENDBRANCH   7   8
ENDBRANCH   6   7
ENDBRANCH   5   6
ENDBRANCH   4   5
ENDBRANCH   3   4
ENDBRANCH   2   3
ENDBRANCH   1   2
BRANCH   1  18
ATOM     18  C   UNL     1     152.915 134.449 169.361  1.00  0.00     0.000 C 
BRANCH  18  19
ATOM     19  C   UNL     1     151.736 133.465 169.341  1.00  0.00     0.000 C 
BRANCH  19  20
ATOM     20  C   UNL     1     151.967 132.285 168.378  1.00  0.00     0.000 C 
BRANCH  20  21
ATOM     21  C   UNL     1     151.047 132.268 167.140  1.00  0.00     0.000 C 
BRANCH  21  22
ATOM     22  C   UNL     1     149.998 133.397 167.091  1.00  0.00     0.000 C 
BRANCH  22  23
ATOM     23  C   UNL     1     149.447 133.706 165.688  1.00  0.00     0.000 C 
BRANCH  23  24
ATOM     24  C   UNL     1     150.464 133.408 164.573  1.00  0.00    -0.000 C 
BRANCH  24  25
ATOM     25  C   UNL     1     150.038 132.229 163.685  1.00  0.00    -0.000 C 
BRANCH  25  26
ATOM     26  C   UNL     1     148.542 132.279 163.322  1.00  0.00    -0.000 C 
BRANCH  26  27
ATOM     27  C   UNL     1     148.234 133.300 162.215  1.00  0.00    -0.000 C 
BRANCH  27  28
ATOM     28  C   UNL     1     147.123 134.287 162.616  1.00  0.00    -0.000 C 
BRANCH  28  29
ATOM     29  C   UNL     1     145.730 133.814 162.168  1.00  0.00    -0.000 C 
BRANCH  29  30
ATOM     30  C   UNL     1     144.849 133.370 163.345  1.00  0.00    -0.000 C 
BRANCH  30  31
ATOM     31  C   UNL     1     145.416 133.877 164.676  1.00  0.00    -0.003 C 
ATOM     32  C   UNL     1     145.754 132.718 165.611  1.00  0.00     0.004 C 
ENDBRANCH  30  31
ENDBRANCH  29  30
ENDBRANCH  28  29
ENDBRANCH  27  28
ENDBRANCH  26  27
ENDBRANCH  25  26
ENDBRANCH  24  25
ENDBRANCH  23  24
ENDBRANCH  22  23
ENDBRANCH  21  22
ENDBRANCH  20  21
ENDBRANCH  19  20
ENDBRANCH  18  19
ENDBRANCH   1  18
TORSDOF 28
ENDMDL
MODEL 6
REMARK VINA RESULT:    -3.960      2.563      8.973
REMARK INTER + INTRA:         -14.370
REMARK INTER:                  -9.228
REMARK INTRA:                  -5.142
REMARK UNBOUND:                -3.929
REMARK SMILES CCCCCCCCCCCCCCCCCCCCCCCCCCCCCC(=O)[O-]
REMARK SMILES IDX 16 1 17 2 18 3 19 4 20 5 21 6 22 7 23 8 24 9 25 10 26 11
REMARK SMILES IDX 27 12 28 13 29 14 30 15 31 16 32 17 15 18 14 19 13 20 12 21
REMARK SMILES IDX 11 22 10 23 9 24 8 25 7 26 6 27 5 28 4 29 3 30 2 31 1 32
REMARK H PARENT
REMARK Flexibility Score: inf
ROOT
ATOM      1  C   UNL     1     152.779 133.174 164.933  1.00  0.00     0.000 C 
ENDROOT
BRANCH   1   2
ATOM      2  C   UNL     1     151.975 132.230 164.023  1.00  0.00     0.000 C 
BRANCH   2   3
ATOM      3  C   UNL     1     150.769 132.929 163.371  1.00  0.00     0.000 C 
BRANCH   3   4
ATOM      4  C   UNL     1     149.457 132.136 163.553  1.00  0.00     0.000 C 
BRANCH   4   5
ATOM      5  C   UNL     1     148.190 132.919 163.158  1.00  0.00     0.000 C 
BRANCH   5   6
ATOM      6  C   UNL     1     148.033 133.192 161.652  1.00  0.00     0.000 C 
BRANCH   6   7
ATOM      7  C   UNL     1     146.596 133.063 161.113  1.00  0.00     0.000 C 
BRANCH   7   8
ATOM      8  C   UNL     1     145.514 132.977 162.214  1.00  0.00     0.000 C 
BRANCH   8   9
ATOM      9  C   UNL     1     144.784 134.305 162.513  1.00  0.00     0.000 C 
BRANCH   9  10
ATOM     10  C   UNL     1     145.156 135.499 161.605  1.00  0.00     0.000 C 
BRANCH  10  11
ATOM     11  C   UNL     1     145.461 136.818 162.336  1.00  0.00     0.000 C 
BRANCH  11  12
ATOM     12  C   UNL     1     146.962 137.010 162.609  1.00  0.00     0.000 C 
BRANCH  12  13
ATOM     13  C   UNL     1     147.421 136.325 163.906  1.00  0.00     0.006 C 
BRANCH  13  14
ATOM     14  C   UNL     1     148.930 136.469 164.154  1.00  0.00     0.053 C 
BRANCH  14  15
ATOM     15  C   UNL     1     149.277 137.884 164.495  1.00  0.00     0.041 C 
ATOM     16  O   UNL     1     148.889 138.388 165.583  1.00  0.00    -0.550 OA
ATOM     17  O   UNL     1     150.003 138.662 163.596  1.00  0.00    -0.550 OA
ENDBRANCH  14  15
ENDBRANCH  13  14
ENDBRANCH  12  13
ENDBRANCH  11  12
ENDBRANCH  10  11
ENDBRANCH   9  10
ENDBRANCH   8   9
ENDBRANCH   7   8
ENDBRANCH   6   7
ENDBRANCH   5   6
ENDBRANCH   4   5
ENDBRANCH   3   4
ENDBRANCH   2   3
ENDBRANCH   1   2
BRANCH   1  18
ATOM     18  C   UNL     1     154.295 133.027 164.726  1.00  0.00     0.000 C 
BRANCH  18  19
ATOM     19  C   UNL     1     154.919 132.115 165.793  1.00  0.00     0.000 C 
BRANCH  19  20
ATOM     20  C   UNL     1     154.289 132.316 167.184  1.00  0.00     0.000 C 
BRANCH  20  21
ATOM     21  C   UNL     1     155.295 132.616 168.314  1.00  0.00     0.000 C 
BRANCH  21  22
ATOM     22  C   UNL     1     156.777 132.594 167.891  1.00  0.00     0.000 C 
BRANCH  22  23
ATOM     23  C   UNL     1     157.433 133.981 167.765  1.00  0.00     0.000 C 
BRANCH  23  24
ATOM     24  C   UNL     1     156.484 135.124 168.164  1.00  0.00    -0.000 C 
BRANCH  24  25
ATOM     25  C   UNL     1     155.961 135.908 166.951  1.00  0.00    -0.000 C 
BRANCH  25  26
ATOM     26  C   UNL     1     154.693 136.718 167.278  1.00  0.00    -0.000 C 
BRANCH  26  27
ATOM     27  C   UNL     1     153.409 135.882 167.164  1.00  0.00    -0.000 C 
BRANCH  27  28
ATOM     28  C   UNL     1     152.858 135.456 168.536  1.00  0.00    -0.000 C 
BRANCH  28  29
ATOM     29  C   UNL     1     151.542 134.668 168.420  1.00  0.00    -0.000 C 
BRANCH  29  30
ATOM     30  C   UNL     1     150.760 135.007 167.141  1.00  0.00    -0.000 C 
BRANCH  30  31
ATOM     31  C   UNL     1     149.683 133.953 166.862  1.00  0.00    -0.003 C 
ATOM     32  C   UNL     1     150.093 132.586 167.404  1.00  0.00     0.004 C 
ENDBRANCH  30  31
ENDBRANCH  29  30
ENDBRANCH  28  29
ENDBRANCH  27  28
ENDBRANCH  26  27
ENDBRANCH  25  26
ENDBRANCH  24  25
ENDBRANCH  23  24
ENDBRANCH  22  23
ENDBRANCH  21  22
ENDBRANCH  20  21
ENDBRANCH  19  20
ENDBRANCH  18  19
ENDBRANCH   1  18
TORSDOF 28
ENDMDL
MODEL 7
REMARK VINA RESULT:    -3.946      2.478      4.201
REMARK INTER + INTRA:         -14.335
REMARK INTER:                  -9.209
REMARK INTRA:                  -5.125
REMARK UNBOUND:                -3.929
REMARK SMILES CCCCCCCCCCCCCCCCCCCCCCCCCCCCCC(=O)[O-]
REMARK SMILES IDX 16 1 17 2 18 3 19 4 20 5 21 6 22 7 23 8 24 9 25 10 26 11
REMARK SMILES IDX 27 12 28 13 29 14 30 15 31 16 32 17 15 18 14 19 13 20 12 21
REMARK SMILES IDX 11 22 10 23 9 24 8 25 7 26 6 27 5 28 4 29 3 30 2 31 1 32
REMARK H PARENT
REMARK Flexibility Score: inf
ROOT
ATOM      1  C   UNL     1     153.554 133.228 167.463  1.00  0.00     0.000 C 
ENDROOT
BRANCH   1   2
ATOM      2  C   UNL     1     153.068 132.926 168.891  1.00  0.00     0.000 C 
BRANCH   2   3
ATOM      3  C   UNL     1     153.390 134.064 169.875  1.00  0.00     0.000 C 
BRANCH   3   4
ATOM      4  C   UNL     1     154.342 133.617 171.006  1.00  0.00     0.000 C 
BRANCH   4   5
ATOM      5  C   UNL     1     155.430 132.625 170.555  1.00  0.00     0.000 C 
BRANCH   5   6
ATOM      6  C   UNL     1     156.781 133.261 170.185  1.00  0.00     0.000 C 
BRANCH   6   7
ATOM      7  C   UNL     1     157.312 132.896 168.785  1.00  0.00     0.000 C 
BRANCH   7   8
ATOM      8  C   UNL     1     157.392 134.093 167.810  1.00  0.00     0.000 C 
BRANCH   8   9
ATOM      9  C   UNL     1     156.507 135.300 168.189  1.00  0.00     0.000 C 
BRANCH   9  10
ATOM     10  C   UNL     1     156.630 136.542 167.278  1.00  0.00     0.000 C 
BRANCH  10  11
ATOM     11  C   UNL     1     156.955 137.862 167.997  1.00  0.00     0.000 C 
BRANCH  11  12
ATOM     12  C   UNL     1     157.816 138.806 167.142  1.00  0.00     0.000 C 
BRANCH  12  13
ATOM     13  C   UNL     1     156.979 139.839 166.372  1.00  0.00     0.006 C 
BRANCH  13  14
ATOM     14  C   UNL     1     157.662 141.212 166.280  1.00  0.00     0.053 C 
BRANCH  14  15
ATOM     15  C   UNL     1     157.001 142.193 167.196  1.00  0.00     0.041 C 
ATOM     16  O   UNL     1     156.450 143.226 166.729  1.00  0.00    -0.550 OA
ATOM     17  O   UNL     1     157.020 141.986 168.573  1.00  0.00    -0.550 OA
ENDBRANCH  14  15
ENDBRANCH  13  14
ENDBRANCH  12  13
ENDBRANCH  11  12
ENDBRANCH  10  11
ENDBRANCH   9  10
ENDBRANCH   8   9
ENDBRANCH   7   8
ENDBRANCH   6   7
ENDBRANCH   5   6
ENDBRANCH   4   5
ENDBRANCH   3   4
ENDBRANCH   2   3
ENDBRANCH   1   2
BRANCH   1  18
ATOM     18  C   UNL     1     154.302 132.038 166.841  1.00  0.00     0.000 C 
BRANCH  18  19
ATOM     19  C   UNL     1     154.949 132.424 165.502  1.00  0.00     0.000 C 
BRANCH  19  20
ATOM     20  C   UNL     1     153.932 132.999 164.498  1.00  0.00     0.000 C 
BRANCH  20  21
ATOM     21  C   UNL     1     152.924 131.976 163.936  1.00  0.00     0.000 C 
BRANCH  21  22
ATOM     22  C   UNL     1     151.563 131.936 164.658  1.00  0.00     0.000 C 
BRANCH  22  23
ATOM     23  C   UNL     1     150.343 132.162 163.749  1.00  0.00     0.000 C 
BRANCH  23  24
ATOM     24  C   UNL     1     149.272 133.052 164.404  1.00  0.00    -0.000 C 
BRANCH  24  25
ATOM     25  C   UNL     1     149.659 133.493 165.824  1.00  0.00    -0.000 C 
BRANCH  25  26
ATOM     26  C   UNL     1     149.378 134.986 166.071  1.00  0.00    -0.000 C 
BRANCH  26  27
ATOM     27  C   UNL     1     150.622 135.754 166.547  1.00  0.00    -0.000 C 
BRANCH  27  28
ATOM     28  C   UNL     1     151.783 135.678 165.539  1.00  0.00    -0.000 C 
BRANCH  28  29
ATOM     29  C   UNL     1     153.017 136.469 166.006  1.00  0.00    -0.000 C 
BRANCH  29  30
ATOM     30  C   UNL     1     152.740 137.974 166.137  1.00  0.00    -0.000 C 
BRANCH  30  31
ATOM     31  C   UNL     1     153.366 138.537 167.418  1.00  0.00    -0.003 C 
ATOM     32  C   UNL     1     153.240 137.550 168.576  1.00  0.00     0.004 C 
ENDBRANCH  30  31
ENDBRANCH  29  30
ENDBRANCH  28  29
ENDBRANCH  27  28
ENDBRANCH  26  27
ENDBRANCH  25  26
ENDBRANCH  24  25
ENDBRANCH  23  24
ENDBRANCH  22  23
ENDBRANCH  21  22
ENDBRANCH  20  21
ENDBRANCH  19  20
ENDBRANCH  18  19
ENDBRANCH   1  18
TORSDOF 28
ENDMDL
MODEL 8
REMARK VINA RESULT:    -3.897      3.646      7.604
REMARK INTER + INTRA:         -14.204
REMARK INTER:                  -9.361
REMARK INTRA:                  -4.844
REMARK UNBOUND:                -3.929
REMARK SMILES CCCCCCCCCCCCCCCCCCCCCCCCCCCCCC(=O)[O-]
REMARK SMILES IDX 16 1 17 2 18 3 19 4 20 5 21 6 22 7 23 8 24 9 25 10 26 11
REMARK SMILES IDX 27 12 28 13 29 14 30 15 31 16 32 17 15 18 14 19 13 20 12 21
REMARK SMILES IDX 11 22 10 23 9 24 8 25 7 26 6 27 5 28 4 29 3 30 2 31 1 32
REMARK H PARENT
REMARK Flexibility Score: inf
ROOT
ATOM      1  C   UNL     1     153.526 134.287 165.916  1.00  0.00     0.000 C 
ENDROOT
BRANCH   1   2
ATOM      2  C   UNL     1     154.160 135.687 165.969  1.00  0.00     0.000 C 
BRANCH   2   3
ATOM      3  C   UNL     1     154.851 135.969 167.314  1.00  0.00     0.000 C 
BRANCH   3   4
ATOM      4  C   UNL     1     156.305 136.460 167.141  1.00  0.00     0.000 C 
BRANCH   4   5
ATOM      5  C   UNL     1     156.984 136.887 168.455  1.00  0.00     0.000 C 
BRANCH   5   6
ATOM      6  C   UNL     1     157.399 138.367 168.526  1.00  0.00     0.000 C 
BRANCH   6   7
ATOM      7  C   UNL     1     157.672 139.033 167.164  1.00  0.00     0.000 C 
BRANCH   7   8
ATOM      8  C   UNL     1     157.434 140.560 167.150  1.00  0.00     0.000 C 
BRANCH   8   9
ATOM      9  C   UNL     1     156.104 141.004 166.501  1.00  0.00     0.000 C 
BRANCH   9  10
ATOM     10  C   UNL     1     154.883 140.096 166.773  1.00  0.00     0.000 C 
BRANCH  10  11
ATOM     11  C   UNL     1     154.232 139.470 165.528  1.00  0.00     0.000 C 
BRANCH  11  12
ATOM     12  C   UNL     1     155.045 139.721 164.246  1.00  0.00     0.000 C 
BRANCH  12  13
ATOM     13  C   UNL     1     154.174 140.206 163.076  1.00  0.00     0.006 C 
BRANCH  13  14
ATOM     14  C   UNL     1     153.934 141.722 163.100  1.00  0.00     0.053 C 
BRANCH  14  15
ATOM     15  C   UNL     1     154.111 142.307 161.734  1.00  0.00     0.041 C 
ATOM     16  O   UNL     1     154.792 143.356 161.577  1.00  0.00    -0.550 OA
ATOM     17  O   UNL     1     153.498 141.713 160.635  1.00  0.00    -0.550 OA
ENDBRANCH  14  15
ENDBRANCH  13  14
ENDBRANCH  12  13
ENDBRANCH  11  12
ENDBRANCH  10  11
ENDBRANCH   9  10
ENDBRANCH   8   9
ENDBRANCH   7   8
ENDBRANCH   6   7
ENDBRANCH   5   6
ENDBRANCH   4   5
ENDBRANCH   3   4
ENDBRANCH   2   3
ENDBRANCH   1   2
BRANCH   1  18
ATOM     18  C   UNL     1     154.385 133.290 165.121  1.00  0.00     0.000 C 
BRANCH  18  19
ATOM     19  C   UNL     1     154.671 132.023 165.939  1.00  0.00     0.000 C 
BRANCH  19  20
ATOM     20  C   UNL     1     155.603 132.289 167.136  1.00  0.00     0.000 C 
BRANCH  20  21
ATOM     21  C   UNL     1     157.106 132.336 166.791  1.00  0.00     0.000 C 
BRANCH  21  22
ATOM     22  C   UNL     1     157.984 133.104 167.799  1.00  0.00     0.000 C 
BRANCH  22  23
ATOM     23  C   UNL     1     157.819 132.664 169.264  1.00  0.00     0.000 C 
BRANCH  23  24
ATOM     24  C   UNL     1     157.215 133.767 170.150  1.00  0.00    -0.000 C 
BRANCH  24  25
ATOM     25  C   UNL     1     155.759 133.477 170.543  1.00  0.00    -0.000 C 
BRANCH  25  26
ATOM     26  C   UNL     1     154.970 134.760 170.862  1.00  0.00    -0.000 C 
BRANCH  26  27
ATOM     27  C   UNL     1     153.483 134.651 170.486  1.00  0.00    -0.000 C 
BRANCH  27  28
ATOM     28  C   UNL     1     153.201 133.484 169.524  1.00  0.00    -0.000 C 
BRANCH  28  29
ATOM     29  C   UNL     1     151.699 133.297 169.254  1.00  0.00    -0.000 C 
BRANCH  29  30
ATOM     30  C   UNL     1     151.417 132.212 168.203  1.00  0.00    -0.000 C 
BRANCH  30  31
ATOM     31  C   UNL     1     150.053 132.433 167.539  1.00  0.00    -0.003 C 
ATOM     32  C   UNL     1     150.208 133.015 166.137  1.00  0.00     0.004 C 
ENDBRANCH  30  31
ENDBRANCH  29  30
ENDBRANCH  28  29
ENDBRANCH  27  28
ENDBRANCH  26  27
ENDBRANCH  25  26
ENDBRANCH  24  25
ENDBRANCH  23  24
ENDBRANCH  22  23
ENDBRANCH  21  22
ENDBRANCH  20  21
ENDBRANCH  19  20
ENDBRANCH  18  19
ENDBRANCH   1  18
TORSDOF 28
ENDMDL
MODEL 9
REMARK VINA RESULT:    -3.844      3.496      7.481
REMARK INTER + INTRA:         -14.067
REMARK INTER:                  -8.907
REMARK INTRA:                  -5.160
REMARK UNBOUND:                -3.929
REMARK SMILES CCCCCCCCCCCCCCCCCCCCCCCCCCCCCC(=O)[O-]
REMARK SMILES IDX 16 1 17 2 18 3 19 4 20 5 21 6 22 7 23 8 24 9 25 10 26 11
REMARK SMILES IDX 27 12 28 13 29 14 30 15 31 16 32 17 15 18 14 19 13 20 12 21
REMARK SMILES IDX 11 22 10 23 9 24 8 25 7 26 6 27 5 28 4 29 3 30 2 31 1 32
REMARK H PARENT
REMARK Flexibility Score: inf
ROOT
ATOM      1  C   UNL     1     152.866 137.050 167.422  1.00  0.00     0.000 C 
ENDROOT
BRANCH   1   2
ATOM      2  C   UNL     1     151.556 136.356 167.014  1.00  0.00     0.000 C 
BRANCH   2   3
ATOM      3  C   UNL     1     151.558 134.853 167.346  1.00  0.00     0.000 C 
BRANCH   3   4
ATOM      4  C   UNL     1     150.840 134.009 166.270  1.00  0.00     0.000 C 
BRANCH   4   5
ATOM      5  C   UNL     1     151.460 134.122 164.865  1.00  0.00     0.000 C 
BRANCH   5   6
ATOM      6  C   UNL     1     151.471 132.818 164.049  1.00  0.00     0.000 C 
BRANCH   6   7
ATOM      7  C   UNL     1     152.871 132.265 163.723  1.00  0.00     0.000 C 
BRANCH   7   8
ATOM      8  C   UNL     1     154.017 132.946 164.505  1.00  0.00     0.000 C 
BRANCH   8   9
ATOM      9  C   UNL     1     154.666 132.070 165.599  1.00  0.00     0.000 C 
BRANCH   9  10
ATOM     10  C   UNL     1     154.095 132.236 167.026  1.00  0.00     0.000 C 
BRANCH  10  11
ATOM     11  C   UNL     1     155.080 132.785 168.073  1.00  0.00     0.000 C 
BRANCH  11  12
ATOM     12  C   UNL     1     156.548 132.634 167.641  1.00  0.00     0.000 C 
BRANCH  12  13
ATOM     13  C   UNL     1     157.514 133.426 168.536  1.00  0.00     0.006 C 
BRANCH  13  14
ATOM     14  C   UNL     1     158.088 132.585 169.686  1.00  0.00     0.053 C 
BRANCH  14  15
ATOM     15  C   UNL     1     157.456 132.967 170.987  1.00  0.00     0.041 C 
ATOM     16  O   UNL     1     156.654 132.180 171.558  1.00  0.00    -0.550 OA
ATOM     17  O   UNL     1     157.727 134.208 171.558  1.00  0.00    -0.550 OA
ENDBRANCH  14  15
ENDBRANCH  13  14
ENDBRANCH  12  13
ENDBRANCH  11  12
ENDBRANCH  10  11
ENDBRANCH   9  10
ENDBRANCH   8   9
ENDBRANCH   7   8
ENDBRANCH   6   7
ENDBRANCH   5   6
ENDBRANCH   4   5
ENDBRANCH   3   4
ENDBRANCH   2   3
ENDBRANCH   1   2
BRANCH   1  18
ATOM     18  C   UNL     1     153.879 137.102 166.267  1.00  0.00     0.000 C 
BRANCH  18  19
ATOM     19  C   UNL     1     154.920 135.980 166.386  1.00  0.00     0.000 C 
BRANCH  19  20
ATOM     20  C   UNL     1     156.300 136.498 166.833  1.00  0.00     0.000 C 
BRANCH  20  21
ATOM     21  C   UNL     1     156.346 137.073 168.264  1.00  0.00     0.000 C 
BRANCH  21  22
ATOM     22  C   UNL     1     157.264 138.297 168.446  1.00  0.00     0.000 C 
BRANCH  22  23
ATOM     23  C   UNL     1     157.751 138.940 167.135  1.00  0.00     0.000 C 
BRANCH  23  24
ATOM     24  C   UNL     1     157.179 140.353 166.919  1.00  0.00    -0.000 C 
BRANCH  24  25
ATOM     25  C   UNL     1     155.731 140.331 166.407  1.00  0.00    -0.000 C 
BRANCH  25  26
ATOM     26  C   UNL     1     154.729 140.843 167.457  1.00  0.00    -0.000 C 
BRANCH  26  27
ATOM     27  C   UNL     1     153.267 140.623 167.039  1.00  0.00    -0.000 C 
BRANCH  27  28
ATOM     28  C   UNL     1     153.027 140.921 165.548  1.00  0.00    -0.000 C 
BRANCH  28  29
ATOM     29  C   UNL     1     151.768 140.225 165.006  1.00  0.00    -0.000 C 
BRANCH  29  30
ATOM     30  C   UNL     1     152.096 139.076 164.040  1.00  0.00    -0.000 C 
BRANCH  30  31
ATOM     31  C   UNL     1     150.853 138.225 163.758  1.00  0.00    -0.003 C 
ATOM     32  C   UNL     1     149.728 138.545 164.740  1.00  0.00     0.004 C 
ENDBRANCH  30  31
ENDBRANCH  29  30
ENDBRANCH  28  29
ENDBRANCH  27  28
ENDBRANCH  26  27
ENDBRANCH  25  26
ENDBRANCH  24  25
ENDBRANCH  23  24
ENDBRANCH  22  23
ENDBRANCH  21  22
ENDBRANCH  20  21
ENDBRANCH  19  20
ENDBRANCH  18  19
ENDBRANCH   1  18
TORSDOF 28
ENDMDL
