MODEL 1
REMARK VINA RESULT:    -4.918      0.000      0.000
REMARK INTER + INTRA:          -8.663
REMARK INTER:                  -7.793
REMARK INTRA:                  -0.870
REMARK UNBOUND:                -0.870
REMARK SMILES CCCCCCCCCCCC(=O)[O-]
REMARK SMILES IDX 7 1 8 2 9 3 10 4 11 5 12 6 13 7 14 8 6 9 5 10 4 11 3 12 2 13
REMARK SMILES IDX 1 14
REMARK H PARENT
REMARK Flexibility Score: inf
ROOT
ATOM      1  C   UNL     1      13.080  37.637  21.777  1.00  0.00     0.000 C 
ENDROOT
BRANCH   1   2
ATOM      2  C   UNL     1      12.922  37.771  23.300  1.00  0.00     0.000 C 
BRANCH   2   3
ATOM      3  C   UNL     1      11.656  38.541  23.701  1.00  0.00     0.000 C 
BRANCH   3   4
ATOM      4  C   UNL     1      10.571  37.585  24.212  1.00  0.00     0.006 C 
BRANCH   4   5
ATOM      5  C   UNL     1       9.188  38.242  24.158  1.00  0.00     0.053 C 
BRANCH   5   6
ATOM      6  C   UNL     1       8.950  39.062  25.386  1.00  0.00     0.041 C 
ATOM      7  O   UNL     1       9.279  40.277  25.411  1.00  0.00    -0.550 OA
ATOM      8  O   UNL     1       8.318  38.496  26.487  1.00  0.00    -0.550 OA
ENDBRANCH   5   6
ENDBRANCH   4   5
ENDBRANCH   3   4
ENDBRANCH   2   3
ENDBRANCH   1   2
BRANCH   1   9
ATOM      9  C   UNL     1      12.715  36.232  21.267  1.00  0.00     0.000 C 
BRANCH   9  10
ATOM     10  C   UNL     1      13.033  35.123  22.286  1.00  0.00    -0.000 C 
BRANCH  10  11
ATOM     11  C   UNL     1      11.807  34.409  22.880  1.00  0.00    -0.000 C 
BRANCH  11  12
ATOM     12  C   UNL     1      11.944  34.131  24.384  1.00  0.00    -0.000 C 
BRANCH  12  13
ATOM     13  C   UNL     1      10.947  33.058  24.837  1.00  0.00    -0.003 C 
ATOM     14  C   UNL     1      10.231  32.432  23.643  1.00  0.00     0.004 C 
ENDBRANCH  12  13
ENDBRANCH  11  12
ENDBRANCH  10  11
ENDBRANCH   9  10
ENDBRANCH   1   9
TORSDOF 10
ENDMDL
MODEL 2
REMARK VINA RESULT:    -4.814      3.108      4.282
REMARK INTER + INTRA:          -8.498
REMARK INTER:                  -7.498
REMARK INTRA:                  -1.000
REMARK UNBOUND:                -0.870
REMARK SMILES CCCCCCCCCCCC(=O)[O-]
REMARK SMILES IDX 7 1 8 2 9 3 10 4 11 5 12 6 13 7 14 8 6 9 5 10 4 11 3 12 2 13
REMARK SMILES IDX 1 14
REMARK H PARENT
REMARK Flexibility Score: inf
ROOT
ATOM      1  C   UNL     1      10.744  36.880  23.932  1.00  0.00     0.000 C 
ENDROOT
BRANCH   1   2
ATOM      2  C   UNL     1      11.162  38.349  23.757  1.00  0.00     0.000 C 
BRANCH   2   3
ATOM      3  C   UNL     1      12.593  38.500  23.221  1.00  0.00     0.000 C 
BRANCH   3   4
ATOM      4  C   UNL     1      13.120  37.166  22.679  1.00  0.00     0.006 C 
BRANCH   4   5
ATOM      5  C   UNL     1      13.151  37.167  21.148  1.00  0.00     0.053 C 
BRANCH   5   6
ATOM      6  C   UNL     1      12.458  35.956  20.609  1.00  0.00     0.041 C 
ATOM      7  O   UNL     1      11.469  36.082  19.840  1.00  0.00    -0.550 OA
ATOM      8  O   UNL     1      12.936  34.688  20.916  1.00  0.00    -0.550 OA
ENDBRANCH   5   6
ENDBRANCH   4   5
ENDBRANCH   3   4
ENDBRANCH   2   3
ENDBRANCH   1   2
BRANCH   1   9
ATOM      9  C   UNL     1       9.567  36.489  23.022  1.00  0.00     0.000 C 
BRANCH   9  10
ATOM     10  C   UNL     1       9.503  34.977  22.741  1.00  0.00    -0.000 C 
BRANCH  10  11
ATOM     11  C   UNL     1      10.762  34.184  23.135  1.00  0.00    -0.000 C 
BRANCH  11  12
ATOM     12  C   UNL     1      10.469  33.037  24.113  1.00  0.00    -0.000 C 
BRANCH  12  13
ATOM     13  C   UNL     1      11.324  33.164  25.379  1.00  0.00    -0.003 C 
ATOM     14  C   UNL     1      12.444  34.182  25.188  1.00  0.00     0.004 C 
ENDBRANCH  12  13
ENDBRANCH  11  12
ENDBRANCH  10  11
ENDBRANCH   9  10
ENDBRANCH   1   9
TORSDOF 10
ENDMDL
MODEL 3
REMARK VINA RESULT:    -4.693      2.325      4.781
REMARK INTER + INTRA:          -8.306
REMARK INTER:                  -7.245
REMARK INTRA:                  -1.061
REMARK UNBOUND:                -0.870
REMARK SMILES CCCCCCCCCCCC(=O)[O-]
REMARK SMILES IDX 7 1 8 2 9 3 10 4 11 5 12 6 13 7 14 8 6 9 5 10 4 11 3 12 2 13
REMARK SMILES IDX 1 14
REMARK H PARENT
REMARK Flexibility Score: inf
ROOT
ATOM      1  C   UNL     1      10.105  35.663  22.497  1.00  0.00     0.000 C 
ENDROOT
BRANCH   1   2
ATOM      2  C   UNL     1       9.130  34.483  22.644  1.00  0.00     0.000 C 
BRANCH   2   3
ATOM      3  C   UNL     1       9.781  33.251  23.290  1.00  0.00     0.000 C 
BRANCH   3   4
ATOM      4  C   UNL     1      11.185  33.581  23.809  1.00  0.00     0.006 C 
BRANCH   4   5
ATOM      5  C   UNL     1      11.272  33.386  25.326  1.00  0.00     0.053 C 
BRANCH   5   6
ATOM      6  C   UNL     1      11.896  34.581  25.973  1.00  0.00     0.041 C 
ATOM      7  O   UNL     1      13.081  34.904  25.698  1.00  0.00    -0.550 OA
ATOM      8  O   UNL     1      11.151  35.368  26.843  1.00  0.00    -0.550 OA
ENDBRANCH   5   6
ENDBRANCH   4   5
ENDBRANCH   3   4
ENDBRANCH   2   3
ENDBRANCH   1   2
BRANCH   1   9
ATOM      9  C   UNL     1       9.765  36.830  23.440  1.00  0.00     0.000 C 
BRANCH   9  10
ATOM     10  C   UNL     1      10.974  37.737  23.732  1.00  0.00    -0.000 C 
BRANCH  10  11
ATOM     11  C   UNL     1      12.347  37.119  23.414  1.00  0.00    -0.000 C 
BRANCH  11  12
ATOM     12  C   UNL     1      13.088  37.851  22.285  1.00  0.00    -0.000 C 
BRANCH  12  13
ATOM     13  C   UNL     1      13.214  36.960  21.044  1.00  0.00    -0.003 C 
ATOM     14  C   UNL     1      13.341  35.489  21.431  1.00  0.00     0.004 C 
ENDBRANCH  12  13
ENDBRANCH  11  12
ENDBRANCH  10  11
ENDBRANCH   9  10
ENDBRANCH   1   9
TORSDOF 10
ENDMDL
MODEL 4
REMARK VINA RESULT:    -4.682      2.204      4.981
REMARK INTER + INTRA:          -8.289
REMARK INTER:                  -7.633
REMARK INTRA:                  -0.656
REMARK UNBOUND:                -0.870
REMARK SMILES CCCCCCCCCCCC(=O)[O-]
REMARK SMILES IDX 7 1 8 2 9 3 10 4 11 5 12 6 13 7 14 8 6 9 5 10 4 11 3 12 2 13
REMARK SMILES IDX 1 14
REMARK H PARENT
REMARK Flexibility Score: inf
ROOT
ATOM      1  C   UNL     1      13.203  37.390  22.041  1.00  0.00     0.000 C 
ENDROOT
BRANCH   1   2
ATOM      2  C   UNL     1      12.334  36.348  21.317  1.00  0.00     0.000 C 
BRANCH   2   3
ATOM      3  C   UNL     1      12.693  34.905  21.700  1.00  0.00     0.000 C 
BRANCH   3   4
ATOM      4  C   UNL     1      11.776  34.389  22.815  1.00  0.00     0.006 C 
BRANCH   4   5
ATOM      5  C   UNL     1      12.483  34.431  24.174  1.00  0.00     0.053 C 
BRANCH   5   6
ATOM      6  C   UNL     1      11.524  34.103  25.273  1.00  0.00     0.041 C 
ATOM      7  O   UNL     1      11.248  34.962  26.151  1.00  0.00    -0.550 OA
ATOM      8  O   UNL     1      10.897  32.863  25.301  1.00  0.00    -0.550 OA
ENDBRANCH   5   6
ENDBRANCH   4   5
ENDBRANCH   3   4
ENDBRANCH   2   3
ENDBRANCH   1   2
BRANCH   1   9
ATOM      9  C   UNL     1      12.399  38.234  23.045  1.00  0.00     0.000 C 
BRANCH   9  10
ATOM     10  C   UNL     1      11.022  37.627  23.371  1.00  0.00    -0.000 C 
BRANCH  10  11
ATOM     11  C   UNL     1      10.309  38.239  24.590  1.00  0.00    -0.000 C 
BRANCH  11  12
ATOM     12  C   UNL     1       8.783  38.295  24.427  1.00  0.00    -0.000 C 
BRANCH  12  13
ATOM     13  C   UNL     1       8.149  39.182  25.505  1.00  0.00    -0.003 C 
ATOM     14  C   UNL     1       9.107  40.286  25.944  1.00  0.00     0.004 C 
ENDBRANCH  12  13
ENDBRANCH  11  12
ENDBRANCH  10  11
ENDBRANCH   9  10
ENDBRANCH   1   9
TORSDOF 10
ENDMDL
MODEL 5
REMARK VINA RESULT:    -4.448      1.355      3.387
REMARK INTER + INTRA:          -7.918
REMARK INTER:                  -6.879
REMARK INTRA:                  -1.040
REMARK UNBOUND:                -0.870
REMARK SMILES CCCCCCCCCCCC(=O)[O-]
REMARK SMILES IDX 7 1 8 2 9 3 10 4 11 5 12 6 13 7 14 8 6 9 5 10 4 11 3 12 2 13
REMARK SMILES IDX 1 14
REMARK H PARENT
REMARK Flexibility Score: inf
ROOT
ATOM      1  C   UNL     1       9.452  34.237  22.983  1.00  0.00     0.000 C 
ENDROOT
BRANCH   1   2
ATOM      2  C   UNL     1       9.448  35.562  22.203  1.00  0.00     0.000 C 
BRANCH   2   3
ATOM      3  C   UNL     1       8.398  36.554  22.723  1.00  0.00     0.000 C 
BRANCH   3   4
ATOM      4  C   UNL     1       9.015  37.524  23.739  1.00  0.00     0.006 C 
BRANCH   4   5
ATOM      5  C   UNL     1       7.975  38.530  24.241  1.00  0.00     0.053 C 
BRANCH   5   6
ATOM      6  C   UNL     1       8.437  39.170  25.511  1.00  0.00     0.041 C 
ATOM      7  O   UNL     1       9.008  40.292  25.484  1.00  0.00    -0.550 OA
ATOM      8  O   UNL     1       8.193  38.550  26.731  1.00  0.00    -0.550 OA
ENDBRANCH   5   6
ENDBRANCH   4   5
ENDBRANCH   3   4
ENDBRANCH   2   3
ENDBRANCH   1   2
BRANCH   1   9
ATOM      9  C   UNL     1      10.870  33.791  23.382  1.00  0.00     0.000 C 
BRANCH   9  10
ATOM     10  C   UNL     1      11.530  34.736  24.402  1.00  0.00    -0.000 C 
BRANCH  10  11
ATOM     11  C   UNL     1      12.723  35.547  23.866  1.00  0.00    -0.000 C 
BRANCH  11  12
ATOM     12  C   UNL     1      12.960  35.344  22.362  1.00  0.00    -0.000 C 
BRANCH  12  13
ATOM     13  C   UNL     1      12.815  36.667  21.601  1.00  0.00    -0.003 C 
ATOM     14  C   UNL     1      13.045  37.861  22.522  1.00  0.00     0.004 C 
ENDBRANCH  12  13
ENDBRANCH  11  12
ENDBRANCH  10  11
ENDBRANCH   9  10
ENDBRANCH   1   9
TORSDOF 10
ENDMDL
MODEL 6
REMARK VINA RESULT:    -4.432     16.283     17.463
REMARK INTER + INTRA:          -7.892
REMARK INTER:                  -7.295
REMARK INTRA:                  -0.597
REMARK UNBOUND:                -0.870
REMARK SMILES CCCCCCCCCCCC(=O)[O-]
REMARK SMILES IDX 7 1 8 2 9 3 10 4 11 5 12 6 13 7 14 8 6 9 5 10 4 11 3 12 2 13
REMARK SMILES IDX 1 14
REMARK H PARENT
REMARK Flexibility Score: inf
ROOT
ATOM      1  C   UNL     1      27.465  27.628  22.924  1.00  0.00     0.000 C 
ENDROOT
BRANCH   1   2
ATOM      2  C   UNL     1      27.340  28.917  23.753  1.00  0.00     0.000 C 
BRANCH   2   3
ATOM      3  C   UNL     1      25.881  29.291  24.053  1.00  0.00     0.000 C 
BRANCH   3   4
ATOM      4  C   UNL     1      25.802  30.601  24.847  1.00  0.00     0.006 C 
BRANCH   4   5
ATOM      5  C   UNL     1      27.132  30.903  25.545  1.00  0.00     0.053 C 
BRANCH   5   6
ATOM      6  C   UNL     1      27.259  32.368  25.818  1.00  0.00     0.041 C 
ATOM      7  O   UNL     1      26.832  32.850  26.899  1.00  0.00    -0.550 OA
ATOM      8  O   UNL     1      27.895  33.193  24.898  1.00  0.00    -0.550 OA
ENDBRANCH   5   6
ENDBRANCH   4   5
ENDBRANCH   3   4
ENDBRANCH   2   3
ENDBRANCH   1   2
BRANCH   1   9
ATOM      9  C   UNL     1      26.727  26.440  23.565  1.00  0.00     0.000 C 
BRANCH   9  10
ATOM     10  C   UNL     1      26.042  25.531  22.528  1.00  0.00    -0.000 C 
BRANCH  10  11
ATOM     11  C   UNL     1      24.744  26.093  21.921  1.00  0.00    -0.000 C 
BRANCH  11  12
ATOM     12  C   UNL     1      23.765  24.997  21.477  1.00  0.00    -0.000 C 
BRANCH  12  13
ATOM     13  C   UNL     1      24.297  23.605  21.839  1.00  0.00    -0.003 C 
ATOM     14  C   UNL     1      23.293  22.835  22.690  1.00  0.00     0.004 C 
ENDBRANCH  12  13
ENDBRANCH  11  12
ENDBRANCH  10  11
ENDBRANCH   9  10
ENDBRANCH   1   9
TORSDOF 10
ENDMDL
MODEL 7
REMARK VINA RESULT:    -4.411     17.377     19.311
REMARK INTER + INTRA:          -7.860
REMARK INTER:                  -7.435
REMARK INTRA:                  -0.425
REMARK UNBOUND:                -0.870
REMARK SMILES CCCCCCCCCCCC(=O)[O-]
REMARK SMILES IDX 7 1 8 2 9 3 10 4 11 5 12 6 13 7 14 8 6 9 5 10 4 11 3 12 2 13
REMARK SMILES IDX 1 14
REMARK H PARENT
REMARK Flexibility Score: inf
ROOT
ATOM      1  C   UNL     1      25.803  27.675  22.995  1.00  0.00     0.000 C 
ENDROOT
BRANCH   1   2
ATOM      2  C   UNL     1      25.902  26.291  22.333  1.00  0.00     0.000 C 
BRANCH   2   3
ATOM      3  C   UNL     1      24.580  25.842  21.695  1.00  0.00     0.000 C 
BRANCH   3   4
ATOM      4  C   UNL     1      24.774  24.564  20.870  1.00  0.00     0.006 C 
BRANCH   4   5
ATOM      5  C   UNL     1      26.139  23.928  21.154  1.00  0.00     0.053 C 
BRANCH   5   6
ATOM      6  C   UNL     1      26.909  23.751  19.884  1.00  0.00     0.041 C 
ATOM      7  O   UNL     1      27.057  24.720  19.093  1.00  0.00    -0.550 OA
ATOM      8  O   UNL     1      27.505  22.529  19.597  1.00  0.00    -0.550 OA
ENDBRANCH   5   6
ENDBRANCH   4   5
ENDBRANCH   3   4
ENDBRANCH   2   3
ENDBRANCH   1   2
BRANCH   1   9
ATOM      9  C   UNL     1      27.177  28.349  23.161  1.00  0.00     0.000 C 
BRANCH   9  10
ATOM     10  C   UNL     1      27.643  28.405  24.628  1.00  0.00    -0.000 C 
BRANCH  10  11
ATOM     11  C   UNL     1      27.611  29.802  25.271  1.00  0.00    -0.000 C 
BRANCH  11  12
ATOM     12  C   UNL     1      26.352  30.603  24.906  1.00  0.00    -0.000 C 
BRANCH  12  13
ATOM     13  C   UNL     1      26.315  31.940  25.656  1.00  0.00    -0.003 C 
ATOM     14  C   UNL     1      27.665  32.251  26.295  1.00  0.00     0.004 C 
ENDBRANCH  12  13
ENDBRANCH  11  12
ENDBRANCH  10  11
ENDBRANCH   9  10
ENDBRANCH   1   9
TORSDOF 10
ENDMDL
MODEL 8
REMARK VINA RESULT:    -4.157     16.346     18.315
REMARK INTER + INTRA:          -7.456
REMARK INTER:                  -6.891
REMARK INTRA:                  -0.565
REMARK UNBOUND:                -0.870
REMARK SMILES CCCCCCCCCCCC(=O)[O-]
REMARK SMILES IDX 7 1 8 2 9 3 10 4 11 5 12 6 13 7 14 8 6 9 5 10 4 11 3 12 2 13
REMARK SMILES IDX 1 14
REMARK H PARENT
REMARK Flexibility Score: inf
ROOT
ATOM      1  C   UNL     1      26.393  27.360  23.186  1.00  0.00     0.000 C 
ENDROOT
BRANCH   1   2
ATOM      2  C   UNL     1      26.652  25.852  23.038  1.00  0.00     0.000 C 
BRANCH   2   3
ATOM      3  C   UNL     1      26.971  25.443  21.593  1.00  0.00     0.000 C 
BRANCH   3   4
ATOM      4  C   UNL     1      25.992  24.372  21.097  1.00  0.00     0.006 C 
BRANCH   4   5
ATOM      5  C   UNL     1      24.688  24.404  21.901  1.00  0.00     0.053 C 
BRANCH   5   6
ATOM      6  C   UNL     1      23.664  25.244  21.206  1.00  0.00     0.041 C 
ATOM      7  O   UNL     1      23.397  26.398  21.632  1.00  0.00    -0.550 OA
ATOM      8  O   UNL     1      23.042  24.772  20.057  1.00  0.00    -0.550 OA
ENDBRANCH   5   6
ENDBRANCH   4   5
ENDBRANCH   3   4
ENDBRANCH   2   3
ENDBRANCH   1   2
BRANCH   1   9
ATOM      9  C   UNL     1      27.685  28.160  23.429  1.00  0.00     0.000 C 
BRANCH   9  10
ATOM     10  C   UNL     1      27.452  29.435  24.261  1.00  0.00    -0.000 C 
BRANCH  10  11
ATOM     11  C   UNL     1      25.978  29.822  24.466  1.00  0.00    -0.000 C 
BRANCH  11  12
ATOM     12  C   UNL     1      25.804  31.178  25.166  1.00  0.00    -0.000 C 
BRANCH  12  13
ATOM     13  C   UNL     1      27.137  31.931  25.241  1.00  0.00    -0.003 C 
ATOM     14  C   UNL     1      27.468  32.325  26.677  1.00  0.00     0.004 C 
ENDBRANCH  12  13
ENDBRANCH  11  12
ENDBRANCH  10  11
ENDBRANCH   9  10
ENDBRANCH   1   9
TORSDOF 10
ENDMDL
MODEL 9
REMARK VINA RESULT:    -4.022     17.497     19.249
REMARK INTER + INTRA:          -7.243
REMARK INTER:                  -6.152
REMARK INTRA:                  -1.091
REMARK UNBOUND:                -0.870
REMARK SMILES CCCCCCCCCCCC(=O)[O-]
REMARK SMILES IDX 7 1 8 2 9 3 10 4 11 5 12 6 13 7 14 8 6 9 5 10 4 11 3 12 2 13
REMARK SMILES IDX 1 14
REMARK H PARENT
REMARK Flexibility Score: inf
ROOT
ATOM      1  C   UNL     1      23.728  23.242  22.185  1.00  0.00     0.000 C 
ENDROOT
BRANCH   1   2
ATOM      2  C   UNL     1      24.163  24.270  21.128  1.00  0.00     0.000 C 
BRANCH   2   3
ATOM      3  C   UNL     1      23.252  25.506  21.093  1.00  0.00     0.000 C 
BRANCH   3   4
ATOM      4  C   UNL     1      23.883  26.674  21.861  1.00  0.00     0.006 C 
BRANCH   4   5
ATOM      5  C   UNL     1      25.327  26.355  22.261  1.00  0.00     0.053 C 
BRANCH   5   6
ATOM      6  C   UNL     1      25.888  27.449  23.113  1.00  0.00     0.041 C 
ATOM      7  O   UNL     1      25.460  28.627  22.994  1.00  0.00    -0.550 OA
ATOM      8  O   UNL     1      26.850  27.158  24.072  1.00  0.00    -0.550 OA
ENDBRANCH   5   6
ENDBRANCH   4   5
ENDBRANCH   3   4
ENDBRANCH   2   3
ENDBRANCH   1   2
BRANCH   1   9
ATOM      9  C   UNL     1      24.845  22.241  22.529  1.00  0.00     0.000 C 
BRANCH   9  10
ATOM     10  C   UNL     1      26.047  22.901  23.229  1.00  0.00    -0.000 C 
BRANCH  10  11
ATOM     11  C   UNL     1      27.384  22.793  22.475  1.00  0.00    -0.000 C 
BRANCH  11  12
ATOM     12  C   UNL     1      27.243  22.140  21.092  1.00  0.00    -0.000 C 
BRANCH  12  13
ATOM     13  C   UNL     1      28.028  22.923  20.033  1.00  0.00    -0.003 C 
ATOM     14  C   UNL     1      27.564  24.375  19.964  1.00  0.00     0.004 C 
ENDBRANCH  12  13
ENDBRANCH  11  12
ENDBRANCH  10  11
ENDBRANCH   9  10
ENDBRANCH   1   9
TORSDOF 10
ENDMDL
