MODEL 1
REMARK VINA RESULT:    -4.773      0.000      0.000
REMARK INTER + INTRA:          -7.836
REMARK INTER:                  -7.284
REMARK INTRA:                  -0.552
REMARK UNBOUND:                -0.552
REMARK SMILES O=C([O-])CCCCCCCCC(=O)[O-]
REMARK SMILES IDX 7 1 6 2 5 3 4 4 2 5 1 6 3 7 8 8 9 9 10 10 11 11 12 12 13 13
REMARK SMILES IDX 14 14
REMARK H PARENT
REMARK Flexibility Score: inf
ROOT
ATOM      1  C   UNL     1      -8.216  37.751   6.050  1.00  0.00     0.000 C 
ENDROOT
BRANCH   1   2
ATOM      2  C   UNL     1      -9.215  38.873   6.390  1.00  0.00     0.000 C 
BRANCH   2   3
ATOM      3  C   UNL     1     -10.488  38.807   5.532  1.00  0.00     0.006 C 
BRANCH   3   4
ATOM      4  C   UNL     1     -11.661  39.572   6.159  1.00  0.00     0.053 C 
BRANCH   4   5
ATOM      5  C   UNL     1     -11.878  39.127   7.571  1.00  0.00     0.041 C 
ATOM      6  O   UNL     1     -11.717  39.936   8.522  1.00  0.00    -0.550 OA
ATOM      7  O   UNL     1     -12.306  37.832   7.834  1.00  0.00    -0.550 OA
ENDBRANCH   4   5
ENDBRANCH   3   4
ENDBRANCH   2   3
ENDBRANCH   1   2
BRANCH   1   8
ATOM      8  C   UNL     1      -8.914  36.443   5.647  1.00  0.00     0.000 C 
BRANCH   8   9
ATOM      9  C   UNL     1      -9.383  35.625   6.860  1.00  0.00     0.000 C 
BRANCH   9  10
ATOM     10  C   UNL     1      -9.300  34.119   6.571  1.00  0.00     0.006 C 
BRANCH  10  11
ATOM     11  C   UNL     1      -8.404  33.806   5.365  1.00  0.00     0.053 C 
BRANCH  11  12
ATOM     12  C   UNL     1      -7.124  33.147   5.779  1.00  0.00     0.041 C 
ATOM     13  O   UNL     1      -6.046  33.797   5.773  1.00  0.00    -0.550 OA
ATOM     14  O   UNL     1      -7.128  31.824   6.202  1.00  0.00    -0.550 OA
ENDBRANCH  11  12
ENDBRANCH  10  11
ENDBRANCH   9  10
ENDBRANCH   8   9
ENDBRANCH   1   8
TORSDOF 9
ENDMDL
MODEL 2
REMARK VINA RESULT:    -4.750      1.171      5.957
REMARK INTER + INTRA:          -7.801
REMARK INTER:                  -7.202
REMARK INTRA:                  -0.599
REMARK UNBOUND:                -0.552
REMARK SMILES O=C([O-])CCCCCCCCC(=O)[O-]
REMARK SMILES IDX 7 1 6 2 5 3 4 4 2 5 1 6 3 7 8 8 9 9 10 10 11 11 12 12 13 13
REMARK SMILES IDX 14 14
REMARK H PARENT
REMARK Flexibility Score: inf
ROOT
ATOM      1  C   UNL     1      -8.273  37.652   5.836  1.00  0.00     0.000 C 
ENDROOT
BRANCH   1   2
ATOM      2  C   UNL     1      -9.163  36.428   5.553  1.00  0.00     0.000 C 
BRANCH   2   3
ATOM      3  C   UNL     1      -8.633  35.149   6.221  1.00  0.00     0.006 C 
BRANCH   3   4
ATOM      4  C   UNL     1      -7.658  34.376   5.325  1.00  0.00     0.053 C 
BRANCH   4   5
ATOM      5  C   UNL     1      -7.070  33.219   6.069  1.00  0.00     0.041 C 
ATOM      6  O   UNL     1      -5.832  32.995   6.018  1.00  0.00    -0.550 OA
ATOM      7  O   UNL     1      -7.882  32.416   6.860  1.00  0.00    -0.550 OA
ENDBRANCH   4   5
ENDBRANCH   3   4
ENDBRANCH   2   3
ENDBRANCH   1   2
BRANCH   1   8
ATOM      8  C   UNL     1      -9.088  38.890   6.244  1.00  0.00     0.000 C 
BRANCH   8   9
ATOM      9  C   UNL     1     -10.487  38.912   5.612  1.00  0.00     0.000 C 
BRANCH   9  10
ATOM     10  C   UNL     1     -11.558  39.245   6.661  1.00  0.00     0.006 C 
BRANCH  10  11
ATOM     11  C   UNL     1     -11.102  38.905   8.086  1.00  0.00     0.053 C 
BRANCH  11  12
ATOM     12  C   UNL     1     -11.285  37.451   8.395  1.00  0.00     0.041 C 
ATOM     13  O   UNL     1     -10.414  36.830   9.059  1.00  0.00    -0.550 OA
ATOM     14  O   UNL     1     -12.433  36.789   7.979  1.00  0.00    -0.550 OA
ENDBRANCH  11  12
ENDBRANCH  10  11
ENDBRANCH   9  10
ENDBRANCH   8   9
ENDBRANCH   1   8
TORSDOF 9
ENDMDL
MODEL 3
REMARK VINA RESULT:    -4.719      1.311      7.203
REMARK INTER + INTRA:          -7.754
REMARK INTER:                  -7.306
REMARK INTRA:                  -0.448
REMARK UNBOUND:                -0.552
REMARK SMILES O=C([O-])CCCCCCCCC(=O)[O-]
REMARK SMILES IDX 7 1 6 2 5 3 4 4 2 5 1 6 3 7 8 8 9 9 10 10 11 11 12 12 13 13
REMARK SMILES IDX 14 14
REMARK H PARENT
REMARK Flexibility Score: inf
ROOT
ATOM      1  C   UNL     1      -9.108  34.856   6.362  1.00  0.00     0.000 C 
ENDROOT
BRANCH   1   2
ATOM      2  C   UNL     1      -7.982  34.759   5.317  1.00  0.00     0.000 C 
BRANCH   2   3
ATOM      3  C   UNL     1      -6.897  33.745   5.713  1.00  0.00     0.006 C 
BRANCH   3   4
ATOM      4  C   UNL     1      -7.452  32.326   5.886  1.00  0.00     0.053 C 
BRANCH   4   5
ATOM      5  C   UNL     1      -6.347  31.370   6.210  1.00  0.00     0.041 C 
ATOM      6  O   UNL     1      -6.432  30.162   5.865  1.00  0.00    -0.550 OA
ATOM      7  O   UNL     1      -5.201  31.823   6.852  1.00  0.00    -0.550 OA
ENDBRANCH   4   5
ENDBRANCH   3   4
ENDBRANCH   2   3
ENDBRANCH   1   2
BRANCH   1   8
ATOM      8  C   UNL     1      -9.382  36.303   6.801  1.00  0.00     0.000 C 
BRANCH   8   9
ATOM      9  C   UNL     1      -8.547  37.327   6.018  1.00  0.00     0.000 C 
BRANCH   9  10
ATOM     10  C   UNL     1      -9.143  38.736   6.148  1.00  0.00     0.006 C 
BRANCH  10  11
ATOM     11  C   UNL     1     -10.527  38.845   5.494  1.00  0.00     0.053 C 
BRANCH  11  12
ATOM     12  C   UNL     1     -11.548  39.397   6.440  1.00  0.00     0.041 C 
ATOM     13  O   UNL     1     -11.470  39.149   7.672  1.00  0.00    -0.550 OA
ATOM     14  O   UNL     1     -12.568  40.211   5.966  1.00  0.00    -0.550 OA
ENDBRANCH  11  12
ENDBRANCH  10  11
ENDBRANCH   9  10
ENDBRANCH   8   9
ENDBRANCH   1   8
TORSDOF 9
ENDMDL
MODEL 4
REMARK VINA RESULT:    -4.711      1.124      1.765
REMARK INTER + INTRA:          -7.741
REMARK INTER:                  -7.313
REMARK INTRA:                  -0.428
REMARK UNBOUND:                -0.552
REMARK SMILES O=C([O-])CCCCCCCCC(=O)[O-]
REMARK SMILES IDX 7 1 6 2 5 3 4 4 2 5 1 6 3 7 8 8 9 9 10 10 11 11 12 12 13 13
REMARK SMILES IDX 14 14
REMARK H PARENT
REMARK Flexibility Score: inf
ROOT
ATOM      1  C   UNL     1      -8.648  36.566   5.360  1.00  0.00     0.000 C 
ENDROOT
BRANCH   1   2
ATOM      2  C   UNL     1      -8.192  37.888   6.003  1.00  0.00     0.000 C 
BRANCH   2   3
ATOM      3  C   UNL     1      -9.345  38.639   6.687  1.00  0.00     0.006 C 
BRANCH   3   4
ATOM      4  C   UNL     1     -10.435  39.073   5.699  1.00  0.00     0.053 C 
BRANCH   4   5
ATOM      5  C   UNL     1     -11.688  39.434   6.431  1.00  0.00     0.041 C 
ATOM      6  O   UNL     1     -12.544  40.183   5.892  1.00  0.00    -0.550 OA
ATOM      7  O   UNL     1     -11.935  38.905   7.692  1.00  0.00    -0.550 OA
ENDBRANCH   4   5
ENDBRANCH   3   4
ENDBRANCH   2   3
ENDBRANCH   1   2
BRANCH   1   8
ATOM      8  C   UNL     1      -9.405  35.662   6.346  1.00  0.00     0.000 C 
BRANCH   8   9
ATOM      9  C   UNL     1      -8.833  34.238   6.402  1.00  0.00     0.000 C 
BRANCH   9  10
ATOM     10  C   UNL     1      -7.818  34.009   5.272  1.00  0.00     0.006 C 
BRANCH  10  11
ATOM     11  C   UNL     1      -6.413  33.700   5.806  1.00  0.00     0.053 C 
BRANCH  11  12
ATOM     12  C   UNL     1      -6.250  32.247   6.133  1.00  0.00     0.041 C 
ATOM     13  O   UNL     1      -6.964  31.385   5.559  1.00  0.00    -0.550 OA
ATOM     14  O   UNL     1      -5.285  31.844   7.048  1.00  0.00    -0.550 OA
ENDBRANCH  11  12
ENDBRANCH  10  11
ENDBRANCH   9  10
ENDBRANCH   8   9
ENDBRANCH   1   8
TORSDOF 9
ENDMDL
MODEL 5
REMARK VINA RESULT:    -4.700      2.346      2.966
REMARK INTER + INTRA:          -7.725
REMARK INTER:                  -6.734
REMARK INTRA:                  -0.991
REMARK UNBOUND:                -0.552
REMARK SMILES O=C([O-])CCCCCCCCC(=O)[O-]
REMARK SMILES IDX 7 1 6 2 5 3 4 4 2 5 1 6 3 7 8 8 9 9 10 10 11 11 12 12 13 13
REMARK SMILES IDX 14 14
REMARK H PARENT
REMARK Flexibility Score: inf
ROOT
ATOM      1  C   UNL     1      -8.172  37.914   6.081  1.00  0.00     0.000 C 
ENDROOT
BRANCH   1   2
ATOM      2  C   UNL     1      -9.250  38.941   6.471  1.00  0.00     0.000 C 
BRANCH   2   3
ATOM      3  C   UNL     1     -10.527  38.804   5.626  1.00  0.00     0.006 C 
BRANCH   3   4
ATOM      4  C   UNL     1     -11.663  39.706   6.125  1.00  0.00     0.053 C 
BRANCH   4   5
ATOM      5  C   UNL     1     -12.089  39.296   7.500  1.00  0.00     0.041 C 
ATOM      6  O   UNL     1     -12.730  38.227   7.673  1.00  0.00    -0.550 OA
ATOM      7  O   UNL     1     -11.736  40.071   8.597  1.00  0.00    -0.550 OA
ENDBRANCH   4   5
ENDBRANCH   3   4
ENDBRANCH   2   3
ENDBRANCH   1   2
BRANCH   1   8
ATOM      8  C   UNL     1      -8.756  36.696   5.348  1.00  0.00     0.000 C 
BRANCH   8   9
ATOM      9  C   UNL     1      -8.326  35.364   5.981  1.00  0.00     0.000 C 
BRANCH   9  10
ATOM     10  C   UNL     1      -9.549  34.497   6.318  1.00  0.00     0.006 C 
BRANCH  10  11
ATOM     11  C   UNL     1     -10.713  35.326   6.877  1.00  0.00     0.053 C 
BRANCH  11  12
ATOM     12  C   UNL     1     -10.650  35.440   8.369  1.00  0.00     0.041 C 
ATOM     13  O   UNL     1     -11.036  34.486   9.094  1.00  0.00    -0.550 OA
ATOM     14  O   UNL     1     -10.134  36.587   8.958  1.00  0.00    -0.550 OA
ENDBRANCH  11  12
ENDBRANCH  10  11
ENDBRANCH   9  10
ENDBRANCH   8   9
ENDBRANCH   1   8
TORSDOF 9
ENDMDL
MODEL 6
REMARK VINA RESULT:    -4.657      0.921      6.624
REMARK INTER + INTRA:          -7.660
REMARK INTER:                  -7.198
REMARK INTRA:                  -0.462
REMARK UNBOUND:                -0.552
REMARK SMILES O=C([O-])CCCCCCCCC(=O)[O-]
REMARK SMILES IDX 7 1 6 2 5 3 4 4 2 5 1 6 3 7 8 8 9 9 10 10 11 11 12 12 13 13
REMARK SMILES IDX 14 14
REMARK H PARENT
REMARK Flexibility Score: inf
ROOT
ATOM      1  C   UNL     1      -8.494  37.535   6.132  1.00  0.00     0.000 C 
ENDROOT
BRANCH   1   2
ATOM      2  C   UNL     1      -9.427  36.380   5.724  1.00  0.00     0.000 C 
BRANCH   2   3
ATOM      3  C   UNL     1      -8.908  35.011   6.193  1.00  0.00     0.006 C 
BRANCH   3   4
ATOM      4  C   UNL     1      -7.779  34.473   5.306  1.00  0.00     0.053 C 
BRANCH   4   5
ATOM      5  C   UNL     1      -7.088  33.329   5.978  1.00  0.00     0.041 C 
ATOM      6  O   UNL     1      -5.841  33.193   5.877  1.00  0.00    -0.550 OA
ATOM      7  O   UNL     1      -7.816  32.437   6.756  1.00  0.00    -0.550 OA
ENDBRANCH   4   5
ENDBRANCH   3   4
ENDBRANCH   2   3
ENDBRANCH   1   2
BRANCH   1   8
ATOM      8  C   UNL     1      -9.223  38.887   6.193  1.00  0.00     0.000 C 
BRANCH   8   9
ATOM      9  C   UNL     1     -10.590  38.854   5.493  1.00  0.00     0.000 C 
BRANCH   9  10
ATOM     10  C   UNL     1     -11.649  39.594   6.323  1.00  0.00     0.006 C 
BRANCH  10  11
ATOM     11  C   UNL     1     -12.160  38.750   7.499  1.00  0.00     0.053 C 
BRANCH  11  12
ATOM     12  C   UNL     1     -12.043  39.482   8.801  1.00  0.00     0.041 C 
ATOM     13  O   UNL     1     -12.078  40.740   8.826  1.00  0.00    -0.550 OA
ATOM     14  O   UNL     1     -11.928  38.773   9.990  1.00  0.00    -0.550 OA
ENDBRANCH  11  12
ENDBRANCH  10  11
ENDBRANCH   9  10
ENDBRANCH   8   9
ENDBRANCH   1   8
TORSDOF 9
ENDMDL
MODEL 7
REMARK VINA RESULT:    -4.602      2.561      5.259
REMARK INTER + INTRA:          -7.576
REMARK INTER:                  -6.582
REMARK INTRA:                  -0.994
REMARK UNBOUND:                -0.552
REMARK SMILES O=C([O-])CCCCCCCCC(=O)[O-]
REMARK SMILES IDX 7 1 6 2 5 3 4 4 2 5 1 6 3 7 8 8 9 9 10 10 11 11 12 12 13 13
REMARK SMILES IDX 14 14
REMARK H PARENT
REMARK Flexibility Score: inf
ROOT
ATOM      1  C   UNL     1      -8.200  35.461   5.835  1.00  0.00     0.000 C 
ENDROOT
BRANCH   1   2
ATOM      2  C   UNL     1      -9.359  34.448   5.840  1.00  0.00     0.000 C 
BRANCH   2   3
ATOM      3  C   UNL     1     -10.098  34.403   7.187  1.00  0.00     0.006 C 
BRANCH   3   4
ATOM      4  C   UNL     1     -11.359  35.276   7.196  1.00  0.00     0.053 C 
BRANCH   4   5
ATOM      5  C   UNL     1     -11.402  36.115   8.434  1.00  0.00     0.041 C 
ATOM      6  O   UNL     1     -12.507  36.444   8.940  1.00  0.00    -0.550 OA
ATOM      7  O   UNL     1     -10.221  36.495   9.059  1.00  0.00    -0.550 OA
ENDBRANCH   4   5
ENDBRANCH   3   4
ENDBRANCH   2   3
ENDBRANCH   1   2
BRANCH   1   8
ATOM      8  C   UNL     1      -8.624  36.838   5.301  1.00  0.00     0.000 C 
BRANCH   8   9
ATOM      9  C   UNL     1      -8.047  37.997   6.129  1.00  0.00     0.000 C 
BRANCH   9  10
ATOM     10  C   UNL     1      -9.171  38.842   6.747  1.00  0.00     0.006 C 
BRANCH  10  11
ATOM     11  C   UNL     1     -10.454  38.807   5.906  1.00  0.00     0.053 C 
BRANCH  11  12
ATOM     12  C   UNL     1     -11.584  39.519   6.585  1.00  0.00     0.041 C 
ATOM     13  O   UNL     1     -11.656  39.539   7.841  1.00  0.00    -0.550 OA
ATOM     14  O   UNL     1     -12.539  40.188   5.830  1.00  0.00    -0.550 OA
ENDBRANCH  11  12
ENDBRANCH  10  11
ENDBRANCH   9  10
ENDBRANCH   8   9
ENDBRANCH   1   8
TORSDOF 9
ENDMDL
MODEL 8
REMARK VINA RESULT:    -4.446      2.032      2.712
REMARK INTER + INTRA:          -7.338
REMARK INTER:                  -6.576
REMARK INTRA:                  -0.761
REMARK UNBOUND:                -0.552
REMARK SMILES O=C([O-])CCCCCCCCC(=O)[O-]
REMARK SMILES IDX 7 1 6 2 5 3 4 4 2 5 1 6 3 7 8 8 9 9 10 10 11 11 12 12 13 13
REMARK SMILES IDX 14 14
REMARK H PARENT
REMARK Flexibility Score: inf
ROOT
ATOM      1  C   UNL     1     -10.280  36.585   8.422  1.00  0.00     0.000 C 
ENDROOT
BRANCH   1   2
ATOM      2  C   UNL     1     -11.274  37.411   7.586  1.00  0.00     0.000 C 
BRANCH   2   3
ATOM      3  C   UNL     1     -10.756  38.827   7.286  1.00  0.00     0.006 C 
BRANCH   3   4
ATOM      4  C   UNL     1     -10.015  38.912   5.946  1.00  0.00     0.053 C 
BRANCH   4   5
ATOM      5  C   UNL     1      -8.545  38.730   6.151  1.00  0.00     0.041 C 
ATOM      6  O   UNL     1      -7.942  37.769   5.604  1.00  0.00    -0.550 OA
ATOM      7  O   UNL     1      -7.828  39.650   6.907  1.00  0.00    -0.550 OA
ENDBRANCH   4   5
ENDBRANCH   3   4
ENDBRANCH   2   3
ENDBRANCH   1   2
BRANCH   1   8
ATOM      8  C   UNL     1      -9.755  35.354   7.666  1.00  0.00     0.000 C 
BRANCH   8   9
ATOM      9  C   UNL     1     -10.348  35.229   6.254  1.00  0.00     0.000 C 
BRANCH   9  10
ATOM     10  C   UNL     1      -9.418  34.421   5.338  1.00  0.00     0.006 C 
BRANCH  10  11
ATOM     11  C   UNL     1      -7.952  34.494   5.787  1.00  0.00     0.053 C 
BRANCH  11  12
ATOM     12  C   UNL     1      -7.281  33.157   5.717  1.00  0.00     0.041 C 
ATOM     13  O   UNL     1      -6.127  33.001   6.196  1.00  0.00    -0.550 OA
ATOM     14  O   UNL     1      -7.943  32.074   5.152  1.00  0.00    -0.550 OA
ENDBRANCH  11  12
ENDBRANCH  10  11
ENDBRANCH   9  10
ENDBRANCH   8   9
ENDBRANCH   1   8
TORSDOF 9
ENDMDL
MODEL 9
REMARK VINA RESULT:    -4.393      1.781      5.979
REMARK INTER + INTRA:          -7.257
REMARK INTER:                  -6.496
REMARK INTRA:                  -0.762
REMARK UNBOUND:                -0.552
REMARK SMILES O=C([O-])CCCCCCCCC(=O)[O-]
REMARK SMILES IDX 7 1 6 2 5 3 4 4 2 5 1 6 3 7 8 8 9 9 10 10 11 11 12 12 13 13
REMARK SMILES IDX 14 14
REMARK H PARENT
REMARK Flexibility Score: inf
ROOT
ATOM      1  C   UNL     1     -10.855  35.169   6.552  1.00  0.00     0.000 C 
ENDROOT
BRANCH   1   2
ATOM      2  C   UNL     1      -9.948  35.501   5.354  1.00  0.00     0.000 C 
BRANCH   2   3
ATOM      3  C   UNL     1      -8.464  35.226   5.646  1.00  0.00     0.006 C 
BRANCH   3   4
ATOM      4  C   UNL     1      -7.981  33.900   5.045  1.00  0.00     0.053 C 
BRANCH   4   5
ATOM      5  C   UNL     1      -7.213  33.117   6.061  1.00  0.00     0.041 C 
ATOM      6  O   UNL     1      -5.957  33.189   6.101  1.00  0.00    -0.550 OA
ATOM      7  O   UNL     1      -7.887  32.342   6.998  1.00  0.00    -0.550 OA
ENDBRANCH   4   5
ENDBRANCH   3   4
ENDBRANCH   2   3
ENDBRANCH   1   2
BRANCH   1   8
ATOM      8  C   UNL     1     -10.123  35.291   7.898  1.00  0.00     0.000 C 
BRANCH   8   9
ATOM      9  C   UNL     1     -10.152  36.720   8.460  1.00  0.00     0.000 C 
BRANCH   9  10
ATOM     10  C   UNL     1     -11.363  37.497   7.923  1.00  0.00     0.006 C 
BRANCH  10  11
ATOM     11  C   UNL     1     -10.994  38.921   7.487  1.00  0.00     0.053 C 
BRANCH  11  12
ATOM     12  C   UNL     1     -10.250  38.929   6.187  1.00  0.00     0.041 C 
ATOM     13  O   UNL     1     -10.879  38.948   5.097  1.00  0.00    -0.550 OA
ATOM     14  O   UNL     1      -8.861  38.949   6.180  1.00  0.00    -0.550 OA
ENDBRANCH  11  12
ENDBRANCH  10  11
ENDBRANCH   9  10
ENDBRANCH   8   9
ENDBRANCH   1   8
TORSDOF 9
ENDMDL
