MODEL 1
REMARK VINA RESULT:    -3.895      0.000      0.000
REMARK INTER + INTRA:          -4.978
REMARK INTER:                  -4.692
REMARK INTRA:                  -0.286
REMARK UNBOUND:                -0.286
REMARK SMILES [NH3+][C@H](Cc1cnc[nH]1)C(=O)[O-]
REMARK SMILES IDX 3 1 2 2 1 3 9 7 10 8 11 9 4 10 5 11 8 12 6 13 7 14
REMARK H PARENT 1 4 1 5 1 6 8 15
REMARK Flexibility Score: inf
ROOT
ATOM      1  C   UNL     1      17.940  25.767  50.964  1.00  0.00     0.127 C 
ENDROOT
BRANCH   1   2
ATOM      2  C   UNL     1      18.416  26.775  49.896  1.00  0.00     0.233 C 
BRANCH   2   3
ATOM      3  N   UNL     1      17.288  27.469  49.258  1.00  0.00    -0.350 N 
ATOM      4  H   UNL     1      17.627  28.339  48.788  1.00  0.00     0.345 HD
ATOM      5  H   UNL     1      16.818  26.858  48.551  1.00  0.00     0.345 HD
ATOM      6  H   UNL     1      16.588  27.743  49.987  1.00  0.00     0.345 HD
ENDBRANCH   2   3
BRANCH   2   7
ATOM      7  C   UNL     1      19.414  27.753  50.465  1.00  0.00     0.099 C 
ATOM      8  O   UNL     1      20.600  27.400  50.701  1.00  0.00    -0.544 OA
ATOM      9  O   UNL     1      19.038  29.072  50.682  1.00  0.00    -0.544 OA
ENDBRANCH   2   7
ENDBRANCH   1   2
BRANCH   1  10
ATOM     10  C   UNL     1      18.563  24.407  50.816  1.00  0.00     0.041 A 
ATOM     11  C   UNL     1      17.978  23.199  51.125  1.00  0.00     0.134 A 
ATOM     12  N   UNL     1      19.816  24.182  50.391  1.00  0.00    -0.348 N 
ATOM     13  N   UNL     1      18.863  22.209  50.891  1.00  0.00    -0.245 NA
ATOM     14  C   UNL     1      19.968  22.845  50.446  1.00  0.00     0.196 A 
ATOM     15  H   UNL     1      20.524  24.887  50.090  1.00  0.00     0.167 HD
ENDBRANCH   1  10
TORSDOF 4
ENDMDL
MODEL 2
REMARK VINA RESULT:    -3.818      3.085      4.809
REMARK INTER + INTRA:          -4.885
REMARK INTER:                  -4.858
REMARK INTRA:                  -0.027
REMARK UNBOUND:                -0.286
REMARK SMILES [NH3+][C@H](Cc1cnc[nH]1)C(=O)[O-]
REMARK SMILES IDX 3 1 2 2 1 3 9 7 10 8 11 9 4 10 5 11 8 12 6 13 7 14
REMARK H PARENT 1 4 1 5 1 6 8 15
REMARK Flexibility Score: inf
ROOT
ATOM      1  C   UNL     1      18.611  28.596  50.840  1.00  0.00     0.127 C 
ENDROOT
BRANCH   1   2
ATOM      2  C   UNL     1      17.626  27.613  50.168  1.00  0.00     0.233 C 
BRANCH   2   3
ATOM      3  N   UNL     1      17.805  27.571  48.710  1.00  0.00    -0.350 N 
ATOM      4  H   UNL     1      18.809  27.390  48.482  1.00  0.00     0.345 HD
ATOM      5  H   UNL     1      17.215  26.825  48.278  1.00  0.00     0.345 HD
ATOM      6  H   UNL     1      17.538  28.495  48.298  1.00  0.00     0.345 HD
ENDBRANCH   2   3
BRANCH   2   7
ATOM      7  C   UNL     1      17.720  26.236  50.776  1.00  0.00     0.099 C 
ATOM      8  O   UNL     1      16.682  25.611  51.122  1.00  0.00    -0.544 OA
ATOM      9  O   UNL     1      18.960  25.624  50.906  1.00  0.00    -0.544 OA
ENDBRANCH   2   7
ENDBRANCH   1   2
BRANCH   1  10
ATOM     10  C   UNL     1      19.780  28.955  49.966  1.00  0.00     0.041 A 
ATOM     11  C   UNL     1      21.011  28.338  49.949  1.00  0.00     0.134 A 
ATOM     12  N   UNL     1      19.797  29.974  49.093  1.00  0.00    -0.348 N 
ATOM     13  N   UNL     1      21.805  28.967  49.059  1.00  0.00    -0.245 NA
ATOM     14  C   UNL     1      21.033  29.955  48.560  1.00  0.00     0.196 A 
ATOM     15  H   UNL     1      19.025  30.642  48.876  1.00  0.00     0.167 HD
ENDBRANCH   1  10
TORSDOF 4
ENDMDL
MODEL 3
REMARK VINA RESULT:    -3.578      1.988      2.339
REMARK INTER + INTRA:          -4.596
REMARK INTER:                  -4.442
REMARK INTRA:                  -0.155
REMARK UNBOUND:                -0.286
REMARK SMILES [NH3+][C@H](Cc1cnc[nH]1)C(=O)[O-]
REMARK SMILES IDX 3 1 2 2 1 3 9 7 10 8 11 9 4 10 5 11 8 12 6 13 7 14
REMARK H PARENT 1 4 1 5 1 6 8 15
REMARK Flexibility Score: inf
ROOT
ATOM      1  C   UNL     1      20.077  25.463  49.918  1.00  0.00     0.127 C 
ENDROOT
BRANCH   1   2
ATOM      2  C   UNL     1      19.355  26.532  50.768  1.00  0.00     0.233 C 
BRANCH   2   3
ATOM      3  N   UNL     1      20.081  27.809  50.771  1.00  0.00    -0.350 N 
ATOM      4  H   UNL     1      21.111  27.631  50.740  1.00  0.00     0.345 HD
ATOM      5  H   UNL     1      19.811  28.401  49.953  1.00  0.00     0.345 HD
ATOM      6  H   UNL     1      19.867  28.331  51.652  1.00  0.00     0.345 HD
ENDBRANCH   2   3
BRANCH   2   7
ATOM      7  C   UNL     1      17.923  26.713  50.328  1.00  0.00     0.099 C 
ATOM      8  O   UNL     1      17.649  27.319  49.258  1.00  0.00    -0.544 OA
ATOM      9  O   UNL     1      16.896  26.159  51.081  1.00  0.00    -0.544 OA
ENDBRANCH   2   7
ENDBRANCH   1   2
BRANCH   1  10
ATOM     10  C   UNL     1      19.785  24.056  50.361  1.00  0.00     0.041 A 
ATOM     11  C   UNL     1      20.627  22.972  50.254  1.00  0.00     0.134 A 
ATOM     12  N   UNL     1      18.624  23.648  50.895  1.00  0.00    -0.348 N 
ATOM     13  N   UNL     1      19.997  21.878  50.726  1.00  0.00    -0.245 NA
ATOM     14  C   UNL     1      18.783  22.328  51.107  1.00  0.00     0.196 A 
ATOM     15  H   UNL     1      17.777  24.224  51.098  1.00  0.00     0.167 HD
ENDBRANCH   1  10
TORSDOF 4
ENDMDL
MODEL 4
REMARK VINA RESULT:    -3.433      1.936      2.445
REMARK INTER + INTRA:          -4.421
REMARK INTER:                  -4.234
REMARK INTRA:                  -0.188
REMARK UNBOUND:                -0.286
REMARK SMILES [NH3+][C@H](Cc1cnc[nH]1)C(=O)[O-]
REMARK SMILES IDX 3 1 2 2 1 3 9 7 10 8 11 9 4 10 5 11 8 12 6 13 7 14
REMARK H PARENT 1 4 1 5 1 6 8 15
REMARK Flexibility Score: inf
ROOT
ATOM      1  C   UNL     1      19.774  27.422  50.817  1.00  0.00     0.127 C 
ENDROOT
BRANCH   1   2
ATOM      2  C   UNL     1      19.266  28.275  49.634  1.00  0.00     0.233 C 
BRANCH   2   3
ATOM      3  N   UNL     1      19.132  29.692  49.999  1.00  0.00    -0.350 N 
ATOM      4  H   UNL     1      18.167  30.026  49.774  1.00  0.00     0.345 HD
ATOM      5  H   UNL     1      19.317  29.840  51.017  1.00  0.00     0.345 HD
ATOM      6  H   UNL     1      19.812  30.262  49.445  1.00  0.00     0.345 HD
ENDBRANCH   2   3
BRANCH   2   7
ATOM      7  C   UNL     1      20.136  28.100  48.413  1.00  0.00     0.099 C 
ATOM      8  O   UNL     1      20.692  29.091  47.870  1.00  0.00    -0.544 OA
ATOM      9  O   UNL     1      20.371  26.826  47.913  1.00  0.00    -0.544 OA
ENDBRANCH   2   7
ENDBRANCH   1   2
BRANCH   1  10
ATOM     10  C   UNL     1      19.210  26.029  50.831  1.00  0.00     0.041 A 
ATOM     11  C   UNL     1      17.912  25.673  51.125  1.00  0.00     0.134 A 
ATOM     12  N   UNL     1      19.919  24.915  50.594  1.00  0.00    -0.348 N 
ATOM     13  N   UNL     1      17.801  24.331  51.069  1.00  0.00    -0.245 NA
ATOM     14  C   UNL     1      19.041  23.905  50.743  1.00  0.00     0.196 A 
ATOM     15  H   UNL     1      20.932  24.842  50.353  1.00  0.00     0.167 HD
ENDBRANCH   1  10
TORSDOF 4
ENDMDL
MODEL 5
REMARK VINA RESULT:    -3.430      2.585      4.498
REMARK INTER + INTRA:          -4.418
REMARK INTER:                  -4.233
REMARK INTRA:                  -0.185
REMARK UNBOUND:                -0.286
REMARK SMILES [NH3+][C@H](Cc1cnc[nH]1)C(=O)[O-]
REMARK SMILES IDX 3 1 2 2 1 3 9 7 10 8 11 9 4 10 5 11 8 12 6 13 7 14
REMARK H PARENT 1 4 1 5 1 6 8 15
REMARK Flexibility Score: inf
ROOT
ATOM      1  C   UNL     1      17.871  27.365  49.276  1.00  0.00     0.127 C 
ENDROOT
BRANCH   1   2
ATOM      2  C   UNL     1      18.026  26.709  50.665  1.00  0.00     0.233 C 
BRANCH   2   3
ATOM      3  N   UNL     1      16.809  25.991  51.069  1.00  0.00    -0.350 N 
ATOM      4  H   UNL     1      16.751  25.079  50.563  1.00  0.00     0.345 HD
ATOM      5  H   UNL     1      16.799  25.813  52.100  1.00  0.00     0.345 HD
ATOM      6  H   UNL     1      15.968  26.560  50.816  1.00  0.00     0.345 HD
ENDBRANCH   2   3
BRANCH   2   7
ATOM      7  C   UNL     1      19.239  25.814  50.721  1.00  0.00     0.099 C 
ATOM      8  O   UNL     1      20.348  26.255  51.125  1.00  0.00    -0.544 OA
ATOM      9  O   UNL     1      19.122  24.474  50.376  1.00  0.00    -0.544 OA
ENDBRANCH   2   7
ENDBRANCH   1   2
BRANCH   1  10
ATOM     10  C   UNL     1      19.098  28.110  48.831  1.00  0.00     0.041 A 
ATOM     11  C   UNL     1      19.863  27.841  47.717  1.00  0.00     0.134 A 
ATOM     12  N   UNL     1      19.651  29.138  49.494  1.00  0.00    -0.348 N 
ATOM     13  N   UNL     1      20.899  28.702  47.676  1.00  0.00    -0.245 NA
ATOM     14  C   UNL     1      20.736  29.475  48.771  1.00  0.00     0.196 A 
ATOM     15  H   UNL     1      19.320  29.578  50.380  1.00  0.00     0.167 HD
ENDBRANCH   1  10
TORSDOF 4
ENDMDL
MODEL 6
REMARK VINA RESULT:    -3.429     17.534     18.368
REMARK INTER + INTRA:          -4.416
REMARK INTER:                  -4.254
REMARK INTRA:                  -0.162
REMARK UNBOUND:                -0.286
REMARK SMILES [NH3+][C@H](Cc1cnc[nH]1)C(=O)[O-]
REMARK SMILES IDX 3 1 2 2 1 3 9 7 10 8 11 9 4 10 5 11 8 12 6 13 7 14
REMARK H PARENT 1 4 1 5 1 6 8 15
REMARK Flexibility Score: inf
ROOT
ATOM      1  C   UNL     1      27.069  23.189  34.027  1.00  0.00     0.127 C 
ENDROOT
BRANCH   1   2
ATOM      2  C   UNL     1      26.215  21.963  33.636  1.00  0.00     0.233 C 
BRANCH   2   3
ATOM      3  N   UNL     1      26.668  21.361  32.374  1.00  0.00    -0.350 N 
ATOM      4  H   UNL     1      27.569  21.800  32.076  1.00  0.00     0.345 HD
ATOM      5  H   UNL     1      26.806  20.330  32.475  1.00  0.00     0.345 HD
ATOM      6  H   UNL     1      25.956  21.537  31.628  1.00  0.00     0.345 HD
ENDBRANCH   2   3
BRANCH   2   7
ATOM      7  C   UNL     1      26.169  20.945  34.748  1.00  0.00     0.099 C 
ATOM      8  O   UNL     1      25.848  19.749  34.514  1.00  0.00    -0.544 OA
ATOM      9  O   UNL     1      26.535  21.314  36.036  1.00  0.00    -0.544 OA
ENDBRANCH   2   7
ENDBRANCH   1   2
BRANCH   1  10
ATOM     10  C   UNL     1      26.250  24.412  34.331  1.00  0.00     0.041 A 
ATOM     11  C   UNL     1      25.289  24.533  35.310  1.00  0.00     0.134 A 
ATOM     12  N   UNL     1      26.316  25.565  33.648  1.00  0.00    -0.348 N 
ATOM     13  N   UNL     1      24.750  25.767  35.247  1.00  0.00    -0.245 NA
ATOM     14  C   UNL     1      25.399  26.364  34.225  1.00  0.00     0.196 A 
ATOM     15  H   UNL     1      26.935  25.794  32.840  1.00  0.00     0.167 HD
ENDBRANCH   1  10
TORSDOF 4
ENDMDL
MODEL 7
REMARK VINA RESULT:    -3.426      2.497      3.006
REMARK INTER + INTRA:          -4.413
REMARK INTER:                  -4.205
REMARK INTRA:                  -0.208
REMARK UNBOUND:                -0.286
REMARK SMILES [NH3+][C@H](Cc1cnc[nH]1)C(=O)[O-]
REMARK SMILES IDX 3 1 2 2 1 3 9 7 10 8 11 9 4 10 5 11 8 12 6 13 7 14
REMARK H PARENT 1 4 1 5 1 6 8 15
REMARK Flexibility Score: inf
ROOT
ATOM      1  C   UNL     1      20.406  28.022  50.256  1.00  0.00     0.127 C 
ENDROOT
BRANCH   1   2
ATOM      2  C   UNL     1      19.018  28.317  50.865  1.00  0.00     0.233 C 
BRANCH   2   3
ATOM      3  N   UNL     1      18.641  29.729  50.705  1.00  0.00    -0.350 N 
ATOM      4  H   UNL     1      17.626  29.799  50.463  1.00  0.00     0.345 HD
ATOM      5  H   UNL     1      18.823  30.271  51.581  1.00  0.00     0.345 HD
ATOM      6  H   UNL     1      19.193  30.152  49.924  1.00  0.00     0.345 HD
ENDBRANCH   2   3
BRANCH   2   7
ATOM      7  C   UNL     1      17.962  27.398  50.305  1.00  0.00     0.099 C 
ATOM      8  O   UNL     1      17.547  27.536  49.123  1.00  0.00    -0.544 OA
ATOM      9  O   UNL     1      17.478  26.352  51.080  1.00  0.00    -0.544 OA
ENDBRANCH   2   7
ENDBRANCH   1   2
BRANCH   1  10
ATOM     10  C   UNL     1      20.689  26.553  50.108  1.00  0.00     0.041 A 
ATOM     11  C   UNL     1      20.927  25.878  48.931  1.00  0.00     0.134 A 
ATOM     12  N   UNL     1      20.708  25.672  51.120  1.00  0.00    -0.348 N 
ATOM     13  N   UNL     1      21.101  24.569  49.202  1.00  0.00    -0.245 NA
ATOM     14  C   UNL     1      20.961  24.483  50.542  1.00  0.00     0.196 A 
ATOM     15  H   UNL     1      20.554  25.862  52.135  1.00  0.00     0.167 HD
ENDBRANCH   1  10
TORSDOF 4
ENDMDL
MODEL 8
REMARK VINA RESULT:    -3.416      2.267      3.348
REMARK INTER + INTRA:          -4.401
REMARK INTER:                  -4.304
REMARK INTRA:                  -0.098
REMARK UNBOUND:                -0.286
REMARK SMILES [NH3+][C@H](Cc1cnc[nH]1)C(=O)[O-]
REMARK SMILES IDX 3 1 2 2 1 3 9 7 10 8 11 9 4 10 5 11 8 12 6 13 7 14
REMARK H PARENT 1 4 1 5 1 6 8 15
REMARK Flexibility Score: inf
ROOT
ATOM      1  C   UNL     1      19.502  27.670  48.280  1.00  0.00     0.127 C 
ENDROOT
BRANCH   1   2
ATOM      2  C   UNL     1      20.279  28.927  48.724  1.00  0.00     0.233 C 
BRANCH   2   3
ATOM      3  N   UNL     1      19.496  29.754  49.653  1.00  0.00    -0.350 N 
ATOM      4  H   UNL     1      20.035  29.902  50.536  1.00  0.00     0.345 HD
ATOM      5  H   UNL     1      19.267  30.684  49.232  1.00  0.00     0.345 HD
ATOM      6  H   UNL     1      18.604  29.262  49.893  1.00  0.00     0.345 HD
ENDBRANCH   2   3
BRANCH   2   7
ATOM      7  C   UNL     1      21.625  28.569  49.305  1.00  0.00     0.099 C 
ATOM      8  O   UNL     1      22.597  28.286  48.555  1.00  0.00    -0.544 OA
ATOM      9  O   UNL     1      21.811  28.602  50.681  1.00  0.00    -0.544 OA
ENDBRANCH   2   7
ENDBRANCH   1   2
BRANCH   1  10
ATOM     10  C   UNL     1      18.780  26.988  49.408  1.00  0.00     0.041 A 
ATOM     11  C   UNL     1      19.307  26.057  50.276  1.00  0.00     0.134 A 
ATOM     12  N   UNL     1      17.484  27.167  49.706  1.00  0.00    -0.348 N 
ATOM     13  N   UNL     1      18.343  25.652  51.125  1.00  0.00    -0.245 NA
ATOM     14  C   UNL     1      17.249  26.348  50.748  1.00  0.00     0.196 A 
ATOM     15  H   UNL     1      16.801  27.798  49.231  1.00  0.00     0.167 HD
ENDBRANCH   1  10
TORSDOF 4
ENDMDL
MODEL 9
REMARK VINA RESULT:    -3.395      3.391      4.215
REMARK INTER + INTRA:          -4.375
REMARK INTER:                  -4.225
REMARK INTRA:                  -0.150
REMARK UNBOUND:                -0.286
REMARK SMILES [NH3+][C@H](Cc1cnc[nH]1)C(=O)[O-]
REMARK SMILES IDX 3 1 2 2 1 3 9 7 10 8 11 9 4 10 5 11 8 12 6 13 7 14
REMARK H PARENT 1 4 1 5 1 6 8 15
REMARK Flexibility Score: inf
ROOT
ATOM      1  C   UNL     1      20.646  28.197  50.024  1.00  0.00     0.127 C 
ENDROOT
BRANCH   1   2
ATOM      2  C   UNL     1      19.339  28.394  50.822  1.00  0.00     0.233 C 
BRANCH   2   3
ATOM      3  N   UNL     1      18.757  29.725  50.598  1.00  0.00    -0.350 N 
ATOM      4  H   UNL     1      19.285  30.220  49.844  1.00  0.00     0.345 HD
ATOM      5  H   UNL     1      17.751  29.657  50.324  1.00  0.00     0.345 HD
ATOM      6  H   UNL     1      18.832  30.291  51.475  1.00  0.00     0.345 HD
ENDBRANCH   2   3
BRANCH   2   7
ATOM      7  C   UNL     1      18.343  27.300  50.529  1.00  0.00     0.099 C 
ATOM      8  O   UNL     1      17.402  27.486  49.712  1.00  0.00    -0.544 OA
ATOM      9  O   UNL     1      18.494  26.054  51.124  1.00  0.00    -0.544 OA
ENDBRANCH   2   7
ENDBRANCH   1   2
BRANCH   1  10
ATOM     10  C   UNL     1      20.420  27.676  48.632  1.00  0.00     0.041 A 
ATOM     11  C   UNL     1      20.928  26.513  48.099  1.00  0.00     0.134 A 
ATOM     12  N   UNL     1      19.709  28.309  47.686  1.00  0.00    -0.348 N 
ATOM     13  N   UNL     1      20.533  26.409  46.815  1.00  0.00    -0.245 NA
ATOM     14  C   UNL     1      19.795  27.518  46.600  1.00  0.00     0.196 A 
ATOM     15  H   UNL     1      19.205  29.219  47.768  1.00  0.00     0.167 HD
ENDBRANCH   1  10
TORSDOF 4
ENDMDL
