MODEL 1
REMARK VINA RESULT:    -4.877      0.000      0.000
REMARK INTER + INTRA:          -6.642
REMARK INTER:                  -6.302
REMARK INTRA:                  -0.340
REMARK UNBOUND:                -0.340
REMARK SMILES C=CC(=O)CCCCC
REMARK SMILES IDX 6 1 7 2 8 3 9 4 5 5 3 6 4 7 2 8 1 9
REMARK H PARENT
REMARK Flexibility Score: inf
ROOT
ATOM      1  C   UNL     1      -7.366  31.314  23.660  1.00  0.00     0.008 C 
ENDROOT
BRANCH   1   2
ATOM      2  C   UNL     1      -7.135  30.096  22.742  1.00  0.00     0.000 C 
BRANCH   2   3
ATOM      3  C   UNL     1      -8.420  29.420  22.231  1.00  0.00    -0.003 C 
ATOM      4  C   UNL     1      -8.358  27.894  22.293  1.00  0.00     0.004 C 
ENDBRANCH   2   3
ENDBRANCH   1   2
BRANCH   1   5
ATOM      5  C   UNL     1      -8.454  32.282  23.169  1.00  0.00     0.080 C 
BRANCH   5   6
ATOM      6  C   UNL     1      -7.881  33.605  22.745  1.00  0.00     0.155 C 
ATOM      7  O   UNL     1      -7.376  34.364  23.616  1.00  0.00    -0.295 OA
BRANCH   6   8
ATOM      8  C   UNL     1      -7.887  33.998  21.321  1.00  0.00     0.039 C 
ATOM      9  C   UNL     1      -7.365  33.231  20.367  1.00  0.00     0.012 C 
ENDBRANCH   6   8
ENDBRANCH   5   6
ENDBRANCH   1   5
TORSDOF 5
ENDMDL
MODEL 2
REMARK VINA RESULT:    -4.876      1.726      1.863
REMARK INTER + INTRA:          -6.641
REMARK INTER:                  -6.223
REMARK INTRA:                  -0.418
REMARK UNBOUND:                -0.340
REMARK SMILES C=CC(=O)CCCCC
REMARK SMILES IDX 6 1 7 2 8 3 9 4 5 5 3 6 4 7 2 8 1 9
REMARK H PARENT
REMARK Flexibility Score: inf
ROOT
ATOM      1  C   UNL     1      -7.889  32.004  23.762  1.00  0.00     0.008 C 
ENDROOT
BRANCH   1   2
ATOM      2  C   UNL     1      -7.546  30.520  24.004  1.00  0.00     0.000 C 
BRANCH   2   3
ATOM      3  C   UNL     1      -7.079  29.753  22.754  1.00  0.00    -0.003 C 
ATOM      4  C   UNL     1      -8.048  28.647  22.334  1.00  0.00     0.004 C 
ENDBRANCH   2   3
ENDBRANCH   1   2
BRANCH   1   5
ATOM      5  C   UNL     1      -9.247  32.239  23.081  1.00  0.00     0.080 C 
BRANCH   5   6
ATOM      6  C   UNL     1      -9.104  32.459  21.602  1.00  0.00     0.155 C 
ATOM      7  O   UNL     1      -9.776  31.748  20.807  1.00  0.00    -0.295 OA
BRANCH   6   8
ATOM      8  C   UNL     1      -8.206  33.512  21.087  1.00  0.00     0.039 C 
ATOM      9  C   UNL     1      -7.267  33.267  20.176  1.00  0.00     0.012 C 
ENDBRANCH   6   8
ENDBRANCH   5   6
ENDBRANCH   1   5
TORSDOF 5
ENDMDL
MODEL 3
REMARK VINA RESULT:    -4.777      1.658      2.133
REMARK INTER + INTRA:          -6.513
REMARK INTER:                  -6.202
REMARK INTRA:                  -0.310
REMARK UNBOUND:                -0.340
REMARK SMILES C=CC(=O)CCCCC
REMARK SMILES IDX 6 1 7 2 8 3 9 4 5 5 3 6 4 7 2 8 1 9
REMARK H PARENT
REMARK Flexibility Score: inf
ROOT
ATOM      1  C   UNL     1      -8.920  31.293  21.654  1.00  0.00     0.008 C 
ENDROOT
BRANCH   1   2
ATOM      2  C   UNL     1      -7.914  30.961  22.775  1.00  0.00     0.000 C 
BRANCH   2   3
ATOM      3  C   UNL     1      -7.296  29.554  22.693  1.00  0.00    -0.003 C 
ATOM      4  C   UNL     1      -8.287  28.492  22.216  1.00  0.00     0.004 C 
ENDBRANCH   2   3
ENDBRANCH   1   2
BRANCH   1   5
ATOM      5  C   UNL     1      -9.259  32.787  21.527  1.00  0.00     0.080 C 
BRANCH   5   6
ATOM      6  C   UNL     1      -8.050  33.611  21.185  1.00  0.00     0.155 C 
ATOM      7  O   UNL     1      -7.356  33.297  20.181  1.00  0.00    -0.295 OA
BRANCH   6   8
ATOM      8  C   UNL     1      -7.696  34.790  22.001  1.00  0.00     0.039 C 
ATOM      9  C   UNL     1      -7.644  34.748  23.330  1.00  0.00     0.012 C 
ENDBRANCH   6   8
ENDBRANCH   5   6
ENDBRANCH   1   5
TORSDOF 5
ENDMDL
MODEL 4
REMARK VINA RESULT:    -4.697     15.779     16.558
REMARK INTER + INTRA:          -6.409
REMARK INTER:                  -6.057
REMARK INTRA:                  -0.352
REMARK UNBOUND:                -0.340
REMARK SMILES C=CC(=O)CCCCC
REMARK SMILES IDX 6 1 7 2 8 3 9 4 5 5 3 6 4 7 2 8 1 9
REMARK H PARENT
REMARK Flexibility Score: inf
ROOT
ATOM      1  C   UNL     1       6.356  31.005  28.103  1.00  0.00     0.008 C 
ENDROOT
BRANCH   1   2
ATOM      2  C   UNL     1       6.754  29.921  29.125  1.00  0.00     0.000 C 
BRANCH   2   3
ATOM      3  C   UNL     1       7.339  28.637  28.511  1.00  0.00    -0.003 C 
ATOM      4  C   UNL     1       6.361  27.918  27.581  1.00  0.00     0.004 C 
ENDBRANCH   2   3
ENDBRANCH   1   2
BRANCH   1   5
ATOM      5  C   UNL     1       7.039  32.364  28.320  1.00  0.00     0.080 C 
BRANCH   5   6
ATOM      6  C   UNL     1       8.081  32.644  27.274  1.00  0.00     0.155 C 
ATOM      7  O   UNL     1       7.714  33.001  26.121  1.00  0.00    -0.295 OA
BRANCH   6   8
ATOM      8  C   UNL     1       9.516  32.528  27.601  1.00  0.00     0.039 C 
ATOM      9  C   UNL     1       9.967  31.717  28.556  1.00  0.00     0.012 C 
ENDBRANCH   6   8
ENDBRANCH   5   6
ENDBRANCH   1   5
TORSDOF 5
ENDMDL
MODEL 5
REMARK VINA RESULT:    -4.582      1.747      4.455
REMARK INTER + INTRA:          -6.261
REMARK INTER:                  -6.111
REMARK INTRA:                  -0.150
REMARK UNBOUND:                -0.340
REMARK SMILES C=CC(=O)CCCCC
REMARK SMILES IDX 6 1 7 2 8 3 9 4 5 5 3 6 4 7 2 8 1 9
REMARK H PARENT
REMARK Flexibility Score: inf
ROOT
ATOM      1  C   UNL     1      -8.470  32.522  23.148  1.00  0.00     0.008 C 
ENDROOT
BRANCH   1   2
ATOM      2  C   UNL     1      -7.788  33.900  23.029  1.00  0.00     0.000 C 
BRANCH   2   3
ATOM      3  C   UNL     1      -7.795  34.504  21.614  1.00  0.00    -0.003 C 
ATOM      4  C   UNL     1      -7.501  33.475  20.523  1.00  0.00     0.004 C 
ENDBRANCH   2   3
ENDBRANCH   1   2
BRANCH   1   5
ATOM      5  C   UNL     1      -7.520  31.374  23.523  1.00  0.00     0.080 C 
BRANCH   5   6
ATOM      6  C   UNL     1      -8.212  30.040  23.498  1.00  0.00     0.155 C 
ATOM      7  O   UNL     1      -9.032  29.756  24.413  1.00  0.00    -0.295 OA
BRANCH   6   8
ATOM      8  C   UNL     1      -7.952  29.086  22.402  1.00  0.00     0.039 C 
ATOM      9  C   UNL     1      -8.504  27.875  22.364  1.00  0.00     0.012 C 
ENDBRANCH   6   8
ENDBRANCH   5   6
ENDBRANCH   1   5
TORSDOF 5
ENDMDL
MODEL 6
REMARK VINA RESULT:    -4.568      1.650      4.485
REMARK INTER + INTRA:          -6.243
REMARK INTER:                  -6.001
REMARK INTRA:                  -0.242
REMARK UNBOUND:                -0.340
REMARK SMILES C=CC(=O)CCCCC
REMARK SMILES IDX 6 1 7 2 8 3 9 4 5 5 3 6 4 7 2 8 1 9
REMARK H PARENT
REMARK Flexibility Score: inf
ROOT
ATOM      1  C   UNL     1      -9.132  32.900  21.762  1.00  0.00     0.008 C 
ENDROOT
BRANCH   1   2
ATOM      2  C   UNL     1      -7.913  33.708  21.272  1.00  0.00     0.000 C 
BRANCH   2   3
ATOM      3  C   UNL     1      -7.611  34.979  22.086  1.00  0.00    -0.003 C 
ATOM      4  C   UNL     1      -7.515  34.718  23.589  1.00  0.00     0.004 C 
ENDBRANCH   2   3
ENDBRANCH   1   2
BRANCH   1   5
ATOM      5  C   UNL     1      -9.007  31.381  21.566  1.00  0.00     0.080 C 
BRANCH   5   6
ATOM      6  C   UNL     1      -8.404  30.707  22.766  1.00  0.00     0.155 C 
ATOM      7  O   UNL     1      -8.567  31.220  23.906  1.00  0.00    -0.295 OA
BRANCH   6   8
ATOM      8  C   UNL     1      -7.651  29.446  22.613  1.00  0.00     0.039 C 
ATOM      9  C   UNL     1      -8.250  28.282  22.371  1.00  0.00     0.012 C 
ENDBRANCH   6   8
ENDBRANCH   5   6
ENDBRANCH   1   5
TORSDOF 5
ENDMDL
MODEL 7
REMARK VINA RESULT:    -4.502     16.097     17.137
REMARK INTER + INTRA:          -6.157
REMARK INTER:                  -5.754
REMARK INTRA:                  -0.403
REMARK UNBOUND:                -0.340
REMARK SMILES C=CC(=O)CCCCC
REMARK SMILES IDX 6 1 7 2 8 3 9 4 5 5 3 6 4 7 2 8 1 9
REMARK H PARENT
REMARK Flexibility Score: inf
ROOT
ATOM      1  C   UNL     1       9.119  30.779  27.795  1.00  0.00     0.008 C 
ENDROOT
BRANCH   1   2
ATOM      2  C   UNL     1      10.125  31.689  28.529  1.00  0.00     0.000 C 
BRANCH   2   3
ATOM      3  C   UNL     1       9.713  33.169  28.616  1.00  0.00    -0.003 C 
ATOM      4  C   UNL     1       8.648  33.555  27.590  1.00  0.00     0.004 C 
ENDBRANCH   2   3
ENDBRANCH   1   2
BRANCH   1   5
ATOM      5  C   UNL     1       8.142  30.036  28.720  1.00  0.00     0.080 C 
BRANCH   5   6
ATOM      6  C   UNL     1       6.783  29.882  28.097  1.00  0.00     0.155 C 
ATOM      7  O   UNL     1       6.311  28.725  27.929  1.00  0.00    -0.295 OA
BRANCH   6   8
ATOM      8  C   UNL     1       6.002  31.074  27.709  1.00  0.00     0.039 C 
ATOM      9  C   UNL     1       5.642  32.008  28.587  1.00  0.00     0.012 C 
ENDBRANCH   6   8
ENDBRANCH   5   6
ENDBRANCH   1   5
TORSDOF 5
ENDMDL
MODEL 8
REMARK VINA RESULT:    -4.493     16.045     17.099
REMARK INTER + INTRA:          -6.146
REMARK INTER:                  -5.612
REMARK INTRA:                  -0.534
REMARK UNBOUND:                -0.340
REMARK SMILES C=CC(=O)CCCCC
REMARK SMILES IDX 6 1 7 2 8 3 9 4 5 5 3 6 4 7 2 8 1 9
REMARK H PARENT
REMARK Flexibility Score: inf
ROOT
ATOM      1  C   UNL     1       7.837  33.160  28.176  1.00  0.00     0.008 C 
ENDROOT
BRANCH   1   2
ATOM      2  C   UNL     1       9.060  33.144  29.115  1.00  0.00     0.000 C 
BRANCH   2   3
ATOM      3  C   UNL     1      10.125  32.088  28.771  1.00  0.00    -0.003 C 
ATOM      4  C   UNL     1      10.053  31.616  27.319  1.00  0.00     0.004 C 
ENDBRANCH   2   3
ENDBRANCH   1   2
BRANCH   1   5
ATOM      5  C   UNL     1       6.577  32.504  28.762  1.00  0.00     0.080 C 
BRANCH   5   6
ATOM      6  C   UNL     1       6.400  31.092  28.279  1.00  0.00     0.155 C 
ATOM      7  O   UNL     1       5.735  30.880  27.229  1.00  0.00    -0.295 OA
BRANCH   6   8
ATOM      8  C   UNL     1       7.021  29.970  29.012  1.00  0.00     0.039 C 
ATOM      9  C   UNL     1       7.294  28.804  28.432  1.00  0.00     0.012 C 
ENDBRANCH   6   8
ENDBRANCH   5   6
ENDBRANCH   1   5
TORSDOF 5
ENDMDL
MODEL 9
REMARK VINA RESULT:    -4.409     15.997     17.149
REMARK INTER + INTRA:          -6.038
REMARK INTER:                  -5.768
REMARK INTRA:                  -0.270
REMARK UNBOUND:                -0.340
REMARK SMILES C=CC(=O)CCCCC
REMARK SMILES IDX 6 1 7 2 8 3 9 4 5 5 3 6 4 7 2 8 1 9
REMARK H PARENT
REMARK Flexibility Score: inf
ROOT
ATOM      1  C   UNL     1       6.545  32.304  28.800  1.00  0.00     0.008 C 
ENDROOT
BRANCH   1   2
ATOM      2  C   UNL     1       7.665  33.320  29.107  1.00  0.00     0.000 C 
BRANCH   2   3
ATOM      3  C   UNL     1       8.650  33.564  27.951  1.00  0.00    -0.003 C 
ATOM      4  C   UNL     1      10.097  33.236  28.318  1.00  0.00     0.004 C 
ENDBRANCH   2   3
ENDBRANCH   1   2
BRANCH   1   5
ATOM      5  C   UNL     1       6.862  31.339  27.647  1.00  0.00     0.080 C 
BRANCH   5   6
ATOM      6  C   UNL     1       7.585  30.110  28.124  1.00  0.00     0.155 C 
ATOM      7  O   UNL     1       8.844  30.076  28.066  1.00  0.00    -0.295 OA
BRANCH   6   8
ATOM      8  C   UNL     1       6.829  28.969  28.678  1.00  0.00     0.039 C 
ATOM      9  C   UNL     1       6.453  27.933  27.932  1.00  0.00     0.012 C 
ENDBRANCH   6   8
ENDBRANCH   5   6
ENDBRANCH   1   5
TORSDOF 5
ENDMDL
