MODEL 1
REMARK VINA RESULT:     7.769      0.000      0.000
REMARK INTER + INTRA:          10.120
REMARK INTER:                  10.494
REMARK INTRA:                  -0.374
REMARK UNBOUND:                -0.374
REMARK SMILES CCCCCCCC(=O)[O-]
REMARK SMILES IDX 5 1 6 2 7 3 8 4 9 5 10 6 4 7 3 8 2 9 1 10
REMARK H PARENT
REMARK Flexibility Score: inf
ROOT
ATOM      1  C   UNL     1      54.520  55.657  23.884  1.00  0.00     0.000 C 
ENDROOT
BRANCH   1   2
ATOM      2  C   UNL     1      56.022  55.983  23.870  1.00  0.00     0.006 C 
BRANCH   2   3
ATOM      3  C   UNL     1      56.416  56.960  24.984  1.00  0.00     0.053 C 
BRANCH   3   4
ATOM      4  C   UNL     1      57.478  56.390  25.874  1.00  0.00     0.041 C 
ATOM      5  O   UNL     1      58.059  57.123  26.716  1.00  0.00    -0.550 OA
ATOM      6  O   UNL     1      57.803  55.042  25.794  1.00  0.00    -0.550 OA
ENDBRANCH   3   4
ENDBRANCH   2   3
ENDBRANCH   1   2
BRANCH   1   7
ATOM      7  C   UNL     1      53.691  56.902  24.219  1.00  0.00     0.000 C 
BRANCH   7   8
ATOM      8  C   UNL     1      52.706  56.616  25.362  1.00  0.00    -0.000 C 
BRANCH   8   9
ATOM      9  C   UNL     1      53.223  55.544  26.333  1.00  0.00    -0.003 C 
ATOM     10  C   UNL     1      52.576  55.637  27.716  1.00  0.00     0.004 C 
ENDBRANCH   8   9
ENDBRANCH   7   8
ENDBRANCH   1   7
TORSDOF 6
ENDMDL
MODEL 2
REMARK VINA RESULT:     7.883     10.078     11.095
REMARK INTER + INTRA:          10.274
REMARK INTER:                  10.452
REMARK INTRA:                  -0.178
REMARK UNBOUND:                -0.374
REMARK SMILES CCCCCCCC(=O)[O-]
REMARK SMILES IDX 5 1 6 2 7 3 8 4 9 5 10 6 4 7 3 8 2 9 1 10
REMARK H PARENT
REMARK Flexibility Score: inf
ROOT
ATOM      1  C   UNL     1      57.180  47.737  18.226  1.00  0.00     0.000 C 
ENDROOT
BRANCH   1   2
ATOM      2  C   UNL     1      56.929  48.551  16.947  1.00  0.00     0.006 C 
BRANCH   2   3
ATOM      3  C   UNL     1      55.562  49.248  16.960  1.00  0.00     0.053 C 
BRANCH   3   4
ATOM      4  C   UNL     1      55.433  50.239  15.843  1.00  0.00     0.041 C 
ATOM      5  O   UNL     1      56.289  51.152  15.705  1.00  0.00    -0.550 OA
ATOM      6  O   UNL     1      54.386  50.134  14.937  1.00  0.00    -0.550 OA
ENDBRANCH   3   4
ENDBRANCH   2   3
ENDBRANCH   1   2
BRANCH   1   7
ATOM      7  C   UNL     1      56.116  48.039  19.288  1.00  0.00     0.000 C 
BRANCH   7   8
ATOM      8  C   UNL     1      56.269  47.108  20.500  1.00  0.00    -0.000 C 
BRANCH   8   9
ATOM      9  C   UNL     1      56.761  47.845  21.754  1.00  0.00    -0.003 C 
ATOM     10  C   UNL     1      56.827  46.940  22.985  1.00  0.00     0.004 C 
ENDBRANCH   8   9
ENDBRANCH   7   8
ENDBRANCH   1   7
TORSDOF 6
ENDMDL
MODEL 3
REMARK VINA RESULT:     8.031     10.214     11.215
REMARK INTER + INTRA:          10.474
REMARK INTER:                  10.689
REMARK INTRA:                  -0.215
REMARK UNBOUND:                -0.374
REMARK SMILES CCCCCCCC(=O)[O-]
REMARK SMILES IDX 5 1 6 2 7 3 8 4 9 5 10 6 4 7 3 8 2 9 1 10
REMARK H PARENT
REMARK Flexibility Score: inf
ROOT
ATOM      1  C   UNL     1      57.049  48.530  16.998  1.00  0.00     0.000 C 
ENDROOT
BRANCH   1   2
ATOM      2  C   UNL     1      57.178  47.727  18.302  1.00  0.00     0.006 C 
BRANCH   2   3
ATOM      3  C   UNL     1      56.100  48.104  19.326  1.00  0.00     0.053 C 
BRANCH   3   4
ATOM      4  C   UNL     1      56.191  47.263  20.563  1.00  0.00     0.041 C 
ATOM      5  O   UNL     1      55.802  46.066  20.544  1.00  0.00    -0.550 OA
ATOM      6  O   UNL     1      56.734  47.793  21.727  1.00  0.00    -0.550 OA
ENDBRANCH   3   4
ENDBRANCH   2   3
ENDBRANCH   1   2
BRANCH   1   7
ATOM      7  C   UNL     1      55.681  49.215  16.907  1.00  0.00     0.000 C 
BRANCH   7   8
ATOM      8  C   UNL     1      55.720  50.393  15.922  1.00  0.00    -0.000 C 
BRANCH   8   9
ATOM      9  C   UNL     1      54.557  50.364  14.920  1.00  0.00    -0.003 C 
ATOM     10  C   UNL     1      53.238  49.923  15.556  1.00  0.00     0.004 C 
ENDBRANCH   8   9
ENDBRANCH   7   8
ENDBRANCH   1   7
TORSDOF 6
ENDMDL
MODEL 4
REMARK VINA RESULT:     8.142      9.602     10.850
REMARK INTER + INTRA:          10.624
REMARK INTER:                  10.855
REMARK INTRA:                  -0.231
REMARK UNBOUND:                -0.374
REMARK SMILES CCCCCCCC(=O)[O-]
REMARK SMILES IDX 5 1 6 2 7 3 8 4 9 5 10 6 4 7 3 8 2 9 1 10
REMARK H PARENT
REMARK Flexibility Score: inf
ROOT
ATOM      1  C   UNL     1      57.243  47.726  18.283  1.00  0.00     0.000 C 
ENDROOT
BRANCH   1   2
ATOM      2  C   UNL     1      56.120  48.003  19.295  1.00  0.00     0.006 C 
BRANCH   2   3
ATOM      3  C   UNL     1      56.110  46.988  20.445  1.00  0.00     0.053 C 
BRANCH   3   4
ATOM      4  C   UNL     1      56.649  47.579  21.713  1.00  0.00     0.041 C 
ATOM      5  O   UNL     1      56.948  48.801  21.764  1.00  0.00    -0.550 OA
ATOM      6  O   UNL     1      56.790  46.788  22.845  1.00  0.00    -0.550 OA
ENDBRANCH   3   4
ENDBRANCH   2   3
ENDBRANCH   1   2
BRANCH   1   7
ATOM      7  C   UNL     1      57.006  48.492  16.976  1.00  0.00     0.000 C 
BRANCH   7   8
ATOM      8  C   UNL     1      55.643  49.201  16.994  1.00  0.00    -0.000 C 
BRANCH   8   9
ATOM      9  C   UNL     1      55.555  50.338  15.965  1.00  0.00    -0.003 C 
ATOM     10  C   UNL     1      54.370  50.180  15.010  1.00  0.00     0.004 C 
ENDBRANCH   8   9
ENDBRANCH   7   8
ENDBRANCH   1   7
TORSDOF 6
ENDMDL
MODEL 5
REMARK VINA RESULT:     8.585      2.924      4.722
REMARK INTER + INTRA:          11.222
REMARK INTER:                  11.387
REMARK INTRA:                  -0.166
REMARK UNBOUND:                -0.374
REMARK SMILES CCCCCCCC(=O)[O-]
REMARK SMILES IDX 5 1 6 2 7 3 8 4 9 5 10 6 4 7 3 8 2 9 1 10
REMARK H PARENT
REMARK Flexibility Score: inf
ROOT
ATOM      1  C   UNL     1      53.075  56.063  25.373  1.00  0.00     0.000 C 
ENDROOT
BRANCH   1   2
ATOM      2  C   UNL     1      53.517  55.594  26.768  1.00  0.00     0.006 C 
BRANCH   2   3
ATOM      3  C   UNL     1      52.330  55.172  27.643  1.00  0.00     0.053 C 
BRANCH   3   4
ATOM      4  C   UNL     1      52.427  53.735  28.056  1.00  0.00     0.041 C 
ATOM      5  O   UNL     1      51.509  53.209  28.737  1.00  0.00    -0.550 OA
ATOM      6  O   UNL     1      53.517  52.969  27.661  1.00  0.00    -0.550 OA
ENDBRANCH   3   4
ENDBRANCH   2   3
ENDBRANCH   1   2
BRANCH   1   7
ATOM      7  C   UNL     1      54.146  55.749  24.322  1.00  0.00     0.000 C 
BRANCH   7   8
ATOM      8  C   UNL     1      55.364  56.670  24.486  1.00  0.00    -0.000 C 
BRANCH   8   9
ATOM      9  C   UNL     1      56.551  55.967  25.162  1.00  0.00    -0.003 C 
ATOM     10  C   UNL     1      57.468  56.937  25.908  1.00  0.00     0.004 C 
ENDBRANCH   8   9
ENDBRANCH   7   8
ENDBRANCH   1   7
TORSDOF 6
ENDMDL
MODEL 6
REMARK VINA RESULT:     8.850      1.559      2.661
REMARK INTER + INTRA:          11.580
REMARK INTER:                  11.899
REMARK INTRA:                  -0.319
REMARK UNBOUND:                -0.374
REMARK SMILES CCCCCCCC(=O)[O-]
REMARK SMILES IDX 5 1 6 2 7 3 8 4 9 5 10 6 4 7 3 8 2 9 1 10
REMARK H PARENT
REMARK Flexibility Score: inf
ROOT
ATOM      1  C   UNL     1      54.685  56.794  23.626  1.00  0.00     0.000 C 
ENDROOT
BRANCH   1   2
ATOM      2  C   UNL     1      56.138  56.386  23.910  1.00  0.00     0.006 C 
BRANCH   2   3
ATOM      3  C   UNL     1      56.289  55.669  25.257  1.00  0.00     0.053 C 
BRANCH   3   4
ATOM      4  C   UNL     1      57.633  55.917  25.872  1.00  0.00     0.041 C 
ATOM      5  O   UNL     1      58.537  55.046  25.790  1.00  0.00    -0.550 OA
ATOM      6  O   UNL     1      57.895  57.125  26.506  1.00  0.00    -0.550 OA
ENDBRANCH   3   4
ENDBRANCH   2   3
ENDBRANCH   1   2
BRANCH   1   7
ATOM      7  C   UNL     1      53.712  56.022  24.525  1.00  0.00     0.000 C 
BRANCH   7   8
ATOM      8  C   UNL     1      52.732  55.188  23.686  1.00  0.00    -0.000 C 
BRANCH   8   9
ATOM      9  C   UNL     1      53.413  54.496  22.496  1.00  0.00    -0.003 C 
ATOM     10  C   UNL     1      53.067  53.009  22.399  1.00  0.00     0.004 C 
ENDBRANCH   8   9
ENDBRANCH   7   8
ENDBRANCH   1   7
TORSDOF 6
ENDMDL
