MODEL 1
REMARK VINA RESULT:    -4.065      0.000      0.000
REMARK INTER + INTRA:          -4.770
REMARK INTER:                  -4.659
REMARK INTRA:                  -0.112
REMARK UNBOUND:                -0.112
REMARK SMILES COc1ccc(C(C)=O)cc1O
REMARK SMILES IDX 6 1 10 2 11 3 3 4 4 5 5 6 7 7 8 8 9 9 12 10 2 12 1 13
REMARK H PARENT 12 11
REMARK Flexibility Score: inf
ROOT
ATOM      1  C   UNL     1      42.076 -40.800  -5.062  1.00  0.00     0.021 A 
ATOM      2  C   UNL     1      42.072 -39.565  -4.388  1.00  0.00     0.062 A 
ATOM      3  C   UNL     1      40.904 -38.802  -4.293  1.00  0.00     0.158 A 
ATOM      4  C   UNL     1      39.710 -39.261  -4.875  1.00  0.00     0.160 A 
ATOM      5  C   UNL     1      39.709 -40.496  -5.550  1.00  0.00     0.051 A 
ATOM      6  C   UNL     1      40.879 -41.255  -5.642  1.00  0.00     0.016 A 
ENDROOT
BRANCH   1   7
ATOM      7  C   UNL     1      43.331 -41.596  -5.151  1.00  0.00     0.159 C 
ATOM      8  C   UNL     1      43.690 -42.376  -6.380  1.00  0.00     0.093 C 
ATOM      9  O   UNL     1      44.125 -41.625  -4.171  1.00  0.00    -0.295 OA
ENDBRANCH   1   7
BRANCH   3  10
ATOM     10  O   UNL     1      40.950 -37.584  -3.614  1.00  0.00    -0.504 OA
ATOM     11  H   UNL     1      41.408 -36.767  -3.999  1.00  0.00     0.293 HD
ENDBRANCH   3  10
BRANCH   4  12
ATOM     12  O   UNL     1      38.552 -38.474  -4.764  1.00  0.00    -0.493 OA
ATOM     13  C   UNL     1      37.233 -38.937  -5.031  1.00  0.00     0.278 C 
ENDBRANCH   4  12
TORSDOF 3
ENDMDL
MODEL 2
REMARK VINA RESULT:    -4.030      1.014      4.599
REMARK INTER + INTRA:          -4.731
REMARK INTER:                  -4.612
REMARK INTRA:                  -0.119
REMARK UNBOUND:                -0.112
REMARK SMILES COc1ccc(C(C)=O)cc1O
REMARK SMILES IDX 6 1 10 2 11 3 3 4 4 5 5 6 7 7 8 8 9 9 12 10 2 12 1 13
REMARK H PARENT 12 11
REMARK Flexibility Score: inf
ROOT
ATOM      1  C   UNL     1      39.917 -39.560  -4.881  1.00  0.00     0.021 A 
ATOM      2  C   UNL     1      41.040 -38.996  -4.248  1.00  0.00     0.062 A 
ATOM      3  C   UNL     1      42.289 -39.625  -4.306  1.00  0.00     0.158 A 
ATOM      4  C   UNL     1      42.439 -40.837  -5.002  1.00  0.00     0.160 A 
ATOM      5  C   UNL     1      41.317 -41.405  -5.636  1.00  0.00     0.051 A 
ATOM      6  C   UNL     1      40.073 -40.772  -5.575  1.00  0.00     0.016 A 
ENDROOT
BRANCH   1   7
ATOM      7  C   UNL     1      38.598 -38.874  -4.806  1.00  0.00     0.159 C 
ATOM      8  C   UNL     1      37.380 -39.421  -5.489  1.00  0.00     0.093 C 
ATOM      9  O   UNL     1      38.486 -37.800  -4.154  1.00  0.00    -0.295 OA
ENDBRANCH   1   7
BRANCH   3  10
ATOM     10  O   UNL     1      43.372 -39.027  -3.664  1.00  0.00    -0.504 OA
ATOM     11  H   UNL     1      43.471 -38.021  -3.590  1.00  0.00     0.293 HD
ENDBRANCH   3  10
BRANCH   4  12
ATOM     12  O   UNL     1      43.703 -41.445  -5.043  1.00  0.00    -0.493 OA
ATOM     13  C   UNL     1      44.125 -42.363  -6.047  1.00  0.00     0.278 C 
ENDBRANCH   4  12
TORSDOF 3
ENDMDL
MODEL 3
REMARK VINA RESULT:    -3.921      2.859      4.220
REMARK INTER + INTRA:          -4.606
REMARK INTER:                  -4.506
REMARK INTRA:                  -0.100
REMARK UNBOUND:                -0.112
REMARK SMILES COc1ccc(C(C)=O)cc1O
REMARK SMILES IDX 6 1 10 2 11 3 3 4 4 5 5 6 7 7 8 8 9 9 12 10 2 12 1 13
REMARK H PARENT 12 11
REMARK Flexibility Score: inf
ROOT
ATOM      1  C   UNL     1      42.676 -40.061  -3.994  1.00  0.00     0.021 A 
ATOM      2  C   UNL     1      42.782 -40.515  -2.666  1.00  0.00     0.062 A 
ATOM      3  C   UNL     1      42.897 -39.612  -1.605  1.00  0.00     0.158 A 
ATOM      4  C   UNL     1      42.909 -38.228  -1.851  1.00  0.00     0.160 A 
ATOM      5  C   UNL     1      42.803 -37.769  -3.178  1.00  0.00     0.051 A 
ATOM      6  C   UNL     1      42.689 -38.676  -4.235  1.00  0.00     0.016 A 
ENDROOT
BRANCH   1   7
ATOM      7  C   UNL     1      42.555 -41.040  -5.109  1.00  0.00     0.159 C 
ATOM      8  C   UNL     1      43.740 -41.790  -5.638  1.00  0.00     0.093 C 
ATOM      9  O   UNL     1      41.428 -41.255  -5.633  1.00  0.00    -0.295 OA
ENDBRANCH   1   7
BRANCH   3  10
ATOM     10  O   UNL     1      42.999 -40.110  -0.306  1.00  0.00    -0.504 OA
ATOM     11  H   UNL     1      42.775 -39.550   0.508  1.00  0.00     0.293 HD
ENDBRANCH   3  10
BRANCH   4  12
ATOM     12  O   UNL     1      43.026 -37.345  -0.766  1.00  0.00    -0.493 OA
ATOM     13  C   UNL     1      43.897 -36.220  -0.731  1.00  0.00     0.278 C 
ENDBRANCH   4  12
TORSDOF 3
ENDMDL
MODEL 4
REMARK VINA RESULT:    -3.902      1.851      2.056
REMARK INTER + INTRA:          -4.584
REMARK INTER:                  -4.464
REMARK INTRA:                  -0.120
REMARK UNBOUND:                -0.112
REMARK SMILES COc1ccc(C(C)=O)cc1O
REMARK SMILES IDX 6 1 10 2 11 3 3 4 4 5 5 6 7 7 8 8 9 9 12 10 2 12 1 13
REMARK H PARENT 12 11
REMARK Flexibility Score: inf
ROOT
ATOM      1  C   UNL     1      41.149 -40.657  -4.366  1.00  0.00     0.021 A 
ATOM      2  C   UNL     1      40.518 -40.588  -3.110  1.00  0.00     0.062 A 
ATOM      3  C   UNL     1      39.129 -40.466  -3.009  1.00  0.00     0.158 A 
ATOM      4  C   UNL     1      38.337 -40.410  -4.169  1.00  0.00     0.160 A 
ATOM      5  C   UNL     1      38.964 -40.479  -5.428  1.00  0.00     0.051 A 
ATOM      6  C   UNL     1      40.352 -40.600  -5.523  1.00  0.00     0.016 A 
ENDROOT
BRANCH   1   7
ATOM      7  C   UNL     1      42.629 -40.787  -4.450  1.00  0.00     0.159 C 
ATOM      8  C   UNL     1      43.297 -41.549  -5.555  1.00  0.00     0.093 C 
ATOM      9  O   UNL     1      43.356 -40.245  -3.573  1.00  0.00    -0.295 OA
ENDBRANCH   1   7
BRANCH   3  10
ATOM     10  O   UNL     1      38.550 -40.402  -1.741  1.00  0.00    -0.504 OA
ATOM     11  H   UNL     1      38.140 -41.212  -1.292  1.00  0.00     0.293 HD
ENDBRANCH   3  10
BRANCH   4  12
ATOM     12  O   UNL     1      36.945 -40.288  -4.037  1.00  0.00    -0.493 OA
ATOM     13  C   UNL     1      36.245 -39.049  -3.975  1.00  0.00     0.278 C 
ENDBRANCH   4  12
TORSDOF 3
ENDMDL
MODEL 5
REMARK VINA RESULT:    -3.839      2.771      3.957
REMARK INTER + INTRA:          -4.512
REMARK INTER:                  -4.414
REMARK INTRA:                  -0.098
REMARK UNBOUND:                -0.112
REMARK SMILES COc1ccc(C(C)=O)cc1O
REMARK SMILES IDX 6 1 10 2 11 3 3 4 4 5 5 6 7 7 8 8 9 9 12 10 2 12 1 13
REMARK H PARENT 12 11
REMARK Flexibility Score: inf
ROOT
ATOM      1  C   UNL     1      42.736 -40.151  -4.004  1.00  0.00     0.021 A 
ATOM      2  C   UNL     1      42.788 -38.771  -4.273  1.00  0.00     0.062 A 
ATOM      3  C   UNL     1      42.898 -37.840  -3.235  1.00  0.00     0.158 A 
ATOM      4  C   UNL     1      42.958 -38.272  -1.900  1.00  0.00     0.160 A 
ATOM      5  C   UNL     1      42.906 -39.652  -1.625  1.00  0.00     0.051 A 
ATOM      6  C   UNL     1      42.796 -40.579  -2.666  1.00  0.00     0.016 A 
ENDROOT
BRANCH   1   7
ATOM      7  C   UNL     1      42.619 -41.125  -5.123  1.00  0.00     0.159 C 
ATOM      8  C   UNL     1      43.793 -41.920  -5.609  1.00  0.00     0.093 C 
ATOM      9  O   UNL     1      41.505 -41.297  -5.689  1.00  0.00    -0.295 OA
ENDBRANCH   1   7
BRANCH   3  10
ATOM     10  O   UNL     1      42.947 -36.483  -3.553  1.00  0.00    -0.504 OA
ATOM     11  H   UNL     1      42.120 -35.897  -3.556  1.00  0.00     0.293 HD
ENDBRANCH   3  10
BRANCH   4  12
ATOM     12  O   UNL     1      43.068 -37.315  -0.879  1.00  0.00    -0.493 OA
ATOM     13  C   UNL     1      43.033 -37.612   0.513  1.00  0.00     0.278 C 
ENDBRANCH   4  12
TORSDOF 3
ENDMDL
MODEL 6
REMARK VINA RESULT:    -3.813     17.711     18.684
REMARK INTER + INTRA:          -4.481
REMARK INTER:                  -4.382
REMARK INTRA:                  -0.100
REMARK UNBOUND:                -0.112
REMARK SMILES COc1ccc(C(C)=O)cc1O
REMARK SMILES IDX 6 1 10 2 11 3 3 4 4 5 5 6 7 7 8 8 9 9 12 10 2 12 1 13
REMARK H PARENT 12 11
REMARK Flexibility Score: inf
ROOT
ATOM      1  C   UNL     1      27.062 -31.141   2.947  1.00  0.00     0.021 A 
ATOM      2  C   UNL     1      28.182 -30.343   2.649  1.00  0.00     0.062 A 
ATOM      3  C   UNL     1      29.089 -29.976   3.649  1.00  0.00     0.158 A 
ATOM      4  C   UNL     1      28.892 -30.400   4.974  1.00  0.00     0.160 A 
ATOM      5  C   UNL     1      27.773 -31.198   5.277  1.00  0.00     0.051 A 
ATOM      6  C   UNL     1      26.870 -31.563   4.274  1.00  0.00     0.016 A 
ENDROOT
BRANCH   1   7
ATOM      7  C   UNL     1      26.109 -31.521   1.868  1.00  0.00     0.159 C 
ATOM      8  C   UNL     1      26.183 -32.849   1.176  1.00  0.00     0.093 C 
ATOM      9  O   UNL     1      25.209 -30.711   1.515  1.00  0.00    -0.295 OA
ENDBRANCH   1   7
BRANCH   3  10
ATOM     10  O   UNL     1      30.185 -29.185   3.304  1.00  0.00    -0.504 OA
ATOM     11  H   UNL     1      30.995 -29.561   2.826  1.00  0.00     0.293 HD
ENDBRANCH   3  10
BRANCH   4  12
ATOM     12  O   UNL     1      29.819 -30.017   5.956  1.00  0.00    -0.493 OA
ATOM     13  C   UNL     1      30.163 -30.802   7.092  1.00  0.00     0.278 C 
ENDBRANCH   4  12
TORSDOF 3
ENDMDL
MODEL 7
REMARK VINA RESULT:    -3.803      2.169      4.695
REMARK INTER + INTRA:          -4.470
REMARK INTER:                  -4.355
REMARK INTRA:                  -0.115
REMARK UNBOUND:                -0.112
REMARK SMILES COc1ccc(C(C)=O)cc1O
REMARK SMILES IDX 6 1 10 2 11 3 3 4 4 5 5 6 7 7 8 8 9 9 12 10 2 12 1 13
REMARK H PARENT 12 11
REMARK Flexibility Score: inf
ROOT
ATOM      1  C   UNL     1      39.838 -40.367  -4.350  1.00  0.00     0.021 A 
ATOM      2  C   UNL     1      41.130 -40.383  -4.906  1.00  0.00     0.062 A 
ATOM      3  C   UNL     1      42.264 -40.425  -4.088  1.00  0.00     0.158 A 
ATOM      4  C   UNL     1      42.127 -40.451  -2.690  1.00  0.00     0.160 A 
ATOM      5  C   UNL     1      40.836 -40.435  -2.129  1.00  0.00     0.051 A 
ATOM      6  C   UNL     1      39.707 -40.393  -2.950  1.00  0.00     0.016 A 
ENDROOT
BRANCH   1   7
ATOM      7  C   UNL     1      38.644 -40.321  -5.238  1.00  0.00     0.159 C 
ATOM      8  C   UNL     1      37.337 -40.941  -4.843  1.00  0.00     0.093 C 
ATOM      9  O   UNL     1      38.720 -39.748  -6.360  1.00  0.00    -0.295 OA
ENDBRANCH   1   7
BRANCH   3  10
ATOM     10  O   UNL     1      43.524 -40.440  -4.687  1.00  0.00    -0.504 OA
ATOM     11  H   UNL     1      44.342 -40.048  -4.236  1.00  0.00     0.293 HD
ENDBRANCH   3  10
BRANCH   4  12
ATOM     12  O   UNL     1      43.283 -40.494  -1.894  1.00  0.00    -0.493 OA
ATOM     13  C   UNL     1      43.337 -41.034  -0.578  1.00  0.00     0.278 C 
ENDBRANCH   4  12
TORSDOF 3
ENDMDL
MODEL 8
REMARK VINA RESULT:    -3.751      1.643      2.652
REMARK INTER + INTRA:          -4.411
REMARK INTER:                  -4.317
REMARK INTRA:                  -0.095
REMARK UNBOUND:                -0.112
REMARK SMILES COc1ccc(C(C)=O)cc1O
REMARK SMILES IDX 6 1 10 2 11 3 3 4 4 5 5 6 7 7 8 8 9 9 12 10 2 12 1 13
REMARK H PARENT 12 11
REMARK Flexibility Score: inf
ROOT
ATOM      1  C   UNL     1      40.651 -40.193  -4.587  1.00  0.00     0.021 A 
ATOM      2  C   UNL     1      39.578 -41.101  -4.517  1.00  0.00     0.062 A 
ATOM      3  C   UNL     1      38.254 -40.657  -4.592  1.00  0.00     0.158 A 
ATOM      4  C   UNL     1      37.974 -39.288  -4.738  1.00  0.00     0.160 A 
ATOM      5  C   UNL     1      39.044 -38.375  -4.808  1.00  0.00     0.051 A 
ATOM      6  C   UNL     1      40.365 -38.824  -4.733  1.00  0.00     0.016 A 
ENDROOT
BRANCH   1   7
ATOM      7  C   UNL     1      42.052 -40.688  -4.505  1.00  0.00     0.159 C 
ATOM      8  C   UNL     1      42.664 -41.522  -5.591  1.00  0.00     0.093 C 
ATOM      9  O   UNL     1      42.758 -40.405  -3.498  1.00  0.00    -0.295 OA
ENDBRANCH   1   7
BRANCH   3  10
ATOM     10  O   UNL     1      37.225 -41.596  -4.518  1.00  0.00    -0.504 OA
ATOM     11  H   UNL     1      37.395 -42.569  -4.296  1.00  0.00     0.293 HD
ENDBRANCH   3  10
BRANCH   4  12
ATOM     12  O   UNL     1      36.636 -38.870  -4.811  1.00  0.00    -0.493 OA
ATOM     13  C   UNL     1      36.154 -37.618  -4.335  1.00  0.00     0.278 C 
ENDBRANCH   4  12
TORSDOF 3
ENDMDL
MODEL 9
REMARK VINA RESULT:    -3.564      2.793      3.596
REMARK INTER + INTRA:          -4.196
REMARK INTER:                  -4.098
REMARK INTRA:                  -0.098
REMARK UNBOUND:                -0.112
REMARK SMILES COc1ccc(C(C)=O)cc1O
REMARK SMILES IDX 6 1 10 2 11 3 3 4 4 5 5 6 7 7 8 8 9 9 12 10 2 12 1 13
REMARK H PARENT 12 11
REMARK Flexibility Score: inf
ROOT
ATOM      1  C   UNL     1      42.058 -40.240  -2.086  1.00  0.00     0.021 A 
ATOM      2  C   UNL     1      40.678 -40.503  -2.012  1.00  0.00     0.062 A 
ATOM      3  C   UNL     1      39.912 -40.655  -3.173  1.00  0.00     0.158 A 
ATOM      4  C   UNL     1      40.515 -40.545  -4.437  1.00  0.00     0.160 A 
ATOM      5  C   UNL     1      41.895 -40.281  -4.516  1.00  0.00     0.051 A 
ATOM      6  C   UNL     1      42.656 -40.131  -3.353  1.00  0.00     0.016 A 
ENDROOT
BRANCH   1   7
ATOM      7  C   UNL     1      42.854 -40.082  -0.838  1.00  0.00     0.159 C 
ATOM      8  C   UNL     1      43.498 -41.252  -0.155  1.00  0.00     0.093 C 
ATOM      9  O   UNL     1      42.999 -38.937  -0.329  1.00  0.00    -0.295 OA
ENDBRANCH   1   7
BRANCH   3  10
ATOM     10  O   UNL     1      38.547 -40.916  -3.048  1.00  0.00    -0.504 OA
ATOM     11  H   UNL     1      37.863 -40.177  -2.932  1.00  0.00     0.293 HD
ENDBRANCH   3  10
BRANCH   4  12
ATOM     12  O   UNL     1      39.722 -40.702  -5.585  1.00  0.00    -0.493 OA
ATOM     13  C   UNL     1      39.024 -39.645  -6.235  1.00  0.00     0.278 C 
ENDBRANCH   4  12
TORSDOF 3
ENDMDL
