MODEL 1
REMARK VINA RESULT:    -3.355      0.000      0.000
REMARK INTER + INTRA:          -3.786
REMARK INTER:                  -3.747
REMARK INTRA:                  -0.039
REMARK UNBOUND:                -0.039
REMARK SMILES CCCC(=O)[O-]
REMARK SMILES IDX 3 1 4 2 5 3 6 4 2 5 1 6
REMARK H PARENT
REMARK Flexibility Score: inf
ROOT
ATOM      1  C   UNL     1      49.452 153.799 -15.918  1.00  0.00     0.052 C 
ENDROOT
BRANCH   1   2
ATOM      2  C   UNL     1      49.457 154.147 -17.373  1.00  0.00     0.041 C 
ATOM      3  O   UNL     1      49.247 153.258 -18.239  1.00  0.00    -0.550 OA
ATOM      4  O   UNL     1      49.646 155.464 -17.772  1.00  0.00    -0.550 OA
ENDBRANCH   1   2
BRANCH   1   5
ATOM      5  C   UNL     1      49.590 152.285 -15.730  1.00  0.00     0.003 C 
ATOM      6  C   UNL     1      51.026 151.903 -15.381  1.00  0.00     0.004 C 
ENDBRANCH   1   5
TORSDOF 2
ENDMDL
MODEL 2
REMARK VINA RESULT:    -3.175     20.930     21.339
REMARK INTER + INTRA:          -3.586
REMARK INTER:                  -3.527
REMARK INTRA:                  -0.059
REMARK UNBOUND:                -0.039
REMARK SMILES CCCC(=O)[O-]
REMARK SMILES IDX 3 1 4 2 5 3 6 4 2 5 1 6
REMARK H PARENT
REMARK Flexibility Score: inf
ROOT
ATOM      1  C   UNL     1      59.211 145.975 -33.941  1.00  0.00     0.052 C 
ENDROOT
BRANCH   1   2
ATOM      2  C   UNL     1      59.921 147.231 -33.541  1.00  0.00     0.041 C 
ATOM      3  O   UNL     1      60.341 147.374 -32.363  1.00  0.00    -0.550 OA
ATOM      4  O   UNL     1      60.162 148.222 -34.483  1.00  0.00    -0.550 OA
ENDBRANCH   1   2
BRANCH   1   5
ATOM      5  C   UNL     1      60.136 144.765 -33.787  1.00  0.00     0.003 C 
ATOM      6  C   UNL     1      61.035 144.601 -35.010  1.00  0.00     0.004 C 
ENDBRANCH   1   5
TORSDOF 2
ENDMDL
MODEL 3
REMARK VINA RESULT:    -3.154     21.486     21.899
REMARK INTER + INTRA:          -3.562
REMARK INTER:                  -3.514
REMARK INTRA:                  -0.049
REMARK UNBOUND:                -0.039
REMARK SMILES CCCC(=O)[O-]
REMARK SMILES IDX 3 1 4 2 5 3 6 4 2 5 1 6
REMARK H PARENT
REMARK Flexibility Score: inf
ROOT
ATOM      1  C   UNL     1      59.685 145.400 -34.017  1.00  0.00     0.052 C 
ENDROOT
BRANCH   1   2
ATOM      2  C   UNL     1      61.112 145.009 -34.241  1.00  0.00     0.041 C 
ATOM      3  O   UNL     1      61.405 144.162 -35.124  1.00  0.00    -0.550 OA
ATOM      4  O   UNL     1      62.122 145.617 -33.507  1.00  0.00    -0.550 OA
ENDBRANCH   1   2
BRANCH   1   5
ATOM      5  C   UNL     1      59.262 145.080 -32.580  1.00  0.00     0.003 C 
ATOM      6  C   UNL     1      59.543 143.619 -32.236  1.00  0.00     0.004 C 
ENDBRANCH   1   5
TORSDOF 2
ENDMDL
MODEL 4
REMARK VINA RESULT:    -3.149      5.041      5.930
REMARK INTER + INTRA:          -3.557
REMARK INTER:                  -3.548
REMARK INTRA:                  -0.009
REMARK UNBOUND:                -0.039
REMARK SMILES CCCC(=O)[O-]
REMARK SMILES IDX 3 1 4 2 5 3 6 4 2 5 1 6
REMARK H PARENT
REMARK Flexibility Score: inf
ROOT
ATOM      1  C   UNL     1      50.605 153.002 -21.997  1.00  0.00     0.052 C 
ENDROOT
BRANCH   1   2
ATOM      2  C   UNL     1      50.128 152.580 -23.351  1.00  0.00     0.041 C 
ATOM      3  O   UNL     1      50.837 151.825 -24.066  1.00  0.00    -0.550 OA
ATOM      4  O   UNL     1      48.878 152.981 -23.804  1.00  0.00    -0.550 OA
ENDBRANCH   1   2
BRANCH   1   5
ATOM      5  C   UNL     1      49.419 153.182 -21.045  1.00  0.00     0.003 C 
ATOM      6  C   UNL     1      49.886 153.637 -19.665  1.00  0.00     0.004 C 
ENDBRANCH   1   5
TORSDOF 2
ENDMDL
MODEL 5
REMARK VINA RESULT:    -3.145     21.652     22.187
REMARK INTER + INTRA:          -3.552
REMARK INTER:                  -3.516
REMARK INTRA:                  -0.036
REMARK UNBOUND:                -0.039
REMARK SMILES CCCC(=O)[O-]
REMARK SMILES IDX 3 1 4 2 5 3 6 4 2 5 1 6
REMARK H PARENT
REMARK Flexibility Score: inf
ROOT
ATOM      1  C   UNL     1      60.047 145.777 -34.753  1.00  0.00     0.052 C 
ENDROOT
BRANCH   1   2
ATOM      2  C   UNL     1      60.559 144.414 -34.410  1.00  0.00     0.041 C 
ATOM      3  O   UNL     1      61.464 143.883 -35.105  1.00  0.00    -0.550 OA
ATOM      4  O   UNL     1      60.072 143.749 -33.292  1.00  0.00    -0.550 OA
ENDBRANCH   1   2
BRANCH   1   5
ATOM      5  C   UNL     1      60.910 146.855 -34.091  1.00  0.00     0.003 C 
ATOM      6  C   UNL     1      60.178 147.501 -32.917  1.00  0.00     0.004 C 
ENDBRANCH   1   5
TORSDOF 2
ENDMDL
MODEL 6
REMARK VINA RESULT:    -3.124     15.752     16.313
REMARK INTER + INTRA:          -3.529
REMARK INTER:                  -3.519
REMARK INTRA:                  -0.010
REMARK UNBOUND:                -0.039
REMARK SMILES CCCC(=O)[O-]
REMARK SMILES IDX 3 1 4 2 5 3 6 4 2 5 1 6
REMARK H PARENT
REMARK Flexibility Score: inf
ROOT
ATOM      1  C   UNL     1      56.267 144.271 -28.152  1.00  0.00     0.052 C 
ENDROOT
BRANCH   1   2
ATOM      2  C   UNL     1      54.914 144.029 -27.561  1.00  0.00     0.041 C 
ATOM      3  O   UNL     1      54.341 142.920 -27.722  1.00  0.00    -0.550 OA
ATOM      4  O   UNL     1      54.306 145.013 -26.791  1.00  0.00    -0.550 OA
ENDBRANCH   1   2
BRANCH   1   5
ATOM      5  C   UNL     1      56.320 143.760 -29.595  1.00  0.00     0.003 C 
ATOM      6  C   UNL     1      57.740 143.825 -30.150  1.00  0.00     0.004 C 
ENDBRANCH   1   5
TORSDOF 2
ENDMDL
MODEL 7
REMARK VINA RESULT:    -3.045     20.743     21.326
REMARK INTER + INTRA:          -3.440
REMARK INTER:                  -3.409
REMARK INTRA:                  -0.031
REMARK UNBOUND:                -0.039
REMARK SMILES CCCC(=O)[O-]
REMARK SMILES IDX 3 1 4 2 5 3 6 4 2 5 1 6
REMARK H PARENT
REMARK Flexibility Score: inf
ROOT
ATOM      1  C   UNL     1      60.050 146.920 -33.105  1.00  0.00     0.052 C 
ENDROOT
BRANCH   1   2
ATOM      2  C   UNL     1      59.641 145.493 -33.294  1.00  0.00     0.041 C 
ATOM      3  O   UNL     1      59.008 144.891 -32.389  1.00  0.00    -0.550 OA
ATOM      4  O   UNL     1      59.917 144.844 -34.490  1.00  0.00    -0.550 OA
ENDBRANCH   1   2
BRANCH   1   5
ATOM      5  C   UNL     1      61.008 147.354 -34.219  1.00  0.00     0.003 C 
ATOM      6  C   UNL     1      60.517 148.627 -34.902  1.00  0.00     0.004 C 
ENDBRANCH   1   5
TORSDOF 2
ENDMDL
MODEL 8
REMARK VINA RESULT:    -3.041     20.385     20.806
REMARK INTER + INTRA:          -3.436
REMARK INTER:                  -3.413
REMARK INTRA:                  -0.023
REMARK UNBOUND:                -0.039
REMARK SMILES CCCC(=O)[O-]
REMARK SMILES IDX 3 1 4 2 5 3 6 4 2 5 1 6
REMARK H PARENT
REMARK Flexibility Score: inf
ROOT
ATOM      1  C   UNL     1      59.268 145.684 -33.647  1.00  0.00     0.052 C 
ENDROOT
BRANCH   1   2
ATOM      2  C   UNL     1      60.261 146.793 -33.487  1.00  0.00     0.041 C 
ATOM      3  O   UNL     1      59.965 147.817 -32.819  1.00  0.00    -0.550 OA
ATOM      4  O   UNL     1      61.532 146.671 -34.034  1.00  0.00    -0.550 OA
ENDBRANCH   1   2
BRANCH   1   5
ATOM      5  C   UNL     1      59.752 144.424 -32.924  1.00  0.00     0.003 C 
ATOM      6  C   UNL     1      58.862 144.101 -31.727  1.00  0.00     0.004 C 
ENDBRANCH   1   5
TORSDOF 2
ENDMDL
MODEL 9
REMARK VINA RESULT:    -3.031     15.214     15.610
REMARK INTER + INTRA:          -3.425
REMARK INTER:                  -3.390
REMARK INTRA:                  -0.035
REMARK UNBOUND:                -0.039
REMARK SMILES CCCC(=O)[O-]
REMARK SMILES IDX 3 1 4 2 5 3 6 4 2 5 1 6
REMARK H PARENT
REMARK Flexibility Score: inf
ROOT
ATOM      1  C   UNL     1      61.822 154.578 -27.475  1.00  0.00     0.052 C 
ENDROOT
BRANCH   1   2
ATOM      2  C   UNL     1      60.828 154.423 -26.367  1.00  0.00     0.041 C 
ATOM      3  O   UNL     1      61.121 153.753 -25.342  1.00  0.00    -0.550 OA
ATOM      4  O   UNL     1      59.596 155.058 -26.445  1.00  0.00    -0.550 OA
ENDBRANCH   1   2
BRANCH   1   5
ATOM      5  C   UNL     1      62.627 153.288 -27.656  1.00  0.00     0.003 C 
ATOM      6  C   UNL     1      61.806 152.225 -28.381  1.00  0.00     0.004 C 
ENDBRANCH   1   5
TORSDOF 2
ENDMDL
