MODEL 1
REMARK VINA RESULT:    -4.721      0.000      0.000
REMARK INTER + INTRA:         -15.864
REMARK INTER:                 -11.896
REMARK INTRA:                  -3.968
REMARK UNBOUND:                -3.968
REMARK SMILES CCCCCCCCCCCCCCCCCCCCCCCCCCCC(=O)[O-]
REMARK SMILES IDX 15 1 16 2 17 3 18 4 19 5 20 6 21 7 22 8 23 9 24 10 25 11
REMARK SMILES IDX 26 12 27 13 28 14 29 15 30 16 14 17 13 18 12 19 11 20 10 21
REMARK SMILES IDX 9 22 8 23 7 24 6 25 5 26 4 27 3 28 2 29 1 30
REMARK H PARENT
REMARK Flexibility Score: inf
ROOT
ATOM      1  C   UNL     1      17.875  69.883  35.388  1.00  0.00     0.000 C 
ENDROOT
BRANCH   1   2
ATOM      2  C   UNL     1      17.805  68.348  35.480  1.00  0.00     0.000 C 
BRANCH   2   3
ATOM      3  C   UNL     1      16.551  67.848  36.218  1.00  0.00     0.000 C 
BRANCH   3   4
ATOM      4  C   UNL     1      16.475  66.320  36.396  1.00  0.00     0.000 C 
BRANCH   4   5
ATOM      5  C   UNL     1      17.192  65.552  35.273  1.00  0.00     0.000 C 
BRANCH   5   6
ATOM      6  C   UNL     1      17.666  64.158  35.713  1.00  0.00     0.000 C 
BRANCH   6   7
ATOM      7  C   UNL     1      18.388  64.186  37.072  1.00  0.00     0.000 C 
BRANCH   7   8
ATOM      8  C   UNL     1      19.842  64.675  36.962  1.00  0.00     0.000 C 
BRANCH   8   9
ATOM      9  C   UNL     1      20.059  66.046  37.629  1.00  0.00     0.000 C 
BRANCH   9  10
ATOM     10  C   UNL     1      20.469  65.932  39.108  1.00  0.00     0.000 C 
BRANCH  10  11
ATOM     11  C   UNL     1      19.530  66.648  40.094  1.00  0.00     0.000 C 
BRANCH  11  12
ATOM     12  C   UNL     1      18.091  66.770  39.570  1.00  0.00     0.006 C 
BRANCH  12  13
ATOM     13  C   UNL     1      17.612  68.226  39.620  1.00  0.00     0.053 C 
BRANCH  13  14
ATOM     14  C   UNL     1      18.769  69.177  39.601  1.00  0.00     0.041 C 
ATOM     15  O   UNL     1      19.334  69.465  38.511  1.00  0.00    -0.550 OA
ATOM     16  O   UNL     1      19.263  69.703  40.789  1.00  0.00    -0.550 OA
ENDBRANCH  13  14
ENDBRANCH  12  13
ENDBRANCH  11  12
ENDBRANCH  10  11
ENDBRANCH   9  10
ENDBRANCH   8   9
ENDBRANCH   7   8
ENDBRANCH   6   7
ENDBRANCH   5   6
ENDBRANCH   4   5
ENDBRANCH   3   4
ENDBRANCH   2   3
ENDBRANCH   1   2
BRANCH   1  17
ATOM     17  C   UNL     1      17.186  70.426  34.119  1.00  0.00     0.000 C 
BRANCH  17  18
ATOM     18  C   UNL     1      16.983  69.373  33.012  1.00  0.00     0.000 C 
BRANCH  18  19
ATOM     19  C   UNL     1      15.773  69.645  32.094  1.00  0.00     0.000 C 
BRANCH  19  20
ATOM     20  C   UNL     1      14.790  68.461  32.056  1.00  0.00     0.000 C 
BRANCH  20  21
ATOM     21  C   UNL     1      15.293  67.252  32.861  1.00  0.00     0.000 C 
BRANCH  21  22
ATOM     22  C   UNL     1      14.972  65.914  32.172  1.00  0.00    -0.000 C 
BRANCH  22  23
ATOM     23  C   UNL     1      14.140  64.976  33.062  1.00  0.00    -0.000 C 
BRANCH  23  24
ATOM     24  C   UNL     1      14.814  63.615  33.288  1.00  0.00    -0.000 C 
BRANCH  24  25
ATOM     25  C   UNL     1      15.693  63.230  32.091  1.00  0.00    -0.000 C 
BRANCH  25  26
ATOM     26  C   UNL     1      14.922  62.336  31.107  1.00  0.00    -0.000 C 
BRANCH  26  27
ATOM     27  C   UNL     1      14.167  61.196  31.807  1.00  0.00    -0.000 C 
BRANCH  27  28
ATOM     28  C   UNL     1      12.654  61.235  31.547  1.00  0.00    -0.000 C 
BRANCH  28  29
ATOM     29  C   UNL     1      11.884  61.568  32.831  1.00  0.00    -0.003 C 
ATOM     30  C   UNL     1      11.085  62.858  32.677  1.00  0.00     0.004 C 
ENDBRANCH  28  29
ENDBRANCH  27  28
ENDBRANCH  26  27
ENDBRANCH  25  26
ENDBRANCH  24  25
ENDBRANCH  23  24
ENDBRANCH  22  23
ENDBRANCH  21  22
ENDBRANCH  20  21
ENDBRANCH  19  20
ENDBRANCH  18  19
ENDBRANCH  17  18
ENDBRANCH   1  17
TORSDOF 26
ENDMDL
MODEL 2
REMARK VINA RESULT:    -4.716      4.902     10.021
REMARK INTER + INTRA:         -15.853
REMARK INTER:                 -13.034
REMARK INTRA:                  -2.819
REMARK UNBOUND:                -3.968
REMARK SMILES CCCCCCCCCCCCCCCCCCCCCCCCCCCC(=O)[O-]
REMARK SMILES IDX 15 1 16 2 17 3 18 4 19 5 20 6 21 7 22 8 23 9 24 10 25 11
REMARK SMILES IDX 26 12 27 13 28 14 29 15 30 16 14 17 13 18 12 19 11 20 10 21
REMARK SMILES IDX 9 22 8 23 7 24 6 25 5 26 4 27 3 28 2 29 1 30
REMARK H PARENT
REMARK Flexibility Score: inf
ROOT
ATOM      1  C   UNL     1      15.989  68.445  33.875  1.00  0.00     0.000 C 
ENDROOT
BRANCH   1   2
ATOM      2  C   UNL     1      15.228  68.570  32.543  1.00  0.00     0.000 C 
BRANCH   2   3
ATOM      3  C   UNL     1      14.802  67.209  31.965  1.00  0.00     0.000 C 
BRANCH   3   4
ATOM      4  C   UNL     1      14.880  66.034  32.956  1.00  0.00     0.000 C 
BRANCH   4   5
ATOM      5  C   UNL     1      14.441  64.698  32.333  1.00  0.00     0.000 C 
BRANCH   5   6
ATOM      6  C   UNL     1      13.183  64.116  32.998  1.00  0.00     0.000 C 
BRANCH   6   7
ATOM      7  C   UNL     1      12.230  63.464  31.980  1.00  0.00     0.000 C 
BRANCH   7   8
ATOM      8  C   UNL     1      11.105  62.660  32.651  1.00  0.00     0.000 C 
BRANCH   8   9
ATOM      9  C   UNL     1      11.446  61.165  32.791  1.00  0.00     0.000 C 
BRANCH   9  10
ATOM     10  C   UNL     1      10.862  60.310  31.653  1.00  0.00     0.000 C 
BRANCH  10  11
ATOM     11  C   UNL     1       9.592  59.524  32.024  1.00  0.00     0.000 C 
BRANCH  11  12
ATOM     12  C   UNL     1       8.376  59.912  31.169  1.00  0.00     0.006 C 
BRANCH  12  13
ATOM     13  C   UNL     1       7.197  58.967  31.433  1.00  0.00     0.053 C 
BRANCH  13  14
ATOM     14  C   UNL     1       6.605  59.206  32.789  1.00  0.00     0.041 C 
ATOM     15  O   UNL     1       5.959  60.263  33.019  1.00  0.00    -0.550 OA
ATOM     16  O   UNL     1       6.813  58.291  33.814  1.00  0.00    -0.550 OA
ENDBRANCH  13  14
ENDBRANCH  12  13
ENDBRANCH  11  12
ENDBRANCH  10  11
ENDBRANCH   9  10
ENDBRANCH   8   9
ENDBRANCH   7   8
ENDBRANCH   6   7
ENDBRANCH   5   6
ENDBRANCH   4   5
ENDBRANCH   3   4
ENDBRANCH   2   3
ENDBRANCH   1   2
BRANCH   1  17
ATOM     17  C   UNL     1      17.386  69.099  33.815  1.00  0.00     0.000 C 
BRANCH  17  18
ATOM     18  C   UNL     1      17.466  70.479  34.496  1.00  0.00     0.000 C 
BRANCH  18  19
ATOM     19  C   UNL     1      18.335  70.507  35.770  1.00  0.00     0.000 C 
BRANCH  19  20
ATOM     20  C   UNL     1      19.048  69.166  36.021  1.00  0.00     0.000 C 
BRANCH  20  21
ATOM     21  C   UNL     1      19.557  69.031  37.465  1.00  0.00     0.000 C 
BRANCH  21  22
ATOM     22  C   UNL     1      18.590  69.653  38.487  1.00  0.00    -0.000 C 
BRANCH  22  23
ATOM     23  C   UNL     1      18.165  68.659  39.580  1.00  0.00    -0.000 C 
BRANCH  23  24
ATOM     24  C   UNL     1      19.359  67.981  40.268  1.00  0.00    -0.000 C 
BRANCH  24  25
ATOM     25  C   UNL     1      19.287  66.456  40.117  1.00  0.00    -0.000 C 
BRANCH  25  26
ATOM     26  C   UNL     1      20.463  65.930  39.279  1.00  0.00    -0.000 C 
BRANCH  26  27
ATOM     27  C   UNL     1      20.023  65.396  37.907  1.00  0.00    -0.000 C 
BRANCH  27  28
ATOM     28  C   UNL     1      18.505  65.185  37.810  1.00  0.00    -0.000 C 
BRANCH  28  29
ATOM     29  C   UNL     1      17.945  65.811  36.526  1.00  0.00    -0.003 C 
ATOM     30  C   UNL     1      16.570  66.427  36.766  1.00  0.00     0.004 C 
ENDBRANCH  28  29
ENDBRANCH  27  28
ENDBRANCH  26  27
ENDBRANCH  25  26
ENDBRANCH  24  25
ENDBRANCH  23  24
ENDBRANCH  22  23
ENDBRANCH  21  22
ENDBRANCH  20  21
ENDBRANCH  19  20
ENDBRANCH  18  19
ENDBRANCH  17  18
ENDBRANCH   1  17
TORSDOF 26
ENDMDL
MODEL 3
REMARK VINA RESULT:    -4.697      2.522      5.527
REMARK INTER + INTRA:         -15.803
REMARK INTER:                 -12.042
REMARK INTRA:                  -3.761
REMARK UNBOUND:                -3.968
REMARK SMILES CCCCCCCCCCCCCCCCCCCCCCCCCCCC(=O)[O-]
REMARK SMILES IDX 15 1 16 2 17 3 18 4 19 5 20 6 21 7 22 8 23 9 24 10 25 11
REMARK SMILES IDX 26 12 27 13 28 14 29 15 30 16 14 17 13 18 12 19 11 20 10 21
REMARK SMILES IDX 9 22 8 23 7 24 6 25 5 26 4 27 3 28 2 29 1 30
REMARK H PARENT
REMARK Flexibility Score: inf
ROOT
ATOM      1  C   UNL     1      16.816  62.530  31.455  1.00  0.00     0.000 C 
ENDROOT
BRANCH   1   2
ATOM      2  C   UNL     1      17.226  63.780  32.254  1.00  0.00     0.000 C 
BRANCH   2   3
ATOM      3  C   UNL     1      16.093  64.322  33.143  1.00  0.00     0.000 C 
BRANCH   3   4
ATOM      4  C   UNL     1      15.332  65.526  32.557  1.00  0.00     0.000 C 
BRANCH   4   5
ATOM      5  C   UNL     1      15.133  66.660  33.578  1.00  0.00     0.000 C 
BRANCH   5   6
ATOM      6  C   UNL     1      15.334  68.055  32.965  1.00  0.00     0.000 C 
BRANCH   6   7
ATOM      7  C   UNL     1      16.682  68.682  33.362  1.00  0.00     0.000 C 
BRANCH   7   8
ATOM      8  C   UNL     1      16.750  69.049  34.854  1.00  0.00     0.000 C 
BRANCH   8   9
ATOM      9  C   UNL     1      18.101  69.671  35.251  1.00  0.00     0.000 C 
BRANCH   9  10
ATOM     10  C   UNL     1      18.694  69.046  36.526  1.00  0.00     0.000 C 
BRANCH  10  11
ATOM     11  C   UNL     1      17.748  68.091  37.276  1.00  0.00     0.000 C 
BRANCH  11  12
ATOM     12  C   UNL     1      18.273  66.649  37.334  1.00  0.00     0.006 C 
BRANCH  12  13
ATOM     13  C   UNL     1      17.184  65.653  36.919  1.00  0.00     0.053 C 
BRANCH  13  14
ATOM     14  C   UNL     1      17.634  64.240  37.128  1.00  0.00     0.041 C 
ATOM     15  O   UNL     1      18.398  63.956  38.090  1.00  0.00    -0.550 OA
ATOM     16  O   UNL     1      17.260  63.245  36.233  1.00  0.00    -0.550 OA
ENDBRANCH  13  14
ENDBRANCH  12  13
ENDBRANCH  11  12
ENDBRANCH  10  11
ENDBRANCH   9  10
ENDBRANCH   8   9
ENDBRANCH   7   8
ENDBRANCH   6   7
ENDBRANCH   5   6
ENDBRANCH   4   5
ENDBRANCH   3   4
ENDBRANCH   2   3
ENDBRANCH   1   2
BRANCH   1  17
ATOM     17  C   UNL     1      15.461  61.957  31.919  1.00  0.00     0.000 C 
BRANCH  17  18
ATOM     18  C   UNL     1      14.944  60.785  31.062  1.00  0.00     0.000 C 
BRANCH  18  19
ATOM     19  C   UNL     1      13.649  61.093  30.282  1.00  0.00     0.000 C 
BRANCH  19  20
ATOM     20  C   UNL     1      13.373  62.604  30.182  1.00  0.00     0.000 C 
BRANCH  20  21
ATOM     21  C   UNL     1      12.007  62.993  30.770  1.00  0.00     0.000 C 
BRANCH  21  22
ATOM     22  C   UNL     1      12.130  64.019  31.910  1.00  0.00    -0.000 C 
BRANCH  22  23
ATOM     23  C   UNL     1      12.400  63.361  33.273  1.00  0.00    -0.000 C 
BRANCH  23  24
ATOM     24  C   UNL     1      11.515  62.133  33.528  1.00  0.00    -0.000 C 
BRANCH  24  25
ATOM     25  C   UNL     1      12.368  60.880  33.769  1.00  0.00    -0.000 C 
BRANCH  25  26
ATOM     26  C   UNL     1      11.710  59.638  33.150  1.00  0.00    -0.000 C 
BRANCH  26  27
ATOM     27  C   UNL     1      10.588  59.990  32.161  1.00  0.00    -0.000 C 
BRANCH  27  28
ATOM     28  C   UNL     1       9.402  59.017  32.235  1.00  0.00    -0.000 C 
BRANCH  28  29
ATOM     29  C   UNL     1       8.219  59.529  31.404  1.00  0.00    -0.003 C 
ATOM     30  C   UNL     1       6.954  59.635  32.250  1.00  0.00     0.004 C 
ENDBRANCH  28  29
ENDBRANCH  27  28
ENDBRANCH  26  27
ENDBRANCH  25  26
ENDBRANCH  24  25
ENDBRANCH  23  24
ENDBRANCH  22  23
ENDBRANCH  21  22
ENDBRANCH  20  21
ENDBRANCH  19  20
ENDBRANCH  18  19
ENDBRANCH  17  18
ENDBRANCH   1  17
TORSDOF 26
ENDMDL
MODEL 4
REMARK VINA RESULT:    -4.535      2.496      5.039
REMARK INTER + INTRA:         -15.396
REMARK INTER:                 -10.921
REMARK INTRA:                  -4.476
REMARK UNBOUND:                -3.968
REMARK SMILES CCCCCCCCCCCCCCCCCCCCCCCCCCCC(=O)[O-]
REMARK SMILES IDX 15 1 16 2 17 3 18 4 19 5 20 6 21 7 22 8 23 9 24 10 25 11
REMARK SMILES IDX 26 12 27 13 28 14 29 15 30 16 14 17 13 18 12 19 11 20 10 21
REMARK SMILES IDX 9 22 8 23 7 24 6 25 5 26 4 27 3 28 2 29 1 30
REMARK H PARENT
REMARK Flexibility Score: inf
ROOT
ATOM      1  C   UNL     1      15.113  66.226  33.440  1.00  0.00     0.000 C 
ENDROOT
BRANCH   1   2
ATOM      2  C   UNL     1      16.403  66.761  34.087  1.00  0.00     0.000 C 
BRANCH   2   3
ATOM      3  C   UNL     1      16.325  68.257  34.435  1.00  0.00     0.000 C 
BRANCH   3   4
ATOM      4  C   UNL     1      16.936  68.635  35.797  1.00  0.00     0.000 C 
BRANCH   4   5
ATOM      5  C   UNL     1      18.274  69.382  35.664  1.00  0.00     0.000 C 
BRANCH   5   6
ATOM      6  C   UNL     1      19.274  69.016  36.773  1.00  0.00     0.000 C 
BRANCH   6   7
ATOM      7  C   UNL     1      18.769  69.412  38.171  1.00  0.00     0.000 C 
BRANCH   7   8
ATOM      8  C   UNL     1      19.267  68.463  39.274  1.00  0.00     0.000 C 
BRANCH   8   9
ATOM      9  C   UNL     1      19.037  66.981  38.929  1.00  0.00     0.000 C 
BRANCH   9  10
ATOM     10  C   UNL     1      17.555  66.573  39.002  1.00  0.00     0.000 C 
BRANCH  10  11
ATOM     11  C   UNL     1      17.082  65.656  37.860  1.00  0.00     0.000 C 
BRANCH  11  12
ATOM     12  C   UNL     1      18.180  65.372  36.825  1.00  0.00     0.006 C 
BRANCH  12  13
ATOM     13  C   UNL     1      18.008  63.977  36.213  1.00  0.00     0.053 C 
BRANCH  13  14
ATOM     14  C   UNL     1      18.192  62.907  37.245  1.00  0.00     0.041 C 
ATOM     15  O   UNL     1      19.212  62.912  37.986  1.00  0.00    -0.550 OA
ATOM     16  O   UNL     1      17.270  61.873  37.354  1.00  0.00    -0.550 OA
ENDBRANCH  13  14
ENDBRANCH  12  13
ENDBRANCH  11  12
ENDBRANCH  10  11
ENDBRANCH   9  10
ENDBRANCH   8   9
ENDBRANCH   7   8
ENDBRANCH   6   7
ENDBRANCH   5   6
ENDBRANCH   4   5
ENDBRANCH   3   4
ENDBRANCH   2   3
ENDBRANCH   1   2
BRANCH   1  17
ATOM     17  C   UNL     1      15.205  64.722  33.107  1.00  0.00     0.000 C 
BRANCH  17  18
ATOM     18  C   UNL     1      14.045  64.196  32.239  1.00  0.00     0.000 C 
BRANCH  18  19
ATOM     19  C   UNL     1      14.464  63.142  31.193  1.00  0.00     0.000 C 
BRANCH  19  20
ATOM     20  C   UNL     1      13.263  62.600  30.396  1.00  0.00     0.000 C 
BRANCH  20  21
ATOM     21  C   UNL     1      11.916  63.047  30.985  1.00  0.00     0.000 C 
BRANCH  21  22
ATOM     22  C   UNL     1      11.032  61.857  31.397  1.00  0.00    -0.000 C 
BRANCH  22  23
ATOM     23  C   UNL     1      11.423  61.275  32.765  1.00  0.00    -0.000 C 
BRANCH  23  24
ATOM     24  C   UNL     1      12.076  59.889  32.660  1.00  0.00    -0.000 C 
BRANCH  24  25
ATOM     25  C   UNL     1      13.380  59.833  33.466  1.00  0.00    -0.000 C 
BRANCH  25  26
ATOM     26  C   UNL     1      13.625  61.156  34.209  1.00  0.00    -0.000 C 
BRANCH  26  27
ATOM     27  C   UNL     1      15.098  61.353  34.601  1.00  0.00    -0.000 C 
BRANCH  27  28
ATOM     28  C   UNL     1      16.070  60.695  33.611  1.00  0.00    -0.000 C 
BRANCH  28  29
ATOM     29  C   UNL     1      17.458  61.341  33.692  1.00  0.00    -0.003 C 
ATOM     30  C   UNL     1      17.792  62.096  32.409  1.00  0.00     0.004 C 
ENDBRANCH  28  29
ENDBRANCH  27  28
ENDBRANCH  26  27
ENDBRANCH  25  26
ENDBRANCH  24  25
ENDBRANCH  23  24
ENDBRANCH  22  23
ENDBRANCH  21  22
ENDBRANCH  20  21
ENDBRANCH  19  20
ENDBRANCH  18  19
ENDBRANCH  17  18
ENDBRANCH   1  17
TORSDOF 26
ENDMDL
MODEL 5
REMARK VINA RESULT:    -4.532      3.742      8.242
REMARK INTER + INTRA:         -15.388
REMARK INTER:                 -11.410
REMARK INTRA:                  -3.978
REMARK UNBOUND:                -3.968
REMARK SMILES CCCCCCCCCCCCCCCCCCCCCCCCCCCC(=O)[O-]
REMARK SMILES IDX 15 1 16 2 17 3 18 4 19 5 20 6 21 7 22 8 23 9 24 10 25 11
REMARK SMILES IDX 26 12 27 13 28 14 29 15 30 16 14 17 13 18 12 19 11 20 10 21
REMARK SMILES IDX 9 22 8 23 7 24 6 25 5 26 4 27 3 28 2 29 1 30
REMARK H PARENT
REMARK Flexibility Score: inf
ROOT
ATOM      1  C   UNL     1      19.182  68.493  36.483  1.00  0.00     0.000 C 
ENDROOT
BRANCH   1   2
ATOM      2  C   UNL     1      18.090  69.382  35.862  1.00  0.00     0.000 C 
BRANCH   2   3
ATOM      3  C   UNL     1      16.825  68.597  35.473  1.00  0.00     0.000 C 
BRANCH   3   4
ATOM      4  C   UNL     1      16.770  68.151  34.000  1.00  0.00     0.000 C 
BRANCH   4   5
ATOM      5  C   UNL     1      15.424  68.473  33.329  1.00  0.00     0.000 C 
BRANCH   5   6
ATOM      6  C   UNL     1      15.048  67.464  32.233  1.00  0.00     0.000 C 
BRANCH   6   7
ATOM      7  C   UNL     1      14.712  66.075  32.805  1.00  0.00     0.000 C 
BRANCH   7   8
ATOM      8  C   UNL     1      15.388  64.934  32.028  1.00  0.00     0.000 C 
BRANCH   8   9
ATOM      9  C   UNL     1      14.502  63.679  31.925  1.00  0.00     0.000 C 
BRANCH   9  10
ATOM     10  C   UNL     1      13.271  63.740  32.846  1.00  0.00     0.000 C 
BRANCH  10  11
ATOM     11  C   UNL     1      11.917  63.669  32.116  1.00  0.00     0.000 C 
BRANCH  11  12
ATOM     12  C   UNL     1      11.743  62.379  31.301  1.00  0.00     0.006 C 
BRANCH  12  13
ATOM     13  C   UNL     1      10.772  61.418  31.998  1.00  0.00     0.053 C 
BRANCH  13  14
ATOM     14  C   UNL     1      11.501  60.259  32.606  1.00  0.00     0.041 C 
ATOM     15  O   UNL     1      10.856  59.288  33.087  1.00  0.00    -0.550 OA
ATOM     16  O   UNL     1      12.888  60.272  32.694  1.00  0.00    -0.550 OA
ENDBRANCH  13  14
ENDBRANCH  12  13
ENDBRANCH  11  12
ENDBRANCH  10  11
ENDBRANCH   9  10
ENDBRANCH   8   9
ENDBRANCH   7   8
ENDBRANCH   6   7
ENDBRANCH   5   6
ENDBRANCH   4   5
ENDBRANCH   3   4
ENDBRANCH   2   3
ENDBRANCH   1   2
BRANCH   1  17
ATOM     17  C   UNL     1      19.687  69.044  37.833  1.00  0.00     0.000 C 
BRANCH  17  18
ATOM     18  C   UNL     1      18.568  69.518  38.781  1.00  0.00     0.000 C 
BRANCH  18  19
ATOM     19  C   UNL     1      18.413  68.663  40.056  1.00  0.00     0.000 C 
BRANCH  19  20
ATOM     20  C   UNL     1      19.751  68.056  40.518  1.00  0.00     0.000 C 
BRANCH  20  21
ATOM     21  C   UNL     1      19.709  66.521  40.580  1.00  0.00     0.000 C 
BRANCH  21  22
ATOM     22  C   UNL     1      20.478  65.866  39.419  1.00  0.00    -0.000 C 
BRANCH  22  23
ATOM     23  C   UNL     1      19.544  65.242  38.370  1.00  0.00    -0.000 C 
BRANCH  23  24
ATOM     24  C   UNL     1      18.065  65.303  38.775  1.00  0.00    -0.000 C 
BRANCH  24  25
ATOM     25  C   UNL     1      17.166  65.501  37.547  1.00  0.00    -0.000 C 
BRANCH  25  26
ATOM     26  C   UNL     1      17.926  65.177  36.251  1.00  0.00    -0.000 C 
BRANCH  26  27
ATOM     27  C   UNL     1      17.043  64.480  35.204  1.00  0.00    -0.000 C 
BRANCH  27  28
ATOM     28  C   UNL     1      17.716  63.245  34.587  1.00  0.00    -0.000 C 
BRANCH  28  29
ATOM     29  C   UNL     1      18.564  63.632  33.369  1.00  0.00    -0.003 C 
ATOM     30  C   UNL     1      18.317  62.685  32.199  1.00  0.00     0.004 C 
ENDBRANCH  28  29
ENDBRANCH  27  28
ENDBRANCH  26  27
ENDBRANCH  25  26
ENDBRANCH  24  25
ENDBRANCH  23  24
ENDBRANCH  22  23
ENDBRANCH  21  22
ENDBRANCH  20  21
ENDBRANCH  19  20
ENDBRANCH  18  19
ENDBRANCH  17  18
ENDBRANCH   1  17
TORSDOF 26
ENDMDL
MODEL 6
REMARK VINA RESULT:    -4.465      3.729      8.011
REMARK INTER + INTRA:         -15.219
REMARK INTER:                 -10.972
REMARK INTRA:                  -4.247
REMARK UNBOUND:                -3.968
REMARK SMILES CCCCCCCCCCCCCCCCCCCCCCCCCCCC(=O)[O-]
REMARK SMILES IDX 15 1 16 2 17 3 18 4 19 5 20 6 21 7 22 8 23 9 24 10 25 11
REMARK SMILES IDX 26 12 27 13 28 14 29 15 30 16 14 17 13 18 12 19 11 20 10 21
REMARK SMILES IDX 9 22 8 23 7 24 6 25 5 26 4 27 3 28 2 29 1 30
REMARK H PARENT
REMARK Flexibility Score: inf
ROOT
ATOM      1  C   UNL     1      17.448  69.687  33.238  1.00  0.00     0.000 C 
ENDROOT
BRANCH   1   2
ATOM      2  C   UNL     1      16.183  69.368  32.423  1.00  0.00     0.000 C 
BRANCH   2   3
ATOM      3  C   UNL     1      15.203  68.448  33.171  1.00  0.00     0.000 C 
BRANCH   3   4
ATOM      4  C   UNL     1      15.128  67.008  32.628  1.00  0.00     0.000 C 
BRANCH   4   5
ATOM      5  C   UNL     1      15.277  65.947  33.731  1.00  0.00     0.000 C 
BRANCH   5   6
ATOM      6  C   UNL     1      16.691  65.347  33.793  1.00  0.00     0.000 C 
BRANCH   6   7
ATOM      7  C   UNL     1      16.817  64.053  32.969  1.00  0.00     0.000 C 
BRANCH   7   8
ATOM      8  C   UNL     1      16.059  62.873  33.598  1.00  0.00     0.000 C 
BRANCH   8   9
ATOM      9  C   UNL     1      15.090  62.196  32.612  1.00  0.00     0.000 C 
BRANCH   9  10
ATOM     10  C   UNL     1      14.686  63.115  31.446  1.00  0.00     0.000 C 
BRANCH  10  11
ATOM     11  C   UNL     1      13.247  63.658  31.523  1.00  0.00     0.000 C 
BRANCH  11  12
ATOM     12  C   UNL     1      12.587  63.415  32.889  1.00  0.00     0.006 C 
BRANCH  12  13
ATOM     13  C   UNL     1      11.196  62.792  32.721  1.00  0.00     0.053 C 
BRANCH  13  14
ATOM     14  C   UNL     1      11.281  61.301  32.611  1.00  0.00     0.041 C 
ATOM     15  O   UNL     1      11.969  60.644  33.438  1.00  0.00    -0.550 OA
ATOM     16  O   UNL     1      10.649  60.639  31.566  1.00  0.00    -0.550 OA
ENDBRANCH  13  14
ENDBRANCH  12  13
ENDBRANCH  11  12
ENDBRANCH  10  11
ENDBRANCH   9  10
ENDBRANCH   8   9
ENDBRANCH   7   8
ENDBRANCH   6   7
ENDBRANCH   5   6
ENDBRANCH   4   5
ENDBRANCH   3   4
ENDBRANCH   2   3
ENDBRANCH   1   2
BRANCH   1  17
ATOM     17  C   UNL     1      17.161  69.789  34.751  1.00  0.00     0.000 C 
BRANCH  17  18
ATOM     18  C   UNL     1      18.145  68.998  35.635  1.00  0.00     0.000 C 
BRANCH  18  19
ATOM     19  C   UNL     1      17.526  67.768  36.329  1.00  0.00     0.000 C 
BRANCH  19  20
ATOM     20  C   UNL     1      18.098  67.543  37.740  1.00  0.00     0.000 C 
BRANCH  20  21
ATOM     21  C   UNL     1      19.633  67.482  37.750  1.00  0.00     0.000 C 
BRANCH  21  22
ATOM     22  C   UNL     1      20.170  66.346  38.638  1.00  0.00    -0.000 C 
BRANCH  22  23
ATOM     23  C   UNL     1      19.477  66.290  40.009  1.00  0.00    -0.000 C 
BRANCH  23  24
ATOM     24  C   UNL     1      18.920  64.898  40.341  1.00  0.00    -0.000 C 
BRANCH  24  25
ATOM     25  C   UNL     1      19.772  63.797  39.695  1.00  0.00    -0.000 C 
BRANCH  25  26
ATOM     26  C   UNL     1      18.908  62.873  38.823  1.00  0.00    -0.000 C 
BRANCH  26  27
ATOM     27  C   UNL     1      17.858  63.640  38.004  1.00  0.00    -0.000 C 
BRANCH  27  28
ATOM     28  C   UNL     1      18.297  63.884  36.553  1.00  0.00    -0.000 C 
BRANCH  28  29
ATOM     29  C   UNL     1      19.454  62.955  36.165  1.00  0.00    -0.003 C 
ATOM     30  C   UNL     1      19.933  63.233  34.744  1.00  0.00     0.004 C 
ENDBRANCH  28  29
ENDBRANCH  27  28
ENDBRANCH  26  27
ENDBRANCH  25  26
ENDBRANCH  24  25
ENDBRANCH  23  24
ENDBRANCH  22  23
ENDBRANCH  21  22
ENDBRANCH  20  21
ENDBRANCH  19  20
ENDBRANCH  18  19
ENDBRANCH  17  18
ENDBRANCH   1  17
TORSDOF 26
ENDMDL
MODEL 7
REMARK VINA RESULT:    -4.463      2.885      5.393
REMARK INTER + INTRA:         -15.215
REMARK INTER:                 -10.800
REMARK INTRA:                  -4.415
REMARK UNBOUND:                -3.968
REMARK SMILES CCCCCCCCCCCCCCCCCCCCCCCCCCCC(=O)[O-]
REMARK SMILES IDX 15 1 16 2 17 3 18 4 19 5 20 6 21 7 22 8 23 9 24 10 25 11
REMARK SMILES IDX 26 12 27 13 28 14 29 15 30 16 14 17 13 18 12 19 11 20 10 21
REMARK SMILES IDX 9 22 8 23 7 24 6 25 5 26 4 27 3 28 2 29 1 30
REMARK H PARENT
REMARK Flexibility Score: inf
ROOT
ATOM      1  C   UNL     1      20.915  61.528  34.869  1.00  0.00     0.000 C 
ENDROOT
BRANCH   1   2
ATOM      2  C   UNL     1      19.947  62.336  35.750  1.00  0.00     0.000 C 
BRANCH   2   3
ATOM      3  C   UNL     1      20.318  63.827  35.840  1.00  0.00     0.000 C 
BRANCH   3   4
ATOM      4  C   UNL     1      19.590  64.607  36.951  1.00  0.00     0.000 C 
BRANCH   4   5
ATOM      5  C   UNL     1      18.264  63.950  37.370  1.00  0.00     0.000 C 
BRANCH   5   6
ATOM      6  C   UNL     1      18.226  63.586  38.863  1.00  0.00     0.000 C 
BRANCH   6   7
ATOM      7  C   UNL     1      18.268  64.828  39.771  1.00  0.00     0.000 C 
BRANCH   7   8
ATOM      8  C   UNL     1      17.224  65.887  39.378  1.00  0.00     0.000 C 
BRANCH   8   9
ATOM      9  C   UNL     1      17.830  67.295  39.239  1.00  0.00     0.000 C 
BRANCH   9  10
ATOM     10  C   UNL     1      17.765  67.834  37.799  1.00  0.00     0.000 C 
BRANCH  10  11
ATOM     11  C   UNL     1      19.060  68.502  37.302  1.00  0.00     0.000 C 
BRANCH  11  12
ATOM     12  C   UNL     1      18.845  69.375  36.057  1.00  0.00     0.006 C 
BRANCH  12  13
ATOM     13  C   UNL     1      17.621  68.904  35.263  1.00  0.00     0.053 C 
BRANCH  13  14
ATOM     14  C   UNL     1      17.111  69.987  34.362  1.00  0.00     0.041 C 
ATOM     15  O   UNL     1      17.476  71.180  34.538  1.00  0.00    -0.550 OA
ATOM     16  O   UNL     1      16.190  69.691  33.364  1.00  0.00    -0.550 OA
ENDBRANCH  13  14
ENDBRANCH  12  13
ENDBRANCH  11  12
ENDBRANCH  10  11
ENDBRANCH   9  10
ENDBRANCH   8   9
ENDBRANCH   7   8
ENDBRANCH   6   7
ENDBRANCH   5   6
ENDBRANCH   4   5
ENDBRANCH   3   4
ENDBRANCH   2   3
ENDBRANCH   1   2
BRANCH   1  17
ATOM     17  C   UNL     1      20.387  61.350  33.430  1.00  0.00     0.000 C 
BRANCH  17  18
ATOM     18  C   UNL     1      21.280  61.988  32.347  1.00  0.00     0.000 C 
BRANCH  18  19
ATOM     19  C   UNL     1      21.192  63.526  32.280  1.00  0.00     0.000 C 
BRANCH  19  20
ATOM     20  C   UNL     1      20.652  64.022  30.926  1.00  0.00     0.000 C 
BRANCH  20  21
ATOM     21  C   UNL     1      19.564  63.100  30.353  1.00  0.00     0.000 C 
BRANCH  21  22
ATOM     22  C   UNL     1      18.152  63.503  30.811  1.00  0.00    -0.000 C 
BRANCH  22  23
ATOM     23  C   UNL     1      17.435  62.380  31.578  1.00  0.00    -0.000 C 
BRANCH  23  24
ATOM     24  C   UNL     1      17.030  62.794  33.000  1.00  0.00    -0.000 C 
BRANCH  24  25
ATOM     25  C   UNL     1      17.604  64.171  33.357  1.00  0.00    -0.000 C 
BRANCH  25  26
ATOM     26  C   UNL     1      16.644  64.947  34.272  1.00  0.00    -0.000 C 
BRANCH  26  27
ATOM     27  C   UNL     1      15.996  66.150  33.570  1.00  0.00    -0.000 C 
BRANCH  27  28
ATOM     28  C   UNL     1      14.987  65.735  32.488  1.00  0.00    -0.000 C 
BRANCH  28  29
ATOM     29  C   UNL     1      13.962  64.740  33.046  1.00  0.00    -0.003 C 
ATOM     30  C   UNL     1      13.404  63.845  31.945  1.00  0.00     0.004 C 
ENDBRANCH  28  29
ENDBRANCH  27  28
ENDBRANCH  26  27
ENDBRANCH  25  26
ENDBRANCH  24  25
ENDBRANCH  23  24
ENDBRANCH  22  23
ENDBRANCH  21  22
ENDBRANCH  20  21
ENDBRANCH  19  20
ENDBRANCH  18  19
ENDBRANCH  17  18
ENDBRANCH   1  17
TORSDOF 26
ENDMDL
MODEL 8
REMARK VINA RESULT:    -4.457      2.682      4.982
REMARK INTER + INTRA:         -15.199
REMARK INTER:                 -10.726
REMARK INTRA:                  -4.473
REMARK UNBOUND:                -3.968
REMARK SMILES CCCCCCCCCCCCCCCCCCCCCCCCCCCC(=O)[O-]
REMARK SMILES IDX 15 1 16 2 17 3 18 4 19 5 20 6 21 7 22 8 23 9 24 10 25 11
REMARK SMILES IDX 26 12 27 13 28 14 29 15 30 16 14 17 13 18 12 19 11 20 10 21
REMARK SMILES IDX 9 22 8 23 7 24 6 25 5 26 4 27 3 28 2 29 1 30
REMARK H PARENT
REMARK Flexibility Score: inf
ROOT
ATOM      1  C   UNL     1      15.252  67.616  32.911  1.00  0.00     0.000 C 
ENDROOT
BRANCH   1   2
ATOM      2  C   UNL     1      15.953  68.849  33.507  1.00  0.00     0.000 C 
BRANCH   2   3
ATOM      3  C   UNL     1      16.726  68.535  34.799  1.00  0.00     0.000 C 
BRANCH   3   4
ATOM      4  C   UNL     1      17.930  69.456  35.071  1.00  0.00     0.000 C 
BRANCH   4   5
ATOM      5  C   UNL     1      18.642  69.131  36.395  1.00  0.00     0.000 C 
BRANCH   5   6
ATOM      6  C   UNL     1      17.707  68.489  37.432  1.00  0.00     0.000 C 
BRANCH   6   7
ATOM      7  C   UNL     1      18.475  67.687  38.498  1.00  0.00     0.000 C 
BRANCH   7   8
ATOM      8  C   UNL     1      18.772  66.245  38.056  1.00  0.00     0.000 C 
BRANCH   8   9
ATOM      9  C   UNL     1      17.536  65.534  37.477  1.00  0.00     0.000 C 
BRANCH   9  10
ATOM     10  C   UNL     1      17.780  64.963  36.069  1.00  0.00     0.000 C 
BRANCH  10  11
ATOM     11  C   UNL     1      17.502  63.455  35.929  1.00  0.00     0.000 C 
BRANCH  11  12
ATOM     12  C   UNL     1      18.778  62.602  35.975  1.00  0.00     0.006 C 
BRANCH  12  13
ATOM     13  C   UNL     1      20.023  63.468  35.746  1.00  0.00     0.053 C 
BRANCH  13  14
ATOM     14  C   UNL     1      20.760  63.040  34.514  1.00  0.00     0.041 C 
ATOM     15  O   UNL     1      20.173  62.359  33.630  1.00  0.00    -0.550 OA
ATOM     16  O   UNL     1      22.108  63.342  34.364  1.00  0.00    -0.550 OA
ENDBRANCH  13  14
ENDBRANCH  12  13
ENDBRANCH  11  12
ENDBRANCH  10  11
ENDBRANCH   9  10
ENDBRANCH   8   9
ENDBRANCH   7   8
ENDBRANCH   6   7
ENDBRANCH   5   6
ENDBRANCH   4   5
ENDBRANCH   3   4
ENDBRANCH   2   3
ENDBRANCH   1   2
BRANCH   1  17
ATOM     17  C   UNL     1      15.058  66.492  33.951  1.00  0.00     0.000 C 
BRANCH  17  18
ATOM     18  C   UNL     1      15.244  65.071  33.386  1.00  0.00     0.000 C 
BRANCH  18  19
ATOM     19  C   UNL     1      14.414  64.779  32.119  1.00  0.00     0.000 C 
BRANCH  19  20
ATOM     20  C   UNL     1      13.066  64.110  32.444  1.00  0.00     0.000 C 
BRANCH  20  21
ATOM     21  C   UNL     1      12.577  63.192  31.313  1.00  0.00     0.000 C 
BRANCH  21  22
ATOM     22  C   UNL     1      13.738  62.591  30.502  1.00  0.00    -0.000 C 
BRANCH  22  23
ATOM     23  C   UNL     1      13.513  61.110  30.156  1.00  0.00    -0.000 C 
BRANCH  23  24
ATOM     24  C   UNL     1      12.509  60.424  31.093  1.00  0.00    -0.000 C 
BRANCH  24  25
ATOM     25  C   UNL     1      13.233  59.648  32.201  1.00  0.00    -0.000 C 
BRANCH  25  26
ATOM     26  C   UNL     1      12.894  60.220  33.586  1.00  0.00    -0.000 C 
BRANCH  26  27
ATOM     27  C   UNL     1      14.140  60.443  34.458  1.00  0.00    -0.000 C 
BRANCH  27  28
ATOM     28  C   UNL     1      15.048  61.561  33.924  1.00  0.00    -0.000 C 
BRANCH  28  29
ATOM     29  C   UNL     1      16.342  60.985  33.337  1.00  0.00    -0.003 C 
ATOM     30  C   UNL     1      16.919  61.903  32.263  1.00  0.00     0.004 C 
ENDBRANCH  28  29
ENDBRANCH  27  28
ENDBRANCH  26  27
ENDBRANCH  25  26
ENDBRANCH  24  25
ENDBRANCH  23  24
ENDBRANCH  22  23
ENDBRANCH  21  22
ENDBRANCH  20  21
ENDBRANCH  19  20
ENDBRANCH  18  19
ENDBRANCH  17  18
ENDBRANCH   1  17
TORSDOF 26
ENDMDL
MODEL 9
REMARK VINA RESULT:    -4.435      2.813      4.457
REMARK INTER + INTRA:         -15.145
REMARK INTER:                 -11.066
REMARK INTRA:                  -4.079
REMARK UNBOUND:                -3.968
REMARK SMILES CCCCCCCCCCCCCCCCCCCCCCCCCCCC(=O)[O-]
REMARK SMILES IDX 15 1 16 2 17 3 18 4 19 5 20 6 21 7 22 8 23 9 24 10 25 11
REMARK SMILES IDX 26 12 27 13 28 14 29 15 30 16 14 17 13 18 12 19 11 20 10 21
REMARK SMILES IDX 9 22 8 23 7 24 6 25 5 26 4 27 3 28 2 29 1 30
REMARK H PARENT
REMARK Flexibility Score: inf
ROOT
ATOM      1  C   UNL     1      17.952  68.164  35.686  1.00  0.00     0.000 C 
ENDROOT
BRANCH   1   2
ATOM      2  C   UNL     1      18.668  69.401  36.255  1.00  0.00     0.000 C 
BRANCH   2   3
ATOM      3  C   UNL     1      19.326  69.139  37.621  1.00  0.00     0.000 C 
BRANCH   3   4
ATOM      4  C   UNL     1      19.734  67.674  37.869  1.00  0.00     0.000 C 
BRANCH   4   5
ATOM      5  C   UNL     1      19.268  67.150  39.238  1.00  0.00     0.000 C 
BRANCH   5   6
ATOM      6  C   UNL     1      17.741  67.205  39.408  1.00  0.00     0.000 C 
BRANCH   6   7
ATOM      7  C   UNL     1      17.032  66.019  38.731  1.00  0.00     0.000 C 
BRANCH   7   8
ATOM      8  C   UNL     1      17.707  64.672  39.035  1.00  0.00     0.000 C 
BRANCH   8   9
ATOM      9  C   UNL     1      17.879  63.797  37.779  1.00  0.00     0.000 C 
BRANCH   9  10
ATOM     10  C   UNL     1      18.197  64.619  36.518  1.00  0.00     0.000 C 
BRANCH  10  11
ATOM     11  C   UNL     1      18.227  63.807  35.211  1.00  0.00     0.000 C 
BRANCH  11  12
ATOM     12  C   UNL     1      19.650  63.425  34.774  1.00  0.00     0.006 C 
BRANCH  12  13
ATOM     13  C   UNL     1      19.970  61.976  35.160  1.00  0.00     0.053 C 
BRANCH  13  14
ATOM     14  C   UNL     1      21.434  61.797  35.423  1.00  0.00     0.041 C 
ATOM     15  O   UNL     1      21.821  61.076  36.382  1.00  0.00    -0.550 OA
ATOM     16  O   UNL     1      22.372  62.468  34.647  1.00  0.00    -0.550 OA
ENDBRANCH  13  14
ENDBRANCH  12  13
ENDBRANCH  11  12
ENDBRANCH  10  11
ENDBRANCH   9  10
ENDBRANCH   8   9
ENDBRANCH   7   8
ENDBRANCH   6   7
ENDBRANCH   5   6
ENDBRANCH   4   5
ENDBRANCH   3   4
ENDBRANCH   2   3
ENDBRANCH   1   2
BRANCH   1  17
ATOM     17  C   UNL     1      16.417  68.326  35.684  1.00  0.00     0.000 C 
BRANCH  17  18
ATOM     18  C   UNL     1      15.649  67.051  35.283  1.00  0.00     0.000 C 
BRANCH  18  19
ATOM     19  C   UNL     1      16.084  66.448  33.931  1.00  0.00     0.000 C 
BRANCH  19  20
ATOM     20  C   UNL     1      14.958  66.493  32.882  1.00  0.00     0.000 C 
BRANCH  20  21
ATOM     21  C   UNL     1      14.519  65.092  32.430  1.00  0.00     0.000 C 
BRANCH  21  22
ATOM     22  C   UNL     1      15.092  63.980  33.326  1.00  0.00    -0.000 C 
BRANCH  22  23
ATOM     23  C   UNL     1      15.915  62.949  32.536  1.00  0.00    -0.000 C 
BRANCH  23  24
ATOM     24  C   UNL     1      15.417  62.765  31.095  1.00  0.00    -0.000 C 
BRANCH  24  25
ATOM     25  C   UNL     1      14.937  61.328  30.859  1.00  0.00    -0.000 C 
BRANCH  25  26
ATOM     26  C   UNL     1      13.418  61.285  30.631  1.00  0.00    -0.000 C 
BRANCH  26  27
ATOM     27  C   UNL     1      12.811  62.679  30.411  1.00  0.00    -0.000 C 
BRANCH  27  28
ATOM     28  C   UNL     1      11.323  62.747  30.786  1.00  0.00    -0.000 C 
BRANCH  28  29
ATOM     29  C   UNL     1      11.077  62.130  32.168  1.00  0.00    -0.003 C 
ATOM     30  C   UNL     1      11.498  63.085  33.281  1.00  0.00     0.004 C 
ENDBRANCH  28  29
ENDBRANCH  27  28
ENDBRANCH  26  27
ENDBRANCH  25  26
ENDBRANCH  24  25
ENDBRANCH  23  24
ENDBRANCH  22  23
ENDBRANCH  21  22
ENDBRANCH  20  21
ENDBRANCH  19  20
ENDBRANCH  18  19
ENDBRANCH  17  18
ENDBRANCH   1  17
TORSDOF 26
ENDMDL
