MODEL 1
REMARK VINA RESULT:    -4.116      0.000      0.000
REMARK INTER + INTRA:          -4.945
REMARK INTER:                  -4.838
REMARK INTRA:                  -0.107
REMARK UNBOUND:                -0.107
REMARK SMILES O=C([O-])CCC(=O)[O-]
REMARK SMILES IDX 4 1 2 2 1 3 3 4 5 5 6 6 7 7 8 8
REMARK H PARENT
REMARK Flexibility Score: inf
ROOT
ATOM      1  C   UNL     1       4.175  13.436   2.097  1.00  0.00     0.059 C 
ENDROOT
BRANCH   1   2
ATOM      2  C   UNL     1       2.826  13.993   1.756  1.00  0.00     0.042 C 
ATOM      3  O   UNL     1       2.336  13.812   0.611  1.00  0.00    -0.550 OA
ATOM      4  O   UNL     1       2.129  14.747   2.692  1.00  0.00    -0.550 OA
ENDBRANCH   1   2
BRANCH   1   5
ATOM      5  C   UNL     1       4.977  13.089   0.839  1.00  0.00     0.059 C 
BRANCH   5   6
ATOM      6  C   UNL     1       6.017  14.126   0.545  1.00  0.00     0.042 C 
ATOM      7  O   UNL     1       5.677  15.270   0.143  1.00  0.00    -0.550 OA
ATOM      8  O   UNL     1       7.365  13.814   0.673  1.00  0.00    -0.550 OA
ENDBRANCH   5   6
ENDBRANCH   1   5
TORSDOF 3
ENDMDL
MODEL 2
REMARK VINA RESULT:    -4.114      0.091      3.891
REMARK INTER + INTRA:          -4.942
REMARK INTER:                  -4.832
REMARK INTRA:                  -0.110
REMARK UNBOUND:                -0.107
REMARK SMILES O=C([O-])CCC(=O)[O-]
REMARK SMILES IDX 4 1 2 2 1 3 3 4 5 5 6 6 7 7 8 8
REMARK H PARENT
REMARK Flexibility Score: inf
ROOT
ATOM      1  C   UNL     1       5.016  13.120   0.867  1.00  0.00     0.059 C 
ENDROOT
BRANCH   1   2
ATOM      2  C   UNL     1       6.076  14.139   0.582  1.00  0.00     0.042 C 
ATOM      3  O   UNL     1       5.759  15.283   0.160  1.00  0.00    -0.550 OA
ATOM      4  O   UNL     1       7.416  13.812   0.745  1.00  0.00    -0.550 OA
ENDBRANCH   1   2
BRANCH   1   5
ATOM      5  C   UNL     1       4.177  13.504   2.089  1.00  0.00     0.059 C 
BRANCH   5   6
ATOM      6  C   UNL     1       2.812  13.978   1.695  1.00  0.00     0.042 C 
ATOM      7  O   UNL     1       2.388  13.789   0.524  1.00  0.00    -0.550 OA
ATOM      8  O   UNL     1       2.025  14.668   2.609  1.00  0.00    -0.550 OA
ENDBRANCH   5   6
ENDBRANCH   1   5
TORSDOF 3
ENDMDL
MODEL 3
REMARK VINA RESULT:    -4.092      0.161      1.150
REMARK INTER + INTRA:          -4.916
REMARK INTER:                  -4.819
REMARK INTRA:                  -0.097
REMARK UNBOUND:                -0.107
REMARK SMILES O=C([O-])CCC(=O)[O-]
REMARK SMILES IDX 4 1 2 2 1 3 3 4 5 5 6 6 7 7 8 8
REMARK H PARENT
REMARK Flexibility Score: inf
ROOT
ATOM      1  C   UNL     1       4.263  13.394   2.099  1.00  0.00     0.059 C 
ENDROOT
BRANCH   1   2
ATOM      2  C   UNL     1       2.957  14.076   1.826  1.00  0.00     0.042 C 
ATOM      3  O   UNL     1       2.440  14.827   2.695  1.00  0.00    -0.550 OA
ATOM      4  O   UNL     1       2.291  13.849   0.628  1.00  0.00    -0.550 OA
ENDBRANCH   1   2
BRANCH   1   5
ATOM      5  C   UNL     1       5.049  13.144   0.808  1.00  0.00     0.059 C 
BRANCH   5   6
ATOM      6  C   UNL     1       6.090  14.197   0.584  1.00  0.00     0.042 C 
ATOM      7  O   UNL     1       5.760  15.336   0.159  1.00  0.00    -0.550 OA
ATOM      8  O   UNL     1       7.431  13.907   0.804  1.00  0.00    -0.550 OA
ENDBRANCH   5   6
ENDBRANCH   1   5
TORSDOF 3
ENDMDL
MODEL 4
REMARK VINA RESULT:    -4.084      0.120      3.864
REMARK INTER + INTRA:          -4.907
REMARK INTER:                  -4.800
REMARK INTRA:                  -0.107
REMARK UNBOUND:                -0.107
REMARK SMILES O=C([O-])CCC(=O)[O-]
REMARK SMILES IDX 4 1 2 2 1 3 3 4 5 5 6 6 7 7 8 8
REMARK H PARENT
REMARK Flexibility Score: inf
ROOT
ATOM      1  C   UNL     1       4.944  13.132   0.893  1.00  0.00     0.059 C 
ENDROOT
BRANCH   1   2
ATOM      2  C   UNL     1       6.025  14.135   0.629  1.00  0.00     0.042 C 
ATOM      3  O   UNL     1       5.732  15.298   0.247  1.00  0.00    -0.550 OA
ATOM      4  O   UNL     1       7.359  13.771   0.768  1.00  0.00    -0.550 OA
ENDBRANCH   1   2
BRANCH   1   5
ATOM      5  C   UNL     1       4.115  13.506   2.125  1.00  0.00     0.059 C 
BRANCH   5   6
ATOM      6  C   UNL     1       2.771  14.044   1.743  1.00  0.00     0.042 C 
ATOM      7  O   UNL     1       2.051  14.621   2.600  1.00  0.00    -0.550 OA
ATOM      8  O   UNL     1       2.295  13.871   0.449  1.00  0.00    -0.550 OA
ENDBRANCH   5   6
ENDBRANCH   1   5
TORSDOF 3
ENDMDL
MODEL 5
REMARK VINA RESULT:    -3.936      1.313      3.621
REMARK INTER + INTRA:          -4.734
REMARK INTER:                  -4.572
REMARK INTRA:                  -0.162
REMARK UNBOUND:                -0.107
REMARK SMILES O=C([O-])CCC(=O)[O-]
REMARK SMILES IDX 4 1 2 2 1 3 3 4 5 5 6 6 7 7 8 8
REMARK H PARENT
REMARK Flexibility Score: inf
ROOT
ATOM      1  C   UNL     1       5.183  13.741   1.316  1.00  0.00     0.059 C 
ENDROOT
BRANCH   1   2
ATOM      2  C   UNL     1       5.365  15.192   1.646  1.00  0.00     0.042 C 
ATOM      3  O   UNL     1       5.781  15.537   2.783  1.00  0.00    -0.550 OA
ATOM      4  O   UNL     1       5.036  16.164   0.708  1.00  0.00    -0.550 OA
ENDBRANCH   1   2
BRANCH   1   5
ATOM      5  C   UNL     1       3.967  13.148   2.033  1.00  0.00     0.059 C 
BRANCH   5   6
ATOM      6  C   UNL     1       2.709  13.884   1.687  1.00  0.00     0.042 C 
ATOM      7  O   UNL     1       2.258  13.853   0.512  1.00  0.00    -0.550 OA
ATOM      8  O   UNL     1       2.058  14.640   2.654  1.00  0.00    -0.550 OA
ENDBRANCH   5   6
ENDBRANCH   1   5
TORSDOF 3
ENDMDL
MODEL 6
REMARK VINA RESULT:    -3.903      2.601      3.565
REMARK INTER + INTRA:          -4.694
REMARK INTER:                  -4.627
REMARK INTRA:                  -0.067
REMARK UNBOUND:                -0.107
REMARK SMILES O=C([O-])CCC(=O)[O-]
REMARK SMILES IDX 4 1 2 2 1 3 3 4 5 5 6 6 7 7 8 8
REMARK H PARENT
REMARK Flexibility Score: inf
ROOT
ATOM      1  C   UNL     1       3.256  14.910   2.886  1.00  0.00     0.059 C 
ENDROOT
BRANCH   1   2
ATOM      2  C   UNL     1       3.443  14.756   1.408  1.00  0.00     0.042 C 
ATOM      3  O   UNL     1       4.118  15.601   0.762  1.00  0.00    -0.550 OA
ATOM      4  O   UNL     1       2.837  13.701   0.737  1.00  0.00    -0.550 OA
ENDBRANCH   1   2
BRANCH   1   5
ATOM      5  C   UNL     1       4.530  14.553   3.657  1.00  0.00     0.059 C 
BRANCH   5   6
ATOM      6  C   UNL     1       5.040  15.717   4.448  1.00  0.00     0.042 C 
ATOM      7  O   UNL     1       6.174  16.207   4.200  1.00  0.00    -0.550 OA
ATOM      8  O   UNL     1       4.281  16.235   5.491  1.00  0.00    -0.550 OA
ENDBRANCH   5   6
ENDBRANCH   1   5
TORSDOF 3
ENDMDL
MODEL 7
REMARK VINA RESULT:    -3.891      2.131      2.585
REMARK INTER + INTRA:          -4.680
REMARK INTER:                  -4.589
REMARK INTRA:                  -0.091
REMARK UNBOUND:                -0.107
REMARK SMILES O=C([O-])CCC(=O)[O-]
REMARK SMILES IDX 4 1 2 2 1 3 3 4 5 5 6 6 7 7 8 8
REMARK H PARENT
REMARK Flexibility Score: inf
ROOT
ATOM      1  C   UNL     1       4.303  13.541   2.041  1.00  0.00     0.059 C 
ENDROOT
BRANCH   1   2
ATOM      2  C   UNL     1       3.508  14.307   1.029  1.00  0.00     0.042 C 
ATOM      3  O   UNL     1       3.925  15.416   0.601  1.00  0.00    -0.550 OA
ATOM      4  O   UNL     1       2.286  13.814   0.588  1.00  0.00    -0.550 OA
ENDBRANCH   1   2
BRANCH   1   5
ATOM      5  C   UNL     1       4.361  14.273   3.385  1.00  0.00     0.059 C 
BRANCH   5   6
ATOM      6  C   UNL     1       5.643  15.029   3.548  1.00  0.00     0.042 C 
ATOM      7  O   UNL     1       5.704  16.017   4.326  1.00  0.00    -0.550 OA
ATOM      8  O   UNL     1       6.762  14.668   2.807  1.00  0.00    -0.550 OA
ENDBRANCH   5   6
ENDBRANCH   1   5
TORSDOF 3
ENDMDL
MODEL 8
REMARK VINA RESULT:    -3.876      2.114      3.308
REMARK INTER + INTRA:          -4.663
REMARK INTER:                  -4.572
REMARK INTRA:                  -0.092
REMARK UNBOUND:                -0.107
REMARK SMILES O=C([O-])CCC(=O)[O-]
REMARK SMILES IDX 4 1 2 2 1 3 3 4 5 5 6 6 7 7 8 8
REMARK H PARENT
REMARK Flexibility Score: inf
ROOT
ATOM      1  C   UNL     1       5.520  14.251   2.329  1.00  0.00     0.059 C 
ENDROOT
BRANCH   1   2
ATOM      2  C   UNL     1       5.297  14.964   3.627  1.00  0.00     0.042 C 
ATOM      3  O   UNL     1       6.118  15.832   4.025  1.00  0.00    -0.550 OA
ATOM      4  O   UNL     1       4.201  14.640   4.418  1.00  0.00    -0.550 OA
ENDBRANCH   1   2
BRANCH   1   5
ATOM      5  C   UNL     1       4.279  13.465   1.895  1.00  0.00     0.059 C 
BRANCH   5   6
ATOM      6  C   UNL     1       3.428  14.255   0.950  1.00  0.00     0.042 C 
ATOM      7  O   UNL     1       2.305  13.814   0.586  1.00  0.00    -0.550 OA
ATOM      8  O   UNL     1       3.893  15.459   0.436  1.00  0.00    -0.550 OA
ENDBRANCH   5   6
ENDBRANCH   1   5
TORSDOF 3
ENDMDL
MODEL 9
REMARK VINA RESULT:    -3.673      1.925      2.624
REMARK INTER + INTRA:          -4.424
REMARK INTER:                  -4.305
REMARK INTRA:                  -0.118
REMARK UNBOUND:                -0.107
REMARK SMILES O=C([O-])CCC(=O)[O-]
REMARK SMILES IDX 4 1 2 2 1 3 3 4 5 5 6 6 7 7 8 8
REMARK H PARENT
REMARK Flexibility Score: inf
ROOT
ATOM      1  C   UNL     1       4.587  14.466   3.410  1.00  0.00     0.059 C 
ENDROOT
BRANCH   1   2
ATOM      2  C   UNL     1       3.507  15.324   3.995  1.00  0.00     0.042 C 
ATOM      3  O   UNL     1       2.312  15.182   3.624  1.00  0.00    -0.550 OA
ATOM      4  O   UNL     1       3.827  16.309   4.922  1.00  0.00    -0.550 OA
ENDBRANCH   1   2
BRANCH   1   5
ATOM      5  C   UNL     1       4.055  13.585   2.276  1.00  0.00     0.059 C 
BRANCH   5   6
ATOM      6  C   UNL     1       4.427  14.132   0.932  1.00  0.00     0.042 C 
ATOM      7  O   UNL     1       5.306  13.560   0.234  1.00  0.00    -0.550 OA
ATOM      8  O   UNL     1       3.832  15.299   0.467  1.00  0.00    -0.550 OA
ENDBRANCH   5   6
ENDBRANCH   1   5
TORSDOF 3
ENDMDL
