MODEL 1
REMARK VINA RESULT:    -4.702      0.000      0.000
REMARK INTER + INTRA:          -7.764
REMARK INTER:                  -7.451
REMARK INTRA:                  -0.313
REMARK UNBOUND:                -0.313
REMARK SMILES CCCCCCCCCCCC(=O)[O-]
REMARK SMILES IDX 7 1 8 2 9 3 10 4 11 5 12 6 13 7 14 8 6 9 5 10 4 11 3 12 2 13
REMARK SMILES IDX 1 14
REMARK H PARENT
REMARK Flexibility Score: inf
ROOT
ATOM      1  C   UNL     1       7.505  -8.838  -1.101  1.00  0.00     0.000 C 
ENDROOT
BRANCH   1   2
ATOM      2  C   UNL     1       8.709  -9.014  -0.160  1.00  0.00     0.000 C 
BRANCH   2   3
ATOM      3  C   UNL     1       8.455 -10.067   0.932  1.00  0.00     0.000 C 
BRANCH   3   4
ATOM      4  C   UNL     1       7.073  -9.913   1.596  1.00  0.00     0.006 C 
BRANCH   4   5
ATOM      5  C   UNL     1       6.844 -10.835   2.804  1.00  0.00     0.053 C 
BRANCH   5   6
ATOM      6  C   UNL     1       5.568 -10.517   3.522  1.00  0.00     0.041 C 
ATOM      7  O   UNL     1       5.435 -10.812   4.739  1.00  0.00    -0.550 OA
ATOM      8  O   UNL     1       4.540  -9.862   2.856  1.00  0.00    -0.550 OA
ENDBRANCH   5   6
ENDBRANCH   4   5
ENDBRANCH   3   4
ENDBRANCH   2   3
ENDBRANCH   1   2
BRANCH   1   9
ATOM      9  C   UNL     1       7.926  -8.650  -2.569  1.00  0.00     0.000 C 
BRANCH   9  10
ATOM     10  C   UNL     1       8.769  -7.383  -2.782  1.00  0.00    -0.000 C 
BRANCH  10  11
ATOM     11  C   UNL     1       8.267  -6.527  -3.959  1.00  0.00    -0.000 C 
BRANCH  11  12
ATOM     12  C   UNL     1       8.037  -5.056  -3.569  1.00  0.00    -0.000 C 
BRANCH  12  13
ATOM     13  C   UNL     1       7.081  -4.286  -4.498  1.00  0.00    -0.003 C 
ATOM     14  C   UNL     1       7.773  -3.729  -5.741  1.00  0.00     0.004 C 
ENDBRANCH  12  13
ENDBRANCH  11  12
ENDBRANCH  10  11
ENDBRANCH   9  10
ENDBRANCH   1   9
TORSDOF 10
ENDMDL
MODEL 2
REMARK VINA RESULT:    -4.642      1.315      2.369
REMARK INTER + INTRA:          -7.669
REMARK INTER:                  -7.059
REMARK INTRA:                  -0.611
REMARK UNBOUND:                -0.313
REMARK SMILES CCCCCCCCCCCC(=O)[O-]
REMARK SMILES IDX 7 1 8 2 9 3 10 4 11 5 12 6 13 7 14 8 6 9 5 10 4 11 3 12 2 13
REMARK SMILES IDX 1 14
REMARK H PARENT
REMARK Flexibility Score: inf
ROOT
ATOM      1  C   UNL     1       8.041  -8.318  -3.500  1.00  0.00     0.000 C 
ENDROOT
BRANCH   1   2
ATOM      2  C   UNL     1       7.755  -8.227  -1.991  1.00  0.00     0.000 C 
BRANCH   2   3
ATOM      3  C   UNL     1       8.871  -8.859  -1.141  1.00  0.00     0.000 C 
BRANCH   3   4
ATOM      4  C   UNL     1       8.403 -10.116  -0.383  1.00  0.00     0.006 C 
BRANCH   4   5
ATOM      5  C   UNL     1       8.227  -9.915   1.130  1.00  0.00     0.053 C 
BRANCH   5   6
ATOM      6  C   UNL     1       6.785  -9.786   1.517  1.00  0.00     0.041 C 
ATOM      7  O   UNL     1       5.902  -9.639   0.632  1.00  0.00    -0.550 OA
ATOM      8  O   UNL     1       6.413  -9.863   2.853  1.00  0.00    -0.550 OA
ENDBRANCH   5   6
ENDBRANCH   4   5
ENDBRANCH   3   4
ENDBRANCH   2   3
ENDBRANCH   1   2
BRANCH   1   9
ATOM      9  C   UNL     1       8.658  -7.025  -4.062  1.00  0.00     0.000 C 
BRANCH   9  10
ATOM     10  C   UNL     1       8.393  -5.808  -3.163  1.00  0.00    -0.000 C 
BRANCH  10  11
ATOM     11  C   UNL     1       8.642  -4.471  -3.884  1.00  0.00    -0.000 C 
BRANCH  11  12
ATOM     12  C   UNL     1       7.449  -4.030  -4.751  1.00  0.00    -0.000 C 
BRANCH  12  13
ATOM     13  C   UNL     1       7.824  -3.560  -6.169  1.00  0.00    -0.003 C 
ATOM     14  C   UNL     1       8.774  -4.519  -6.886  1.00  0.00     0.004 C 
ENDBRANCH  12  13
ENDBRANCH  11  12
ENDBRANCH  10  11
ENDBRANCH   9  10
ENDBRANCH   1   9
TORSDOF 10
ENDMDL
MODEL 3
REMARK VINA RESULT:    -4.522      2.937      4.803
REMARK INTER + INTRA:          -7.479
REMARK INTER:                  -6.654
REMARK INTRA:                  -0.825
REMARK UNBOUND:                -0.313
REMARK SMILES CCCCCCCCCCCC(=O)[O-]
REMARK SMILES IDX 7 1 8 2 9 3 10 4 11 5 12 6 13 7 14 8 6 9 5 10 4 11 3 12 2 13
REMARK SMILES IDX 1 14
REMARK H PARENT
REMARK Flexibility Score: inf
ROOT
ATOM      1  C   UNL     1       8.766  -4.769  -3.557  1.00  0.00     0.000 C 
ENDROOT
BRANCH   1   2
ATOM      2  C   UNL     1       8.670  -6.129  -2.845  1.00  0.00     0.000 C 
BRANCH   2   3
ATOM      3  C   UNL     1       8.237  -7.261  -3.792  1.00  0.00     0.000 C 
BRANCH   3   4
ATOM      4  C   UNL     1       8.050  -8.606  -3.065  1.00  0.00     0.006 C 
BRANCH   4   5
ATOM      5  C   UNL     1       7.634  -8.478  -1.591  1.00  0.00     0.053 C 
BRANCH   5   6
ATOM      6  C   UNL     1       8.436  -9.377  -0.700  1.00  0.00     0.041 C 
ATOM      7  O   UNL     1       8.960  -8.923   0.351  1.00  0.00    -0.550 OA
ATOM      8  O   UNL     1       8.575 -10.723  -1.013  1.00  0.00    -0.550 OA
ENDBRANCH   5   6
ENDBRANCH   4   5
ENDBRANCH   3   4
ENDBRANCH   2   3
ENDBRANCH   1   2
BRANCH   1   9
ATOM      9  C   UNL     1       7.457  -4.382  -4.268  1.00  0.00     0.000 C 
BRANCH   9  10
ATOM     10  C   UNL     1       7.663  -4.090  -5.762  1.00  0.00    -0.000 C 
BRANCH  10  11
ATOM     11  C   UNL     1       9.087  -4.425  -6.242  1.00  0.00    -0.000 C 
BRANCH  11  12
ATOM     12  C   UNL     1       9.108  -5.085  -7.632  1.00  0.00    -0.000 C 
BRANCH  12  13
ATOM     13  C   UNL     1       8.661  -6.558  -7.651  1.00  0.00    -0.003 C 
ATOM     14  C   UNL     1       7.943  -6.949  -8.942  1.00  0.00     0.004 C 
ENDBRANCH  12  13
ENDBRANCH  11  12
ENDBRANCH  10  11
ENDBRANCH   9  10
ENDBRANCH   1   9
TORSDOF 10
ENDMDL
MODEL 4
REMARK VINA RESULT:    -4.440      4.009      6.142
REMARK INTER + INTRA:          -7.349
REMARK INTER:                  -6.616
REMARK INTRA:                  -0.732
REMARK UNBOUND:                -0.313
REMARK SMILES CCCCCCCCCCCC(=O)[O-]
REMARK SMILES IDX 7 1 8 2 9 3 10 4 11 5 12 6 13 7 14 8 6 9 5 10 4 11 3 12 2 13
REMARK SMILES IDX 1 14
REMARK H PARENT
REMARK Flexibility Score: inf
ROOT
ATOM      1  C   UNL     1       7.530  -4.436  -4.997  1.00  0.00     0.000 C 
ENDROOT
BRANCH   1   2
ATOM      2  C   UNL     1       8.558  -4.058  -3.917  1.00  0.00     0.000 C 
BRANCH   2   3
ATOM      3  C   UNL     1       9.017  -5.271  -3.090  1.00  0.00     0.000 C 
BRANCH   3   4
ATOM      4  C   UNL     1       8.328  -6.580  -3.521  1.00  0.00     0.006 C 
BRANCH   4   5
ATOM      5  C   UNL     1       8.232  -7.640  -2.412  1.00  0.00     0.053 C 
BRANCH   5   6
ATOM      6  C   UNL     1       7.729  -8.952  -2.931  1.00  0.00     0.041 C 
ATOM      7  O   UNL     1       7.371  -9.064  -4.133  1.00  0.00    -0.550 OA
ATOM      8  O   UNL     1       7.689 -10.062  -2.096  1.00  0.00    -0.550 OA
ENDBRANCH   5   6
ENDBRANCH   4   5
ENDBRANCH   3   4
ENDBRANCH   2   3
ENDBRANCH   1   2
BRANCH   1   9
ATOM      9  C   UNL     1       7.902  -3.885  -6.385  1.00  0.00     0.000 C 
BRANCH   9  10
ATOM     10  C   UNL     1       9.021  -4.694  -7.058  1.00  0.00    -0.000 C 
BRANCH  10  11
ATOM     11  C   UNL     1       8.651  -6.176  -7.248  1.00  0.00    -0.000 C 
BRANCH  11  12
ATOM     12  C   UNL     1       8.701  -6.618  -8.722  1.00  0.00    -0.000 C 
BRANCH  12  13
ATOM     13  C   UNL     1       7.435  -7.337  -9.221  1.00  0.00    -0.003 C 
ATOM     14  C   UNL     1       7.243  -8.717  -8.594  1.00  0.00     0.004 C 
ENDBRANCH  12  13
ENDBRANCH  11  12
ENDBRANCH  10  11
ENDBRANCH   9  10
ENDBRANCH   1   9
TORSDOF 10
ENDMDL
MODEL 5
REMARK VINA RESULT:    -4.345      5.556      8.706
REMARK INTER + INTRA:          -7.198
REMARK INTER:                  -6.330
REMARK INTRA:                  -0.868
REMARK UNBOUND:                -0.313
REMARK SMILES CCCCCCCCCCCC(=O)[O-]
REMARK SMILES IDX 7 1 8 2 9 3 10 4 11 5 12 6 13 7 14 8 6 9 5 10 4 11 3 12 2 13
REMARK SMILES IDX 1 14
REMARK H PARENT
REMARK Flexibility Score: inf
ROOT
ATOM      1  C   UNL     1       7.534  -4.302  -5.040  1.00  0.00     0.000 C 
ENDROOT
BRANCH   1   2
ATOM      2  C   UNL     1       7.874  -3.938  -6.495  1.00  0.00     0.000 C 
BRANCH   2   3
ATOM      3  C   UNL     1       9.057  -4.754  -7.045  1.00  0.00     0.000 C 
BRANCH   3   4
ATOM      4  C   UNL     1       8.696  -6.231  -7.293  1.00  0.00     0.006 C 
BRANCH   4   5
ATOM      5  C   UNL     1       7.780  -6.466  -8.506  1.00  0.00     0.053 C 
BRANCH   5   6
ATOM      6  C   UNL     1       7.789  -7.896  -8.950  1.00  0.00     0.041 C 
ATOM      7  O   UNL     1       8.180  -8.198 -10.108  1.00  0.00    -0.550 OA
ATOM      8  O   UNL     1       7.398  -8.900  -8.072  1.00  0.00    -0.550 OA
ENDBRANCH   5   6
ENDBRANCH   4   5
ENDBRANCH   3   4
ENDBRANCH   2   3
ENDBRANCH   1   2
BRANCH   1   9
ATOM      9  C   UNL     1       8.673  -3.958  -4.064  1.00  0.00     0.000 C 
BRANCH   9  10
ATOM     10  C   UNL     1       9.080  -5.154  -3.190  1.00  0.00    -0.000 C 
BRANCH  10  11
ATOM     11  C   UNL     1       8.254  -6.417  -3.490  1.00  0.00    -0.000 C 
BRANCH  11  12
ATOM     12  C   UNL     1       8.329  -7.461  -2.361  1.00  0.00    -0.000 C 
BRANCH  12  13
ATOM     13  C   UNL     1       7.829  -8.865  -2.748  1.00  0.00    -0.003 C 
ATOM     14  C   UNL     1       7.532  -9.004  -4.240  1.00  0.00     0.004 C 
ENDBRANCH  12  13
ENDBRANCH  11  12
ENDBRANCH  10  11
ENDBRANCH   9  10
ENDBRANCH   1   9
TORSDOF 10
ENDMDL
MODEL 6
REMARK VINA RESULT:    -4.308      4.048      8.102
REMARK INTER + INTRA:          -7.140
REMARK INTER:                  -6.804
REMARK INTRA:                  -0.336
REMARK UNBOUND:                -0.313
REMARK SMILES CCCCCCCCCCCC(=O)[O-]
REMARK SMILES IDX 7 1 8 2 9 3 10 4 11 5 12 6 13 7 14 8 6 9 5 10 4 11 3 12 2 13
REMARK SMILES IDX 1 14
REMARK H PARENT
REMARK Flexibility Score: inf
ROOT
ATOM      1  C   UNL     1       7.524  -9.105  -1.308  1.00  0.00     0.000 C 
ENDROOT
BRANCH   1   2
ATOM      2  C   UNL     1       8.040  -7.822  -1.983  1.00  0.00     0.000 C 
BRANCH   2   3
ATOM      3  C   UNL     1       8.493  -8.061  -3.433  1.00  0.00     0.000 C 
BRANCH   3   4
ATOM      4  C   UNL     1       8.914  -6.762  -4.147  1.00  0.00     0.006 C 
BRANCH   4   5
ATOM      5  C   UNL     1       8.359  -5.479  -3.507  1.00  0.00     0.053 C 
BRANCH   5   6
ATOM      6  C   UNL     1       7.805  -4.535  -4.529  1.00  0.00     0.041 C 
ATOM      7  O   UNL     1       6.569  -4.295  -4.567  1.00  0.00    -0.550 OA
ATOM      8  O   UNL     1       8.657  -3.892  -5.419  1.00  0.00    -0.550 OA
ENDBRANCH   5   6
ENDBRANCH   4   5
ENDBRANCH   3   4
ENDBRANCH   2   3
ENDBRANCH   1   2
BRANCH   1   9
ATOM      9  C   UNL     1       8.202  -9.371   0.048  1.00  0.00     0.000 C 
BRANCH   9  10
ATOM     10  C   UNL     1       7.186  -9.578   1.182  1.00  0.00    -0.000 C 
BRANCH  10  11
ATOM     11  C   UNL     1       7.583 -10.720   2.134  1.00  0.00    -0.000 C 
BRANCH  11  12
ATOM     12  C   UNL     1       6.553 -10.946   3.256  1.00  0.00    -0.000 C 
BRANCH  12  13
ATOM     13  C   UNL     1       5.083 -10.858   2.807  1.00  0.00    -0.003 C 
ATOM     14  C   UNL     1       4.178 -10.201   3.848  1.00  0.00     0.004 C 
ENDBRANCH  12  13
ENDBRANCH  11  12
ENDBRANCH  10  11
ENDBRANCH   9  10
ENDBRANCH   1   9
TORSDOF 10
ENDMDL
MODEL 7
REMARK VINA RESULT:    -4.231      1.778      3.509
REMARK INTER + INTRA:          -7.017
REMARK INTER:                  -6.574
REMARK INTRA:                  -0.443
REMARK UNBOUND:                -0.313
REMARK SMILES CCCCCCCCCCCC(=O)[O-]
REMARK SMILES IDX 7 1 8 2 9 3 10 4 11 5 12 6 13 7 14 8 6 9 5 10 4 11 3 12 2 13
REMARK SMILES IDX 1 14
REMARK H PARENT
REMARK Flexibility Score: inf
ROOT
ATOM      1  C   UNL     1       6.638  -9.618   1.031  1.00  0.00     0.000 C 
ENDROOT
BRANCH   1   2
ATOM      2  C   UNL     1       5.723 -10.313   2.052  1.00  0.00     0.000 C 
BRANCH   2   3
ATOM      3  C   UNL     1       6.316 -10.313   3.472  1.00  0.00     0.000 C 
BRANCH   3   4
ATOM      4  C   UNL     1       5.314  -9.828   4.536  1.00  0.00     0.006 C 
BRANCH   4   5
ATOM      5  C   UNL     1       3.841  -9.914   4.105  1.00  0.00     0.053 C 
BRANCH   5   6
ATOM      6  C   UNL     1       3.073  -8.682   4.477  1.00  0.00     0.041 C 
ATOM      7  O   UNL     1       2.622  -7.922   3.580  1.00  0.00    -0.550 OA
ATOM      8  O   UNL     1       2.826  -8.392   5.813  1.00  0.00    -0.550 OA
ENDBRANCH   5   6
ENDBRANCH   4   5
ENDBRANCH   3   4
ENDBRANCH   2   3
ENDBRANCH   1   2
BRANCH   1   9
ATOM      9  C   UNL     1       8.101 -10.086   1.135  1.00  0.00     0.000 C 
BRANCH   9  10
ATOM     10  C   UNL     1       9.032  -9.320   0.182  1.00  0.00    -0.000 C 
BRANCH  10  11
ATOM     11  C   UNL     1       8.352  -8.958  -1.150  1.00  0.00    -0.000 C 
BRANCH  11  12
ATOM     12  C   UNL     1       8.830  -7.608  -1.715  1.00  0.00    -0.000 C 
BRANCH  12  13
ATOM     13  C   UNL     1       8.210  -7.222  -3.070  1.00  0.00    -0.003 C 
ATOM     14  C   UNL     1       8.337  -5.732  -3.384  1.00  0.00     0.004 C 
ENDBRANCH  12  13
ENDBRANCH  11  12
ENDBRANCH  10  11
ENDBRANCH   9  10
ENDBRANCH   1   9
TORSDOF 10
ENDMDL
MODEL 8
REMARK VINA RESULT:    -3.994      4.629      8.510
REMARK INTER + INTRA:          -6.642
REMARK INTER:                  -6.122
REMARK INTRA:                  -0.520
REMARK UNBOUND:                -0.313
REMARK SMILES CCCCCCCCCCCC(=O)[O-]
REMARK SMILES IDX 7 1 8 2 9 3 10 4 11 5 12 6 13 7 14 8 6 9 5 10 4 11 3 12 2 13
REMARK SMILES IDX 1 14
REMARK H PARENT
REMARK Flexibility Score: inf
ROOT
ATOM      1  C   UNL     1       7.249  -4.600  -4.296  1.00  0.00     0.000 C 
ENDROOT
BRANCH   1   2
ATOM      2  C   UNL     1       7.747  -3.711  -5.448  1.00  0.00     0.000 C 
BRANCH   2   3
ATOM      3  C   UNL     1       8.721  -4.449  -6.383  1.00  0.00     0.000 C 
BRANCH   3   4
ATOM      4  C   UNL     1       7.997  -5.291  -7.452  1.00  0.00     0.006 C 
BRANCH   4   5
ATOM      5  C   UNL     1       8.894  -6.315  -8.167  1.00  0.00     0.053 C 
BRANCH   5   6
ATOM      6  C   UNL     1       8.524  -7.724  -7.821  1.00  0.00     0.041 C 
ATOM      7  O   UNL     1       8.654  -8.142  -6.640  1.00  0.00    -0.550 OA
ATOM      8  O   UNL     1       8.004  -8.567  -8.795  1.00  0.00    -0.550 OA
ENDBRANCH   5   6
ENDBRANCH   4   5
ENDBRANCH   3   4
ENDBRANCH   2   3
ENDBRANCH   1   2
BRANCH   1   9
ATOM      9  C   UNL     1       8.403  -5.240  -3.503  1.00  0.00     0.000 C 
BRANCH   9  10
ATOM     10  C   UNL     1       8.306  -6.773  -3.458  1.00  0.00    -0.000 C 
BRANCH  10  11
ATOM     11  C   UNL     1       8.729  -7.355  -2.097  1.00  0.00    -0.000 C 
BRANCH  11  12
ATOM     12  C   UNL     1       7.779  -8.459  -1.600  1.00  0.00    -0.000 C 
BRANCH  12  13
ATOM     13  C   UNL     1       8.429  -9.495  -0.666  1.00  0.00    -0.003 C 
ATOM     14  C   UNL     1       7.772  -9.554   0.713  1.00  0.00     0.004 C 
ENDBRANCH  12  13
ENDBRANCH  11  12
ENDBRANCH  10  11
ENDBRANCH   9  10
ENDBRANCH   1   9
TORSDOF 10
ENDMDL
MODEL 9
REMARK VINA RESULT:    -3.929      4.409      6.552
REMARK INTER + INTRA:          -6.540
REMARK INTER:                  -5.696
REMARK INTRA:                  -0.844
REMARK UNBOUND:                -0.313
REMARK SMILES CCCCCCCCCCCC(=O)[O-]
REMARK SMILES IDX 7 1 8 2 9 3 10 4 11 5 12 6 13 7 14 8 6 9 5 10 4 11 3 12 2 13
REMARK SMILES IDX 1 14
REMARK H PARENT
REMARK Flexibility Score: inf
ROOT
ATOM      1  C   UNL     1       7.366  -4.013  -5.838  1.00  0.00     0.000 C 
ENDROOT
BRANCH   1   2
ATOM      2  C   UNL     1       7.301  -4.266  -4.322  1.00  0.00     0.000 C 
BRANCH   2   3
ATOM      3  C   UNL     1       8.691  -4.495  -3.703  1.00  0.00     0.000 C 
BRANCH   3   4
ATOM      4  C   UNL     1       8.856  -5.911  -3.120  1.00  0.00     0.006 C 
BRANCH   4   5
ATOM      5  C   UNL     1       8.382  -7.040  -4.050  1.00  0.00     0.053 C 
BRANCH   5   6
ATOM      6  C   UNL     1       7.987  -8.268  -3.289  1.00  0.00     0.041 C 
ATOM      7  O   UNL     1       8.310  -8.394  -2.078  1.00  0.00    -0.550 OA
ATOM      8  O   UNL     1       7.234  -9.258  -3.907  1.00  0.00    -0.550 OA
ENDBRANCH   5   6
ENDBRANCH   4   5
ENDBRANCH   3   4
ENDBRANCH   2   3
ENDBRANCH   1   2
BRANCH   1   9
ATOM      9  C   UNL     1       8.808  -4.009  -6.374  1.00  0.00     0.000 C 
BRANCH   9  10
ATOM     10  C   UNL     1       9.114  -5.236  -7.247  1.00  0.00    -0.000 C 
BRANCH  10  11
ATOM     11  C   UNL     1       7.846  -5.868  -7.848  1.00  0.00    -0.000 C 
BRANCH  11  12
ATOM     12  C   UNL     1       8.134  -7.176  -8.608  1.00  0.00    -0.000 C 
BRANCH  12  13
ATOM     13  C   UNL     1       7.019  -7.620  -9.571  1.00  0.00    -0.003 C 
ATOM     14  C   UNL     1       6.332  -8.914  -9.136  1.00  0.00     0.004 C 
ENDBRANCH  12  13
ENDBRANCH  11  12
ENDBRANCH  10  11
ENDBRANCH   9  10
ENDBRANCH   1   9
TORSDOF 10
ENDMDL
