MODEL 1
REMARK VINA RESULT:    -4.067      0.000      0.000
REMARK INTER + INTRA:          -4.726
REMARK INTER:                  -4.661
REMARK INTRA:                  -0.064
REMARK UNBOUND:                -0.064
REMARK SMILES COc1cc(C=O)ccc1O
REMARK SMILES IDX 3 1 10 2 9 3 8 4 5 5 4 6 2 7 1 8 11 9 6 11 7 12
REMARK H PARENT 11 10
REMARK Flexibility Score: inf
ROOT
ATOM      1  C   UNL     1     168.184 165.016 168.148  1.00  0.00     0.161 A 
ATOM      2  C   UNL     1     166.952 165.697 168.140  1.00  0.00     0.157 A 
ATOM      3  C   UNL     1     166.920 167.087 168.290  1.00  0.00     0.051 A 
ATOM      4  C   UNL     1     168.104 167.808 168.450  1.00  0.00     0.015 A 
ATOM      5  C   UNL     1     169.340 167.147 168.461  1.00  0.00     0.018 A 
ATOM      6  C   UNL     1     169.376 165.750 168.311  1.00  0.00     0.062 A 
ENDROOT
BRANCH   1   7
ATOM      7  O   UNL     1     168.184 163.620 167.995  1.00  0.00    -0.493 OA
ATOM      8  C   UNL     1     168.756 162.705 168.927  1.00  0.00     0.278 C 
ENDBRANCH   1   7
BRANCH   2   9
ATOM      9  O   UNL     1     165.749 165.010 167.982  1.00  0.00    -0.504 OA
ATOM     10  H   UNL     1     165.714 164.007 167.838  1.00  0.00     0.293 HD
ENDBRANCH   2   9
BRANCH   5  11
ATOM     11  C   UNL     1     170.579 167.929 168.631  1.00  0.00     0.260 C 
ATOM     12  O   UNL     1     171.572 167.749 167.877  1.00  0.00    -0.298 OA
ENDBRANCH   5  11
TORSDOF 3
ENDMDL
MODEL 2
REMARK VINA RESULT:    -3.993      3.183      5.969
REMARK INTER + INTRA:          -4.641
REMARK INTER:                  -4.585
REMARK INTRA:                  -0.056
REMARK UNBOUND:                -0.064
REMARK SMILES COc1cc(C=O)ccc1O
REMARK SMILES IDX 3 1 10 2 9 3 8 4 5 5 4 6 2 7 1 8 11 9 6 11 7 12
REMARK H PARENT 11 10
REMARK Flexibility Score: inf
ROOT
ATOM      1  C   UNL     1     167.072 170.292 168.502  1.00  0.00     0.161 A 
ATOM      2  C   UNL     1     168.356 169.797 168.210  1.00  0.00     0.157 A 
ATOM      3  C   UNL     1     168.531 168.445 167.898  1.00  0.00     0.051 A 
ATOM      4  C   UNL     1     167.438 167.578 167.875  1.00  0.00     0.015 A 
ATOM      5  C   UNL     1     166.152 168.052 168.164  1.00  0.00     0.018 A 
ATOM      6  C   UNL     1     165.972 169.411 168.478  1.00  0.00     0.062 A 
ENDROOT
BRANCH   1   7
ATOM      7  O   UNL     1     166.927 171.655 168.812  1.00  0.00    -0.493 OA
ATOM      8  C   UNL     1     165.993 172.175 169.754  1.00  0.00     0.278 C 
ENDBRANCH   1   7
BRANCH   2   9
ATOM      9  O   UNL     1     169.472 170.634 168.223  1.00  0.00    -0.504 OA
ATOM     10  H   UNL     1     169.390 171.645 168.245  1.00  0.00     0.293 HD
ENDBRANCH   2   9
BRANCH   5  11
ATOM     11  C   UNL     1     165.010 167.118 168.134  1.00  0.00     0.260 C 
ATOM     12  O   UNL     1     163.825 167.540 168.078  1.00  0.00    -0.298 OA
ENDBRANCH   5  11
TORSDOF 3
ENDMDL
MODEL 3
REMARK VINA RESULT:    -3.989      2.460      4.698
REMARK INTER + INTRA:          -4.636
REMARK INTER:                  -4.580
REMARK INTRA:                  -0.056
REMARK UNBOUND:                -0.064
REMARK SMILES COc1cc(C=O)ccc1O
REMARK SMILES IDX 3 1 10 2 9 3 8 4 5 5 4 6 2 7 1 8 11 9 6 11 7 12
REMARK H PARENT 11 10
REMARK Flexibility Score: inf
ROOT
ATOM      1  C   UNL     1     168.482 168.379 168.160  1.00  0.00     0.161 A 
ATOM      2  C   UNL     1     168.305 169.772 168.259  1.00  0.00     0.157 A 
ATOM      3  C   UNL     1     167.028 170.303 168.464  1.00  0.00     0.051 A 
ATOM      4  C   UNL     1     165.921 169.461 168.572  1.00  0.00     0.015 A 
ATOM      5  C   UNL     1     166.077 168.071 168.476  1.00  0.00     0.018 A 
ATOM      6  C   UNL     1     167.359 167.533 168.270  1.00  0.00     0.062 A 
ENDROOT
BRANCH   1   7
ATOM      7  O   UNL     1     169.776 167.875 167.953  1.00  0.00    -0.493 OA
ATOM      8  C   UNL     1     170.158 166.518 168.164  1.00  0.00     0.278 C 
ENDBRANCH   1   7
BRANCH   2   9
ATOM      9  O   UNL     1     169.388 170.645 168.155  1.00  0.00    -0.504 OA
ATOM     10  H   UNL     1     169.419 171.530 168.649  1.00  0.00     0.293 HD
ENDBRANCH   2   9
BRANCH   5  11
ATOM     11  C   UNL     1     164.893 167.199 168.594  1.00  0.00     0.260 C 
ATOM     12  O   UNL     1     163.789 167.528 168.085  1.00  0.00    -0.298 OA
ENDBRANCH   5  11
TORSDOF 3
ENDMDL
MODEL 4
REMARK VINA RESULT:    -3.980      2.254      4.034
REMARK INTER + INTRA:          -4.626
REMARK INTER:                  -4.570
REMARK INTRA:                  -0.055
REMARK UNBOUND:                -0.064
REMARK SMILES COc1cc(C=O)ccc1O
REMARK SMILES IDX 3 1 10 2 9 3 8 4 5 5 4 6 2 7 1 8 11 9 6 11 7 12
REMARK H PARENT 11 10
REMARK Flexibility Score: inf
ROOT
ATOM      1  C   UNL     1     165.091 166.962 168.517  1.00  0.00     0.161 A 
ATOM      2  C   UNL     1     165.611 168.225 168.177  1.00  0.00     0.157 A 
ATOM      3  C   UNL     1     166.977 168.372 167.917  1.00  0.00     0.051 A 
ATOM      4  C   UNL     1     167.835 167.274 167.994  1.00  0.00     0.015 A 
ATOM      5  C   UNL     1     167.335 166.009 168.332  1.00  0.00     0.018 A 
ATOM      6  C   UNL     1     165.962 165.856 168.593  1.00  0.00     0.062 A 
ENDROOT
BRANCH   1   7
ATOM      7  O   UNL     1     163.715 166.845 168.772  1.00  0.00    -0.493 OA
ATOM      8  C   UNL     1     163.145 165.979 169.749  1.00  0.00     0.278 C 
ENDBRANCH   1   7
BRANCH   2   9
ATOM      9  O   UNL     1     164.785 169.345 168.090  1.00  0.00    -0.504 OA
ATOM     10  H   UNL     1     164.751 170.050 168.818  1.00  0.00     0.293 HD
ENDBRANCH   2   9
BRANCH   5  11
ATOM     11  C   UNL     1     168.259 164.861 168.407  1.00  0.00     0.260 C 
ATOM     12  O   UNL     1     167.926 163.728 167.969  1.00  0.00    -0.298 OA
ENDBRANCH   5  11
TORSDOF 3
ENDMDL
MODEL 5
REMARK VINA RESULT:    -3.962      2.458      4.395
REMARK INTER + INTRA:          -4.605
REMARK INTER:                  -4.549
REMARK INTRA:                  -0.056
REMARK UNBOUND:                -0.064
REMARK SMILES COc1cc(C=O)ccc1O
REMARK SMILES IDX 3 1 10 2 9 3 8 4 5 5 4 6 2 7 1 8 11 9 6 11 7 12
REMARK H PARENT 11 10
REMARK Flexibility Score: inf
ROOT
ATOM      1  C   UNL     1     170.287 168.291 168.436  1.00  0.00     0.161 A 
ATOM      2  C   UNL     1     169.773 167.025 168.102  1.00  0.00     0.157 A 
ATOM      3  C   UNL     1     168.403 166.863 167.875  1.00  0.00     0.051 A 
ATOM      4  C   UNL     1     167.535 167.951 167.978  1.00  0.00     0.015 A 
ATOM      5  C   UNL     1     168.029 169.220 168.310  1.00  0.00     0.018 A 
ATOM      6  C   UNL     1     169.406 169.387 168.539  1.00  0.00     0.062 A 
ENDROOT
BRANCH   1   7
ATOM      7  O   UNL     1     171.667 168.424 168.658  1.00  0.00    -0.493 OA
ATOM      8  C   UNL     1     172.249 169.242 169.670  1.00  0.00     0.278 C 
ENDBRANCH   1   7
BRANCH   2   9
ATOM      9  O   UNL     1     170.609 165.914 167.990  1.00  0.00    -0.504 OA
ATOM     10  H   UNL     1     170.464 165.070 168.533  1.00  0.00     0.293 HD
ENDBRANCH   2   9
BRANCH   5  11
ATOM     11  C   UNL     1     167.094 170.357 168.413  1.00  0.00     0.260 C 
ATOM     12  O   UNL     1     167.378 171.480 167.918  1.00  0.00    -0.298 OA
ENDBRANCH   5  11
TORSDOF 3
ENDMDL
MODEL 6
REMARK VINA RESULT:    -3.937      2.204      4.230
REMARK INTER + INTRA:          -4.576
REMARK INTER:                  -4.518
REMARK INTRA:                  -0.058
REMARK UNBOUND:                -0.064
REMARK SMILES COc1cc(C=O)ccc1O
REMARK SMILES IDX 3 1 10 2 9 3 8 4 5 5 4 6 2 7 1 8 11 9 6 11 7 12
REMARK H PARENT 11 10
REMARK Flexibility Score: inf
ROOT
ATOM      1  C   UNL     1     167.094 168.254 168.141  1.00  0.00     0.161 A 
ATOM      2  C   UNL     1     165.692 168.188 168.241  1.00  0.00     0.157 A 
ATOM      3  C   UNL     1     165.065 166.966 168.506  1.00  0.00     0.051 A 
ATOM      4  C   UNL     1     165.822 165.805 168.671  1.00  0.00     0.015 A 
ATOM      5  C   UNL     1     167.219 165.851 168.576  1.00  0.00     0.018 A 
ATOM      6  C   UNL     1     167.852 167.078 168.310  1.00  0.00     0.062 A 
ENDROOT
BRANCH   1   7
ATOM      7  O   UNL     1     167.695 169.495 167.875  1.00  0.00    -0.493 OA
ATOM      8  C   UNL     1     168.851 169.993 168.542  1.00  0.00     0.278 C 
ENDBRANCH   1   7
BRANCH   2   9
ATOM      9  O   UNL     1     164.903 169.327 168.081  1.00  0.00    -0.504 OA
ATOM     10  H   UNL     1     164.626 169.669 167.168  1.00  0.00     0.293 HD
ENDBRANCH   2   9
BRANCH   5  11
ATOM     11  C   UNL     1     168.000 164.612 168.755  1.00  0.00     0.260 C 
ATOM     12  O   UNL     1     167.990 163.704 167.882  1.00  0.00    -0.298 OA
ENDBRANCH   5  11
TORSDOF 3
ENDMDL
MODEL 7
REMARK VINA RESULT:    -3.915      1.533      3.509
REMARK INTER + INTRA:          -4.551
REMARK INTER:                  -4.524
REMARK INTRA:                  -0.028
REMARK UNBOUND:                -0.064
REMARK SMILES COc1cc(C=O)ccc1O
REMARK SMILES IDX 3 1 10 2 9 3 8 4 5 5 4 6 2 7 1 8 11 9 6 11 7 12
REMARK H PARENT 11 10
REMARK Flexibility Score: inf
ROOT
ATOM      1  C   UNL     1     167.831 165.076 168.104  1.00  0.00     0.161 A 
ATOM      2  C   UNL     1     168.818 166.079 168.100  1.00  0.00     0.157 A 
ATOM      3  C   UNL     1     168.461 167.412 168.325  1.00  0.00     0.051 A 
ATOM      4  C   UNL     1     167.129 167.759 168.553  1.00  0.00     0.015 A 
ATOM      5  C   UNL     1     166.132 166.774 168.560  1.00  0.00     0.018 A 
ATOM      6  C   UNL     1     166.487 165.432 168.335  1.00  0.00     0.062 A 
ENDROOT
BRANCH   1   7
ATOM      7  O   UNL     1     168.219 163.745 167.875  1.00  0.00    -0.493 OA
ATOM      8  C   UNL     1     168.747 162.874 168.872  1.00  0.00     0.278 C 
ENDBRANCH   1   7
BRANCH   2   9
ATOM      9  O   UNL     1     170.159 165.770 167.875  1.00  0.00    -0.504 OA
ATOM     10  H   UNL     1     170.491 164.815 167.812  1.00  0.00     0.293 HD
ENDBRANCH   2   9
BRANCH   5  11
ATOM     11  C   UNL     1     164.730 167.162 168.804  1.00  0.00     0.260 C 
ATOM     12  O   UNL     1     164.212 168.141 168.206  1.00  0.00    -0.298 OA
ENDBRANCH   5  11
TORSDOF 3
ENDMDL
MODEL 8
REMARK VINA RESULT:    -3.910      2.027      2.685
REMARK INTER + INTRA:          -4.546
REMARK INTER:                  -4.475
REMARK INTRA:                  -0.071
REMARK UNBOUND:                -0.064
REMARK SMILES COc1cc(C=O)ccc1O
REMARK SMILES IDX 3 1 10 2 9 3 8 4 5 5 4 6 2 7 1 8 11 9 6 11 7 12
REMARK H PARENT 11 10
REMARK Flexibility Score: inf
ROOT
ATOM      1  C   UNL     1     167.582 166.641 167.950  1.00  0.00     0.161 A 
ATOM      2  C   UNL     1     166.228 166.259 167.990  1.00  0.00     0.157 A 
ATOM      3  C   UNL     1     165.225 167.233 167.997  1.00  0.00     0.051 A 
ATOM      4  C   UNL     1     165.556 168.588 167.967  1.00  0.00     0.015 A 
ATOM      5  C   UNL     1     166.899 168.988 167.928  1.00  0.00     0.018 A 
ATOM      6  C   UNL     1     167.910 168.011 167.920  1.00  0.00     0.062 A 
ENDROOT
BRANCH   1   7
ATOM      7  O   UNL     1     168.567 165.639 167.944  1.00  0.00    -0.493 OA
ATOM      8  C   UNL     1     169.208 165.129 169.109  1.00  0.00     0.278 C 
ENDBRANCH   1   7
BRANCH   2   9
ATOM      9  O   UNL     1     165.859 164.914 168.021  1.00  0.00    -0.504 OA
ATOM     10  H   UNL     1     165.897 164.362 168.871  1.00  0.00     0.293 HD
ENDBRANCH   2   9
BRANCH   5  11
ATOM     11  C   UNL     1     167.227 170.426 167.895  1.00  0.00     0.260 C 
ATOM     12  O   UNL     1     168.395 170.833 168.134  1.00  0.00    -0.298 OA
ENDBRANCH   5  11
TORSDOF 3
ENDMDL
MODEL 9
REMARK VINA RESULT:    -3.896      2.004      4.520
REMARK INTER + INTRA:          -4.529
REMARK INTER:                  -4.476
REMARK INTRA:                  -0.053
REMARK UNBOUND:                -0.064
REMARK SMILES COc1cc(C=O)ccc1O
REMARK SMILES IDX 3 1 10 2 9 3 8 4 5 5 4 6 2 7 1 8 11 9 6 11 7 12
REMARK H PARENT 11 10
REMARK Flexibility Score: inf
ROOT
ATOM      1  C   UNL     1     167.809 168.411 167.962  1.00  0.00     0.161 A 
ATOM      2  C   UNL     1     169.133 168.884 167.932  1.00  0.00     0.157 A 
ATOM      3  C   UNL     1     170.200 167.980 167.960  1.00  0.00     0.051 A 
ATOM      4  C   UNL     1     169.962 166.607 168.018  1.00  0.00     0.015 A 
ATOM      5  C   UNL     1     168.649 166.117 168.048  1.00  0.00     0.018 A 
ATOM      6  C   UNL     1     167.574 167.022 168.020  1.00  0.00     0.062 A 
ENDROOT
BRANCH   1   7
ATOM      7  O   UNL     1     166.757 169.342 167.933  1.00  0.00    -0.493 OA
ATOM      8  C   UNL     1     165.426 169.072 168.362  1.00  0.00     0.278 C 
ENDBRANCH   1   7
BRANCH   2   9
ATOM      9  O   UNL     1     169.410 170.250 167.875  1.00  0.00    -0.504 OA
ATOM     10  H   UNL     1     169.049 170.845 167.138  1.00  0.00     0.293 HD
ENDBRANCH   2   9
BRANCH   5  11
ATOM     11  C   UNL     1     168.420 164.661 168.108  1.00  0.00     0.260 C 
ATOM     12  O   UNL     1     167.257 164.189 168.215  1.00  0.00    -0.298 OA
ENDBRANCH   5  11
TORSDOF 3
ENDMDL
