MODEL 1
REMARK VINA RESULT:    -3.822      0.000      0.000
REMARK INTER + INTRA:          -9.775
REMARK INTER:                  -6.949
REMARK INTRA:                  -2.826
REMARK UNBOUND:                -2.826
REMARK SMILES CCCCCCCCCCCCCCCC(=O)[O-]
REMARK SMILES IDX 9 1 10 2 11 3 12 4 13 5 14 6 15 7 16 8 17 9 18 10 8 11 7 12
REMARK SMILES IDX 6 13 5 14 4 15 3 16 2 17 1 18
REMARK H PARENT
REMARK Flexibility Score: inf
ROOT
ATOM      1  C   UNL     1     177.251 175.399 181.580  1.00  0.00     0.000 C 
ENDROOT
BRANCH   1   2
ATOM      2  C   UNL     1     176.388 174.420 182.404  1.00  0.00     0.000 C 
BRANCH   2   3
ATOM      3  C   UNL     1     175.166 175.109 183.030  1.00  0.00     0.000 C 
BRANCH   3   4
ATOM      4  C   UNL     1     173.861 174.463 182.547  1.00  0.00     0.000 C 
BRANCH   4   5
ATOM      5  C   UNL     1     172.762 175.519 182.357  1.00  0.00     0.000 C 
BRANCH   5   6
ATOM      6  C   UNL     1     173.275 176.961 182.519  1.00  0.00     0.006 C 
BRANCH   6   7
ATOM      7  C   UNL     1     172.162 178.024 182.521  1.00  0.00     0.053 C 
BRANCH   7   8
ATOM      8  C   UNL     1     171.182 177.840 181.402  1.00  0.00     0.041 C 
ATOM      9  O   UNL     1     171.543 178.006 180.207  1.00  0.00    -0.550 OA
ATOM     10  O   UNL     1     169.876 177.457 181.678  1.00  0.00    -0.550 OA
ENDBRANCH   7   8
ENDBRANCH   6   7
ENDBRANCH   5   6
ENDBRANCH   4   5
ENDBRANCH   3   4
ENDBRANCH   2   3
ENDBRANCH   1   2
BRANCH   1  11
ATOM     11  C   UNL     1     177.019 176.877 181.936  1.00  0.00     0.000 C 
BRANCH  11  12
ATOM     12  C   UNL     1     177.056 177.799 180.706  1.00  0.00    -0.000 C 
BRANCH  12  13
ATOM     13  C   UNL     1     176.474 177.129 179.450  1.00  0.00    -0.000 C 
BRANCH  13  14
ATOM     14  C   UNL     1     174.961 177.368 179.299  1.00  0.00    -0.000 C 
BRANCH  14  15
ATOM     15  C   UNL     1     174.199 176.094 178.902  1.00  0.00    -0.000 C 
BRANCH  15  16
ATOM     16  C   UNL     1     175.128 174.887 178.704  1.00  0.00    -0.000 C 
BRANCH  16  17
ATOM     17  C   UNL     1     174.400 173.576 179.028  1.00  0.00    -0.003 C 
ATOM     18  C   UNL     1     175.381 172.496 179.474  1.00  0.00     0.004 C 
ENDBRANCH  16  17
ENDBRANCH  15  16
ENDBRANCH  14  15
ENDBRANCH  13  14
ENDBRANCH  12  13
ENDBRANCH  11  12
ENDBRANCH   1  11
TORSDOF 14
ENDMDL
MODEL 2
REMARK VINA RESULT:    -3.648      1.484      3.161
REMARK INTER + INTRA:          -9.460
REMARK INTER:                  -7.340
REMARK INTRA:                  -2.120
REMARK UNBOUND:                -2.826
REMARK SMILES CCCCCCCCCCCCCCCC(=O)[O-]
REMARK SMILES IDX 9 1 10 2 11 3 12 4 13 5 14 6 15 7 16 8 17 9 18 10 8 11 7 12
REMARK SMILES IDX 6 13 5 14 4 15 3 16 2 17 1 18
REMARK H PARENT
REMARK Flexibility Score: inf
ROOT
ATOM      1  C   UNL     1     175.301 176.809 178.846  1.00  0.00     0.000 C 
ENDROOT
BRANCH   1   2
ATOM      2  C   UNL     1     174.132 176.050 179.508  1.00  0.00     0.000 C 
BRANCH   2   3
ATOM      3  C   UNL     1     173.143 177.000 180.202  1.00  0.00     0.000 C 
BRANCH   3   4
ATOM      4  C   UNL     1     172.638 176.401 181.520  1.00  0.00     0.000 C 
BRANCH   4   5
ATOM      5  C   UNL     1     172.294 177.506 182.530  1.00  0.00     0.000 C 
BRANCH   5   6
ATOM      6  C   UNL     1     170.850 177.416 183.056  1.00  0.00     0.006 C 
BRANCH   6   7
ATOM      7  C   UNL     1     169.969 176.411 182.294  1.00  0.00     0.053 C 
BRANCH   7   8
ATOM      8  C   UNL     1     169.103 177.066 181.261  1.00  0.00     0.041 C 
ATOM      9  O   UNL     1     168.036 177.643 181.598  1.00  0.00    -0.550 OA
ATOM     10  O   UNL     1     169.489 177.063 179.926  1.00  0.00    -0.550 OA
ENDBRANCH   7   8
ENDBRANCH   6   7
ENDBRANCH   5   6
ENDBRANCH   4   5
ENDBRANCH   3   4
ENDBRANCH   2   3
ENDBRANCH   1   2
BRANCH   1  11
ATOM     11  C   UNL     1     176.635 176.671 179.601  1.00  0.00     0.000 C 
BRANCH  11  12
ATOM     12  C   UNL     1     176.994 177.927 180.412  1.00  0.00    -0.000 C 
BRANCH  12  13
ATOM     13  C   UNL     1     177.270 177.613 181.892  1.00  0.00    -0.000 C 
BRANCH  13  14
ATOM     14  C   UNL     1     176.043 177.027 182.612  1.00  0.00    -0.000 C 
BRANCH  14  15
ATOM     15  C   UNL     1     176.323 175.649 183.232  1.00  0.00    -0.000 C 
BRANCH  15  16
ATOM     16  C   UNL     1     175.317 174.581 182.777  1.00  0.00    -0.000 C 
BRANCH  16  17
ATOM     17  C   UNL     1     176.012 173.487 181.958  1.00  0.00    -0.003 C 
ATOM     18  C   UNL     1     177.501 173.779 181.799  1.00  0.00     0.004 C 
ENDBRANCH  16  17
ENDBRANCH  15  16
ENDBRANCH  14  15
ENDBRANCH  13  14
ENDBRANCH  12  13
ENDBRANCH  11  12
ENDBRANCH   1  11
TORSDOF 14
ENDMDL
MODEL 3
REMARK VINA RESULT:    -3.627      2.018      4.831
REMARK INTER + INTRA:          -9.421
REMARK INTER:                  -7.368
REMARK INTRA:                  -2.053
REMARK UNBOUND:                -2.826
REMARK SMILES CCCCCCCCCCCCCCCC(=O)[O-]
REMARK SMILES IDX 9 1 10 2 11 3 12 4 13 5 14 6 15 7 16 8 17 9 18 10 8 11 7 12
REMARK SMILES IDX 6 13 5 14 4 15 3 16 2 17 1 18
REMARK H PARENT
REMARK Flexibility Score: inf
ROOT
ATOM      1  C   UNL     1     174.190 174.840 182.462  1.00  0.00     0.000 C 
ENDROOT
BRANCH   1   2
ATOM      2  C   UNL     1     175.406 175.270 183.310  1.00  0.00     0.000 C 
BRANCH   2   3
ATOM      3  C   UNL     1     176.681 175.417 182.464  1.00  0.00     0.000 C 
BRANCH   3   4
ATOM      4  C   UNL     1     177.074 176.891 182.313  1.00  0.00     0.000 C 
BRANCH   4   5
ATOM      5  C   UNL     1     177.034 177.324 180.840  1.00  0.00     0.000 C 
BRANCH   5   6
ATOM      6  C   UNL     1     176.699 176.168 179.880  1.00  0.00     0.006 C 
BRANCH   6   7
ATOM      7  C   UNL     1     176.278 176.626 178.473  1.00  0.00     0.053 C 
BRANCH   7   8
ATOM      8  C   UNL     1     174.793 176.772 178.330  1.00  0.00     0.041 C 
ATOM      9  O   UNL     1     174.118 175.872 177.763  1.00  0.00    -0.550 OA
ATOM     10  O   UNL     1     174.151 177.889 178.848  1.00  0.00    -0.550 OA
ENDBRANCH   7   8
ENDBRANCH   6   7
ENDBRANCH   5   6
ENDBRANCH   4   5
ENDBRANCH   3   4
ENDBRANCH   2   3
ENDBRANCH   1   2
BRANCH   1  11
ATOM     11  C   UNL     1     173.507 176.005 181.726  1.00  0.00     0.000 C 
BRANCH  11  12
ATOM     12  C   UNL     1     173.508 177.309 182.541  1.00  0.00    -0.000 C 
BRANCH  12  13
ATOM     13  C   UNL     1     172.099 177.900 182.709  1.00  0.00    -0.000 C 
BRANCH  13  14
ATOM     14  C   UNL     1     171.169 177.559 181.531  1.00  0.00    -0.000 C 
BRANCH  14  15
ATOM     15  C   UNL     1     169.830 176.959 181.988  1.00  0.00    -0.000 C 
BRANCH  15  16
ATOM     16  C   UNL     1     169.924 176.287 183.366  1.00  0.00    -0.000 C 
BRANCH  16  17
ATOM     17  C   UNL     1     169.870 174.760 183.236  1.00  0.00    -0.003 C 
ATOM     18  C   UNL     1     170.944 174.095 184.091  1.00  0.00     0.004 C 
ENDBRANCH  16  17
ENDBRANCH  15  16
ENDBRANCH  14  15
ENDBRANCH  13  14
ENDBRANCH  12  13
ENDBRANCH  11  12
ENDBRANCH   1  11
TORSDOF 14
ENDMDL
MODEL 4
REMARK VINA RESULT:    -3.611      2.245      3.828
REMARK INTER + INTRA:          -9.393
REMARK INTER:                  -7.029
REMARK INTRA:                  -2.364
REMARK UNBOUND:                -2.826
REMARK SMILES CCCCCCCCCCCCCCCC(=O)[O-]
REMARK SMILES IDX 9 1 10 2 11 3 12 4 13 5 14 6 15 7 16 8 17 9 18 10 8 11 7 12
REMARK SMILES IDX 6 13 5 14 4 15 3 16 2 17 1 18
REMARK H PARENT
REMARK Flexibility Score: inf
ROOT
ATOM      1  C   UNL     1     174.280 176.078 179.137  1.00  0.00     0.000 C 
ENDROOT
BRANCH   1   2
ATOM      2  C   UNL     1     173.184 176.113 180.223  1.00  0.00     0.000 C 
BRANCH   2   3
ATOM      3  C   UNL     1     173.312 177.343 181.136  1.00  0.00     0.000 C 
BRANCH   3   4
ATOM      4  C   UNL     1     172.783 177.042 182.543  1.00  0.00     0.000 C 
BRANCH   4   5
ATOM      5  C   UNL     1     171.273 177.308 182.632  1.00  0.00     0.000 C 
BRANCH   5   6
ATOM      6  C   UNL     1     170.468 176.078 183.091  1.00  0.00     0.006 C 
BRANCH   6   7
ATOM      7  C   UNL     1     171.176 174.736 182.832  1.00  0.00     0.053 C 
BRANCH   7   8
ATOM      8  C   UNL     1     170.965 173.747 183.938  1.00  0.00     0.041 C 
ATOM      9  O   UNL     1     169.835 173.219 184.112  1.00  0.00    -0.550 OA
ATOM     10  O   UNL     1     172.025 173.386 184.760  1.00  0.00    -0.550 OA
ENDBRANCH   7   8
ENDBRANCH   6   7
ENDBRANCH   5   6
ENDBRANCH   4   5
ENDBRANCH   3   4
ENDBRANCH   2   3
ENDBRANCH   1   2
BRANCH   1  11
ATOM     11  C   UNL     1     175.194 177.314 179.140  1.00  0.00     0.000 C 
BRANCH  11  12
ATOM     12  C   UNL     1     176.647 176.981 179.521  1.00  0.00    -0.000 C 
BRANCH  12  13
ATOM     13  C   UNL     1     177.232 177.974 180.539  1.00  0.00    -0.000 C 
BRANCH  13  14
ATOM     14  C   UNL     1     177.049 177.505 181.994  1.00  0.00    -0.000 C 
BRANCH  14  15
ATOM     15  C   UNL     1     176.963 175.976 182.116  1.00  0.00    -0.000 C 
BRANCH  15  16
ATOM     16  C   UNL     1     176.052 175.527 183.269  1.00  0.00    -0.000 C 
BRANCH  16  17
ATOM     17  C   UNL     1     175.167 174.350 182.841  1.00  0.00    -0.003 C 
ATOM     18  C   UNL     1     175.708 173.682 181.580  1.00  0.00     0.004 C 
ENDBRANCH  16  17
ENDBRANCH  15  16
ENDBRANCH  14  15
ENDBRANCH  13  14
ENDBRANCH  12  13
ENDBRANCH  11  12
ENDBRANCH   1  11
TORSDOF 14
ENDMDL
MODEL 5
REMARK VINA RESULT:    -3.605      1.153      2.776
REMARK INTER + INTRA:          -9.381
REMARK INTER:                  -6.823
REMARK INTRA:                  -2.558
REMARK UNBOUND:                -2.826
REMARK SMILES CCCCCCCCCCCCCCCC(=O)[O-]
REMARK SMILES IDX 9 1 10 2 11 3 12 4 13 5 14 6 15 7 16 8 17 9 18 10 8 11 7 12
REMARK SMILES IDX 6 13 5 14 4 15 3 16 2 17 1 18
REMARK H PARENT
REMARK Flexibility Score: inf
ROOT
ATOM      1  C   UNL     1     175.265 172.980 181.704  1.00  0.00     0.000 C 
ENDROOT
BRANCH   1   2
ATOM      2  C   UNL     1     174.311 173.274 180.527  1.00  0.00     0.000 C 
BRANCH   2   3
ATOM      3  C   UNL     1     173.215 174.282 180.906  1.00  0.00     0.000 C 
BRANCH   3   4
ATOM      4  C   UNL     1     172.823 174.141 182.381  1.00  0.00     0.000 C 
BRANCH   4   5
ATOM      5  C   UNL     1     172.116 175.408 182.886  1.00  0.00     0.000 C 
BRANCH   5   6
ATOM      6  C   UNL     1     172.726 176.705 182.325  1.00  0.00     0.006 C 
BRANCH   6   7
ATOM      7  C   UNL     1     171.705 177.836 182.115  1.00  0.00     0.053 C 
BRANCH   7   8
ATOM      8  C   UNL     1     171.054 177.786 180.765  1.00  0.00     0.041 C 
ATOM      9  O   UNL     1     171.757 177.753 179.721  1.00  0.00    -0.550 OA
ATOM     10  O   UNL     1     169.669 177.748 180.662  1.00  0.00    -0.550 OA
ENDBRANCH   7   8
ENDBRANCH   6   7
ENDBRANCH   5   6
ENDBRANCH   4   5
ENDBRANCH   3   4
ENDBRANCH   2   3
ENDBRANCH   1   2
BRANCH   1  11
ATOM     11  C   UNL     1     176.752 173.161 181.356  1.00  0.00     0.000 C 
BRANCH  11  12
ATOM     12  C   UNL     1     177.391 174.362 182.074  1.00  0.00    -0.000 C 
BRANCH  12  13
ATOM     13  C   UNL     1     176.382 175.137 182.938  1.00  0.00    -0.000 C 
BRANCH  13  14
ATOM     14  C   UNL     1     176.242 176.608 182.508  1.00  0.00    -0.000 C 
BRANCH  14  15
ATOM     15  C   UNL     1     177.087 176.946 181.270  1.00  0.00    -0.000 C 
BRANCH  15  16
ATOM     16  C   UNL     1     176.287 177.698 180.196  1.00  0.00    -0.000 C 
BRANCH  16  17
ATOM     17  C   UNL     1     175.465 176.725 179.343  1.00  0.00    -0.003 C 
ATOM     18  C   UNL     1     176.366 175.724 178.625  1.00  0.00     0.004 C 
ENDBRANCH  16  17
ENDBRANCH  15  16
ENDBRANCH  14  15
ENDBRANCH  13  14
ENDBRANCH  12  13
ENDBRANCH  11  12
ENDBRANCH   1  11
TORSDOF 14
ENDMDL
MODEL 6
REMARK VINA RESULT:    -3.597      2.928      5.619
REMARK INTER + INTRA:          -9.367
REMARK INTER:                  -7.194
REMARK INTRA:                  -2.173
REMARK UNBOUND:                -2.826
REMARK SMILES CCCCCCCCCCCCCCCC(=O)[O-]
REMARK SMILES IDX 9 1 10 2 11 3 12 4 13 5 14 6 15 7 16 8 17 9 18 10 8 11 7 12
REMARK SMILES IDX 6 13 5 14 4 15 3 16 2 17 1 18
REMARK H PARENT
REMARK Flexibility Score: inf
ROOT
ATOM      1  C   UNL     1     174.927 176.493 179.241  1.00  0.00     0.000 C 
ENDROOT
BRANCH   1   2
ATOM      2  C   UNL     1     175.910 177.584 179.717  1.00  0.00     0.000 C 
BRANCH   2   3
ATOM      3  C   UNL     1     176.986 177.024 180.661  1.00  0.00     0.000 C 
BRANCH   3   4
ATOM      4  C   UNL     1     176.599 177.242 182.128  1.00  0.00     0.000 C 
BRANCH   4   5
ATOM      5  C   UNL     1     176.577 175.912 182.896  1.00  0.00     0.000 C 
BRANCH   5   6
ATOM      6  C   UNL     1     177.143 174.735 182.081  1.00  0.00     0.006 C 
BRANCH   6   7
ATOM      7  C   UNL     1     176.175 173.547 181.943  1.00  0.00     0.053 C 
BRANCH   7   8
ATOM      8  C   UNL     1     176.551 172.618 180.829  1.00  0.00     0.041 C 
ATOM      9  O   UNL     1     177.399 171.707 181.020  1.00  0.00    -0.550 OA
ATOM     10  O   UNL     1     175.943 172.741 179.586  1.00  0.00    -0.550 OA
ENDBRANCH   7   8
ENDBRANCH   6   7
ENDBRANCH   5   6
ENDBRANCH   4   5
ENDBRANCH   3   4
ENDBRANCH   2   3
ENDBRANCH   1   2
BRANCH   1  11
ATOM     11  C   UNL     1     173.549 176.564 179.919  1.00  0.00     0.000 C 
BRANCH  11  12
ATOM     12  C   UNL     1     173.284 175.375 180.858  1.00  0.00    -0.000 C 
BRANCH  12  13
ATOM     13  C   UNL     1     172.948 175.819 182.291  1.00  0.00    -0.000 C 
BRANCH  13  14
ATOM     14  C   UNL     1     173.053 177.344 182.478  1.00  0.00    -0.000 C 
BRANCH  14  15
ATOM     15  C   UNL     1     171.715 177.984 182.879  1.00  0.00    -0.000 C 
BRANCH  15  16
ATOM     16  C   UNL     1     170.602 176.946 183.088  1.00  0.00    -0.000 C 
BRANCH  16  17
ATOM     17  C   UNL     1     169.589 176.990 181.938  1.00  0.00    -0.003 C 
ATOM     18  C   UNL     1     168.778 175.699 181.867  1.00  0.00     0.004 C 
ENDBRANCH  16  17
ENDBRANCH  15  16
ENDBRANCH  14  15
ENDBRANCH  13  14
ENDBRANCH  12  13
ENDBRANCH  11  12
ENDBRANCH   1  11
TORSDOF 14
ENDMDL
MODEL 7
REMARK VINA RESULT:    -3.597      1.408      2.303
REMARK INTER + INTRA:          -9.366
REMARK INTER:                  -6.794
REMARK INTRA:                  -2.572
REMARK UNBOUND:                -2.826
REMARK SMILES CCCCCCCCCCCCCCCC(=O)[O-]
REMARK SMILES IDX 9 1 10 2 11 3 12 4 13 5 14 6 15 7 16 8 17 9 18 10 8 11 7 12
REMARK SMILES IDX 6 13 5 14 4 15 3 16 2 17 1 18
REMARK H PARENT
REMARK Flexibility Score: inf
ROOT
ATOM      1  C   UNL     1     177.115 176.762 181.239  1.00  0.00     0.000 C 
ENDROOT
BRANCH   1   2
ATOM      2  C   UNL     1     176.577 177.168 182.627  1.00  0.00     0.000 C 
BRANCH   2   3
ATOM      3  C   UNL     1     175.850 176.011 183.330  1.00  0.00     0.000 C 
BRANCH   3   4
ATOM      4  C   UNL     1     174.498 175.727 182.666  1.00  0.00     0.000 C 
BRANCH   4   5
ATOM      5  C   UNL     1     173.694 177.022 182.478  1.00  0.00     0.000 C 
BRANCH   5   6
ATOM      6  C   UNL     1     172.918 177.063 181.149  1.00  0.00     0.006 C 
BRANCH   6   7
ATOM      7  C   UNL     1     171.476 177.584 181.284  1.00  0.00     0.053 C 
BRANCH   7   8
ATOM      8  C   UNL     1     170.679 176.829 182.305  1.00  0.00     0.041 C 
ATOM      9  O   UNL     1     170.337 175.636 182.089  1.00  0.00    -0.550 OA
ATOM     10  O   UNL     1     170.339 177.434 183.508  1.00  0.00    -0.550 OA
ENDBRANCH   7   8
ENDBRANCH   6   7
ENDBRANCH   5   6
ENDBRANCH   4   5
ENDBRANCH   3   4
ENDBRANCH   2   3
ENDBRANCH   1   2
BRANCH   1  11
ATOM     11  C   UNL     1     176.709 177.726 180.112  1.00  0.00     0.000 C 
BRANCH  11  12
ATOM     12  C   UNL     1     175.944 177.028 178.975  1.00  0.00    -0.000 C 
BRANCH  12  13
ATOM     13  C   UNL     1     176.183 175.509 178.951  1.00  0.00    -0.000 C 
BRANCH  13  14
ATOM     14  C   UNL     1     174.872 174.705 178.876  1.00  0.00    -0.000 C 
BRANCH  14  15
ATOM     15  C   UNL     1     174.850 173.518 179.852  1.00  0.00    -0.000 C 
BRANCH  15  16
ATOM     16  C   UNL     1     176.237 172.885 180.043  1.00  0.00    -0.000 C 
BRANCH  16  17
ATOM     17  C   UNL     1     176.579 172.755 181.532  1.00  0.00    -0.003 C 
ATOM     18  C   UNL     1     177.936 173.380 181.843  1.00  0.00     0.004 C 
ENDBRANCH  16  17
ENDBRANCH  15  16
ENDBRANCH  14  15
ENDBRANCH  13  14
ENDBRANCH  12  13
ENDBRANCH  11  12
ENDBRANCH   1  11
TORSDOF 14
ENDMDL
MODEL 8
REMARK VINA RESULT:    -3.584      3.174      5.488
REMARK INTER + INTRA:          -9.343
REMARK INTER:                  -7.302
REMARK INTRA:                  -2.041
REMARK UNBOUND:                -2.826
REMARK SMILES CCCCCCCCCCCCCCCC(=O)[O-]
REMARK SMILES IDX 9 1 10 2 11 3 12 4 13 5 14 6 15 7 16 8 17 9 18 10 8 11 7 12
REMARK SMILES IDX 6 13 5 14 4 15 3 16 2 17 1 18
REMARK H PARENT
REMARK Flexibility Score: inf
ROOT
ATOM      1  C   UNL     1     177.170 178.071 180.638  1.00  0.00     0.000 C 
ENDROOT
BRANCH   1   2
ATOM      2  C   UNL     1     176.999 176.788 179.799  1.00  0.00     0.000 C 
BRANCH   2   3
ATOM      3  C   UNL     1     175.666 176.768 179.034  1.00  0.00     0.000 C 
BRANCH   3   4
ATOM      4  C   UNL     1     175.221 175.330 178.741  1.00  0.00     0.000 C 
BRANCH   4   5
ATOM      5  C   UNL     1     175.986 174.327 179.618  1.00  0.00     0.000 C 
BRANCH   5   6
ATOM      6  C   UNL     1     175.060 173.461 180.491  1.00  0.00     0.006 C 
BRANCH   6   7
ATOM      7  C   UNL     1     175.738 172.900 181.754  1.00  0.00     0.053 C 
BRANCH   7   8
ATOM      8  C   UNL     1     177.142 172.438 181.502  1.00  0.00     0.041 C 
ATOM      9  O   UNL     1     178.118 173.163 181.829  1.00  0.00    -0.550 OA
ATOM     10  O   UNL     1     177.371 171.192 180.932  1.00  0.00    -0.550 OA
ENDBRANCH   7   8
ENDBRANCH   6   7
ENDBRANCH   5   6
ENDBRANCH   4   5
ENDBRANCH   3   4
ENDBRANCH   2   3
ENDBRANCH   1   2
BRANCH   1  11
ATOM     11  C   UNL     1     177.279 177.812 182.150  1.00  0.00     0.000 C 
BRANCH  11  12
ATOM     12  C   UNL     1     176.636 176.481 182.575  1.00  0.00    -0.000 C 
BRANCH  12  13
ATOM     13  C   UNL     1     175.288 176.680 183.288  1.00  0.00    -0.000 C 
BRANCH  13  14
ATOM     14  C   UNL     1     174.096 176.187 182.448  1.00  0.00    -0.000 C 
BRANCH  14  15
ATOM     15  C   UNL     1     173.275 177.341 181.852  1.00  0.00    -0.000 C 
BRANCH  15  16
ATOM     16  C   UNL     1     171.779 177.007 181.742  1.00  0.00    -0.000 C 
BRANCH  16  17
ATOM     17  C   UNL     1     170.988 177.651 182.886  1.00  0.00    -0.003 C 
ATOM     18  C   UNL     1     169.956 176.682 183.457  1.00  0.00     0.004 C 
ENDBRANCH  16  17
ENDBRANCH  15  16
ENDBRANCH  14  15
ENDBRANCH  13  14
ENDBRANCH  12  13
ENDBRANCH  11  12
ENDBRANCH   1  11
TORSDOF 14
ENDMDL
MODEL 9
REMARK VINA RESULT:    -3.559      3.199      5.436
REMARK INTER + INTRA:          -9.297
REMARK INTER:                  -6.723
REMARK INTRA:                  -2.574
REMARK UNBOUND:                -2.826
REMARK SMILES CCCCCCCCCCCCCCCC(=O)[O-]
REMARK SMILES IDX 9 1 10 2 11 3 12 4 13 5 14 6 15 7 16 8 17 9 18 10 8 11 7 12
REMARK SMILES IDX 6 13 5 14 4 15 3 16 2 17 1 18
REMARK H PARENT
REMARK Flexibility Score: inf
ROOT
ATOM      1  C   UNL     1     175.056 177.555 179.155  1.00  0.00     0.000 C 
ENDROOT
BRANCH   1   2
ATOM      2  C   UNL     1     174.277 176.664 178.166  1.00  0.00     0.000 C 
BRANCH   2   3
ATOM      3  C   UNL     1     174.583 175.171 178.366  1.00  0.00     0.000 C 
BRANCH   3   4
ATOM      4  C   UNL     1     173.352 174.423 178.893  1.00  0.00     0.000 C 
BRANCH   4   5
ATOM      5  C   UNL     1     173.706 173.584 180.130  1.00  0.00     0.000 C 
BRANCH   5   6
ATOM      6  C   UNL     1     175.161 173.084 180.125  1.00  0.00     0.006 C 
BRANCH   6   7
ATOM      7  C   UNL     1     175.546 172.266 181.371  1.00  0.00     0.053 C 
BRANCH   7   8
ATOM      8  C   UNL     1     176.992 171.872 181.382  1.00  0.00     0.041 C 
ATOM      9  O   UNL     1     177.854 172.633 181.895  1.00  0.00    -0.550 OA
ATOM     10  O   UNL     1     177.384 170.650 180.851  1.00  0.00    -0.550 OA
ENDBRANCH   7   8
ENDBRANCH   6   7
ENDBRANCH   5   6
ENDBRANCH   4   5
ENDBRANCH   3   4
ENDBRANCH   2   3
ENDBRANCH   1   2
BRANCH   1  11
ATOM     11  C   UNL     1     176.542 177.179 179.290  1.00  0.00     0.000 C 
BRANCH  11  12
ATOM     12  C   UNL     1     177.041 177.233 180.743  1.00  0.00    -0.000 C 
BRANCH  12  13
ATOM     13  C   UNL     1     177.134 175.839 181.386  1.00  0.00    -0.000 C 
BRANCH  13  14
ATOM     14  C   UNL     1     176.412 175.763 182.743  1.00  0.00    -0.000 C 
BRANCH  14  15
ATOM     15  C   UNL     1     175.302 176.817 182.881  1.00  0.00    -0.000 C 
BRANCH  15  16
ATOM     16  C   UNL     1     173.916 176.268 182.509  1.00  0.00    -0.000 C 
BRANCH  16  17
ATOM     17  C   UNL     1     172.907 177.408 182.323  1.00  0.00    -0.003 C 
ATOM     18  C   UNL     1     171.941 177.109 181.181  1.00  0.00     0.004 C 
ENDBRANCH  16  17
ENDBRANCH  15  16
ENDBRANCH  14  15
ENDBRANCH  13  14
ENDBRANCH  12  13
ENDBRANCH  11  12
ENDBRANCH   1  11
TORSDOF 14
ENDMDL
