MODEL 1
REMARK VINA RESULT:    -3.191      0.000      0.000
REMARK INTER + INTRA:          -3.669
REMARK INTER:                  -3.471
REMARK INTRA:                  -0.198
REMARK UNBOUND:                -0.198
REMARK SMILES Cc1ccc(C(C)C)c(O)c1
REMARK SMILES IDX 1 1 2 2 11 3 9 4 5 5 4 6 3 7 10 8 6 10 7 11 8 12
REMARK H PARENT 10 9
REMARK Flexibility Score: inf
ROOT
ATOM      1  C   UNL     1     -28.280  48.296  34.039  1.00  0.00     0.044 C 
ATOM      2  C   UNL     1     -28.109  49.757  33.747  1.00  0.00    -0.047 A 
ATOM      3  C   UNL     1     -29.183  50.509  33.254  1.00  0.00     0.049 A 
ATOM      4  C   UNL     1     -29.042  51.885  33.013  1.00  0.00     0.119 A 
ATOM      5  C   UNL     1     -27.813  52.527  33.279  1.00  0.00    -0.004 A 
ATOM      6  C   UNL     1     -26.746  51.763  33.794  1.00  0.00     0.008 A 
ATOM      7  C   UNL     1     -26.895  50.395  34.031  1.00  0.00     0.004 A 
ENDROOT
BRANCH   4   8
ATOM      8  O   UNL     1     -30.125  52.608  32.514  1.00  0.00    -0.508 OA
ATOM      9  H   UNL     1     -30.566  52.369  31.634  1.00  0.00     0.293 HD
ENDBRANCH   4   8
BRANCH   5  10
ATOM     10  C   UNL     1     -27.634  54.017  33.027  1.00  0.00     0.017 C 
ATOM     11  C   UNL     1     -26.734  54.268  31.812  1.00  0.00     0.012 C 
ATOM     12  C   UNL     1     -27.089  54.727  34.273  1.00  0.00     0.012 C 
ENDBRANCH   5  10
TORSDOF 2
ENDMDL
MODEL 2
REMARK VINA RESULT:    -3.185      7.982      9.112
REMARK INTER + INTRA:          -3.662
REMARK INTER:                  -3.463
REMARK INTRA:                  -0.198
REMARK UNBOUND:                -0.198
REMARK SMILES Cc1ccc(C(C)C)c(O)c1
REMARK SMILES IDX 1 1 2 2 11 3 9 4 5 5 4 6 3 7 10 8 6 10 7 11 8 12
REMARK H PARENT 10 9
REMARK Flexibility Score: inf
ROOT
ATOM      1  C   UNL     1     -29.332  47.270  39.540  1.00  0.00     0.044 C 
ATOM      2  C   UNL     1     -28.278  47.950  40.362  1.00  0.00    -0.047 A 
ATOM      3  C   UNL     1     -27.767  49.193  39.967  1.00  0.00     0.049 A 
ATOM      4  C   UNL     1     -26.808  49.853  40.750  1.00  0.00     0.119 A 
ATOM      5  C   UNL     1     -26.356  49.272  41.956  1.00  0.00    -0.004 A 
ATOM      6  C   UNL     1     -26.893  48.030  42.352  1.00  0.00     0.008 A 
ATOM      7  C   UNL     1     -27.847  47.381  41.567  1.00  0.00     0.004 A 
ENDROOT
BRANCH   4   8
ATOM      8  O   UNL     1     -26.309  51.086  40.329  1.00  0.00    -0.508 OA
ATOM      9  H   UNL     1     -25.436  51.457  40.683  1.00  0.00     0.293 HD
ENDBRANCH   4   8
BRANCH   5  10
ATOM     10  C   UNL     1     -25.317  49.967  42.822  1.00  0.00     0.017 C 
ATOM     11  C   UNL     1     -24.369  48.952  43.472  1.00  0.00     0.012 C 
ATOM     12  C   UNL     1     -25.985  50.853  43.882  1.00  0.00     0.012 C 
ENDBRANCH   5  10
TORSDOF 2
ENDMDL
MODEL 3
REMARK VINA RESULT:    -3.160      9.852     10.577
REMARK INTER + INTRA:          -3.635
REMARK INTER:                  -3.437
REMARK INTRA:                  -0.198
REMARK UNBOUND:                -0.198
REMARK SMILES Cc1ccc(C(C)C)c(O)c1
REMARK SMILES IDX 1 1 2 2 11 3 9 4 5 5 4 6 3 7 10 8 6 10 7 11 8 12
REMARK H PARENT 10 9
REMARK Flexibility Score: inf
ROOT
ATOM      1  C   UNL     1     -26.045  48.819  43.244  1.00  0.00     0.044 C 
ATOM      2  C   UNL     1     -25.980  50.305  43.436  1.00  0.00    -0.047 A 
ATOM      3  C   UNL     1     -26.147  51.167  42.344  1.00  0.00     0.049 A 
ATOM      4  C   UNL     1     -26.125  52.558  42.521  1.00  0.00     0.119 A 
ATOM      5  C   UNL     1     -25.944  53.105  43.811  1.00  0.00    -0.004 A 
ATOM      6  C   UNL     1     -25.796  52.228  44.904  1.00  0.00     0.008 A 
ATOM      7  C   UNL     1     -25.821  50.844  44.718  1.00  0.00     0.004 A 
ENDROOT
BRANCH   4   8
ATOM      8  O   UNL     1     -26.286  53.393  41.415  1.00  0.00    -0.508 OA
ATOM      9  H   UNL     1     -27.198  53.577  41.013  1.00  0.00     0.293 HD
ENDBRANCH   4   8
BRANCH   5  10
ATOM     10  C   UNL     1     -25.916  54.611  44.029  1.00  0.00     0.017 C 
ATOM     11  C   UNL     1     -24.485  55.155  43.943  1.00  0.00     0.012 C 
ATOM     12  C   UNL     1     -26.569  54.987  45.365  1.00  0.00     0.012 C 
ENDBRANCH   5  10
TORSDOF 2
ENDMDL
MODEL 4
REMARK VINA RESULT:    -3.140      7.711      9.286
REMARK INTER + INTRA:          -3.613
REMARK INTER:                  -3.444
REMARK INTRA:                  -0.169
REMARK UNBOUND:                -0.198
REMARK SMILES Cc1ccc(C(C)C)c(O)c1
REMARK SMILES IDX 1 1 2 2 11 3 9 4 5 5 4 6 3 7 10 8 6 10 7 11 8 12
REMARK H PARENT 10 9
REMARK Flexibility Score: inf
ROOT
ATOM      1  C   UNL     1     -25.555  48.673  44.416  1.00  0.00     0.044 C 
ATOM      2  C   UNL     1     -26.340  48.544  43.145  1.00  0.00    -0.047 A 
ATOM      3  C   UNL     1     -26.345  49.586  42.208  1.00  0.00     0.049 A 
ATOM      4  C   UNL     1     -27.047  49.458  41.000  1.00  0.00     0.119 A 
ATOM      5  C   UNL     1     -27.749  48.267  40.712  1.00  0.00    -0.004 A 
ATOM      6  C   UNL     1     -27.720  47.218  41.653  1.00  0.00     0.008 A 
ATOM      7  C   UNL     1     -27.018  47.354  42.853  1.00  0.00     0.004 A 
ENDROOT
BRANCH   4   8
ATOM      8  O   UNL     1     -27.042  50.514  40.089  1.00  0.00    -0.508 OA
ATOM      9  H   UNL     1     -27.793  51.194  40.056  1.00  0.00     0.293 HD
ENDBRANCH   4   8
BRANCH   5  10
ATOM     10  C   UNL     1     -28.517  48.104  39.408  1.00  0.00     0.017 C 
ATOM     11  C   UNL     1     -29.686  47.125  39.574  1.00  0.00     0.012 C 
ATOM     12  C   UNL     1     -27.587  47.664  38.271  1.00  0.00     0.012 C 
ENDBRANCH   5  10
TORSDOF 2
ENDMDL
MODEL 5
REMARK VINA RESULT:    -3.118      9.238     10.414
REMARK INTER + INTRA:          -3.589
REMARK INTER:                  -3.408
REMARK INTRA:                  -0.181
REMARK UNBOUND:                -0.198
REMARK SMILES Cc1ccc(C(C)C)c(O)c1
REMARK SMILES IDX 1 1 2 2 11 3 9 4 5 5 4 6 3 7 10 8 6 10 7 11 8 12
REMARK H PARENT 10 9
REMARK Flexibility Score: inf
ROOT
ATOM      1  C   UNL     1     -26.662  54.519  45.236  1.00  0.00     0.044 C 
ATOM      2  C   UNL     1     -26.363  53.445  44.232  1.00  0.00    -0.047 A 
ATOM      3  C   UNL     1     -26.437  52.095  44.598  1.00  0.00     0.049 A 
ATOM      4  C   UNL     1     -26.195  51.084  43.655  1.00  0.00     0.119 A 
ATOM      5  C   UNL     1     -25.884  51.422  42.320  1.00  0.00    -0.004 A 
ATOM      6  C   UNL     1     -25.831  52.783  41.959  1.00  0.00     0.008 A 
ATOM      7  C   UNL     1     -26.074  53.782  42.904  1.00  0.00     0.004 A 
ENDROOT
BRANCH   4   8
ATOM      8  O   UNL     1     -26.268  49.748  44.049  1.00  0.00    -0.508 OA
ATOM      9  H   UNL     1     -26.235  49.476  45.024  1.00  0.00     0.293 HD
ENDBRANCH   4   8
BRANCH   5  10
ATOM     10  C   UNL     1     -25.617  50.344  41.279  1.00  0.00     0.017 C 
ATOM     11  C   UNL     1     -24.642  50.841  40.206  1.00  0.00     0.012 C 
ATOM     12  C   UNL     1     -26.926  49.850  40.648  1.00  0.00     0.012 C 
ENDBRANCH   5  10
TORSDOF 2
ENDMDL
MODEL 6
REMARK VINA RESULT:    -3.116      5.213      6.839
REMARK INTER + INTRA:          -3.587
REMARK INTER:                  -3.390
REMARK INTRA:                  -0.197
REMARK UNBOUND:                -0.198
REMARK SMILES Cc1ccc(C(C)C)c(O)c1
REMARK SMILES IDX 1 1 2 2 11 3 9 4 5 5 4 6 3 7 10 8 6 10 7 11 8 12
REMARK H PARENT 10 9
REMARK Flexibility Score: inf
ROOT
ATOM      1  C   UNL     1     -27.939  56.625  31.999  1.00  0.00     0.044 C 
ATOM      2  C   UNL     1     -27.728  56.963  33.446  1.00  0.00    -0.047 A 
ATOM      3  C   UNL     1     -27.855  58.286  33.887  1.00  0.00     0.049 A 
ATOM      4  C   UNL     1     -27.695  58.606  35.244  1.00  0.00     0.119 A 
ATOM      5  C   UNL     1     -27.415  57.588  36.182  1.00  0.00    -0.004 A 
ATOM      6  C   UNL     1     -27.309  56.258  35.729  1.00  0.00     0.008 A 
ATOM      7  C   UNL     1     -27.470  55.949  34.377  1.00  0.00     0.004 A 
ENDROOT
BRANCH   4   8
ATOM      8  O   UNL     1     -27.818  59.933  35.656  1.00  0.00    -0.508 OA
ATOM      9  H   UNL     1     -27.008  60.519  35.819  1.00  0.00     0.293 HD
ENDBRANCH   4   8
BRANCH   5  10
ATOM     10  C   UNL     1     -27.237  57.909  37.660  1.00  0.00     0.017 C 
ATOM     11  C   UNL     1     -26.183  56.998  38.300  1.00  0.00     0.012 C 
ATOM     12  C   UNL     1     -28.573  57.817  38.409  1.00  0.00     0.012 C 
ENDBRANCH   5  10
TORSDOF 2
ENDMDL
MODEL 7
REMARK VINA RESULT:    -3.088      8.905     10.158
REMARK INTER + INTRA:          -3.557
REMARK INTER:                  -3.362
REMARK INTRA:                  -0.195
REMARK UNBOUND:                -0.198
REMARK SMILES Cc1ccc(C(C)C)c(O)c1
REMARK SMILES IDX 1 1 2 2 11 3 9 4 5 5 4 6 3 7 10 8 6 10 7 11 8 12
REMARK H PARENT 10 9
REMARK Flexibility Score: inf
ROOT
ATOM      1  C   UNL     1     -26.496  54.526  45.390  1.00  0.00     0.044 C 
ATOM      2  C   UNL     1     -26.312  53.611  44.215  1.00  0.00    -0.047 A 
ATOM      3  C   UNL     1     -25.752  54.094  43.025  1.00  0.00     0.049 A 
ATOM      4  C   UNL     1     -25.541  53.236  41.935  1.00  0.00     0.119 A 
ATOM      5  C   UNL     1     -25.884  51.870  42.033  1.00  0.00    -0.004 A 
ATOM      6  C   UNL     1     -26.429  51.393  43.242  1.00  0.00     0.008 A 
ATOM      7  C   UNL     1     -26.634  52.253  44.322  1.00  0.00     0.004 A 
ENDROOT
BRANCH   4   8
ATOM      8  O   UNL     1     -24.990  53.745  40.759  1.00  0.00    -0.508 OA
ATOM      9  H   UNL     1     -24.841  53.162  39.944  1.00  0.00     0.293 HD
ENDBRANCH   4   8
BRANCH   5  10
ATOM     10  C   UNL     1     -25.666  50.920  40.864  1.00  0.00     0.017 C 
ATOM     11  C   UNL     1     -26.754  49.841  40.818  1.00  0.00     0.012 C 
ATOM     12  C   UNL     1     -24.268  50.290  40.919  1.00  0.00     0.012 C 
ENDBRANCH   5  10
TORSDOF 2
ENDMDL
MODEL 8
REMARK VINA RESULT:    -3.069      5.753      7.445
REMARK INTER + INTRA:          -3.536
REMARK INTER:                  -3.367
REMARK INTRA:                  -0.169
REMARK UNBOUND:                -0.198
REMARK SMILES Cc1ccc(C(C)C)c(O)c1
REMARK SMILES IDX 1 1 2 2 11 3 9 4 5 5 4 6 3 7 10 8 6 10 7 11 8 12
REMARK H PARENT 10 9
REMARK Flexibility Score: inf
ROOT
ATOM      1  C   UNL     1     -27.836  57.871  32.018  1.00  0.00     0.044 C 
ATOM      2  C   UNL     1     -27.779  57.967  33.514  1.00  0.00    -0.047 A 
ATOM      3  C   UNL     1     -27.200  56.937  34.266  1.00  0.00     0.049 A 
ATOM      4  C   UNL     1     -27.108  57.035  35.663  1.00  0.00     0.119 A 
ATOM      5  C   UNL     1     -27.591  58.186  36.324  1.00  0.00    -0.004 A 
ATOM      6  C   UNL     1     -28.154  59.224  35.554  1.00  0.00     0.008 A 
ATOM      7  C   UNL     1     -28.240  59.118  34.165  1.00  0.00     0.004 A 
ENDROOT
BRANCH   4   8
ATOM      8  O   UNL     1     -26.534  55.991  36.388  1.00  0.00    -0.508 OA
ATOM      9  H   UNL     1     -25.803  55.409  35.997  1.00  0.00     0.293 HD
ENDBRANCH   4   8
BRANCH   5  10
ATOM     10  C   UNL     1     -27.503  58.317  37.838  1.00  0.00     0.017 C 
ATOM     11  C   UNL     1     -28.675  57.604  38.523  1.00  0.00     0.012 C 
ATOM     12  C   UNL     1     -27.431  59.790  38.261  1.00  0.00     0.012 C 
ENDBRANCH   5  10
TORSDOF 2
ENDMDL
MODEL 9
REMARK VINA RESULT:    -2.989      7.702      9.125
REMARK INTER + INTRA:          -3.449
REMARK INTER:                  -3.312
REMARK INTRA:                  -0.137
REMARK UNBOUND:                -0.198
REMARK SMILES Cc1ccc(C(C)C)c(O)c1
REMARK SMILES IDX 1 1 2 2 11 3 9 4 5 5 4 6 3 7 10 8 6 10 7 11 8 12
REMARK H PARENT 10 9
REMARK Flexibility Score: inf
ROOT
ATOM      1  C   UNL     1     -29.507  44.798  43.587  1.00  0.00     0.044 C 
ATOM      2  C   UNL     1     -29.014  45.801  42.586  1.00  0.00    -0.047 A 
ATOM      3  C   UNL     1     -29.781  46.105  41.454  1.00  0.00     0.049 A 
ATOM      4  C   UNL     1     -29.345  47.069  40.533  1.00  0.00     0.119 A 
ATOM      5  C   UNL     1     -28.128  47.753  40.747  1.00  0.00    -0.004 A 
ATOM      6  C   UNL     1     -27.375  47.452  41.899  1.00  0.00     0.008 A 
ATOM      7  C   UNL     1     -27.817  46.492  42.811  1.00  0.00     0.004 A 
ENDROOT
BRANCH   4   8
ATOM      8  O   UNL     1     -30.125  47.346  39.410  1.00  0.00    -0.508 OA
ATOM      9  H   UNL     1     -30.394  48.292  39.167  1.00  0.00     0.293 HD
ENDBRANCH   4   8
BRANCH   5  10
ATOM     10  C   UNL     1     -27.634  48.803  39.762  1.00  0.00     0.017 C 
ATOM     11  C   UNL     1     -26.997  48.149  38.530  1.00  0.00     0.012 C 
ATOM     12  C   UNL     1     -26.657  49.775  40.436  1.00  0.00     0.012 C 
ENDBRANCH   5  10
TORSDOF 2
ENDMDL
