MODEL 1
REMARK VINA RESULT:    -4.551      0.000      0.000
REMARK INTER + INTRA:          -4.835
REMARK INTER:                  -4.817
REMARK INTRA:                  -0.017
REMARK UNBOUND:                -0.017
REMARK SMILES O=C([O-])c1cccnc1
REMARK SMILES IDX 4 1 5 2 9 3 6 4 8 5 7 6 2 7 1 8 3 9
REMARK H PARENT
REMARK Flexibility Score: inf
ROOT
ATOM      1  C   UNL     1      51.810 -40.522  -2.909  1.00  0.00     0.016 A 
ATOM      2  C   UNL     1      52.512 -41.544  -2.248  1.00  0.00     0.013 A 
ATOM      3  C   UNL     1      52.425 -39.264  -3.038  1.00  0.00     0.120 A 
ATOM      4  C   UNL     1      53.788 -41.300  -1.736  1.00  0.00     0.021 A 
ATOM      5  N   UNL     1      53.669 -39.053  -2.530  1.00  0.00    -0.264 NA
ATOM      6  C   UNL     1      54.356 -40.034  -1.888  1.00  0.00     0.111 A 
ENDROOT
BRANCH   1   7
ATOM      7  C   UNL     1      50.458 -40.769  -3.455  1.00  0.00     0.073 C 
ATOM      8  O   UNL     1      49.497 -41.037  -2.686  1.00  0.00    -0.545 OA
ATOM      9  O   UNL     1      50.229 -40.707  -4.824  1.00  0.00    -0.545 OA
ENDBRANCH   1   7
TORSDOF 1
ENDMDL
MODEL 2
REMARK VINA RESULT:    -4.474      0.917      1.600
REMARK INTER + INTRA:          -4.753
REMARK INTER:                  -4.736
REMARK INTRA:                  -0.017
REMARK UNBOUND:                -0.017
REMARK SMILES O=C([O-])c1cccnc1
REMARK SMILES IDX 4 1 5 2 9 3 6 4 8 5 7 6 2 7 1 8 3 9
REMARK H PARENT
REMARK Flexibility Score: inf
ROOT
ATOM      1  C   UNL     1      51.807 -40.544  -2.911  1.00  0.00     0.016 A 
ATOM      2  C   UNL     1      52.414 -39.283  -3.036  1.00  0.00     0.013 A 
ATOM      3  C   UNL     1      52.515 -41.566  -2.255  1.00  0.00     0.120 A 
ATOM      4  C   UNL     1      53.692 -39.067  -2.515  1.00  0.00     0.021 A 
ATOM      5  N   UNL     1      53.759 -41.328  -1.758  1.00  0.00    -0.264 NA
ATOM      6  C   UNL     1      54.356 -40.112  -1.873  1.00  0.00     0.111 A 
ENDROOT
BRANCH   1   7
ATOM      7  C   UNL     1      50.454 -40.785  -3.458  1.00  0.00     0.073 C 
ATOM      8  O   UNL     1      49.500 -41.091  -2.693  1.00  0.00    -0.545 OA
ATOM      9  O   UNL     1      50.216 -40.676  -4.822  1.00  0.00    -0.545 OA
ENDBRANCH   1   7
TORSDOF 1
ENDMDL
MODEL 3
REMARK VINA RESULT:    -4.297      2.752      3.621
REMARK INTER + INTRA:          -4.565
REMARK INTER:                  -4.544
REMARK INTRA:                  -0.022
REMARK UNBOUND:                -0.017
REMARK SMILES O=C([O-])c1cccnc1
REMARK SMILES IDX 4 1 5 2 9 3 6 4 8 5 7 6 2 7 1 8 3 9
REMARK H PARENT
REMARK Flexibility Score: inf
ROOT
ATOM      1  C   UNL     1      52.568 -40.303  -2.635  1.00  0.00     0.016 A 
ATOM      2  C   UNL     1      51.715 -41.418  -2.578  1.00  0.00     0.013 A 
ATOM      3  C   UNL     1      52.122 -39.154  -3.310  1.00  0.00     0.120 A 
ATOM      4  C   UNL     1      50.456 -41.369  -3.182  1.00  0.00     0.021 A 
ATOM      5  N   UNL     1      50.892 -39.133  -3.890  1.00  0.00    -0.264 NA
ATOM      6  C   UNL     1      50.058 -40.205  -3.841  1.00  0.00     0.111 A 
ENDROOT
BRANCH   1   7
ATOM      7  C   UNL     1      53.902 -40.344  -1.999  1.00  0.00     0.073 C 
ATOM      8  O   UNL     1      54.439 -39.288  -1.571  1.00  0.00    -0.545 OA
ATOM      9  O   UNL     1      54.582 -41.548  -1.863  1.00  0.00    -0.545 OA
ENDBRANCH   1   7
TORSDOF 1
ENDMDL
MODEL 4
REMARK VINA RESULT:    -4.279      1.791      2.153
REMARK INTER + INTRA:          -4.546
REMARK INTER:                  -4.530
REMARK INTRA:                  -0.016
REMARK UNBOUND:                -0.017
REMARK SMILES O=C([O-])c1cccnc1
REMARK SMILES IDX 4 1 5 2 9 3 6 4 8 5 7 6 2 7 1 8 3 9
REMARK H PARENT
REMARK Flexibility Score: inf
ROOT
ATOM      1  C   UNL     1      52.311 -39.363  -3.031  1.00  0.00     0.016 A 
ATOM      2  C   UNL     1      51.750 -40.642  -2.872  1.00  0.00     0.013 A 
ATOM      3  C   UNL     1      53.616 -39.142  -2.557  1.00  0.00     0.120 A 
ATOM      4  C   UNL     1      52.485 -41.657  -2.256  1.00  0.00     0.021 A 
ATOM      5  N   UNL     1      54.309 -40.149  -1.960  1.00  0.00    -0.264 NA
ATOM      6  C   UNL     1      53.776 -41.389  -1.801  1.00  0.00     0.111 A 
ENDROOT
BRANCH   1   7
ATOM      7  C   UNL     1      51.543 -38.280  -3.682  1.00  0.00     0.073 C 
ATOM      8  O   UNL     1      50.787 -37.535  -3.003  1.00  0.00    -0.545 OA
ATOM      9  O   UNL     1      51.645 -38.069  -5.051  1.00  0.00    -0.545 OA
ENDBRANCH   1   7
TORSDOF 1
ENDMDL
MODEL 5
REMARK VINA RESULT:    -4.232      2.950      3.967
REMARK INTER + INTRA:          -4.497
REMARK INTER:                  -4.474
REMARK INTRA:                  -0.022
REMARK UNBOUND:                -0.017
REMARK SMILES O=C([O-])c1cccnc1
REMARK SMILES IDX 4 1 5 2 9 3 6 4 8 5 7 6 2 7 1 8 3 9
REMARK H PARENT
REMARK Flexibility Score: inf
ROOT
ATOM      1  C   UNL     1      52.658 -40.289  -2.598  1.00  0.00     0.016 A 
ATOM      2  C   UNL     1      52.168 -39.149  -3.258  1.00  0.00     0.013 A 
ATOM      3  C   UNL     1      51.838 -41.428  -2.532  1.00  0.00     0.120 A 
ATOM      4  C   UNL     1      50.895 -39.165  -3.830  1.00  0.00     0.021 A 
ATOM      5  N   UNL     1      50.600 -41.416  -3.097  1.00  0.00    -0.264 NA
ATOM      6  C   UNL     1      50.117 -40.319  -3.738  1.00  0.00     0.111 A 
ENDROOT
BRANCH   1   7
ATOM      7  C   UNL     1      54.006 -40.284  -1.989  1.00  0.00     0.073 C 
ATOM      8  O   UNL     1      54.532 -39.204  -1.609  1.00  0.00    -0.545 OA
ATOM      9  O   UNL     1      54.709 -41.471  -1.826  1.00  0.00    -0.545 OA
ENDBRANCH   1   7
TORSDOF 1
ENDMDL
MODEL 6
REMARK VINA RESULT:    -4.057      2.520      3.613
REMARK INTER + INTRA:          -4.311
REMARK INTER:                  -4.287
REMARK INTRA:                  -0.024
REMARK UNBOUND:                -0.017
REMARK SMILES O=C([O-])c1cccnc1
REMARK SMILES IDX 4 1 5 2 9 3 6 4 8 5 7 6 2 7 1 8 3 9
REMARK H PARENT
REMARK Flexibility Score: inf
ROOT
ATOM      1  C   UNL     1      51.716 -40.667  -3.002  1.00  0.00     0.016 A 
ATOM      2  C   UNL     1      50.766 -41.690  -3.157  1.00  0.00     0.013 A 
ATOM      3  C   UNL     1      51.510 -39.454  -3.681  1.00  0.00     0.120 A 
ATOM      4  C   UNL     1      49.647 -41.490  -3.969  1.00  0.00     0.021 A 
ATOM      5  N   UNL     1      50.413 -39.286  -4.467  1.00  0.00    -0.264 NA
ATOM      6  C   UNL     1      49.487 -40.268  -4.624  1.00  0.00     0.111 A 
ENDROOT
BRANCH   1   7
ATOM      7  C   UNL     1      52.904 -40.868  -2.144  1.00  0.00     0.073 C 
ATOM      8  O   UNL     1      53.069 -41.952  -1.523  1.00  0.00    -0.545 OA
ATOM      9  O   UNL     1      53.855 -39.864  -2.012  1.00  0.00    -0.545 OA
ENDBRANCH   1   7
TORSDOF 1
ENDMDL
MODEL 7
REMARK VINA RESULT:    -3.861      3.297      4.978
REMARK INTER + INTRA:          -4.104
REMARK INTER:                  -4.088
REMARK INTRA:                  -0.016
REMARK UNBOUND:                -0.017
REMARK SMILES O=C([O-])c1cccnc1
REMARK SMILES IDX 4 1 5 2 9 3 6 4 8 5 7 6 2 7 1 8 3 9
REMARK H PARENT
REMARK Flexibility Score: inf
ROOT
ATOM      1  C   UNL     1      49.145 -40.683  -3.432  1.00  0.00     0.016 A 
ATOM      2  C   UNL     1      48.497 -40.468  -4.661  1.00  0.00     0.013 A 
ATOM      3  C   UNL     1      48.384 -40.604  -2.253  1.00  0.00     0.120 A 
ATOM      4  C   UNL     1      47.130 -40.186  -4.692  1.00  0.00     0.021 A 
ATOM      5  N   UNL     1      47.054 -40.326  -2.312  1.00  0.00    -0.264 NA
ATOM      6  C   UNL     1      46.418 -40.117  -3.494  1.00  0.00     0.111 A 
ENDROOT
BRANCH   1   7
ATOM      7  C   UNL     1      50.592 -40.983  -3.387  1.00  0.00     0.073 C 
ATOM      8  O   UNL     1      50.997 -42.176  -3.362  1.00  0.00    -0.545 OA
ATOM      9  O   UNL     1      51.526 -39.954  -3.372  1.00  0.00    -0.545 OA
ENDBRANCH   1   7
TORSDOF 1
ENDMDL
MODEL 8
REMARK VINA RESULT:    -3.855     14.526     15.116
REMARK INTER + INTRA:          -4.098
REMARK INTER:                  -4.078
REMARK INTRA:                  -0.020
REMARK UNBOUND:                -0.017
REMARK SMILES O=C([O-])c1cccnc1
REMARK SMILES IDX 4 1 5 2 9 3 6 4 8 5 7 6 2 7 1 8 3 9
REMARK H PARENT
REMARK Flexibility Score: inf
ROOT
ATOM      1  C   UNL     1      50.360 -34.996  11.058  1.00  0.00     0.016 A 
ATOM      2  C   UNL     1      50.601 -34.515   9.760  1.00  0.00     0.013 A 
ATOM      3  C   UNL     1      50.112 -36.369  11.227  1.00  0.00     0.120 A 
ATOM      4  C   UNL     1      50.591 -35.394   8.674  1.00  0.00     0.021 A 
ATOM      5  N   UNL     1      50.107 -37.203  10.152  1.00  0.00    -0.264 NA
ATOM      6  C   UNL     1      50.339 -36.749   8.893  1.00  0.00     0.111 A 
ENDROOT
BRANCH   1   7
ATOM      7  C   UNL     1      50.369 -34.075  12.215  1.00  0.00     0.073 C 
ATOM      8  O   UNL     1      49.471 -34.147  13.096  1.00  0.00    -0.545 OA
ATOM      9  O   UNL     1      51.368 -33.119  12.347  1.00  0.00    -0.545 OA
ENDBRANCH   1   7
TORSDOF 1
ENDMDL
MODEL 9
REMARK VINA RESULT:    -3.838     13.262     13.838
REMARK INTER + INTRA:          -4.080
REMARK INTER:                  -4.061
REMARK INTRA:                  -0.019
REMARK UNBOUND:                -0.017
REMARK SMILES O=C([O-])c1cccnc1
REMARK SMILES IDX 4 1 5 2 9 3 6 4 8 5 7 6 2 7 1 8 3 9
REMARK H PARENT
REMARK Flexibility Score: inf
ROOT
ATOM      1  C   UNL     1      50.965 -35.414   9.894  1.00  0.00     0.016 A 
ATOM      2  C   UNL     1      51.521 -36.632  10.320  1.00  0.00     0.013 A 
ATOM      3  C   UNL     1      50.328 -35.371   8.641  1.00  0.00     0.120 A 
ATOM      4  C   UNL     1      51.435 -37.764   9.507  1.00  0.00     0.021 A 
ATOM      5  N   UNL     1      50.260 -36.489   7.868  1.00  0.00    -0.264 NA
ATOM      6  C   UNL     1      50.794 -37.672   8.270  1.00  0.00     0.111 A 
ENDROOT
BRANCH   1   7
ATOM      7  C   UNL     1      51.049 -34.208  10.746  1.00  0.00     0.073 C 
ATOM      8  O   UNL     1      52.159 -33.825  11.204  1.00  0.00    -0.545 OA
ATOM      9  O   UNL     1      49.906 -33.482  11.054  1.00  0.00    -0.545 OA
ENDBRANCH   1   7
TORSDOF 1
ENDMDL
