MODEL 1
REMARK VINA RESULT:    -4.824      0.000      0.000
REMARK INTER + INTRA:         -10.826
REMARK INTER:                  -9.337
REMARK INTRA:                  -1.489
REMARK UNBOUND:                -1.489
REMARK SMILES CCCCCCCCCCCCCCCCCC(=O)[O-]
REMARK SMILES IDX 10 1 11 2 12 3 13 4 14 5 15 6 16 7 17 8 18 9 19 10 20 11
REMARK SMILES IDX 9 12 8 13 7 14 6 15 5 16 4 17 3 18 2 19 1 20
REMARK H PARENT
REMARK Flexibility Score: inf
ROOT
ATOM      1  C   UNL     1      18.371   7.926   4.459  1.00  0.00     0.000 C 
ENDROOT
BRANCH   1   2
ATOM      2  C   UNL     1      17.644   6.721   5.077  1.00  0.00     0.000 C 
BRANCH   2   3
ATOM      3  C   UNL     1      17.595   6.787   6.613  1.00  0.00     0.000 C 
BRANCH   3   4
ATOM      4  C   UNL     1      17.432   8.222   7.145  1.00  0.00     0.000 C 
BRANCH   4   5
ATOM      5  C   UNL     1      16.082   8.517   7.825  1.00  0.00     0.000 C 
BRANCH   5   6
ATOM      6  C   UNL     1      16.140   9.727   8.772  1.00  0.00     0.000 C 
BRANCH   6   7
ATOM      7  C   UNL     1      17.417   9.743   9.629  1.00  0.00     0.006 C 
BRANCH   7   8
ATOM      8  C   UNL     1      17.564  11.033  10.447  1.00  0.00     0.053 C 
BRANCH   8   9
ATOM      9  C   UNL     1      18.889  11.062  11.141  1.00  0.00     0.041 C 
ATOM     10  O   UNL     1      19.274  10.072  11.816  1.00  0.00    -0.550 OA
ATOM     11  O   UNL     1      19.679  12.205  11.084  1.00  0.00    -0.550 OA
ENDBRANCH   8   9
ENDBRANCH   7   8
ENDBRANCH   6   7
ENDBRANCH   5   6
ENDBRANCH   4   5
ENDBRANCH   3   4
ENDBRANCH   2   3
ENDBRANCH   1   2
BRANCH   1  12
ATOM     12  C   UNL     1      18.594   7.765   2.945  1.00  0.00     0.000 C 
BRANCH  12  13
ATOM     13  C   UNL     1      19.997   7.234   2.606  1.00  0.00    -0.000 C 
BRANCH  13  14
ATOM     14  C   UNL     1      20.004   5.722   2.329  1.00  0.00    -0.000 C 
BRANCH  14  15
ATOM     15  C   UNL     1      20.579   4.904   3.499  1.00  0.00    -0.000 C 
BRANCH  15  16
ATOM     16  C   UNL     1      21.385   5.749   4.508  1.00  0.00    -0.000 C 
BRANCH  16  17
ATOM     17  C   UNL     1      21.169   5.283   5.957  1.00  0.00    -0.000 C 
BRANCH  17  18
ATOM     18  C   UNL     1      22.342   5.712   6.852  1.00  0.00    -0.000 C 
BRANCH  18  19
ATOM     19  C   UNL     1      23.684   5.720   6.104  1.00  0.00    -0.003 C 
ATOM     20  C   UNL     1      24.587   4.552   6.498  1.00  0.00     0.004 C 
ENDBRANCH  18  19
ENDBRANCH  17  18
ENDBRANCH  16  17
ENDBRANCH  15  16
ENDBRANCH  14  15
ENDBRANCH  13  14
ENDBRANCH  12  13
ENDBRANCH   1  12
TORSDOF 16
ENDMDL
MODEL 2
REMARK VINA RESULT:    -4.779      3.664      7.885
REMARK INTER + INTRA:         -10.739
REMARK INTER:                  -9.630
REMARK INTRA:                  -1.108
REMARK UNBOUND:                -1.489
REMARK SMILES CCCCCCCCCCCCCCCCCC(=O)[O-]
REMARK SMILES IDX 10 1 11 2 12 3 13 4 14 5 15 6 16 7 17 8 18 9 19 10 20 11
REMARK SMILES IDX 9 12 8 13 7 14 6 15 5 16 4 17 3 18 2 19 1 20
REMARK H PARENT
REMARK Flexibility Score: inf
ROOT
ATOM      1  C   UNL     1      20.296   5.294   3.591  1.00  0.00     0.000 C 
ENDROOT
BRANCH   1   2
ATOM      2  C   UNL     1      21.529   4.916   4.427  1.00  0.00     0.000 C 
BRANCH   2   3
ATOM      3  C   UNL     1      21.464   5.474   5.858  1.00  0.00     0.000 C 
BRANCH   3   4
ATOM      4  C   UNL     1      22.838   5.504   6.552  1.00  0.00     0.000 C 
BRANCH   4   5
ATOM      5  C   UNL     1      24.016   5.917   5.649  1.00  0.00     0.000 C 
BRANCH   5   6
ATOM      6  C   UNL     1      25.194   4.932   5.716  1.00  0.00     0.000 C 
BRANCH   6   7
ATOM      7  C   UNL     1      25.101   3.981   6.920  1.00  0.00     0.006 C 
BRANCH   7   8
ATOM      8  C   UNL     1      26.296   3.023   7.013  1.00  0.00     0.053 C 
BRANCH   8   9
ATOM      9  C   UNL     1      26.495   2.573   8.425  1.00  0.00     0.041 C 
ATOM     10  O   UNL     1      26.200   1.397   8.763  1.00  0.00    -0.550 OA
ATOM     11  O   UNL     1      26.961   3.468   9.381  1.00  0.00    -0.550 OA
ENDBRANCH   8   9
ENDBRANCH   7   8
ENDBRANCH   6   7
ENDBRANCH   5   6
ENDBRANCH   4   5
ENDBRANCH   3   4
ENDBRANCH   2   3
ENDBRANCH   1   2
BRANCH   1  12
ATOM     12  C   UNL     1      20.071   6.815   3.529  1.00  0.00     0.000 C 
BRANCH  12  13
ATOM     13  C   UNL     1      18.582   7.192   3.463  1.00  0.00    -0.000 C 
BRANCH  13  14
ATOM     14  C   UNL     1      18.092   7.885   4.745  1.00  0.00    -0.000 C 
BRANCH  14  15
ATOM     15  C   UNL     1      18.199   6.983   5.988  1.00  0.00    -0.000 C 
BRANCH  15  16
ATOM     16  C   UNL     1      16.990   7.094   6.940  1.00  0.00    -0.000 C 
BRANCH  16  17
ATOM     17  C   UNL     1      16.740   8.541   7.395  1.00  0.00    -0.000 C 
BRANCH  17  18
ATOM     18  C   UNL     1      17.801   8.988   8.413  1.00  0.00    -0.000 C 
BRANCH  18  19
ATOM     19  C   UNL     1      17.182   9.589   9.684  1.00  0.00    -0.003 C 
ATOM     20  C   UNL     1      15.693   9.897   9.528  1.00  0.00     0.004 C 
ENDBRANCH  18  19
ENDBRANCH  17  18
ENDBRANCH  16  17
ENDBRANCH  15  16
ENDBRANCH  14  15
ENDBRANCH  13  14
ENDBRANCH  12  13
ENDBRANCH   1  12
TORSDOF 16
ENDMDL
MODEL 3
REMARK VINA RESULT:    -4.684      8.404     12.094
REMARK INTER + INTRA:         -10.554
REMARK INTER:                  -9.431
REMARK INTRA:                  -1.123
REMARK UNBOUND:                -1.489
REMARK SMILES CCCCCCCCCCCCCCCCCC(=O)[O-]
REMARK SMILES IDX 10 1 11 2 12 3 13 4 14 5 15 6 16 7 17 8 18 9 19 10 20 11
REMARK SMILES IDX 9 12 8 13 7 14 6 15 5 16 4 17 3 18 2 19 1 20
REMARK H PARENT
REMARK Flexibility Score: inf
ROOT
ATOM      1  C   UNL     1      22.799   8.622  17.881  1.00  0.00     0.000 C 
ENDROOT
BRANCH   1   2
ATOM      2  C   UNL     1      23.178   8.576  16.392  1.00  0.00     0.000 C 
BRANCH   2   3
ATOM      3  C   UNL     1      23.537   7.158  15.919  1.00  0.00     0.000 C 
BRANCH   3   4
ATOM      4  C   UNL     1      23.170   6.907  14.446  1.00  0.00     0.000 C 
BRANCH   4   5
ATOM      5  C   UNL     1      23.272   5.439  13.989  1.00  0.00     0.000 C 
BRANCH   5   6
ATOM      6  C   UNL     1      24.449   4.692  14.637  1.00  0.00     0.000 C 
BRANCH   6   7
ATOM      7  C   UNL     1      24.787   3.380  13.908  1.00  0.00     0.006 C 
BRANCH   7   8
ATOM      8  C   UNL     1      26.257   3.305  13.476  1.00  0.00     0.053 C 
BRANCH   8   9
ATOM      9  C   UNL     1      26.365   2.753  12.090  1.00  0.00     0.041 C 
ATOM     10  O   UNL     1      27.067   3.341  11.226  1.00  0.00    -0.550 OA
ATOM     11  O   UNL     1      25.650   1.614  11.737  1.00  0.00    -0.550 OA
ENDBRANCH   8   9
ENDBRANCH   7   8
ENDBRANCH   6   7
ENDBRANCH   5   6
ENDBRANCH   4   5
ENDBRANCH   3   4
ENDBRANCH   2   3
ENDBRANCH   1   2
BRANCH   1  12
ATOM     12  C   UNL     1      21.345   9.076  18.103  1.00  0.00     0.000 C 
BRANCH  12  13
ATOM     13  C   UNL     1      21.150  10.583  17.866  1.00  0.00    -0.000 C 
BRANCH  13  14
ATOM     14  C   UNL     1      20.218  10.876  16.679  1.00  0.00    -0.000 C 
BRANCH  14  15
ATOM     15  C   UNL     1      20.392  12.300  16.122  1.00  0.00    -0.000 C 
BRANCH  15  16
ATOM     16  C   UNL     1      21.427  12.396  14.980  1.00  0.00    -0.000 C 
BRANCH  16  17
ATOM     17  C   UNL     1      21.447  11.131  14.108  1.00  0.00    -0.000 C 
BRANCH  17  18
ATOM     18  C   UNL     1      20.346  11.183  13.037  1.00  0.00    -0.000 C 
BRANCH  18  19
ATOM     19  C   UNL     1      20.290  12.539  12.315  1.00  0.00    -0.003 C 
ATOM     20  C   UNL     1      18.866  12.949  11.940  1.00  0.00     0.004 C 
ENDBRANCH  18  19
ENDBRANCH  17  18
ENDBRANCH  16  17
ENDBRANCH  15  16
ENDBRANCH  14  15
ENDBRANCH  13  14
ENDBRANCH  12  13
ENDBRANCH   1  12
TORSDOF 16
ENDMDL
MODEL 4
REMARK VINA RESULT:    -4.684      6.987     11.306
REMARK INTER + INTRA:         -10.554
REMARK INTER:                  -8.833
REMARK INTRA:                  -1.721
REMARK UNBOUND:                -1.489
REMARK SMILES CCCCCCCCCCCCCCCCCC(=O)[O-]
REMARK SMILES IDX 10 1 11 2 12 3 13 4 14 5 15 6 16 7 17 8 18 9 19 10 20 11
REMARK SMILES IDX 9 12 8 13 7 14 6 15 5 16 4 17 3 18 2 19 1 20
REMARK H PARENT
REMARK Flexibility Score: inf
ROOT
ATOM      1  C   UNL     1      21.243  10.339  18.128  1.00  0.00     0.000 C 
ENDROOT
BRANCH   1   2
ATOM      2  C   UNL     1      21.747   8.888  18.107  1.00  0.00     0.000 C 
BRANCH   2   3
ATOM      3  C   UNL     1      23.273   8.797  17.938  1.00  0.00     0.000 C 
BRANCH   3   4
ATOM      4  C   UNL     1      23.702   8.576  16.477  1.00  0.00     0.000 C 
BRANCH   4   5
ATOM      5  C   UNL     1      23.251   7.239  15.859  1.00  0.00     0.000 C 
BRANCH   5   6
ATOM      6  C   UNL     1      23.212   7.273  14.322  1.00  0.00     0.000 C 
BRANCH   6   7
ATOM      7  C   UNL     1      23.071   5.872  13.705  1.00  0.00     0.006 C 
BRANCH   7   8
ATOM      8  C   UNL     1      23.648   4.769  14.603  1.00  0.00     0.053 C 
BRANCH   8   9
ATOM      9  C   UNL     1      24.955   4.285  14.059  1.00  0.00     0.041 C 
ATOM     10  O   UNL     1      25.088   3.086  13.701  1.00  0.00    -0.550 OA
ATOM     11  O   UNL     1      26.044   5.147  13.997  1.00  0.00    -0.550 OA
ENDBRANCH   8   9
ENDBRANCH   7   8
ENDBRANCH   6   7
ENDBRANCH   5   6
ENDBRANCH   4   5
ENDBRANCH   3   4
ENDBRANCH   2   3
ENDBRANCH   1   2
BRANCH   1  12
ATOM     12  C   UNL     1      20.234  10.628  17.002  1.00  0.00     0.000 C 
BRANCH  12  13
ATOM     13  C   UNL     1      20.540  11.936  16.253  1.00  0.00    -0.000 C 
BRANCH  13  14
ATOM     14  C   UNL     1      21.967  11.968  15.682  1.00  0.00    -0.000 C 
BRANCH  14  15
ATOM     15  C   UNL     1      22.001  11.790  14.154  1.00  0.00    -0.000 C 
BRANCH  15  16
ATOM     16  C   UNL     1      21.423  10.442  13.674  1.00  0.00    -0.000 C 
BRANCH  16  17
ATOM     17  C   UNL     1      20.126  10.620  12.869  1.00  0.00    -0.000 C 
BRANCH  17  18
ATOM     18  C   UNL     1      20.026  12.042  12.296  1.00  0.00    -0.000 C 
BRANCH  18  19
ATOM     19  C   UNL     1      19.231  12.095  10.983  1.00  0.00    -0.003 C 
ATOM     20  C   UNL     1      18.597  10.752  10.621  1.00  0.00     0.004 C 
ENDBRANCH  18  19
ENDBRANCH  17  18
ENDBRANCH  16  17
ENDBRANCH  15  16
ENDBRANCH  14  15
ENDBRANCH  13  14
ENDBRANCH  12  13
ENDBRANCH   1  12
TORSDOF 16
ENDMDL
MODEL 5
REMARK VINA RESULT:    -4.671      2.171      3.176
REMARK INTER + INTRA:         -10.530
REMARK INTER:                  -9.016
REMARK INTRA:                  -1.514
REMARK UNBOUND:                -1.489
REMARK SMILES CCCCCCCCCCCCCCCCCC(=O)[O-]
REMARK SMILES IDX 10 1 11 2 12 3 13 4 14 5 15 6 16 7 17 8 18 9 19 10 20 11
REMARK SMILES IDX 9 12 8 13 7 14 6 15 5 16 4 17 3 18 2 19 1 20
REMARK H PARENT
REMARK Flexibility Score: inf
ROOT
ATOM      1  C   UNL     1      19.660   7.573   2.730  1.00  0.00     0.000 C 
ENDROOT
BRANCH   1   2
ATOM      2  C   UNL     1      18.535   8.038   3.668  1.00  0.00     0.000 C 
BRANCH   2   3
ATOM      3  C   UNL     1      17.566   6.902   4.035  1.00  0.00     0.000 C 
BRANCH   3   4
ATOM      4  C   UNL     1      17.213   6.876   5.533  1.00  0.00     0.000 C 
BRANCH   4   5
ATOM      5  C   UNL     1      18.386   7.182   6.484  1.00  0.00     0.000 C 
BRANCH   5   6
ATOM      6  C   UNL     1      18.030   8.226   7.556  1.00  0.00     0.000 C 
BRANCH   6   7
ATOM      7  C   UNL     1      16.513   8.352   7.775  1.00  0.00     0.006 C 
BRANCH   7   8
ATOM      8  C   UNL     1      16.149   9.464   8.768  1.00  0.00     0.053 C 
BRANCH   8   9
ATOM      9  C   UNL     1      15.106  10.364   8.184  1.00  0.00     0.041 C 
ATOM     10  O   UNL     1      14.947  11.527   8.637  1.00  0.00    -0.550 OA
ATOM     11  O   UNL     1      14.274   9.899   7.172  1.00  0.00    -0.550 OA
ENDBRANCH   8   9
ENDBRANCH   7   8
ENDBRANCH   6   7
ENDBRANCH   5   6
ENDBRANCH   4   5
ENDBRANCH   3   4
ENDBRANCH   2   3
ENDBRANCH   1   2
BRANCH   1  12
ATOM     12  C   UNL     1      20.023   6.091   2.937  1.00  0.00     0.000 C 
BRANCH  12  13
ATOM     13  C   UNL     1      20.849   5.855   4.213  1.00  0.00    -0.000 C 
BRANCH  13  14
ATOM     14  C   UNL     1      20.741   4.410   4.725  1.00  0.00    -0.000 C 
BRANCH  14  15
ATOM     15  C   UNL     1      21.633   4.143   5.950  1.00  0.00    -0.000 C 
BRANCH  15  16
ATOM     16  C   UNL     1      21.831   5.378   6.853  1.00  0.00    -0.000 C 
BRANCH  16  17
ATOM     17  C   UNL     1      23.307   5.797   6.949  1.00  0.00    -0.000 C 
BRANCH  17  18
ATOM     18  C   UNL     1      24.062   5.448   5.657  1.00  0.00    -0.000 C 
BRANCH  18  19
ATOM     19  C   UNL     1      25.433   4.809   5.929  1.00  0.00    -0.003 C 
ATOM     20  C   UNL     1      25.377   3.727   7.007  1.00  0.00     0.004 C 
ENDBRANCH  18  19
ENDBRANCH  17  18
ENDBRANCH  16  17
ENDBRANCH  15  16
ENDBRANCH  14  15
ENDBRANCH  13  14
ENDBRANCH  12  13
ENDBRANCH   1  12
TORSDOF 16
ENDMDL
MODEL 6
REMARK VINA RESULT:    -4.612      6.324      9.749
REMARK INTER + INTRA:         -10.414
REMARK INTER:                  -9.030
REMARK INTRA:                  -1.384
REMARK UNBOUND:                -1.489
REMARK SMILES CCCCCCCCCCCCCCCCCC(=O)[O-]
REMARK SMILES IDX 10 1 11 2 12 3 13 4 14 5 15 6 16 7 17 8 18 9 19 10 20 11
REMARK SMILES IDX 9 12 8 13 7 14 6 15 5 16 4 17 3 18 2 19 1 20
REMARK H PARENT
REMARK Flexibility Score: inf
ROOT
ATOM      1  C   UNL     1      20.561  11.153  17.299  1.00  0.00     0.000 C 
ENDROOT
BRANCH   1   2
ATOM      2  C   UNL     1      20.431  12.049  16.057  1.00  0.00     0.000 C 
BRANCH   2   3
ATOM      3  C   UNL     1      21.423  11.663  14.946  1.00  0.00     0.000 C 
BRANCH   3   4
ATOM      4  C   UNL     1      20.725  11.157  13.671  1.00  0.00     0.000 C 
BRANCH   4   5
ATOM      5  C   UNL     1      20.549  12.212  12.562  1.00  0.00     0.000 C 
BRANCH   5   6
ATOM      6  C   UNL     1      19.200  12.946  12.643  1.00  0.00     0.000 C 
BRANCH   6   7
ATOM      7  C   UNL     1      18.353  12.766  11.373  1.00  0.00     0.006 C 
BRANCH   7   8
ATOM      8  C   UNL     1      18.620  11.429  10.669  1.00  0.00     0.053 C 
BRANCH   8   9
ATOM      9  C   UNL     1      17.338  10.832  10.180  1.00  0.00     0.041 C 
ATOM     10  O   UNL     1      16.322  11.558  10.018  1.00  0.00    -0.550 OA
ATOM     11  O   UNL     1      17.250   9.464   9.950  1.00  0.00    -0.550 OA
ENDBRANCH   8   9
ENDBRANCH   7   8
ENDBRANCH   6   7
ENDBRANCH   5   6
ENDBRANCH   4   5
ENDBRANCH   3   4
ENDBRANCH   2   3
ENDBRANCH   1   2
BRANCH   1  12
ATOM     12  C   UNL     1      21.894  10.384  17.333  1.00  0.00     0.000 C 
BRANCH  12  13
ATOM     13  C   UNL     1      21.715   8.904  17.710  1.00  0.00    -0.000 C 
BRANCH  13  14
ATOM     14  C   UNL     1      22.829   8.012  17.138  1.00  0.00    -0.000 C 
BRANCH  14  15
ATOM     15  C   UNL     1      23.630   8.701  16.019  1.00  0.00    -0.000 C 
BRANCH  15  16
ATOM     16  C   UNL     1      24.166   7.726  14.950  1.00  0.00    -0.000 C 
BRANCH  16  17
ATOM     17  C   UNL     1      23.118   7.418  13.869  1.00  0.00    -0.000 C 
BRANCH  17  18
ATOM     18  C   UNL     1      22.845   5.908  13.783  1.00  0.00    -0.000 C 
BRANCH  18  19
ATOM     19  C   UNL     1      23.403   5.138  14.990  1.00  0.00    -0.003 C 
ATOM     20  C   UNL     1      24.219   3.911  14.582  1.00  0.00     0.004 C 
ENDBRANCH  18  19
ENDBRANCH  17  18
ENDBRANCH  16  17
ENDBRANCH  15  16
ENDBRANCH  14  15
ENDBRANCH  13  14
ENDBRANCH  12  13
ENDBRANCH   1  12
TORSDOF 16
ENDMDL
MODEL 7
REMARK VINA RESULT:    -4.597      9.553     11.752
REMARK INTER + INTRA:         -10.386
REMARK INTER:                  -8.125
REMARK INTRA:                  -2.261
REMARK UNBOUND:                -1.489
REMARK SMILES CCCCCCCCCCCCCCCCCC(=O)[O-]
REMARK SMILES IDX 10 1 11 2 12 3 13 4 14 5 15 6 16 7 17 8 18 9 19 10 20 11
REMARK SMILES IDX 9 12 8 13 7 14 6 15 5 16 4 17 3 18 2 19 1 20
REMARK H PARENT
REMARK Flexibility Score: inf
ROOT
ATOM      1  C   UNL     1      24.030   8.266  16.439  1.00  0.00     0.000 C 
ENDROOT
BRANCH   1   2
ATOM      2  C   UNL     1      23.355   8.328  15.060  1.00  0.00     0.000 C 
BRANCH   2   3
ATOM      3  C   UNL     1      23.914   7.280  14.082  1.00  0.00     0.000 C 
BRANCH   3   4
ATOM      4  C   UNL     1      22.946   6.107  13.844  1.00  0.00     0.000 C 
BRANCH   4   5
ATOM      5  C   UNL     1      22.992   4.997  14.910  1.00  0.00     0.000 C 
BRANCH   5   6
ATOM      6  C   UNL     1      24.363   4.307  14.998  1.00  0.00     0.000 C 
BRANCH   6   7
ATOM      7  C   UNL     1      24.676   3.457  13.755  1.00  0.00     0.006 C 
BRANCH   7   8
ATOM      8  C   UNL     1      26.141   3.572  13.313  1.00  0.00     0.053 C 
BRANCH   8   9
ATOM      9  C   UNL     1      26.582   2.311  12.640  1.00  0.00     0.041 C 
ATOM     10  O   UNL     1      25.808   1.709  11.851  1.00  0.00    -0.550 OA
ATOM     11  O   UNL     1      27.832   1.773  12.922  1.00  0.00    -0.550 OA
ENDBRANCH   8   9
ENDBRANCH   7   8
ENDBRANCH   6   7
ENDBRANCH   5   6
ENDBRANCH   4   5
ENDBRANCH   3   4
ENDBRANCH   2   3
ENDBRANCH   1   2
BRANCH   1  12
ATOM     12  C   UNL     1      25.417   7.600  16.386  1.00  0.00     0.000 C 
BRANCH  12  13
ATOM     13  C   UNL     1      26.567   8.620  16.438  1.00  0.00    -0.000 C 
BRANCH  13  14
ATOM     14  C   UNL     1      27.640   8.353  15.370  1.00  0.00    -0.000 C 
BRANCH  14  15
ATOM     15  C   UNL     1      27.549   6.937  14.774  1.00  0.00    -0.000 C 
BRANCH  15  16
ATOM     16  C   UNL     1      27.581   6.911  13.231  1.00  0.00    -0.000 C 
BRANCH  16  17
ATOM     17  C   UNL     1      27.705   8.320  12.629  1.00  0.00    -0.000 C 
BRANCH  17  18
ATOM     18  C   UNL     1      29.118   8.558  12.077  1.00  0.00    -0.000 C 
BRANCH  18  19
ATOM     19  C   UNL     1      29.464  10.051  11.965  1.00  0.00    -0.003 C 
ATOM     20  C   UNL     1      28.492  10.942  12.738  1.00  0.00     0.004 C 
ENDBRANCH  18  19
ENDBRANCH  17  18
ENDBRANCH  16  17
ENDBRANCH  15  16
ENDBRANCH  14  15
ENDBRANCH  13  14
ENDBRANCH  12  13
ENDBRANCH   1  12
TORSDOF 16
ENDMDL
MODEL 8
REMARK VINA RESULT:    -4.593      9.658     11.348
REMARK INTER + INTRA:         -10.378
REMARK INTER:                  -8.258
REMARK INTRA:                  -2.120
REMARK UNBOUND:                -1.489
REMARK SMILES CCCCCCCCCCCCCCCCCC(=O)[O-]
REMARK SMILES IDX 10 1 11 2 12 3 13 4 14 5 15 6 16 7 17 8 18 9 19 10 20 11
REMARK SMILES IDX 9 12 8 13 7 14 6 15 5 16 4 17 3 18 2 19 1 20
REMARK H PARENT
REMARK Flexibility Score: inf
ROOT
ATOM      1  C   UNL     1      26.766   6.704  14.438  1.00  0.00     0.000 C 
ENDROOT
BRANCH   1   2
ATOM      2  C   UNL     1      28.033   7.409  13.927  1.00  0.00     0.000 C 
BRANCH   2   3
ATOM      3  C   UNL     1      28.190   7.306  12.401  1.00  0.00     0.000 C 
BRANCH   3   4
ATOM      4  C   UNL     1      28.281   8.680  11.714  1.00  0.00     0.000 C 
BRANCH   4   5
ATOM      5  C   UNL     1      27.067   9.602  11.934  1.00  0.00     0.000 C 
BRANCH   5   6
ATOM      6  C   UNL     1      27.463  11.012  12.403  1.00  0.00     0.000 C 
BRANCH   6   7
ATOM      7  C   UNL     1      27.953  11.032  13.861  1.00  0.00     0.006 C 
BRANCH   7   8
ATOM      8  C   UNL     1      29.195  11.912  14.056  1.00  0.00     0.053 C 
BRANCH   8   9
ATOM      9  C   UNL     1      30.108  11.793  12.877  1.00  0.00     0.041 C 
ATOM     10  O   UNL     1      30.863  10.793  12.757  1.00  0.00    -0.550 OA
ATOM     11  O   UNL     1      30.163  12.814  11.934  1.00  0.00    -0.550 OA
ENDBRANCH   8   9
ENDBRANCH   7   8
ENDBRANCH   6   7
ENDBRANCH   5   6
ENDBRANCH   4   5
ENDBRANCH   3   4
ENDBRANCH   2   3
ENDBRANCH   1   2
BRANCH   1  12
ATOM     12  C   UNL     1      25.712   7.696  14.961  1.00  0.00     0.000 C 
BRANCH  12  13
ATOM     13  C   UNL     1      24.552   7.904  13.973  1.00  0.00    -0.000 C 
BRANCH  13  14
ATOM     14  C   UNL     1      23.259   7.205  14.426  1.00  0.00    -0.000 C 
BRANCH  14  15
ATOM     15  C   UNL     1      23.187   5.736  13.977  1.00  0.00    -0.000 C 
BRANCH  15  16
ATOM     16  C   UNL     1      23.343   4.726  15.134  1.00  0.00    -0.000 C 
BRANCH  16  17
ATOM     17  C   UNL     1      24.367   3.626  14.810  1.00  0.00    -0.000 C 
BRANCH  17  18
ATOM     18  C   UNL     1      24.861   3.745  13.361  1.00  0.00    -0.000 C 
BRANCH  18  19
ATOM     19  C   UNL     1      25.968   2.732  13.029  1.00  0.00    -0.003 C 
ATOM     20  C   UNL     1      27.339   3.387  12.863  1.00  0.00     0.004 C 
ENDBRANCH  18  19
ENDBRANCH  17  18
ENDBRANCH  16  17
ENDBRANCH  15  16
ENDBRANCH  14  15
ENDBRANCH  13  14
ENDBRANCH  12  13
ENDBRANCH   1  12
TORSDOF 16
ENDMDL
MODEL 9
REMARK VINA RESULT:    -4.573      9.234     10.679
REMARK INTER + INTRA:         -10.340
REMARK INTER:                  -8.280
REMARK INTRA:                  -2.061
REMARK UNBOUND:                -1.489
REMARK SMILES CCCCCCCCCCCCCCCCCC(=O)[O-]
REMARK SMILES IDX 10 1 11 2 12 3 13 4 14 5 15 6 16 7 17 8 18 9 19 10 20 11
REMARK SMILES IDX 9 12 8 13 7 14 6 15 5 16 4 17 3 18 2 19 1 20
REMARK H PARENT
REMARK Flexibility Score: inf
ROOT
ATOM      1  C   UNL     1      26.735   6.695  14.659  1.00  0.00     0.000 C 
ENDROOT
BRANCH   1   2
ATOM      2  C   UNL     1      28.056   7.248  14.100  1.00  0.00     0.000 C 
BRANCH   2   3
ATOM      3  C   UNL     1      28.110   7.205  12.564  1.00  0.00     0.000 C 
BRANCH   3   4
ATOM      4  C   UNL     1      28.369   8.585  11.935  1.00  0.00     0.000 C 
BRANCH   4   5
ATOM      5  C   UNL     1      27.172   9.553  11.970  1.00  0.00     0.000 C 
BRANCH   5   6
ATOM      6  C   UNL     1      27.347  10.686  12.995  1.00  0.00     0.000 C 
BRANCH   6   7
ATOM      7  C   UNL     1      27.522  12.061  12.330  1.00  0.00     0.006 C 
BRANCH   7   8
ATOM      8  C   UNL     1      26.194  12.655  11.841  1.00  0.00     0.053 C 
BRANCH   8   9
ATOM      9  C   UNL     1      25.403  13.184  12.995  1.00  0.00     0.041 C 
ATOM     10  O   UNL     1      25.808  14.190  13.634  1.00  0.00    -0.550 OA
ATOM     11  O   UNL     1      24.243  12.534  13.398  1.00  0.00    -0.550 OA
ENDBRANCH   8   9
ENDBRANCH   7   8
ENDBRANCH   6   7
ENDBRANCH   5   6
ENDBRANCH   4   5
ENDBRANCH   3   4
ENDBRANCH   2   3
ENDBRANCH   1   2
BRANCH   1  12
ATOM     12  C   UNL     1      25.739   7.810  15.024  1.00  0.00     0.000 C 
BRANCH  12  13
ATOM     13  C   UNL     1      24.579   7.922  14.021  1.00  0.00    -0.000 C 
BRANCH  13  14
ATOM     14  C   UNL     1      23.296   7.242  14.525  1.00  0.00    -0.000 C 
BRANCH  14  15
ATOM     15  C   UNL     1      23.168   5.784  14.051  1.00  0.00    -0.000 C 
BRANCH  15  16
ATOM     16  C   UNL     1      23.306   4.748  15.187  1.00  0.00    -0.000 C 
BRANCH  16  17
ATOM     17  C   UNL     1      24.333   3.654  14.854  1.00  0.00    -0.000 C 
BRANCH  17  18
ATOM     18  C   UNL     1      24.843   3.801  13.412  1.00  0.00    -0.000 C 
BRANCH  18  19
ATOM     19  C   UNL     1      25.920   2.763  13.059  1.00  0.00    -0.003 C 
ATOM     20  C   UNL     1      27.333   3.346  13.081  1.00  0.00     0.004 C 
ENDBRANCH  18  19
ENDBRANCH  17  18
ENDBRANCH  16  17
ENDBRANCH  15  16
ENDBRANCH  14  15
ENDBRANCH  13  14
ENDBRANCH  12  13
ENDBRANCH   1  12
TORSDOF 16
ENDMDL
