MODEL 1
REMARK VINA RESULT:    -3.184      0.000      0.000
REMARK INTER + INTRA:          -3.786
REMARK INTER:                  -3.743
REMARK INTRA:                  -0.043
REMARK UNBOUND:                -0.043
REMARK SMILES CCCCC(=O)[O-]
REMARK SMILES IDX 4 1 5 2 6 3 7 4 3 5 2 6 1 7
REMARK H PARENT
REMARK Flexibility Score: inf
ROOT
ATOM      1  C   UNL     1       8.704 -33.033   7.544  1.00  0.00     0.053 C 
ENDROOT
BRANCH   1   2
ATOM      2  C   UNL     1       9.814 -32.272   6.886  1.00  0.00     0.041 C 
ATOM      3  O   UNL     1       9.693 -31.876   5.697  1.00  0.00    -0.550 OA
ATOM      4  O   UNL     1      10.996 -32.030   7.574  1.00  0.00    -0.550 OA
ENDBRANCH   1   2
BRANCH   1   5
ATOM      5  C   UNL     1       9.056 -33.423   8.986  1.00  0.00     0.006 C 
BRANCH   5   6
ATOM      6  C   UNL     1       7.808 -33.583   9.866  1.00  0.00    -0.003 C 
ATOM      7  C   UNL     1       6.533 -33.344   9.062  1.00  0.00     0.004 C 
ENDBRANCH   5   6
ENDBRANCH   1   5
TORSDOF 3
ENDMDL
MODEL 2
REMARK VINA RESULT:    -3.048     22.039     22.640
REMARK INTER + INTRA:          -3.626
REMARK INTER:                  -3.526
REMARK INTRA:                  -0.100
REMARK UNBOUND:                -0.043
REMARK SMILES CCCCC(=O)[O-]
REMARK SMILES IDX 4 1 5 2 6 3 7 4 3 5 2 6 1 7
REMARK H PARENT
REMARK Flexibility Score: inf
ROOT
ATOM      1  C   UNL     1      -2.870 -51.596   2.610  1.00  0.00     0.053 C 
ENDROOT
BRANCH   1   2
ATOM      2  C   UNL     1      -1.829 -51.770   3.673  1.00  0.00     0.041 C 
ATOM      3  O   UNL     1      -0.607 -51.675   3.383  1.00  0.00    -0.550 OA
ATOM      4  O   UNL     1      -2.205 -52.072   4.975  1.00  0.00    -0.550 OA
ENDBRANCH   1   2
BRANCH   1   5
ATOM      5  C   UNL     1      -2.439 -50.573   1.551  1.00  0.00     0.006 C 
BRANCH   5   6
ATOM      6  C   UNL     1      -2.491 -51.151   0.130  1.00  0.00    -0.003 C 
ATOM      7  C   UNL     1      -1.120 -51.657  -0.310  1.00  0.00     0.004 C 
ENDBRANCH   5   6
ENDBRANCH   1   5
TORSDOF 3
ENDMDL
MODEL 3
REMARK VINA RESULT:    -3.026     22.029     22.662
REMARK INTER + INTRA:          -3.600
REMARK INTER:                  -3.502
REMARK INTRA:                  -0.098
REMARK UNBOUND:                -0.043
REMARK SMILES CCCCC(=O)[O-]
REMARK SMILES IDX 4 1 5 2 6 3 7 4 3 5 2 6 1 7
REMARK H PARENT
REMARK Flexibility Score: inf
ROOT
ATOM      1  C   UNL     1      -2.964 -51.530   2.563  1.00  0.00     0.053 C 
ENDROOT
BRANCH   1   2
ATOM      2  C   UNL     1      -1.954 -51.762   3.646  1.00  0.00     0.041 C 
ATOM      3  O   UNL     1      -2.330 -52.100   4.799  1.00  0.00    -0.550 OA
ATOM      4  O   UNL     1      -0.603 -51.572   3.391  1.00  0.00    -0.550 OA
ENDBRANCH   1   2
BRANCH   1   5
ATOM      5  C   UNL     1      -2.434 -50.575   1.485  1.00  0.00     0.006 C 
BRANCH   5   6
ATOM      6  C   UNL     1      -2.441 -51.213   0.088  1.00  0.00    -0.003 C 
ATOM      7  C   UNL     1      -1.041 -51.663  -0.319  1.00  0.00     0.004 C 
ENDBRANCH   5   6
ENDBRANCH   1   5
TORSDOF 3
ENDMDL
MODEL 4
REMARK VINA RESULT:    -2.946     22.374     23.135
REMARK INTER + INTRA:          -3.506
REMARK INTER:                  -3.452
REMARK INTRA:                  -0.054
REMARK UNBOUND:                -0.043
REMARK SMILES CCCCC(=O)[O-]
REMARK SMILES IDX 4 1 5 2 6 3 7 4 3 5 2 6 1 7
REMARK H PARENT
REMARK Flexibility Score: inf
ROOT
ATOM      1  C   UNL     1      -2.549 -50.707   1.662  1.00  0.00     0.053 C 
ENDROOT
BRANCH   1   2
ATOM      2  C   UNL     1      -1.302 -51.531   1.562  1.00  0.00     0.041 C 
ATOM      3  O   UNL     1      -0.851 -52.123   2.578  1.00  0.00    -0.550 OA
ATOM      4  O   UNL     1      -0.618 -51.618   0.356  1.00  0.00    -0.550 OA
ENDBRANCH   1   2
BRANCH   1   5
ATOM      5  C   UNL     1      -3.283 -50.619   0.317  1.00  0.00     0.006 C 
BRANCH   5   6
ATOM      6  C   UNL     1      -4.270 -51.778   0.116  1.00  0.00    -0.003 C 
ATOM      7  C   UNL     1      -5.697 -51.264  -0.051  1.00  0.00     0.004 C 
ENDBRANCH   5   6
ENDBRANCH   1   5
TORSDOF 3
ENDMDL
MODEL 5
REMARK VINA RESULT:    -2.668     22.320     22.958
REMARK INTER + INTRA:          -3.179
REMARK INTER:                  -3.137
REMARK INTRA:                  -0.043
REMARK UNBOUND:                -0.043
REMARK SMILES CCCCC(=O)[O-]
REMARK SMILES IDX 4 1 5 2 6 3 7 4 3 5 2 6 1 7
REMARK H PARENT
REMARK Flexibility Score: inf
ROOT
ATOM      1  C   UNL     1      -2.506 -51.865   4.059  1.00  0.00     0.053 C 
ENDROOT
BRANCH   1   2
ATOM      2  C   UNL     1      -3.639 -51.474   4.959  1.00  0.00     0.041 C 
ATOM      3  O   UNL     1      -3.414 -51.153   6.156  1.00  0.00    -0.550 OA
ATOM      4  O   UNL     1      -4.944 -51.496   4.486  1.00  0.00    -0.550 OA
ENDBRANCH   1   2
BRANCH   1   5
ATOM      5  C   UNL     1      -2.939 -51.919   2.588  1.00  0.00     0.006 C 
BRANCH   5   6
ATOM      6  C   UNL     1      -2.347 -50.765   1.766  1.00  0.00    -0.003 C 
ATOM      7  C   UNL     1      -2.993 -50.684   0.386  1.00  0.00     0.004 C 
ENDBRANCH   5   6
ENDBRANCH   1   5
TORSDOF 3
ENDMDL
MODEL 6
REMARK VINA RESULT:    -2.653     22.122     22.657
REMARK INTER + INTRA:          -3.162
REMARK INTER:                  -3.074
REMARK INTRA:                  -0.088
REMARK UNBOUND:                -0.043
REMARK SMILES CCCCC(=O)[O-]
REMARK SMILES IDX 4 1 5 2 6 3 7 4 3 5 2 6 1 7
REMARK H PARENT
REMARK Flexibility Score: inf
ROOT
ATOM      1  C   UNL     1      -2.849 -50.987   2.234  1.00  0.00     0.053 C 
ENDROOT
BRANCH   1   2
ATOM      2  C   UNL     1      -1.426 -51.438   2.103  1.00  0.00     0.041 C 
ATOM      3  O   UNL     1      -0.905 -51.566   0.964  1.00  0.00    -0.550 OA
ATOM      4  O   UNL     1      -0.688 -51.750   3.237  1.00  0.00    -0.550 OA
ENDBRANCH   1   2
BRANCH   1   5
ATOM      5  C   UNL     1      -3.769 -52.125   2.695  1.00  0.00     0.006 C 
BRANCH   5   6
ATOM      6  C   UNL     1      -4.526 -51.774   3.984  1.00  0.00    -0.003 C 
ATOM      7  C   UNL     1      -3.580 -51.714   5.180  1.00  0.00     0.004 C 
ENDBRANCH   5   6
ENDBRANCH   1   5
TORSDOF 3
ENDMDL
MODEL 7
REMARK VINA RESULT:    -2.619     21.564     22.205
REMARK INTER + INTRA:          -3.121
REMARK INTER:                  -3.098
REMARK INTRA:                  -0.023
REMARK UNBOUND:                -0.043
REMARK SMILES CCCCC(=O)[O-]
REMARK SMILES IDX 4 1 5 2 6 3 7 4 3 5 2 6 1 7
REMARK H PARENT
REMARK Flexibility Score: inf
ROOT
ATOM      1  C   UNL     1      -3.281 -51.685   5.364  1.00  0.00     0.053 C 
ENDROOT
BRANCH   1   2
ATOM      2  C   UNL     1      -2.612 -51.063   6.552  1.00  0.00     0.041 C 
ATOM      3  O   UNL     1      -1.360 -51.124   6.678  1.00  0.00    -0.550 OA
ATOM      4  O   UNL     1      -3.373 -50.446   7.537  1.00  0.00    -0.550 OA
ENDBRANCH   1   2
BRANCH   1   5
ATOM      5  C   UNL     1      -2.307 -51.868   4.193  1.00  0.00     0.006 C 
BRANCH   5   6
ATOM      6  C   UNL     1      -2.958 -51.544   2.840  1.00  0.00    -0.003 C 
ATOM      7  C   UNL     1      -1.987 -50.801   1.926  1.00  0.00     0.004 C 
ENDBRANCH   5   6
ENDBRANCH   1   5
TORSDOF 3
ENDMDL
MODEL 8
REMARK VINA RESULT:    -2.537     22.025     22.633
REMARK INTER + INTRA:          -3.025
REMARK INTER:                  -2.966
REMARK INTRA:                  -0.059
REMARK UNBOUND:                -0.043
REMARK SMILES CCCCC(=O)[O-]
REMARK SMILES IDX 4 1 5 2 6 3 7 4 3 5 2 6 1 7
REMARK H PARENT
REMARK Flexibility Score: inf
ROOT
ATOM      1  C   UNL     1      -1.818 -50.820   1.844  1.00  0.00     0.053 C 
ENDROOT
BRANCH   1   2
ATOM      2  C   UNL     1      -1.570 -51.435   0.500  1.00  0.00     0.041 C 
ATOM      3  O   UNL     1      -0.409 -51.444   0.013  1.00  0.00    -0.550 OA
ATOM      4  O   UNL     1      -2.626 -51.965  -0.229  1.00  0.00    -0.550 OA
ENDBRANCH   1   2
BRANCH   1   5
ATOM      5  C   UNL     1      -3.098 -51.364   2.492  1.00  0.00     0.006 C 
BRANCH   5   6
ATOM      6  C   UNL     1      -2.841 -51.945   3.889  1.00  0.00    -0.003 C 
ATOM      7  C   UNL     1      -1.357 -51.894   4.243  1.00  0.00     0.004 C 
ENDBRANCH   5   6
ENDBRANCH   1   5
TORSDOF 3
ENDMDL
MODEL 9
REMARK VINA RESULT:    -2.534     23.092     23.695
REMARK INTER + INTRA:          -3.021
REMARK INTER:                  -2.942
REMARK INTRA:                  -0.080
REMARK UNBOUND:                -0.043
REMARK SMILES CCCCC(=O)[O-]
REMARK SMILES IDX 4 1 5 2 6 3 7 4 3 5 2 6 1 7
REMARK H PARENT
REMARK Flexibility Score: inf
ROOT
ATOM      1  C   UNL     1      -3.298 -50.566   0.424  1.00  0.00     0.053 C 
ENDROOT
BRANCH   1   2
ATOM      2  C   UNL     1      -4.597 -51.285   0.623  1.00  0.00     0.041 C 
ATOM      3  O   UNL     1      -4.789 -51.969   1.663  1.00  0.00    -0.550 OA
ATOM      4  O   UNL     1      -5.582 -51.229  -0.355  1.00  0.00    -0.550 OA
ENDBRANCH   1   2
BRANCH   1   5
ATOM      5  C   UNL     1      -2.242 -51.002   1.448  1.00  0.00     0.006 C 
BRANCH   5   6
ATOM      6  C   UNL     1      -1.260 -52.031   0.868  1.00  0.00    -0.003 C 
ATOM      7  C   UNL     1      -0.935 -51.720  -0.590  1.00  0.00     0.004 C 
ENDBRANCH   5   6
ENDBRANCH   1   5
TORSDOF 3
ENDMDL
