MODEL 1
REMARK VINA RESULT:    -6.710      0.000      0.000
REMARK INTER + INTRA:          -8.386
REMARK INTER:                  -8.084
REMARK INTRA:                  -0.302
REMARK UNBOUND:                -0.302
REMARK SMILES O=c1c(O)c(-c2ccc(O)c(O)c2)oc2cc(O)cc(O)c12
REMARK SMILES IDX 5 1 3 2 2 3 1 4 22 5 20 6 19 7 17 8 16 9 15 10 14 11 6 12
REMARK SMILES IDX 7 13 8 14 9 15 13 16 11 17 10 18 12 20 4 22 21 24 18 26
REMARK H PARENT 10 19 12 21 4 23 21 25 18 27
REMARK Flexibility Score: inf
ROOT
ATOM      1  C   UNL     1     139.020 134.644 146.157  1.00  0.00     0.180 A 
ATOM      2  C   UNL     1     140.361 134.449 145.784  1.00  0.00     0.208 A 
ATOM      3  C   UNL     1     141.145 135.565 145.452  1.00  0.00     0.238 A 
ATOM      4  O   UNL     1     142.360 135.390 145.172  1.00  0.00    -0.285 OA
ATOM      5  C   UNL     1     140.575 136.861 145.481  1.00  0.00     0.111 A 
ATOM      6  C   UNL     1     141.265 138.058 145.125  1.00  0.00     0.134 A 
ATOM      7  C   UNL     1     140.641 139.297 145.315  1.00  0.00     0.093 A 
ATOM      8  C   UNL     1     139.331 139.380 145.787  1.00  0.00     0.123 A 
ATOM      9  C   UNL     1     138.626 138.212 146.082  1.00  0.00     0.094 A 
ATOM     10  C   UNL     1     139.235 136.963 145.936  1.00  0.00     0.146 A 
ATOM     11  O   UNL     1     138.533 135.877 146.237  1.00  0.00    -0.452 OA
ENDROOT
BRANCH   1  12
ATOM     12  C   UNL     1     138.125 133.514 146.497  1.00  0.00     0.025 A 
ATOM     13  C   UNL     1     137.528 132.774 145.469  1.00  0.00     0.016 A 
ATOM     14  C   UNL     1     136.696 131.693 145.767  1.00  0.00     0.051 A 
ATOM     15  C   UNL     1     136.457 131.321 147.095  1.00  0.00     0.157 A 
ATOM     16  C   UNL     1     137.906 133.131 147.832  1.00  0.00     0.062 A 
ATOM     17  C   UNL     1     137.076 132.046 148.141  1.00  0.00     0.158 A 
BRANCH  15  18
ATOM     18  O   UNL     1     135.611 130.235 147.326  1.00  0.00    -0.504 OA
ATOM     19  H   UNL     1     135.499 129.459 146.689  1.00  0.00     0.293 HD
ENDBRANCH  15  18
BRANCH  17  20
ATOM     20  O   UNL     1     136.902 131.721 149.488  1.00  0.00    -0.504 OA
ATOM     21  H   UNL     1     137.225 130.861 149.908  1.00  0.00     0.293 HD
ENDBRANCH  17  20
ENDBRANCH   1  12
BRANCH   2  22
ATOM     22  O   UNL     1     140.911 133.163 145.784  1.00  0.00    -0.502 OA
ATOM     23  H   UNL     1     141.303 132.740 144.952  1.00  0.00     0.293 HD
ENDBRANCH   2  22
BRANCH   6  24
ATOM     24  O   UNL     1     142.543 138.084 144.557  1.00  0.00    -0.507 OA
ATOM     25  H   UNL     1     142.738 137.954 143.576  1.00  0.00     0.293 HD
ENDBRANCH   6  24
BRANCH   8  26
ATOM     26  O   UNL     1     138.737 140.629 145.950  1.00  0.00    -0.508 OA
ATOM     27  H   UNL     1     138.006 140.953 145.328  1.00  0.00     0.293 HD
ENDBRANCH   8  26
TORSDOF 6
ENDMDL
MODEL 2
REMARK VINA RESULT:    -6.361      2.840      4.605
REMARK INTER + INTRA:          -7.965
REMARK INTER:                  -7.642
REMARK INTRA:                  -0.323
REMARK UNBOUND:                -0.302
REMARK SMILES O=c1c(O)c(-c2ccc(O)c(O)c2)oc2cc(O)cc(O)c12
REMARK SMILES IDX 5 1 3 2 2 3 1 4 22 5 20 6 19 7 17 8 16 9 15 10 14 11 6 12
REMARK SMILES IDX 7 13 8 14 9 15 13 16 11 17 10 18 12 20 4 22 21 24 18 26
REMARK H PARENT 10 19 12 21 4 23 21 25 18 27
REMARK Flexibility Score: inf
ROOT
ATOM      1  C   UNL     1     136.192 133.289 148.027  1.00  0.00     0.180 A 
ATOM      2  C   UNL     1     136.319 132.331 147.006  1.00  0.00     0.208 A 
ATOM      3  C   UNL     1     137.293 132.520 146.013  1.00  0.00     0.238 A 
ATOM      4  O   UNL     1     137.439 131.632 145.133  1.00  0.00    -0.285 OA
ATOM      5  C   UNL     1     138.116 133.672 146.043  1.00  0.00     0.111 A 
ATOM      6  C   UNL     1     139.107 133.984 145.065  1.00  0.00     0.134 A 
ATOM      7  C   UNL     1     139.951 135.084 145.264  1.00  0.00     0.093 A 
ATOM      8  C   UNL     1     139.798 135.918 146.371  1.00  0.00     0.123 A 
ATOM      9  C   UNL     1     138.793 135.655 147.303  1.00  0.00     0.094 A 
ATOM     10  C   UNL     1     137.959 134.545 147.150  1.00  0.00     0.146 A 
ATOM     11  O   UNL     1     137.022 134.325 148.064  1.00  0.00    -0.452 OA
ENDROOT
BRANCH   1  12
ATOM     12  C   UNL     1     135.172 133.172 149.096  1.00  0.00     0.025 A 
ATOM     13  C   UNL     1     133.896 133.712 148.893  1.00  0.00     0.016 A 
ATOM     14  C   UNL     1     132.914 133.596 149.878  1.00  0.00     0.051 A 
ATOM     15  C   UNL     1     133.182 132.924 151.077  1.00  0.00     0.157 A 
ATOM     16  C   UNL     1     135.439 132.477 150.287  1.00  0.00     0.062 A 
ATOM     17  C   UNL     1     134.460 132.351 151.281  1.00  0.00     0.158 A 
BRANCH  15  18
ATOM     18  O   UNL     1     132.160 132.848 152.024  1.00  0.00    -0.504 OA
ATOM     19  H   UNL     1     131.315 133.400 151.991  1.00  0.00     0.293 HD
ENDBRANCH  15  18
BRANCH  17  20
ATOM     20  O   UNL     1     134.794 131.650 152.441  1.00  0.00    -0.504 OA
ATOM     21  H   UNL     1     135.470 130.900 152.472  1.00  0.00     0.293 HD
ENDBRANCH  17  20
ENDBRANCH   1  12
BRANCH   2  22
ATOM     22  O   UNL     1     135.511 131.190 147.009  1.00  0.00    -0.502 OA
ATOM     23  H   UNL     1     135.341 130.647 147.846  1.00  0.00     0.293 HD
ENDBRANCH   2  22
BRANCH   6  24
ATOM     24  O   UNL     1     139.284 133.271 143.875  1.00  0.00    -0.507 OA
ATOM     25  H   UNL     1     140.120 133.293 143.311  1.00  0.00     0.293 HD
ENDBRANCH   6  24
BRANCH   8  26
ATOM     26  O   UNL     1     140.646 137.012 146.530  1.00  0.00    -0.508 OA
ATOM     27  H   UNL     1     140.339 137.857 146.997  1.00  0.00     0.293 HD
ENDBRANCH   8  26
TORSDOF 6
ENDMDL
MODEL 3
REMARK VINA RESULT:    -6.283      1.281      1.934
REMARK INTER + INTRA:          -7.871
REMARK INTER:                  -7.591
REMARK INTRA:                  -0.280
REMARK UNBOUND:                -0.302
REMARK SMILES O=c1c(O)c(-c2ccc(O)c(O)c2)oc2cc(O)cc(O)c12
REMARK SMILES IDX 5 1 3 2 2 3 1 4 22 5 20 6 19 7 17 8 16 9 15 10 14 11 6 12
REMARK SMILES IDX 7 13 8 14 9 15 13 16 11 17 10 18 12 20 4 22 21 24 18 26
REMARK H PARENT 10 19 12 21 4 23 21 25 18 27
REMARK Flexibility Score: inf
ROOT
ATOM      1  C   UNL     1     139.223 134.578 146.834  1.00  0.00     0.180 A 
ATOM      2  C   UNL     1     140.274 133.921 146.172  1.00  0.00     0.208 A 
ATOM      3  C   UNL     1     141.239 134.686 145.499  1.00  0.00     0.238 A 
ATOM      4  O   UNL     1     142.209 134.094 144.955  1.00  0.00    -0.285 OA
ATOM      5  C   UNL     1     141.132 136.097 145.480  1.00  0.00     0.111 A 
ATOM      6  C   UNL     1     142.031 136.969 144.795  1.00  0.00     0.134 A 
ATOM      7  C   UNL     1     141.904 138.355 144.953  1.00  0.00     0.093 A 
ATOM      8  C   UNL     1     140.873 138.901 145.717  1.00  0.00     0.123 A 
ATOM      9  C   UNL     1     139.954 138.059 146.344  1.00  0.00     0.094 A 
ATOM     10  C   UNL     1     140.076 136.672 146.234  1.00  0.00     0.146 A 
ATOM     11  O   UNL     1     139.186 135.906 146.854  1.00  0.00    -0.452 OA
ENDROOT
BRANCH   1  12
ATOM     12  C   UNL     1     138.154 133.839 147.546  1.00  0.00     0.025 A 
ATOM     13  C   UNL     1     138.126 133.846 148.946  1.00  0.00     0.016 A 
ATOM     14  C   UNL     1     137.116 133.173 149.636  1.00  0.00     0.051 A 
ATOM     15  C   UNL     1     136.108 132.493 148.942  1.00  0.00     0.157 A 
ATOM     16  C   UNL     1     137.132 133.177 146.844  1.00  0.00     0.062 A 
ATOM     17  C   UNL     1     136.113 132.501 147.527  1.00  0.00     0.158 A 
BRANCH  15  18
ATOM     18  O   UNL     1     135.132 131.834 149.690  1.00  0.00    -0.504 OA
ATOM     19  H   UNL     1     135.042 130.829 149.744  1.00  0.00     0.293 HD
ENDBRANCH  15  18
BRANCH  17  20
ATOM     20  O   UNL     1     135.131 131.863 146.767  1.00  0.00    -0.504 OA
ATOM     21  H   UNL     1     135.063 130.861 146.658  1.00  0.00     0.293 HD
ENDBRANCH  17  20
ENDBRANCH   1  12
BRANCH   2  22
ATOM     22  O   UNL     1     140.374 132.527 146.222  1.00  0.00    -0.502 OA
ATOM     23  H   UNL     1     140.062 131.988 147.021  1.00  0.00     0.293 HD
ENDBRANCH   2  22
BRANCH   6  24
ATOM     24  O   UNL     1     143.039 136.530 143.931  1.00  0.00    -0.507 OA
ATOM     25  H   UNL     1     143.357 135.576 143.859  1.00  0.00     0.293 HD
ENDBRANCH   6  24
BRANCH   8  26
ATOM     26  O   UNL     1     140.768 140.285 145.841  1.00  0.00    -0.508 OA
ATOM     27  H   UNL     1     141.539 140.847 146.182  1.00  0.00     0.293 HD
ENDBRANCH   8  26
TORSDOF 6
ENDMDL
MODEL 4
REMARK VINA RESULT:    -6.229      9.331     11.551
REMARK INTER + INTRA:          -7.806
REMARK INTER:                  -7.484
REMARK INTRA:                  -0.322
REMARK UNBOUND:                -0.302
REMARK SMILES O=c1c(O)c(-c2ccc(O)c(O)c2)oc2cc(O)cc(O)c12
REMARK SMILES IDX 5 1 3 2 2 3 1 4 22 5 20 6 19 7 17 8 16 9 15 10 14 11 6 12
REMARK SMILES IDX 7 13 8 14 9 15 13 16 11 17 10 18 12 20 4 22 21 24 18 26
REMARK H PARENT 10 19 12 21 4 23 21 25 18 27
REMARK Flexibility Score: inf
ROOT
ATOM      1  C   UNL     1     132.131 135.856 153.955  1.00  0.00     0.180 A 
ATOM      2  C   UNL     1     130.743 135.955 154.154  1.00  0.00     0.208 A 
ATOM      3  C   UNL     1     130.243 136.983 154.969  1.00  0.00     0.238 A 
ATOM      4  O   UNL     1     128.996 137.099 155.099  1.00  0.00    -0.285 OA
ATOM      5  C   UNL     1     131.137 137.888 155.590  1.00  0.00     0.111 A 
ATOM      6  C   UNL     1     130.743 138.942 156.468  1.00  0.00     0.134 A 
ATOM      7  C   UNL     1     131.701 139.857 156.921  1.00  0.00     0.093 A 
ATOM      8  C   UNL     1     133.046 139.720 156.581  1.00  0.00     0.123 A 
ATOM      9  C   UNL     1     133.451 138.658 155.771  1.00  0.00     0.094 A 
ATOM     10  C   UNL     1     132.513 137.750 155.274  1.00  0.00     0.146 A 
ATOM     11  O   UNL     1     132.939 136.760 154.499  1.00  0.00    -0.452 OA
ENDROOT
BRANCH   1  12
ATOM     12  C   UNL     1     132.735 134.785 153.129  1.00  0.00     0.025 A 
ATOM     13  C   UNL     1     133.031 133.548 153.714  1.00  0.00     0.016 A 
ATOM     14  C   UNL     1     133.582 132.518 152.949  1.00  0.00     0.051 A 
ATOM     15  C   UNL     1     133.833 132.698 151.584  1.00  0.00     0.157 A 
ATOM     16  C   UNL     1     132.963 134.964 151.754  1.00  0.00     0.062 A 
ATOM     17  C   UNL     1     133.513 133.936 150.977  1.00  0.00     0.158 A 
BRANCH  15  18
ATOM     18  O   UNL     1     134.391 131.633 150.877  1.00  0.00    -0.504 OA
ATOM     19  H   UNL     1     133.876 131.048 150.235  1.00  0.00     0.293 HD
ENDBRANCH  15  18
BRANCH  17  20
ATOM     20  O   UNL     1     133.715 134.183 149.618  1.00  0.00    -0.504 OA
ATOM     21  H   UNL     1     134.518 134.668 149.245  1.00  0.00     0.293 HD
ENDBRANCH  17  20
ENDBRANCH   1  12
BRANCH   2  22
ATOM     22  O   UNL     1     129.876 135.064 153.513  1.00  0.00    -0.502 OA
ATOM     23  H   UNL     1     128.872 135.097 153.640  1.00  0.00     0.293 HD
ENDBRANCH   2  22
BRANCH   6  24
ATOM     24  O   UNL     1     129.440 139.115 156.945  1.00  0.00    -0.507 OA
ATOM     25  H   UNL     1     128.918 138.419 157.455  1.00  0.00     0.293 HD
ENDBRANCH   6  24
BRANCH   8  26
ATOM     26  O   UNL     1     133.974 140.641 157.062  1.00  0.00    -0.508 OA
ATOM     27  H   UNL     1     133.760 141.629 157.118  1.00  0.00     0.293 HD
ENDBRANCH   8  26
TORSDOF 6
ENDMDL
MODEL 5
REMARK VINA RESULT:    -6.019      2.180      3.168
REMARK INTER + INTRA:          -7.554
REMARK INTER:                  -7.237
REMARK INTRA:                  -0.316
REMARK UNBOUND:                -0.302
REMARK SMILES O=c1c(O)c(-c2ccc(O)c(O)c2)oc2cc(O)cc(O)c12
REMARK SMILES IDX 5 1 3 2 2 3 1 4 22 5 20 6 19 7 17 8 16 9 15 10 14 11 6 12
REMARK SMILES IDX 7 13 8 14 9 15 13 16 11 17 10 18 12 20 4 22 21 24 18 26
REMARK H PARENT 10 19 12 21 4 23 21 25 18 27
REMARK Flexibility Score: inf
ROOT
ATOM      1  C   UNL     1     137.682 134.095 147.279  1.00  0.00     0.180 A 
ATOM      2  C   UNL     1     138.509 133.081 146.766  1.00  0.00     0.208 A 
ATOM      3  C   UNL     1     139.567 133.432 145.912  1.00  0.00     0.238 A 
ATOM      4  O   UNL     1     140.337 132.526 145.499  1.00  0.00    -0.285 OA
ATOM      5  C   UNL     1     139.774 134.789 145.568  1.00  0.00     0.111 A 
ATOM      6  C   UNL     1     140.789 135.254 144.679  1.00  0.00     0.134 A 
ATOM      7  C   UNL     1     140.984 136.631 144.512  1.00  0.00     0.093 A 
ATOM      8  C   UNL     1     140.161 137.558 145.151  1.00  0.00     0.123 A 
ATOM      9  C   UNL     1     139.126 137.113 145.976  1.00  0.00     0.094 A 
ATOM     10  C   UNL     1     138.930 135.746 146.189  1.00  0.00     0.146 A 
ATOM     11  O   UNL     1     137.942 135.365 146.989  1.00  0.00    -0.452 OA
ENDROOT
BRANCH   1  12
ATOM     12  C   UNL     1     136.532 133.801 148.165  1.00  0.00     0.025 A 
ATOM     13  C   UNL     1     136.737 133.696 149.547  1.00  0.00     0.016 A 
ATOM     14  C   UNL     1     135.664 133.439 150.403  1.00  0.00     0.051 A 
ATOM     15  C   UNL     1     134.366 133.298 149.899  1.00  0.00     0.157 A 
ATOM     16  C   UNL     1     135.228 133.683 147.656  1.00  0.00     0.062 A 
ATOM     17  C   UNL     1     134.144 133.429 148.507  1.00  0.00     0.158 A 
BRANCH  15  18
ATOM     18  O   UNL     1     133.338 133.036 150.805  1.00  0.00    -0.504 OA
ATOM     19  H   UNL     1     132.405 133.415 150.729  1.00  0.00     0.293 HD
ENDBRANCH  15  18
BRANCH  17  20
ATOM     20  O   UNL     1     132.876 133.322 147.933  1.00  0.00    -0.504 OA
ATOM     21  H   UNL     1     132.709 133.020 146.983  1.00  0.00     0.293 HD
ENDBRANCH  17  20
ENDBRANCH   1  12
BRANCH   2  22
ATOM     22  O   UNL     1     138.301 131.749 147.136  1.00  0.00    -0.502 OA
ATOM     23  H   UNL     1     138.150 131.470 148.098  1.00  0.00     0.293 HD
ENDBRANCH   2  22
BRANCH   6  24
ATOM     24  O   UNL     1     141.608 134.413 143.919  1.00  0.00    -0.507 OA
ATOM     25  H   UNL     1     141.752 133.432 144.105  1.00  0.00     0.293 HD
ENDBRANCH   6  24
BRANCH   8  26
ATOM     26  O   UNL     1     140.374 138.920 144.951  1.00  0.00    -0.508 OA
ATOM     27  H   UNL     1     139.605 139.557 144.783  1.00  0.00     0.293 HD
ENDBRANCH   8  26
TORSDOF 6
ENDMDL
MODEL 6
REMARK VINA RESULT:    -5.987     11.357     13.001
REMARK INTER + INTRA:          -7.514
REMARK INTER:                  -7.362
REMARK INTRA:                  -0.152
REMARK UNBOUND:                -0.302
REMARK SMILES O=c1c(O)c(-c2ccc(O)c(O)c2)oc2cc(O)cc(O)c12
REMARK SMILES IDX 5 1 3 2 2 3 1 4 22 5 20 6 19 7 17 8 16 9 15 10 14 11 6 12
REMARK SMILES IDX 7 13 8 14 9 15 13 16 11 17 10 18 12 20 4 22 21 24 18 26
REMARK H PARENT 10 19 12 21 4 23 21 25 18 27
REMARK Flexibility Score: inf
ROOT
ATOM      1  C   UNL     1     132.540 138.871 156.314  1.00  0.00     0.180 A 
ATOM      2  C   UNL     1     133.742 139.586 156.174  1.00  0.00     0.208 A 
ATOM      3  C   UNL     1     134.616 139.252 155.126  1.00  0.00     0.238 A 
ATOM      4  O   UNL     1     135.664 139.932 154.973  1.00  0.00    -0.285 OA
ATOM      5  C   UNL     1     134.285 138.196 154.243  1.00  0.00     0.111 A 
ATOM      6  C   UNL     1     135.114 137.746 153.172  1.00  0.00     0.134 A 
ATOM      7  C   UNL     1     134.628 136.780 152.282  1.00  0.00     0.093 A 
ATOM      8  C   UNL     1     133.372 136.202 152.461  1.00  0.00     0.123 A 
ATOM      9  C   UNL     1     132.577 136.593 153.539  1.00  0.00     0.094 A 
ATOM     10  C   UNL     1     133.019 137.580 154.423  1.00  0.00     0.146 A 
ATOM     11  O   UNL     1     132.228 137.930 155.430  1.00  0.00    -0.452 OA
ENDROOT
BRANCH   1  12
ATOM     12  C   UNL     1     131.581 139.150 157.407  1.00  0.00     0.025 A 
ATOM     13  C   UNL     1     130.910 140.379 157.440  1.00  0.00     0.016 A 
ATOM     14  C   UNL     1     129.987 140.654 158.450  1.00  0.00     0.051 A 
ATOM     15  C   UNL     1     129.703 139.703 159.437  1.00  0.00     0.157 A 
ATOM     16  C   UNL     1     131.283 138.183 158.382  1.00  0.00     0.062 A 
ATOM     17  C   UNL     1     130.356 138.448 159.399  1.00  0.00     0.158 A 
BRANCH  15  18
ATOM     18  O   UNL     1     128.776 140.042 160.423  1.00  0.00    -0.504 OA
ATOM     19  H   UNL     1     128.649 139.526 161.282  1.00  0.00     0.293 HD
ENDBRANCH  15  18
BRANCH  17  20
ATOM     20  O   UNL     1     130.110 137.442 160.335  1.00  0.00    -0.504 OA
ATOM     21  H   UNL     1     130.329 136.467 160.188  1.00  0.00     0.293 HD
ENDBRANCH  17  20
ENDBRANCH   1  12
BRANCH   2  22
ATOM     22  O   UNL     1     134.039 140.640 157.044  1.00  0.00    -0.502 OA
ATOM     23  H   UNL     1     134.135 141.596 156.725  1.00  0.00     0.293 HD
ENDBRANCH   2  22
BRANCH   6  24
ATOM     24  O   UNL     1     136.422 138.189 152.958  1.00  0.00    -0.507 OA
ATOM     25  H   UNL     1     136.787 139.076 153.272  1.00  0.00     0.293 HD
ENDBRANCH   6  24
BRANCH   8  26
ATOM     26  O   UNL     1     132.926 135.234 151.564  1.00  0.00    -0.508 OA
ATOM     27  H   UNL     1     133.154 135.280 150.578  1.00  0.00     0.293 HD
ENDBRANCH   8  26
TORSDOF 6
ENDMDL
MODEL 7
REMARK VINA RESULT:    -5.935      1.984      2.697
REMARK INTER + INTRA:          -7.451
REMARK INTER:                  -7.127
REMARK INTRA:                  -0.324
REMARK UNBOUND:                -0.302
REMARK SMILES O=c1c(O)c(-c2ccc(O)c(O)c2)oc2cc(O)cc(O)c12
REMARK SMILES IDX 5 1 3 2 2 3 1 4 22 5 20 6 19 7 17 8 16 9 15 10 14 11 6 12
REMARK SMILES IDX 7 13 8 14 9 15 13 16 11 17 10 18 12 20 4 22 21 24 18 26
REMARK H PARENT 10 19 12 21 4 23 21 25 18 27
REMARK Flexibility Score: inf
ROOT
ATOM      1  C   UNL     1     138.576 135.513 147.470  1.00  0.00     0.180 A 
ATOM      2  C   UNL     1     138.894 135.741 146.120  1.00  0.00     0.208 A 
ATOM      3  C   UNL     1     139.097 137.059 145.682  1.00  0.00     0.238 A 
ATOM      4  O   UNL     1     139.435 137.253 144.485  1.00  0.00    -0.285 OA
ATOM      5  C   UNL     1     138.963 138.134 146.594  1.00  0.00     0.111 A 
ATOM      6  C   UNL     1     139.107 139.511 146.250  1.00  0.00     0.134 A 
ATOM      7  C   UNL     1     139.081 140.481 147.259  1.00  0.00     0.093 A 
ATOM      8  C   UNL     1     138.853 140.131 148.590  1.00  0.00     0.123 A 
ATOM      9  C   UNL     1     138.652 138.792 148.929  1.00  0.00     0.094 A 
ATOM     10  C   UNL     1     138.708 137.798 147.949  1.00  0.00     0.146 A 
ATOM     11  O   UNL     1     138.522 136.536 148.315  1.00  0.00    -0.452 OA
ENDROOT
BRANCH   1  12
ATOM     12  C   UNL     1     138.324 134.153 148.002  1.00  0.00     0.025 A 
ATOM     13  C   UNL     1     139.395 133.394 148.489  1.00  0.00     0.016 A 
ATOM     14  C   UNL     1     139.177 132.118 149.012  1.00  0.00     0.051 A 
ATOM     15  C   UNL     1     137.885 131.583 149.074  1.00  0.00     0.157 A 
ATOM     16  C   UNL     1     137.022 133.630 148.082  1.00  0.00     0.062 A 
ATOM     17  C   UNL     1     136.792 132.352 148.609  1.00  0.00     0.158 A 
BRANCH  15  18
ATOM     18  O   UNL     1     137.735 130.300 149.602  1.00  0.00    -0.504 OA
ATOM     19  H   UNL     1     138.400 129.862 150.224  1.00  0.00     0.293 HD
ENDBRANCH  15  18
BRANCH  17  20
ATOM     20  O   UNL     1     135.474 131.895 148.657  1.00  0.00    -0.504 OA
ATOM     21  H   UNL     1     135.206 130.978 148.988  1.00  0.00     0.293 HD
ENDBRANCH  17  20
ENDBRANCH   1  12
BRANCH   2  22
ATOM     22  O   UNL     1     139.043 134.664 145.241  1.00  0.00    -0.502 OA
ATOM     23  H   UNL     1     138.668 134.674 144.301  1.00  0.00     0.293 HD
ENDBRANCH   2  22
BRANCH   6  24
ATOM     24  O   UNL     1     139.246 139.979 144.940  1.00  0.00    -0.507 OA
ATOM     25  H   UNL     1     138.483 140.283 144.354  1.00  0.00     0.293 HD
ENDBRANCH   6  24
BRANCH   8  26
ATOM     26  O   UNL     1     138.820 141.124 149.566  1.00  0.00    -0.508 OA
ATOM     27  H   UNL     1     139.019 142.092 149.344  1.00  0.00     0.293 HD
ENDBRANCH   8  26
TORSDOF 6
ENDMDL
MODEL 8
REMARK VINA RESULT:    -5.785      2.244      2.802
REMARK INTER + INTRA:          -7.271
REMARK INTER:                  -6.973
REMARK INTRA:                  -0.298
REMARK UNBOUND:                -0.302
REMARK SMILES O=c1c(O)c(-c2ccc(O)c(O)c2)oc2cc(O)cc(O)c12
REMARK SMILES IDX 5 1 3 2 2 3 1 4 22 5 20 6 19 7 17 8 16 9 15 10 14 11 6 12
REMARK SMILES IDX 7 13 8 14 9 15 13 16 11 17 10 18 12 20 4 22 21 24 18 26
REMARK H PARENT 10 19 12 21 4 23 21 25 18 27
REMARK Flexibility Score: inf
ROOT
ATOM      1  C   UNL     1     139.072 134.229 147.403  1.00  0.00     0.180 A 
ATOM      2  C   UNL     1     139.914 133.805 148.445  1.00  0.00     0.208 A 
ATOM      3  C   UNL     1     141.115 134.495 148.674  1.00  0.00     0.238 A 
ATOM      4  O   UNL     1     141.838 134.145 149.643  1.00  0.00    -0.285 OA
ATOM      5  C   UNL     1     141.467 135.590 147.848  1.00  0.00     0.111 A 
ATOM      6  C   UNL     1     142.679 136.335 147.964  1.00  0.00     0.134 A 
ATOM      7  C   UNL     1     142.863 137.479 147.178  1.00  0.00     0.093 A 
ATOM      8  C   UNL     1     141.912 137.867 146.235  1.00  0.00     0.123 A 
ATOM      9  C   UNL     1     140.750 137.111 146.072  1.00  0.00     0.094 A 
ATOM     10  C   UNL     1     140.521 135.985 146.867  1.00  0.00     0.146 A 
ATOM     11  O   UNL     1     139.399 135.300 146.687  1.00  0.00    -0.452 OA
ENDROOT
BRANCH   1  12
ATOM     12  C   UNL     1     137.801 133.537 147.084  1.00  0.00     0.025 A 
ATOM     13  C   UNL     1     137.778 132.569 146.073  1.00  0.00     0.016 A 
ATOM     14  C   UNL     1     136.596 131.890 145.770  1.00  0.00     0.051 A 
ATOM     15  C   UNL     1     135.420 132.154 146.481  1.00  0.00     0.157 A 
ATOM     16  C   UNL     1     136.628 133.789 147.817  1.00  0.00     0.062 A 
ATOM     17  C   UNL     1     135.438 133.111 147.523  1.00  0.00     0.158 A 
BRANCH  15  18
ATOM     18  O   UNL     1     134.270 131.447 146.126  1.00  0.00    -0.504 OA
ATOM     19  H   UNL     1     133.601 131.764 145.439  1.00  0.00     0.293 HD
ENDBRANCH  15  18
BRANCH  17  20
ATOM     20  O   UNL     1     134.310 133.412 148.289  1.00  0.00    -0.504 OA
ATOM     21  H   UNL     1     133.360 133.295 147.966  1.00  0.00     0.293 HD
ENDBRANCH  17  20
ENDBRANCH   1  12
BRANCH   2  22
ATOM     22  O   UNL     1     139.536 132.736 149.263  1.00  0.00    -0.502 OA
ATOM     23  H   UNL     1     139.709 132.728 150.261  1.00  0.00     0.293 HD
ENDBRANCH   2  22
BRANCH   6  24
ATOM     24  O   UNL     1     143.736 135.982 148.808  1.00  0.00    -0.507 OA
ATOM     25  H   UNL     1     143.657 135.863 149.807  1.00  0.00     0.293 HD
ENDBRANCH   6  24
BRANCH   8  26
ATOM     26  O   UNL     1     142.135 139.002 145.459  1.00  0.00    -0.508 OA
ATOM     27  H   UNL     1     141.660 139.876 145.650  1.00  0.00     0.293 HD
ENDBRANCH   8  26
TORSDOF 6
ENDMDL
MODEL 9
REMARK VINA RESULT:    -5.746      3.681      8.004
REMARK INTER + INTRA:          -7.224
REMARK INTER:                  -6.968
REMARK INTRA:                  -0.256
REMARK UNBOUND:                -0.302
REMARK SMILES O=c1c(O)c(-c2ccc(O)c(O)c2)oc2cc(O)cc(O)c12
REMARK SMILES IDX 5 1 3 2 2 3 1 4 22 5 20 6 19 7 17 8 16 9 15 10 14 11 6 12
REMARK SMILES IDX 7 13 8 14 9 15 13 16 11 17 10 18 12 20 4 22 21 24 18 26
REMARK H PARENT 10 19 12 21 4 23 21 25 18 27
REMARK Flexibility Score: inf
ROOT
ATOM      1  C   UNL     1     135.796 132.961 148.925  1.00  0.00     0.180 A 
ATOM      2  C   UNL     1     134.570 133.639 149.035  1.00  0.00     0.208 A 
ATOM      3  C   UNL     1     133.954 133.734 150.293  1.00  0.00     0.238 A 
ATOM      4  O   UNL     1     132.885 134.390 150.395  1.00  0.00    -0.285 OA
ATOM      5  C   UNL     1     134.562 133.134 151.422  1.00  0.00     0.111 A 
ATOM      6  C   UNL     1     134.007 133.133 152.737  1.00  0.00     0.134 A 
ATOM      7  C   UNL     1     134.758 132.622 153.803  1.00  0.00     0.093 A 
ATOM      8  C   UNL     1     136.014 132.055 153.593  1.00  0.00     0.123 A 
ATOM      9  C   UNL     1     136.541 131.997 152.302  1.00  0.00     0.094 A 
ATOM     10  C   UNL     1     135.832 132.531 151.224  1.00  0.00     0.146 A 
ATOM     11  O   UNL     1     136.373 132.465 150.014  1.00  0.00    -0.452 OA
ENDROOT
BRANCH   1  12
ATOM     12  C   UNL     1     136.493 132.798 147.628  1.00  0.00     0.025 A 
ATOM     13  C   UNL     1     135.990 131.896 146.683  1.00  0.00     0.016 A 
ATOM     14  C   UNL     1     136.620 131.742 145.446  1.00  0.00     0.051 A 
ATOM     15  C   UNL     1     137.754 132.496 145.124  1.00  0.00     0.157 A 
ATOM     16  C   UNL     1     137.618 133.575 147.301  1.00  0.00     0.062 A 
ATOM     17  C   UNL     1     138.256 133.430 146.062  1.00  0.00     0.158 A 
BRANCH  15  18
ATOM     18  O   UNL     1     138.341 132.291 143.875  1.00  0.00    -0.504 OA
ATOM     19  H   UNL     1     138.755 133.024 143.317  1.00  0.00     0.293 HD
ENDBRANCH  15  18
BRANCH  17  20
ATOM     20  O   UNL     1     139.369 134.232 145.805  1.00  0.00    -0.504 OA
ATOM     21  H   UNL     1     139.325 135.232 145.666  1.00  0.00     0.293 HD
ENDBRANCH  17  20
ENDBRANCH   1  12
BRANCH   2  22
ATOM     22  O   UNL     1     133.998 134.244 147.911  1.00  0.00    -0.502 OA
ATOM     23  H   UNL     1     133.103 134.717 147.945  1.00  0.00     0.293 HD
ENDBRANCH   2  22
BRANCH   6  24
ATOM     24  O   UNL     1     132.722 133.591 153.042  1.00  0.00    -0.507 OA
ATOM     25  H   UNL     1     131.934 133.552 152.413  1.00  0.00     0.293 HD
ENDBRANCH   6  24
BRANCH   8  26
ATOM     26  O   UNL     1     136.727 131.543 154.675  1.00  0.00    -0.508 OA
ATOM     27  H   UNL     1     136.863 132.082 155.522  1.00  0.00     0.293 HD
ENDBRANCH   8  26
TORSDOF 6
ENDMDL
