MODEL 1
REMARK VINA RESULT:    -6.277      0.000      0.000
REMARK INTER + INTRA:         -10.542
REMARK INTER:                  -9.764
REMARK INTRA:                  -0.778
REMARK UNBOUND:                -0.778
REMARK SMILES COc1cc(CNC(=O)CCCCC=CC(C)C)ccc1O
REMARK SMILES IDX 11 1 12 2 13 3 14 4 15 5 16 6 17 7 18 8 10 9 8 10 9 11 7 12
REMARK SMILES IDX 6 14 5 15 4 16 19 17 3 18 20 19 21 20 2 21 1 22 22 23
REMARK H PARENT 7 13 22 24
REMARK Flexibility Score: inf
ROOT
ATOM      1  C   UNL     1       9.403  17.014 -19.626  1.00  0.00     0.010 C 
ENDROOT
BRANCH   1   2
ATOM      2  C   UNL     1       8.732  16.891 -21.005  1.00  0.00     0.005 C 
BRANCH   2   3
ATOM      3  C   UNL     1       8.967  15.513 -21.641  1.00  0.00     0.027 C 
BRANCH   3   4
ATOM      4  C   UNL     1       9.059  15.583 -23.142  1.00  0.00    -0.031 C 
ATOM      5  C   UNL     1      10.040  16.261 -23.756  1.00  0.00    -0.028 C 
BRANCH   5   6
ATOM      6  C   UNL     1      10.119  16.339 -25.263  1.00  0.00     0.005 C 
ATOM      7  C   UNL     1      11.380  15.632 -25.771  1.00  0.00     0.012 C 
ATOM      8  C   UNL     1       8.868  15.723 -25.902  1.00  0.00     0.012 C 
ENDBRANCH   5   6
ENDBRANCH   3   4
ENDBRANCH   2   3
ENDBRANCH   1   2
BRANCH   1   9
ATOM      9  C   UNL     1      10.228  15.772 -19.267  1.00  0.00     0.100 C 
BRANCH   9  10
ATOM     10  C   UNL     1       9.863  15.232 -17.914  1.00  0.00     0.220 C 
ATOM     11  O   UNL     1       8.647  15.140 -17.594  1.00  0.00    -0.275 OA
ATOM     12  N   UNL     1      10.886  14.794 -17.011  1.00  0.00    -0.352 N 
ATOM     13  H   UNL     1      11.885  14.839 -17.312  1.00  0.00     0.163 HD
BRANCH  12  14
ATOM     14  C   UNL     1      10.585  14.265 -15.682  1.00  0.00     0.151 C 
BRANCH  14  15
ATOM     15  C   UNL     1      10.242  12.803 -15.768  1.00  0.00    -0.025 A 
ATOM     16  C   UNL     1       9.087  12.314 -15.138  1.00  0.00     0.056 A 
ATOM     17  C   UNL     1      11.056  11.922 -16.494  1.00  0.00     0.009 A 
ATOM     18  C   UNL     1       8.743  10.951 -15.226  1.00  0.00     0.160 A 
ATOM     19  C   UNL     1      10.721  10.570 -16.586  1.00  0.00     0.050 A 
ATOM     20  C   UNL     1       9.572  10.080 -15.957  1.00  0.00     0.157 A 
BRANCH  18  21
ATOM     21  O   UNL     1       7.593  10.433 -14.608  1.00  0.00    -0.493 OA
ATOM     22  C   UNL     1       7.569   9.844 -13.312  1.00  0.00     0.278 C 
ENDBRANCH  18  21
BRANCH  20  23
ATOM     23  O   UNL     1       9.270   8.722 -16.072  1.00  0.00    -0.504 OA
ATOM     24  H   UNL     1       8.436   8.394 -16.543  1.00  0.00     0.293 HD
ENDBRANCH  20  23
ENDBRANCH  14  15
ENDBRANCH  12  14
ENDBRANCH   9  10
ENDBRANCH   1   9
TORSDOF 10
ENDMDL
MODEL 2
REMARK VINA RESULT:    -6.254      1.823      2.153
REMARK INTER + INTRA:         -10.505
REMARK INTER:                  -9.905
REMARK INTRA:                  -0.600
REMARK UNBOUND:                -0.778
REMARK SMILES COc1cc(CNC(=O)CCCCC=CC(C)C)ccc1O
REMARK SMILES IDX 11 1 12 2 13 3 14 4 15 5 16 6 17 7 18 8 10 9 8 10 9 11 7 12
REMARK SMILES IDX 6 14 5 15 4 16 19 17 3 18 20 19 21 20 2 21 1 22 22 23
REMARK H PARENT 7 13 22 24
REMARK Flexibility Score: inf
ROOT
ATOM      1  C   UNL     1       8.689  14.667 -19.790  1.00  0.00     0.010 C 
ENDROOT
BRANCH   1   2
ATOM      2  C   UNL     1       8.371  15.063 -21.242  1.00  0.00     0.005 C 
BRANCH   2   3
ATOM      3  C   UNL     1       8.823  16.496 -21.563  1.00  0.00     0.027 C 
BRANCH   3   4
ATOM      4  C   UNL     1       8.988  16.727 -23.041  1.00  0.00    -0.031 C 
ATOM      5  C   UNL     1       9.873  16.027 -23.769  1.00  0.00    -0.028 C 
BRANCH   5   6
ATOM      6  C   UNL     1      10.043  16.274 -25.250  1.00  0.00     0.005 C 
ATOM      7  C   UNL     1      11.424  15.800 -25.716  1.00  0.00     0.012 C 
ATOM      8  C   UNL     1       8.939  15.567 -26.046  1.00  0.00     0.012 C 
ENDBRANCH   5   6
ENDBRANCH   3   4
ENDBRANCH   2   3
ENDBRANCH   1   2
BRANCH   1   9
ATOM      9  C   UNL     1       8.198  13.254 -19.451  1.00  0.00     0.100 C 
BRANCH   9  10
ATOM     10  C   UNL     1       9.310  12.387 -18.936  1.00  0.00     0.220 C 
ATOM     11  O   UNL     1       9.839  11.539 -19.705  1.00  0.00    -0.275 OA
ATOM     12  N   UNL     1       9.788  12.547 -17.594  1.00  0.00    -0.352 N 
ATOM     13  H   UNL     1       9.365  13.285 -16.987  1.00  0.00     0.163 HD
BRANCH  12  14
ATOM     14  C   UNL     1      10.864  11.726 -17.041  1.00  0.00     0.151 C 
BRANCH  14  15
ATOM     15  C   UNL     1      10.299  10.668 -16.133  1.00  0.00    -0.025 A 
ATOM     16  C   UNL     1       9.181  10.954 -15.334  1.00  0.00     0.056 A 
ATOM     17  C   UNL     1      10.865   9.386 -16.094  1.00  0.00     0.009 A 
ATOM     18  C   UNL     1       8.629   9.967 -14.493  1.00  0.00     0.160 A 
ATOM     19  C   UNL     1      10.324   8.404 -15.263  1.00  0.00     0.050 A 
ATOM     20  C   UNL     1       9.212   8.686 -14.464  1.00  0.00     0.157 A 
BRANCH  18  21
ATOM     21  O   UNL     1       7.511  10.222 -13.683  1.00  0.00    -0.493 OA
ATOM     22  C   UNL     1       7.457  11.223 -12.673  1.00  0.00     0.278 C 
ENDBRANCH  18  21
BRANCH  20  23
ATOM     23  O   UNL     1       8.698   7.678 -13.646  1.00  0.00    -0.504 OA
ATOM     24  H   UNL     1       9.245   7.251 -12.909  1.00  0.00     0.293 HD
ENDBRANCH  20  23
ENDBRANCH  14  15
ENDBRANCH  12  14
ENDBRANCH   9  10
ENDBRANCH   1   9
TORSDOF 10
ENDMDL
MODEL 3
REMARK VINA RESULT:    -6.198      1.390      2.110
REMARK INTER + INTRA:         -10.418
REMARK INTER:                  -9.764
REMARK INTRA:                  -0.654
REMARK UNBOUND:                -0.778
REMARK SMILES COc1cc(CNC(=O)CCCCC=CC(C)C)ccc1O
REMARK SMILES IDX 11 1 12 2 13 3 14 4 15 5 16 6 17 7 18 8 10 9 8 10 9 11 7 12
REMARK SMILES IDX 6 14 5 15 4 16 19 17 3 18 20 19 21 20 2 21 1 22 22 23
REMARK H PARENT 7 13 22 24
REMARK Flexibility Score: inf
ROOT
ATOM      1  C   UNL     1       8.199  14.885 -19.789  1.00  0.00     0.010 C 
ENDROOT
BRANCH   1   2
ATOM      2  C   UNL     1       8.534  14.937 -21.290  1.00  0.00     0.005 C 
BRANCH   2   3
ATOM      3  C   UNL     1       8.790  16.372 -21.775  1.00  0.00     0.027 C 
BRANCH   3   4
ATOM      4  C   UNL     1       8.926  16.455 -23.273  1.00  0.00    -0.031 C 
ATOM      5  C   UNL     1      10.100  16.236 -23.886  1.00  0.00    -0.028 C 
BRANCH   5   6
ATOM      6  C   UNL     1      10.232  16.334 -25.388  1.00  0.00     0.005 C 
ATOM      7  C   UNL     1      11.525  15.657 -25.856  1.00  0.00     0.012 C 
ATOM      8  C   UNL     1       9.018  15.702 -26.080  1.00  0.00     0.012 C 
ENDBRANCH   5   6
ENDBRANCH   3   4
ENDBRANCH   2   3
ENDBRANCH   1   2
BRANCH   1   9
ATOM      9  C   UNL     1       9.245  15.610 -18.934  1.00  0.00     0.100 C 
BRANCH   9  10
ATOM     10  C   UNL     1      10.055  14.649 -18.112  1.00  0.00     0.220 C 
ATOM     11  O   UNL     1      11.090  15.062 -17.521  1.00  0.00    -0.275 OA
ATOM     12  N   UNL     1       9.636  13.285 -17.974  1.00  0.00    -0.352 N 
ATOM     13  H   UNL     1       8.753  12.974 -18.437  1.00  0.00     0.163 HD
BRANCH  12  14
ATOM     14  C   UNL     1      10.390  12.309 -17.190  1.00  0.00     0.151 C 
BRANCH  14  15
ATOM     15  C   UNL     1       9.597  11.884 -15.984  1.00  0.00    -0.025 A 
ATOM     16  C   UNL     1       9.312  10.526 -15.774  1.00  0.00     0.056 A 
ATOM     17  C   UNL     1       9.158  12.833 -15.050  1.00  0.00     0.009 A 
ATOM     18  C   UNL     1       8.587  10.112 -14.639  1.00  0.00     0.160 A 
ATOM     19  C   UNL     1       8.440  12.430 -13.924  1.00  0.00     0.050 A 
ATOM     20  C   UNL     1       8.151  11.078 -13.713  1.00  0.00     0.157 A 
BRANCH  18  21
ATOM     21  O   UNL     1       8.287   8.761 -14.401  1.00  0.00    -0.493 OA
ATOM     22  C   UNL     1       9.242   7.705 -14.427  1.00  0.00     0.278 C 
ENDBRANCH  18  21
BRANCH  20  23
ATOM     23  O   UNL     1       7.431  10.713 -12.575  1.00  0.00    -0.504 OA
ATOM     24  H   UNL     1       7.210   9.748 -12.363  1.00  0.00     0.293 HD
ENDBRANCH  20  23
ENDBRANCH  14  15
ENDBRANCH  12  14
ENDBRANCH   9  10
ENDBRANCH   1   9
TORSDOF 10
ENDMDL
MODEL 4
REMARK VINA RESULT:    -6.164      1.813      2.070
REMARK INTER + INTRA:         -10.366
REMARK INTER:                  -9.384
REMARK INTRA:                  -0.982
REMARK UNBOUND:                -0.778
REMARK SMILES COc1cc(CNC(=O)CCCCC=CC(C)C)ccc1O
REMARK SMILES IDX 11 1 12 2 13 3 14 4 15 5 16 6 17 7 18 8 10 9 8 10 9 11 7 12
REMARK SMILES IDX 6 14 5 15 4 16 19 17 3 18 20 19 21 20 2 21 1 22 22 23
REMARK H PARENT 7 13 22 24
REMARK Flexibility Score: inf
ROOT
ATOM      1  C   UNL     1       9.241  16.723 -20.494  1.00  0.00     0.010 C 
ENDROOT
BRANCH   1   2
ATOM      2  C   UNL     1       8.346  15.478 -20.615  1.00  0.00     0.005 C 
BRANCH   2   3
ATOM      3  C   UNL     1       8.735  14.601 -21.814  1.00  0.00     0.027 C 
BRANCH   3   4
ATOM      4  C   UNL     1       8.901  15.400 -23.079  1.00  0.00    -0.031 C 
ATOM      5  C   UNL     1      10.018  15.325 -23.819  1.00  0.00    -0.028 C 
BRANCH   5   6
ATOM      6  C   UNL     1      10.184  16.141 -25.080  1.00  0.00     0.005 C 
ATOM      7  C   UNL     1      11.419  15.676 -25.859  1.00  0.00     0.012 C 
ATOM      8  C   UNL     1       8.930  16.039 -25.958  1.00  0.00     0.012 C 
ENDBRANCH   5   6
ENDBRANCH   3   4
ENDBRANCH   2   3
ENDBRANCH   1   2
BRANCH   1   9
ATOM      9  C   UNL     1       9.503  17.111 -19.033  1.00  0.00     0.100 C 
BRANCH   9  10
ATOM     10  C   UNL     1      10.375  16.106 -18.338  1.00  0.00     0.220 C 
ATOM     11  O   UNL     1      11.584  15.996 -18.678  1.00  0.00    -0.275 OA
ATOM     12  N   UNL     1       9.845  15.303 -17.274  1.00  0.00    -0.352 N 
ATOM     13  H   UNL     1       8.852  15.441 -16.979  1.00  0.00     0.163 HD
BRANCH  12  14
ATOM     14  C   UNL     1      10.648  14.308 -16.567  1.00  0.00     0.151 C 
BRANCH  14  15
ATOM     15  C   UNL     1      10.388  12.936 -17.127  1.00  0.00    -0.025 A 
ATOM     16  C   UNL     1      10.947  11.807 -16.506  1.00  0.00     0.056 A 
ATOM     17  C   UNL     1       9.571  12.769 -18.254  1.00  0.00     0.009 A 
ATOM     18  C   UNL     1      10.696  10.515 -17.007  1.00  0.00     0.160 A 
ATOM     19  C   UNL     1       9.319  11.491 -18.756  1.00  0.00     0.050 A 
ATOM     20  C   UNL     1       9.876  10.365 -18.142  1.00  0.00     0.157 A 
BRANCH  18  21
ATOM     21  O   UNL     1      11.239   9.367 -16.408  1.00  0.00    -0.493 OA
ATOM     22  C   UNL     1      10.630   8.650 -15.339  1.00  0.00     0.278 C 
ENDBRANCH  18  21
BRANCH  20  23
ATOM     23  O   UNL     1       9.600   9.104 -18.672  1.00  0.00    -0.504 OA
ATOM     24  H   UNL     1       9.967   8.805 -19.567  1.00  0.00     0.293 HD
ENDBRANCH  20  23
ENDBRANCH  14  15
ENDBRANCH  12  14
ENDBRANCH   9  10
ENDBRANCH   1   9
TORSDOF 10
ENDMDL
MODEL 5
REMARK VINA RESULT:    -5.986      3.190      4.479
REMARK INTER + INTRA:         -10.089
REMARK INTER:                  -9.373
REMARK INTRA:                  -0.716
REMARK UNBOUND:                -0.778
REMARK SMILES COc1cc(CNC(=O)CCCCC=CC(C)C)ccc1O
REMARK SMILES IDX 11 1 12 2 13 3 14 4 15 5 16 6 17 7 18 8 10 9 8 10 9 11 7 12
REMARK SMILES IDX 6 14 5 15 4 16 19 17 3 18 20 19 21 20 2 21 1 22 22 23
REMARK H PARENT 7 13 22 24
REMARK Flexibility Score: inf
ROOT
ATOM      1  C   UNL     1      11.156  14.360 -17.103  1.00  0.00     0.010 C 
ENDROOT
BRANCH   1   2
ATOM      2  C   UNL     1      11.012  15.644 -17.939  1.00  0.00     0.005 C 
BRANCH   2   3
ATOM      3  C   UNL     1       9.973  15.490 -19.060  1.00  0.00     0.027 C 
BRANCH   3   4
ATOM      4  C   UNL     1       9.385  16.811 -19.480  1.00  0.00    -0.031 C 
ATOM      5  C   UNL     1       9.068  17.758 -18.583  1.00  0.00    -0.028 C 
BRANCH   5   6
ATOM      6  C   UNL     1       8.465  19.076 -19.010  1.00  0.00     0.005 C 
ATOM      7  C   UNL     1       7.002  19.164 -18.561  1.00  0.00     0.012 C 
ATOM      8  C   UNL     1       9.270  20.249 -18.439  1.00  0.00     0.012 C 
ENDBRANCH   5   6
ENDBRANCH   3   4
ENDBRANCH   2   3
ENDBRANCH   1   2
BRANCH   1   9
ATOM      9  C   UNL     1      10.604  14.527 -15.682  1.00  0.00     0.100 C 
BRANCH   9  10
ATOM     10  C   UNL     1       9.314  13.782 -15.495  1.00  0.00     0.220 C 
ATOM     11  O   UNL     1       8.421  13.859 -16.382  1.00  0.00    -0.275 OA
ATOM     12  N   UNL     1       9.115  12.962 -14.335  1.00  0.00    -0.352 N 
ATOM     13  H   UNL     1       9.884  12.877 -13.634  1.00  0.00     0.163 HD
BRANCH  12  14
ATOM     14  C   UNL     1       7.877  12.219 -14.103  1.00  0.00     0.151 C 
BRANCH  14  15
ATOM     15  C   UNL     1       8.152  10.740 -14.091  1.00  0.00    -0.025 A 
ATOM     16  C   UNL     1       7.542   9.921 -13.128  1.00  0.00     0.056 A 
ATOM     17  C   UNL     1       8.996  10.164 -15.051  1.00  0.00     0.009 A 
ATOM     18  C   UNL     1       7.774   8.531 -13.117  1.00  0.00     0.160 A 
ATOM     19  C   UNL     1       9.230   8.788 -15.046  1.00  0.00     0.050 A 
ATOM     20  C   UNL     1       8.626   7.970 -14.086  1.00  0.00     0.157 A 
BRANCH  18  21
ATOM     21  O   UNL     1       7.177   7.686 -12.168  1.00  0.00    -0.493 OA
ATOM     22  C   UNL     1       7.069   7.980 -10.779  1.00  0.00     0.278 C 
ENDBRANCH  18  21
BRANCH  20  23
ATOM     23  O   UNL     1       8.884   6.598 -14.113  1.00  0.00    -0.504 OA
ATOM     24  H   UNL     1       8.346   5.960 -14.686  1.00  0.00     0.293 HD
ENDBRANCH  20  23
ENDBRANCH  14  15
ENDBRANCH  12  14
ENDBRANCH   9  10
ENDBRANCH   1   9
TORSDOF 10
ENDMDL
MODEL 6
REMARK VINA RESULT:    -5.923      2.457      9.309
REMARK INTER + INTRA:          -9.991
REMARK INTER:                  -9.270
REMARK INTRA:                  -0.721
REMARK UNBOUND:                -0.778
REMARK SMILES COc1cc(CNC(=O)CCCCC=CC(C)C)ccc1O
REMARK SMILES IDX 11 1 12 2 13 3 14 4 15 5 16 6 17 7 18 8 10 9 8 10 9 11 7 12
REMARK SMILES IDX 6 14 5 15 4 16 19 17 3 18 20 19 21 20 2 21 1 22 22 23
REMARK H PARENT 7 13 22 24
REMARK Flexibility Score: inf
ROOT
ATOM      1  C   UNL     1      11.130  10.177 -16.540  1.00  0.00     0.010 C 
ENDROOT
BRANCH   1   2
ATOM      2  C   UNL     1      10.981   9.080 -15.472  1.00  0.00     0.005 C 
BRANCH   2   3
ATOM      3  C   UNL     1       9.679   8.282 -15.640  1.00  0.00     0.027 C 
BRANCH   3   4
ATOM      4  C   UNL     1       8.573   8.799 -14.759  1.00  0.00    -0.031 C 
ATOM      5  C   UNL     1       8.091   8.077 -13.736  1.00  0.00    -0.028 C 
BRANCH   5   6
ATOM      6  C   UNL     1       6.972   8.596 -12.865  1.00  0.00     0.005 C 
ATOM      7  C   UNL     1       7.045   7.967 -11.469  1.00  0.00     0.012 C 
ATOM      8  C   UNL     1       7.030  10.126 -12.764  1.00  0.00     0.012 C 
ENDBRANCH   5   6
ENDBRANCH   3   4
ENDBRANCH   2   3
ENDBRANCH   1   2
BRANCH   1   9
ATOM      9  C   UNL     1      10.656   9.712 -17.923  1.00  0.00     0.100 C 
BRANCH   9  10
ATOM     10  C   UNL     1       9.586  10.610 -18.475  1.00  0.00     0.220 C 
ATOM     11  O   UNL     1       8.493  10.721 -17.858  1.00  0.00    -0.275 OA
ATOM     12  N   UNL     1       9.821  11.360 -19.674  1.00  0.00    -0.352 N 
ATOM     13  H   UNL     1      10.750  11.286 -20.147  1.00  0.00     0.163 HD
BRANCH  12  14
ATOM     14  C   UNL     1       8.814  12.244 -20.257  1.00  0.00     0.151 C 
BRANCH  14  15
ATOM     15  C   UNL     1       9.158  13.682 -19.977  1.00  0.00    -0.025 A 
ATOM     16  C   UNL     1       8.823  14.677 -20.909  1.00  0.00     0.056 A 
ATOM     17  C   UNL     1       9.792  14.044 -18.780  1.00  0.00     0.009 A 
ATOM     18  C   UNL     1       9.122  16.030 -20.653  1.00  0.00     0.160 A 
ATOM     19  C   UNL     1      10.091  15.382 -18.520  1.00  0.00     0.050 A 
ATOM     20  C   UNL     1       9.761  16.375 -19.447  1.00  0.00     0.157 A 
BRANCH  18  21
ATOM     21  O   UNL     1       8.799  17.048 -21.564  1.00  0.00    -0.493 OA
ATOM     22  C   UNL     1       8.714  16.873 -22.974  1.00  0.00     0.278 C 
ENDBRANCH  18  21
BRANCH  20  23
ATOM     23  O   UNL     1      10.076  17.703 -19.151  1.00  0.00    -0.504 OA
ATOM     24  H   UNL     1      10.311  18.374 -19.872  1.00  0.00     0.293 HD
ENDBRANCH  20  23
ENDBRANCH  14  15
ENDBRANCH  12  14
ENDBRANCH   9  10
ENDBRANCH   1   9
TORSDOF 10
ENDMDL
MODEL 7
REMARK VINA RESULT:    -5.915      2.100      3.202
REMARK INTER + INTRA:          -9.979
REMARK INTER:                  -9.202
REMARK INTRA:                  -0.777
REMARK UNBOUND:                -0.778
REMARK SMILES COc1cc(CNC(=O)CCCCC=CC(C)C)ccc1O
REMARK SMILES IDX 11 1 12 2 13 3 14 4 15 5 16 6 17 7 18 8 10 9 8 10 9 11 7 12
REMARK SMILES IDX 6 14 5 15 4 16 19 17 3 18 20 19 21 20 2 21 1 22 22 23
REMARK H PARENT 7 13 22 24
REMARK Flexibility Score: inf
ROOT
ATOM      1  C   UNL     1       7.764  14.019 -20.832  1.00  0.00     0.010 C 
ENDROOT
BRANCH   1   2
ATOM      2  C   UNL     1       7.968  15.270 -19.960  1.00  0.00     0.005 C 
BRANCH   2   3
ATOM      3  C   UNL     1       9.115  16.152 -20.475  1.00  0.00     0.027 C 
BRANCH   3   4
ATOM      4  C   UNL     1       8.960  16.501 -21.932  1.00  0.00    -0.031 C 
ATOM      5  C   UNL     1       9.861  16.116 -22.848  1.00  0.00    -0.028 C 
BRANCH   5   6
ATOM      6  C   UNL     1       9.706  16.481 -24.306  1.00  0.00     0.005 C 
ATOM      7  C   UNL     1      10.985  16.145 -25.081  1.00  0.00     0.012 C 
ATOM      8  C   UNL     1       8.503  15.754 -24.921  1.00  0.00     0.012 C 
ENDBRANCH   5   6
ENDBRANCH   3   4
ENDBRANCH   2   3
ENDBRANCH   1   2
BRANCH   1   9
ATOM      9  C   UNL     1       8.969  13.071 -20.782  1.00  0.00     0.100 C 
BRANCH   9  10
ATOM     10  C   UNL     1       8.759  11.956 -19.798  1.00  0.00     0.220 C 
ATOM     11  O   UNL     1       7.590  11.543 -19.572  1.00  0.00    -0.275 OA
ATOM     12  N   UNL     1       9.882  11.346 -19.148  1.00  0.00    -0.352 N 
ATOM     13  H   UNL     1      10.846  11.674 -19.382  1.00  0.00     0.163 HD
BRANCH  12  14
ATOM     14  C   UNL     1       9.734  10.261 -18.180  1.00  0.00     0.151 C 
BRANCH  14  15
ATOM     15  C   UNL     1       9.409  10.818 -16.820  1.00  0.00    -0.025 A 
ATOM     16  C   UNL     1       9.726  12.151 -16.514  1.00  0.00     0.056 A 
ATOM     17  C   UNL     1       8.770  10.023 -15.858  1.00  0.00     0.009 A 
ATOM     18  C   UNL     1       9.410  12.691 -15.252  1.00  0.00     0.160 A 
ATOM     19  C   UNL     1       8.454  10.552 -14.606  1.00  0.00     0.050 A 
ATOM     20  C   UNL     1       8.771  11.878 -14.297  1.00  0.00     0.157 A 
BRANCH  18  21
ATOM     21  O   UNL     1       9.713  14.020 -14.916  1.00  0.00    -0.493 OA
ATOM     22  C   UNL     1      10.986  14.631 -15.100  1.00  0.00     0.278 C 
ENDBRANCH  18  21
BRANCH  20  23
ATOM     23  O   UNL     1       8.439  12.372 -13.034  1.00  0.00    -0.504 OA
ATOM     24  H   UNL     1       7.562  12.147 -12.581  1.00  0.00     0.293 HD
ENDBRANCH  20  23
ENDBRANCH  14  15
ENDBRANCH  12  14
ENDBRANCH   9  10
ENDBRANCH   1   9
TORSDOF 10
ENDMDL
MODEL 8
REMARK VINA RESULT:    -5.870      1.820      2.848
REMARK INTER + INTRA:          -9.909
REMARK INTER:                  -9.099
REMARK INTRA:                  -0.810
REMARK UNBOUND:                -0.778
REMARK SMILES COc1cc(CNC(=O)CCCCC=CC(C)C)ccc1O
REMARK SMILES IDX 11 1 12 2 13 3 14 4 15 5 16 6 17 7 18 8 10 9 8 10 9 11 7 12
REMARK SMILES IDX 6 14 5 15 4 16 19 17 3 18 20 19 21 20 2 21 1 22 22 23
REMARK H PARENT 7 13 22 24
REMARK Flexibility Score: inf
ROOT
ATOM      1  C   UNL     1       9.852  13.383 -18.414  1.00  0.00     0.010 C 
ENDROOT
BRANCH   1   2
ATOM      2  C   UNL     1       9.140  13.860 -19.692  1.00  0.00     0.005 C 
BRANCH   2   3
ATOM      3  C   UNL     1       8.865  15.371 -19.670  1.00  0.00     0.027 C 
BRANCH   3   4
ATOM      4  C   UNL     1       8.756  15.953 -21.055  1.00  0.00    -0.031 C 
ATOM      5  C   UNL     1       8.984  15.212 -22.150  1.00  0.00    -0.028 C 
BRANCH   5   6
ATOM      6  C   UNL     1       8.886  15.806 -23.536  1.00  0.00     0.005 C 
ATOM      7  C   UNL     1       8.376  17.249 -23.464  1.00  0.00     0.012 C 
ATOM      8  C   UNL     1      10.246  15.755 -24.243  1.00  0.00     0.012 C 
ENDBRANCH   5   6
ENDBRANCH   3   4
ENDBRANCH   2   3
ENDBRANCH   1   2
BRANCH   1   9
ATOM      9  C   UNL     1       9.920  14.478 -17.342  1.00  0.00     0.100 C 
BRANCH   9  10
ATOM     10  C   UNL     1       9.386  13.998 -16.023  1.00  0.00     0.220 C 
ATOM     11  O   UNL     1       9.863  14.470 -14.955  1.00  0.00    -0.275 OA
ATOM     12  N   UNL     1       8.321  13.040 -15.980  1.00  0.00    -0.352 N 
ATOM     13  H   UNL     1       7.911  12.694 -16.877  1.00  0.00     0.163 HD
BRANCH  12  14
ATOM     14  C   UNL     1       7.768  12.537 -14.724  1.00  0.00     0.151 C 
BRANCH  14  15
ATOM     15  C   UNL     1       8.106  11.082 -14.551  1.00  0.00    -0.025 A 
ATOM     16  C   UNL     1       7.385  10.298 -13.636  1.00  0.00     0.056 A 
ATOM     17  C   UNL     1       9.124  10.491 -15.313  1.00  0.00     0.009 A 
ATOM     18  C   UNL     1       7.677   8.929 -13.478  1.00  0.00     0.160 A 
ATOM     19  C   UNL     1       9.419   9.136 -15.161  1.00  0.00     0.050 A 
ATOM     20  C   UNL     1       8.704   8.352 -14.249  1.00  0.00     0.157 A 
BRANCH  18  21
ATOM     21  O   UNL     1       6.973   8.119 -12.573  1.00  0.00    -0.493 OA
ATOM     22  C   UNL     1       7.163   8.129 -11.162  1.00  0.00     0.278 C 
ENDBRANCH  18  21
BRANCH  20  23
ATOM     23  O   UNL     1       9.028   7.000 -14.125  1.00  0.00    -0.504 OA
ATOM     24  H   UNL     1       9.215   6.572 -13.227  1.00  0.00     0.293 HD
ENDBRANCH  20  23
ENDBRANCH  14  15
ENDBRANCH  12  14
ENDBRANCH   9  10
ENDBRANCH   1   9
TORSDOF 10
ENDMDL
MODEL 9
REMARK VINA RESULT:    -5.748      1.711      3.129
REMARK INTER + INTRA:          -9.719
REMARK INTER:                  -8.931
REMARK INTRA:                  -0.788
REMARK UNBOUND:                -0.778
REMARK SMILES COc1cc(CNC(=O)CCCCC=CC(C)C)ccc1O
REMARK SMILES IDX 11 1 12 2 13 3 14 4 15 5 16 6 17 7 18 8 10 9 8 10 9 11 7 12
REMARK SMILES IDX 6 14 5 15 4 16 19 17 3 18 20 19 21 20 2 21 1 22 22 23
REMARK H PARENT 7 13 22 24
REMARK Flexibility Score: inf
ROOT
ATOM      1  C   UNL     1       9.858  13.606 -18.404  1.00  0.00     0.010 C 
ENDROOT
BRANCH   1   2
ATOM      2  C   UNL     1       8.948  14.210 -19.489  1.00  0.00     0.005 C 
BRANCH   2   3
ATOM      3  C   UNL     1       9.146  15.726 -19.632  1.00  0.00     0.027 C 
BRANCH   3   4
ATOM      4  C   UNL     1       8.934  16.201 -21.045  1.00  0.00    -0.031 C 
ATOM      5  C   UNL     1       9.139  15.394 -22.097  1.00  0.00    -0.028 C 
BRANCH   5   6
ATOM      6  C   UNL     1       8.938  15.881 -23.513  1.00  0.00     0.005 C 
ATOM      7  C   UNL     1       8.391  17.313 -23.513  1.00  0.00     0.012 C 
ATOM      8  C   UNL     1      10.253  15.812 -24.301  1.00  0.00     0.012 C 
ENDBRANCH   5   6
ENDBRANCH   3   4
ENDBRANCH   2   3
ENDBRANCH   1   2
BRANCH   1   9
ATOM      9  C   UNL     1      10.112  14.582 -17.249  1.00  0.00     0.100 C 
BRANCH   9  10
ATOM     10  C   UNL     1       9.529  14.082 -15.959  1.00  0.00     0.220 C 
ATOM     11  O   UNL     1      10.002  14.494 -14.865  1.00  0.00    -0.275 OA
ATOM     12  N   UNL     1       8.422  13.170 -15.972  1.00  0.00    -0.352 N 
ATOM     13  H   UNL     1       8.017  12.874 -16.889  1.00  0.00     0.163 HD
BRANCH  12  14
ATOM     14  C   UNL     1       7.821  12.649 -14.746  1.00  0.00     0.151 C 
BRANCH  14  15
ATOM     15  C   UNL     1       8.146  11.189 -14.586  1.00  0.00    -0.025 A 
ATOM     16  C   UNL     1       9.104  10.588 -15.418  1.00  0.00     0.056 A 
ATOM     17  C   UNL     1       7.516  10.423 -13.595  1.00  0.00     0.009 A 
ATOM     18  C   UNL     1       9.432   9.226 -15.267  1.00  0.00     0.160 A 
ATOM     19  C   UNL     1       7.837   9.074 -13.440  1.00  0.00     0.050 A 
ATOM     20  C   UNL     1       8.789   8.472 -14.268  1.00  0.00     0.157 A 
BRANCH  18  21
ATOM     21  O   UNL     1      10.387   8.598 -16.082  1.00  0.00    -0.493 OA
ATOM     22  C   UNL     1      11.219   9.273 -17.019  1.00  0.00     0.278 C 
ENDBRANCH  18  21
BRANCH  20  23
ATOM     23  O   UNL     1       9.083   7.120 -14.083  1.00  0.00    -0.504 OA
ATOM     24  H   UNL     1       8.698   6.398 -14.679  1.00  0.00     0.293 HD
ENDBRANCH  20  23
ENDBRANCH  14  15
ENDBRANCH  12  14
ENDBRANCH   9  10
ENDBRANCH   1   9
TORSDOF 10
ENDMDL
