MODEL 1
REMARK VINA RESULT:    -4.973      0.000      0.000
REMARK INTER + INTRA:          -7.227
REMARK INTER:                  -6.718
REMARK INTRA:                  -0.510
REMARK UNBOUND:                -0.510
REMARK SMILES COc1ccc(-c2cc(=O)c3c(OC)c(OC)c(OC)c(OC)c3o2)cc1
REMARK SMILES IDX 7 1 8 2 9 3 10 4 11 5 24 6 25 7 21 8 18 9 15 10 12 11 6 12
REMARK SMILES IDX 3 13 4 14 27 15 5 16 26 17 2 18 1 19 22 20 23 21 13 22 14 23
REMARK SMILES IDX 19 24 20 25 16 26 17 27
REMARK H PARENT
REMARK Flexibility Score: inf
ROOT
ATOM      1  C   UNL     1     139.362 148.716 120.018  1.00  0.00     0.138 A 
ATOM      2  C   UNL     1     140.582 149.022 119.410  1.00  0.00     0.100 A 
ATOM      3  C   UNL     1     141.054 150.330 119.453  1.00  0.00     0.197 A 
ATOM      4  O   UNL     1     142.157 150.592 118.900  1.00  0.00    -0.289 OA
ATOM      5  C   UNL     1     140.297 151.329 120.107  1.00  0.00     0.115 A 
ATOM      6  C   UNL     1     139.066 150.950 120.692  1.00  0.00     0.188 A 
ATOM      7  O   UNL     1     138.667 149.681 120.614  1.00  0.00    -0.452 OA
ATOM      8  C   UNL     1     138.270 151.907 121.369  1.00  0.00     0.209 A 
ATOM      9  C   UNL     1     138.706 153.258 121.438  1.00  0.00     0.211 A 
ATOM     10  C   UNL     1     139.938 153.631 120.842  1.00  0.00     0.208 A 
ATOM     11  C   UNL     1     140.738 152.664 120.209  1.00  0.00     0.179 A 
ENDROOT
BRANCH   1  12
ATOM     12  C   UNL     1     138.820 147.335 120.012  1.00  0.00     0.018 A 
ATOM     13  C   UNL     1     137.751 144.722 120.036  1.00  0.00     0.118 A 
ATOM     14  C   UNL     1     136.908 145.834 120.127  1.00  0.00     0.047 A 
ATOM     15  C   UNL     1     139.140 144.921 119.937  1.00  0.00     0.047 A 
ATOM     16  C   UNL     1     137.435 147.128 120.119  1.00  0.00     0.016 A 
ATOM     17  C   UNL     1     139.669 146.216 119.927  1.00  0.00     0.016 A 
BRANCH  13  18
ATOM     18  O   UNL     1     137.172 143.444 120.049  1.00  0.00    -0.497 OA
ATOM     19  C   UNL     1     137.067 142.598 118.908  1.00  0.00     0.278 C 
ENDBRANCH  13  18
ENDBRANCH   1  12
BRANCH   8  20
ATOM     20  O   UNL     1     137.054 151.566 121.993  1.00  0.00    -0.490 OA
ATOM     21  C   UNL     1     136.875 150.889 123.232  1.00  0.00     0.278 C 
ENDBRANCH   8  20
BRANCH  11  22
ATOM     22  O   UNL     1     141.971 153.033 119.654  1.00  0.00    -0.492 OA
ATOM     23  C   UNL     1     143.140 153.246 120.439  1.00  0.00     0.278 C 
ENDBRANCH  11  22
BRANCH   9  24
ATOM     24  O   UNL     1     137.955 154.263 122.080  1.00  0.00    -0.490 OA
ATOM     25  C   UNL     1     136.951 155.102 121.518  1.00  0.00     0.279 C 
ENDBRANCH   9  24
BRANCH  10  26
ATOM     26  O   UNL     1     140.418 154.957 120.817  1.00  0.00    -0.490 OA
ATOM     27  C   UNL     1     140.013 156.011 119.950  1.00  0.00     0.278 C 
ENDBRANCH  10  26
TORSDOF 6
ENDMDL
MODEL 2
REMARK VINA RESULT:    -4.920      1.383      3.656
REMARK INTER + INTRA:          -7.155
REMARK INTER:                  -7.330
REMARK INTRA:                   0.175
REMARK UNBOUND:                -0.510
REMARK SMILES COc1ccc(-c2cc(=O)c3c(OC)c(OC)c(OC)c(OC)c3o2)cc1
REMARK SMILES IDX 7 1 8 2 9 3 10 4 11 5 24 6 25 7 21 8 18 9 15 10 12 11 6 12
REMARK SMILES IDX 3 13 4 14 27 15 5 16 26 17 2 18 1 19 22 20 23 21 13 22 14 23
REMARK SMILES IDX 19 24 20 25 16 26 17 27
REMARK H PARENT
REMARK Flexibility Score: inf
ROOT
ATOM      1  C   UNL     1     138.582 150.048 120.886  1.00  0.00     0.138 A 
ATOM      2  C   UNL     1     137.596 150.973 121.243  1.00  0.00     0.100 A 
ATOM      3  C   UNL     1     137.928 152.320 121.333  1.00  0.00     0.197 A 
ATOM      4  O   UNL     1     137.028 153.143 121.654  1.00  0.00    -0.289 OA
ATOM      5  C   UNL     1     139.252 152.737 121.065  1.00  0.00     0.115 A 
ATOM      6  C   UNL     1     140.201 151.746 120.721  1.00  0.00     0.188 A 
ATOM      7  O   UNL     1     139.822 150.470 120.655  1.00  0.00    -0.452 OA
ATOM      8  C   UNL     1     141.541 152.106 120.432  1.00  0.00     0.209 A 
ATOM      9  C   UNL     1     141.932 153.470 120.514  1.00  0.00     0.211 A 
ATOM     10  C   UNL     1     140.976 154.457 120.868  1.00  0.00     0.208 A 
ATOM     11  C   UNL     1     139.641 154.091 121.111  1.00  0.00     0.179 A 
ENDROOT
BRANCH   1  12
ATOM     12  C   UNL     1     138.277 148.601 120.765  1.00  0.00     0.018 A 
ATOM     13  C   UNL     1     137.685 145.846 120.587  1.00  0.00     0.118 A 
ATOM     14  C   UNL     1     136.910 146.688 121.392  1.00  0.00     0.047 A 
ATOM     15  C   UNL     1     138.767 146.388 119.870  1.00  0.00     0.047 A 
ATOM     16  C   UNL     1     137.204 148.051 121.483  1.00  0.00     0.016 A 
ATOM     17  C   UNL     1     139.061 147.753 119.961  1.00  0.00     0.016 A 
BRANCH  13  18
ATOM     18  O   UNL     1     137.349 144.485 120.528  1.00  0.00    -0.497 OA
ATOM     19  C   UNL     1     138.171 143.433 121.024  1.00  0.00     0.278 C 
ENDBRANCH  13  18
ENDBRANCH   1  12
BRANCH   8  20
ATOM     20  O   UNL     1     142.509 151.156 120.054  1.00  0.00    -0.490 OA
ATOM     21  C   UNL     1     142.375 150.116 119.091  1.00  0.00     0.278 C 
ENDBRANCH   8  20
BRANCH  11  22
ATOM     22  O   UNL     1     138.694 155.075 121.424  1.00  0.00    -0.492 OA
ATOM     23  C   UNL     1     138.656 155.739 122.684  1.00  0.00     0.278 C 
ENDBRANCH  11  22
BRANCH   9  24
ATOM     24  O   UNL     1     143.252 153.895 120.258  1.00  0.00    -0.490 OA
ATOM     25  C   UNL     1     144.116 153.484 119.204  1.00  0.00     0.279 C 
ENDBRANCH   9  24
BRANCH  10  26
ATOM     26  O   UNL     1     141.292 155.822 121.023  1.00  0.00    -0.490 OA
ATOM     27  C   UNL     1     141.174 156.857 120.053  1.00  0.00     0.278 C 
ENDBRANCH  10  26
TORSDOF 6
ENDMDL
MODEL 3
REMARK VINA RESULT:    -4.322      1.879      3.111
REMARK INTER + INTRA:          -6.347
REMARK INTER:                  -5.905
REMARK INTRA:                  -0.442
REMARK UNBOUND:                -0.510
REMARK SMILES COc1ccc(-c2cc(=O)c3c(OC)c(OC)c(OC)c(OC)c3o2)cc1
REMARK SMILES IDX 7 1 8 2 9 3 10 4 11 5 24 6 25 7 21 8 18 9 15 10 12 11 6 12
REMARK SMILES IDX 3 13 4 14 27 15 5 16 26 17 2 18 1 19 22 20 23 21 13 22 14 23
REMARK SMILES IDX 19 24 20 25 16 26 17 27
REMARK H PARENT
REMARK Flexibility Score: inf
ROOT
ATOM      1  C   UNL     1     140.229 151.515 120.458  1.00  0.00     0.138 A 
ATOM      2  C   UNL     1     141.514 151.991 120.181  1.00  0.00     0.100 A 
ATOM      3  C   UNL     1     141.809 153.329 120.420  1.00  0.00     0.197 A 
ATOM      4  O   UNL     1     142.972 153.745 120.166  1.00  0.00    -0.289 OA
ATOM      5  C   UNL     1     140.812 154.187 120.937  1.00  0.00     0.115 A 
ATOM      6  C   UNL     1     139.530 153.640 121.184  1.00  0.00     0.188 A 
ATOM      7  O   UNL     1     139.309 152.351 120.930  1.00  0.00    -0.452 OA
ATOM      8  C   UNL     1     138.494 154.451 121.711  1.00  0.00     0.209 A 
ATOM      9  C   UNL     1     138.744 155.826 121.969  1.00  0.00     0.211 A 
ATOM     10  C   UNL     1     140.030 156.368 121.712  1.00  0.00     0.208 A 
ATOM     11  C   UNL     1     141.060 155.544 121.228  1.00  0.00     0.179 A 
ENDROOT
BRANCH   1  12
ATOM     12  C   UNL     1     139.866 150.094 120.232  1.00  0.00     0.018 A 
ATOM     13  C   UNL     1     139.194 147.394 119.751  1.00  0.00     0.118 A 
ATOM     14  C   UNL     1     140.375 147.935 119.231  1.00  0.00     0.047 A 
ATOM     15  C   UNL     1     138.342 148.214 120.513  1.00  0.00     0.047 A 
ATOM     16  C   UNL     1     140.707 149.272 119.466  1.00  0.00     0.016 A 
ATOM     17  C   UNL     1     138.674 149.553 120.749  1.00  0.00     0.016 A 
BRANCH  13  18
ATOM     18  O   UNL     1     138.905 146.047 119.487  1.00  0.00    -0.497 OA
ATOM     19  C   UNL     1     139.204 144.973 120.374  1.00  0.00     0.278 C 
ENDBRANCH  13  18
ENDBRANCH   1  12
BRANCH   8  20
ATOM     20  O   UNL     1     137.215 153.939 122.002  1.00  0.00    -0.490 OA
ATOM     21  C   UNL     1     136.875 152.949 122.966  1.00  0.00     0.278 C 
ENDBRANCH   8  20
BRANCH  11  22
ATOM     22  O   UNL     1     142.337 156.079 121.010  1.00  0.00    -0.492 OA
ATOM     23  C   UNL     1     143.242 156.377 122.068  1.00  0.00     0.278 C 
ENDBRANCH  11  22
BRANCH   9  24
ATOM     24  O   UNL     1     137.754 156.692 122.476  1.00  0.00    -0.490 OA
ATOM     25  C   UNL     1     137.254 156.768 123.807  1.00  0.00     0.279 C 
ENDBRANCH   9  24
BRANCH  10  26
ATOM     26  O   UNL     1     140.346 157.731 121.889  1.00  0.00    -0.490 OA
ATOM     27  C   UNL     1     140.047 158.813 121.013  1.00  0.00     0.278 C 
ENDBRANCH  10  26
TORSDOF 6
ENDMDL
MODEL 4
REMARK VINA RESULT:    -4.016      2.035      3.378
REMARK INTER + INTRA:          -5.934
REMARK INTER:                  -5.778
REMARK INTRA:                  -0.155
REMARK UNBOUND:                -0.510
REMARK SMILES COc1ccc(-c2cc(=O)c3c(OC)c(OC)c(OC)c(OC)c3o2)cc1
REMARK SMILES IDX 7 1 8 2 9 3 10 4 11 5 24 6 25 7 21 8 18 9 15 10 12 11 6 12
REMARK SMILES IDX 3 13 4 14 27 15 5 16 26 17 2 18 1 19 22 20 23 21 13 22 14 23
REMARK SMILES IDX 19 24 20 25 16 26 17 27
REMARK H PARENT
REMARK Flexibility Score: inf
ROOT
ATOM      1  C   UNL     1     140.234 151.555 120.336  1.00  0.00     0.138 A 
ATOM      2  C   UNL     1     141.580 151.806 120.616  1.00  0.00     0.100 A 
ATOM      3  C   UNL     1     142.009 153.120 120.771  1.00  0.00     0.197 A 
ATOM      4  O   UNL     1     143.227 153.332 121.023  1.00  0.00    -0.289 OA
ATOM      5  C   UNL     1     141.083 154.181 120.645  1.00  0.00     0.115 A 
ATOM      6  C   UNL     1     139.738 153.854 120.351  1.00  0.00     0.188 A 
ATOM      7  O   UNL     1     139.390 152.576 120.210  1.00  0.00    -0.452 OA
ATOM      8  C   UNL     1     138.764 154.876 120.223  1.00  0.00     0.209 A 
ATOM      9  C   UNL     1     139.153 156.235 120.370  1.00  0.00     0.211 A 
ATOM     10  C   UNL     1     140.505 156.555 120.657  1.00  0.00     0.208 A 
ATOM     11  C   UNL     1     141.452 155.530 120.822  1.00  0.00     0.179 A 
ENDROOT
BRANCH   1  12
ATOM     12  C   UNL     1     139.723 150.172 120.173  1.00  0.00     0.018 A 
ATOM     13  C   UNL     1     138.766 147.541 119.809  1.00  0.00     0.118 A 
ATOM     14  C   UNL     1     139.944 147.960 119.183  1.00  0.00     0.047 A 
ATOM     15  C   UNL     1     138.060 148.448 120.619  1.00  0.00     0.047 A 
ATOM     16  C   UNL     1     140.417 149.263 119.359  1.00  0.00     0.016 A 
ATOM     17  C   UNL     1     138.533 149.753 120.797  1.00  0.00     0.016 A 
BRANCH  13  18
ATOM     18  O   UNL     1     138.332 146.223 119.600  1.00  0.00    -0.497 OA
ATOM     19  C   UNL     1     139.047 145.065 120.022  1.00  0.00     0.278 C 
ENDBRANCH  13  18
ENDBRANCH   1  12
BRANCH   8  20
ATOM     20  O   UNL     1     137.410 154.594 119.963  1.00  0.00    -0.490 OA
ATOM     21  C   UNL     1     136.882 153.658 119.029  1.00  0.00     0.278 C 
ENDBRANCH   8  20
BRANCH  11  22
ATOM     22  O   UNL     1     142.779 155.851 121.141  1.00  0.00    -0.492 OA
ATOM     23  C   UNL     1     143.153 156.462 122.372  1.00  0.00     0.278 C 
ENDBRANCH  11  22
BRANCH   9  24
ATOM     24  O   UNL     1     138.239 157.301 120.237  1.00  0.00    -0.490 OA
ATOM     25  C   UNL     1     137.642 158.077 121.271  1.00  0.00     0.279 C 
ENDBRANCH   9  24
BRANCH  10  26
ATOM     26  O   UNL     1     140.983 157.876 120.764  1.00  0.00    -0.490 OA
ATOM     27  C   UNL     1     141.309 158.771 119.705  1.00  0.00     0.278 C 
ENDBRANCH  10  26
TORSDOF 6
ENDMDL
MODEL 5
REMARK VINA RESULT:    -3.796      1.983      4.512
REMARK INTER + INTRA:          -5.637
REMARK INTER:                  -5.495
REMARK INTRA:                  -0.142
REMARK UNBOUND:                -0.510
REMARK SMILES COc1ccc(-c2cc(=O)c3c(OC)c(OC)c(OC)c(OC)c3o2)cc1
REMARK SMILES IDX 7 1 8 2 9 3 10 4 11 5 24 6 25 7 21 8 18 9 15 10 12 11 6 12
REMARK SMILES IDX 3 13 4 14 27 15 5 16 26 17 2 18 1 19 22 20 23 21 13 22 14 23
REMARK SMILES IDX 19 24 20 25 16 26 17 27
REMARK H PARENT
REMARK Flexibility Score: inf
ROOT
ATOM      1  C   UNL     1     139.070 151.700 120.477  1.00  0.00     0.138 A 
ATOM      2  C   UNL     1     137.886 152.439 120.551  1.00  0.00     0.100 A 
ATOM      3  C   UNL     1     137.952 153.803 120.818  1.00  0.00     0.197 A 
ATOM      4  O   UNL     1     136.875 154.458 120.881  1.00  0.00    -0.289 OA
ATOM      5  C   UNL     1     139.208 154.422 121.009  1.00  0.00     0.115 A 
ATOM      6  C   UNL     1     140.364 153.610 120.931  1.00  0.00     0.188 A 
ATOM      7  O   UNL     1     140.235 152.309 120.676  1.00  0.00    -0.452 OA
ATOM      8  C   UNL     1     141.652 154.178 121.105  1.00  0.00     0.209 A 
ATOM      9  C   UNL     1     141.772 155.567 121.383  1.00  0.00     0.211 A 
ATOM     10  C   UNL     1     140.607 156.372 121.468  1.00  0.00     0.208 A 
ATOM     11  C   UNL     1     139.340 155.804 121.252  1.00  0.00     0.179 A 
ENDROOT
BRANCH   1  12
ATOM     12  C   UNL     1     139.056 150.246 120.184  1.00  0.00     0.018 A 
ATOM     13  C   UNL     1     139.058 147.487 119.581  1.00  0.00     0.118 A 
ATOM     14  C   UNL     1     140.191 148.269 119.333  1.00  0.00     0.047 A 
ATOM     15  C   UNL     1     137.914 148.094 120.130  1.00  0.00     0.047 A 
ATOM     16  C   UNL     1     140.191 149.634 119.628  1.00  0.00     0.016 A 
ATOM     17  C   UNL     1     137.913 149.462 120.427  1.00  0.00     0.016 A 
BRANCH  13  18
ATOM     18  O   UNL     1     139.109 146.121 119.267  1.00  0.00    -0.497 OA
ATOM     19  C   UNL     1     139.515 145.102 120.176  1.00  0.00     0.278 C 
ENDBRANCH  13  18
ENDBRANCH   1  12
BRANCH   8  20
ATOM     20  O   UNL     1     142.829 153.414 121.003  1.00  0.00    -0.490 OA
ATOM     21  C   UNL     1     143.398 152.850 119.826  1.00  0.00     0.278 C 
ENDBRANCH   8  20
BRANCH  11  22
ATOM     22  O   UNL     1     138.196 156.612 121.303  1.00  0.00    -0.492 OA
ATOM     23  C   UNL     1     137.688 157.307 120.167  1.00  0.00     0.278 C 
ENDBRANCH  11  22
BRANCH   9  24
ATOM     24  O   UNL     1     143.019 156.192 121.585  1.00  0.00    -0.490 OA
ATOM     25  C   UNL     1     143.459 156.924 122.724  1.00  0.00     0.279 C 
ENDBRANCH   9  24
BRANCH  10  26
ATOM     26  O   UNL     1     140.634 157.743 121.793  1.00  0.00    -0.490 OA
ATOM     27  C   UNL     1     140.929 158.835 120.927  1.00  0.00     0.278 C 
ENDBRANCH  10  26
TORSDOF 6
ENDMDL
MODEL 6
REMARK VINA RESULT:    -2.173      1.989      7.765
REMARK INTER + INTRA:          -3.444
REMARK INTER:                  -4.988
REMARK INTRA:                   1.544
REMARK UNBOUND:                -0.510
REMARK SMILES COc1ccc(-c2cc(=O)c3c(OC)c(OC)c(OC)c(OC)c3o2)cc1
REMARK SMILES IDX 7 1 8 2 9 3 10 4 11 5 24 6 25 7 21 8 18 9 15 10 12 11 6 12
REMARK SMILES IDX 3 13 4 14 27 15 5 16 26 17 2 18 1 19 22 20 23 21 13 22 14 23
REMARK SMILES IDX 19 24 20 25 16 26 17 27
REMARK H PARENT
REMARK Flexibility Score: inf
ROOT
ATOM      1  C   UNL     1     139.932 153.435 120.923  1.00  0.00     0.138 A 
ATOM      2  C   UNL     1     141.042 153.046 120.168  1.00  0.00     0.100 A 
ATOM      3  C   UNL     1     141.150 151.724 119.749  1.00  0.00     0.197 A 
ATOM      4  O   UNL     1     142.157 151.387 119.068  1.00  0.00    -0.289 OA
ATOM      5  C   UNL     1     140.140 150.795 120.088  1.00  0.00     0.115 A 
ATOM      6  C   UNL     1     139.050 151.255 120.863  1.00  0.00     0.188 A 
ATOM      7  O   UNL     1     139.006 152.533 121.238  1.00  0.00    -0.452 OA
ATOM      8  C   UNL     1     138.003 150.371 121.225  1.00  0.00     0.209 A 
ATOM      9  C   UNL     1     138.068 149.008 120.823  1.00  0.00     0.211 A 
ATOM     10  C   UNL     1     139.169 148.553 120.053  1.00  0.00     0.208 A 
ATOM     11  C   UNL     1     140.179 149.450 119.666  1.00  0.00     0.179 A 
ENDROOT
BRANCH   1  12
ATOM     12  C   UNL     1     139.763 154.834 121.385  1.00  0.00     0.018 A 
ATOM     13  C   UNL     1     139.389 157.495 122.255  1.00  0.00     0.118 A 
ATOM     14  C   UNL     1     138.432 156.514 122.538  1.00  0.00     0.047 A 
ATOM     15  C   UNL     1     140.539 157.140 121.526  1.00  0.00     0.047 A 
ATOM     16  C   UNL     1     138.614 155.198 122.106  1.00  0.00     0.016 A 
ATOM     17  C   UNL     1     140.723 155.822 121.093  1.00  0.00     0.016 A 
BRANCH  13  18
ATOM     18  O   UNL     1     139.160 158.801 122.711  1.00  0.00    -0.497 OA
ATOM     19  C   UNL     1     138.447 159.124 123.901  1.00  0.00     0.278 C 
ENDBRANCH  13  18
ENDBRANCH   1  12
BRANCH   8  20
ATOM     20  O   UNL     1     136.884 150.794 121.967  1.00  0.00    -0.490 OA
ATOM     21  C   UNL     1     136.875 151.613 123.132  1.00  0.00     0.278 C 
ENDBRANCH   8  20
BRANCH  11  22
ATOM     22  O   UNL     1     141.245 149.001 118.875  1.00  0.00    -0.492 OA
ATOM     23  C   UNL     1     142.610 149.157 119.254  1.00  0.00     0.278 C 
ENDBRANCH  11  22
BRANCH   9  24
ATOM     24  O   UNL     1     137.071 148.072 121.164  1.00  0.00    -0.490 OA
ATOM     25  C   UNL     1     136.926 147.349 122.382  1.00  0.00     0.279 C 
ENDBRANCH   9  24
BRANCH  10  26
ATOM     26  O   UNL     1     139.337 147.210 119.660  1.00  0.00    -0.490 OA
ATOM     27  C   UNL     1     139.744 146.112 120.471  1.00  0.00     0.278 C 
ENDBRANCH  10  26
TORSDOF 6
ENDMDL
