MODEL 1
REMARK VINA RESULT:    -4.779      0.000      0.000
REMARK INTER + INTRA:          -8.206
REMARK INTER:                  -7.294
REMARK INTRA:                  -0.912
REMARK UNBOUND:                -0.912
REMARK SMILES OC[C@@H]1O[C@@H](O[C@@]2(CO)O[C@H](CO)[C@@H](O)[C@H]2O)[C@H](O)[C@H](O)[C@H]1O
REMARK SMILES IDX 6 1 5 2 3 3 22 4 4 5 20 6 18 7 2 8 1 9 23 11 21 13 19 15
REMARK SMILES IDX 7 17 16 18 10 19 14 20 11 21 8 22 9 23 17 25 15 27 12 29
REMARK SMILES IDX 13 30
REMARK H PARENT 1 10 23 12 21 14 19 16 9 24 17 26 15 28 13 31
REMARK Flexibility Score: inf
ROOT
ATOM      1  O   UNL     1       1.348  44.586   9.046  1.00  0.00    -0.313 OA
ENDROOT
BRANCH   1   2
ATOM      2  C   UNL     1       1.347  44.709  10.463  1.00  0.00     0.285 C 
ATOM      3  C   UNL     1       3.698  44.840  10.547  1.00  0.00     0.178 C 
ATOM      4  C   UNL     1       3.838  43.446  11.205  1.00  0.00     0.177 C 
ATOM      5  O   UNL     1       2.471  45.448  10.925  1.00  0.00    -0.341 OA
ATOM      6  C   UNL     1       2.633  42.570  10.820  1.00  0.00     0.179 C 
ATOM      7  C   UNL     1       1.316  43.314  11.108  1.00  0.00     0.202 C 
BRANCH   3   8
ATOM      8  C   UNL     1       4.835  45.785  10.968  1.00  0.00     0.191 C 
BRANCH   8   9
ATOM      9  O   UNL     1       4.739  47.022  10.314  1.00  0.00    -0.394 OA
ATOM     10  H   UNL     1       5.386  47.631  10.759  1.00  0.00     0.210 HD
ENDBRANCH   8   9
ENDBRANCH   3   8
BRANCH   4  11
ATOM     11  O   UNL     1       5.014  42.815  10.764  1.00  0.00    -0.387 OA
ATOM     12  H   UNL     1       5.734  43.047  11.409  1.00  0.00     0.211 HD
ENDBRANCH   4  11
BRANCH   6  13
ATOM     13  O   UNL     1       2.659  41.361  11.534  1.00  0.00    -0.387 OA
ATOM     14  H   UNL     1       3.538  40.937  11.353  1.00  0.00     0.211 HD
ENDBRANCH   6  13
BRANCH   7  15
ATOM     15  O   UNL     1       1.124  43.455  12.494  1.00  0.00    -0.385 OA
ATOM     16  H   UNL     1       1.897  43.022  12.940  1.00  0.00     0.211 HD
ENDBRANCH   7  15
ENDBRANCH   1   2
BRANCH   1  17
ATOM     17  C   UNL     1       0.597  45.600   8.380  1.00  0.00     0.224 C 
ATOM     18  C   UNL     1       1.574  46.528   7.630  1.00  0.00     0.208 C 
ATOM     19  O   UNL     1      -0.148  46.393   9.294  1.00  0.00    -0.337 OA
ATOM     20  C   UNL     1       0.915  47.877   7.760  1.00  0.00     0.180 C 
ATOM     21  C   UNL     1       0.179  47.750   9.090  1.00  0.00     0.179 C 
BRANCH  17  22
ATOM     22  C   UNL     1      -0.386  44.948   7.381  1.00  0.00     0.225 C 
BRANCH  22  23
ATOM     23  O   UNL     1       0.316  44.362   6.318  1.00  0.00    -0.391 OA
ATOM     24  H   UNL     1      -0.355  43.863   5.786  1.00  0.00     0.210 HD
ENDBRANCH  22  23
ENDBRANCH  17  22
BRANCH  18  25
ATOM     25  O   UNL     1       2.829  46.529   8.267  1.00  0.00    -0.385 OA
ATOM     26  H   UNL     1       3.280  45.679   8.022  1.00  0.00     0.211 HD
ENDBRANCH  18  25
BRANCH  20  27
ATOM     27  O   UNL     1       1.860  48.915   7.788  1.00  0.00    -0.387 OA
ATOM     28  H   UNL     1       2.540  48.703   7.098  1.00  0.00     0.211 HD
ENDBRANCH  20  27
BRANCH  21  29
ATOM     29  C   UNL     1      -1.102  48.592   9.136  1.00  0.00     0.191 C 
BRANCH  29  30
ATOM     30  O   UNL     1      -1.122  49.537   8.100  1.00  0.00    -0.394 OA
ATOM     31  H   UNL     1      -0.209  49.548   7.707  1.00  0.00     0.210 HD
ENDBRANCH  29  30
ENDBRANCH  21  29
ENDBRANCH   1  17
TORSDOF 13
ENDMDL
MODEL 2
REMARK VINA RESULT:    -4.625      1.585      5.767
REMARK INTER + INTRA:          -7.971
REMARK INTER:                  -6.818
REMARK INTRA:                  -1.153
REMARK UNBOUND:                -0.912
REMARK SMILES OC[C@@H]1O[C@@H](O[C@@]2(CO)O[C@H](CO)[C@@H](O)[C@H]2O)[C@H](O)[C@H](O)[C@H]1O
REMARK SMILES IDX 6 1 5 2 3 3 22 4 4 5 20 6 18 7 2 8 1 9 23 11 21 13 19 15
REMARK SMILES IDX 7 17 16 18 10 19 14 20 11 21 8 22 9 23 17 25 15 27 12 29
REMARK SMILES IDX 13 30
REMARK H PARENT 1 10 23 12 21 14 19 16 9 24 17 26 15 28 13 31
REMARK Flexibility Score: inf
ROOT
ATOM      1  O   UNL     1       1.348  45.066  10.505  1.00  0.00    -0.313 OA
ENDROOT
BRANCH   1   2
ATOM      2  C   UNL     1       1.615  44.791   9.135  1.00  0.00     0.285 C 
ATOM      3  C   UNL     1       2.633  46.890   8.813  1.00  0.00     0.178 C 
ATOM      4  C   UNL     1       1.475  47.413   7.927  1.00  0.00     0.177 C 
ATOM      5  O   UNL     1       2.768  45.483   8.676  1.00  0.00    -0.341 OA
ATOM      6  C   UNL     1       0.172  46.682   8.298  1.00  0.00     0.179 C 
ATOM      7  C   UNL     1       0.389  45.157   8.281  1.00  0.00     0.202 C 
BRANCH   3   8
ATOM      8  C   UNL     1       3.976  47.528   8.425  1.00  0.00     0.191 C 
BRANCH   8   9
ATOM      9  O   UNL     1       3.889  48.188   7.190  1.00  0.00    -0.394 OA
ATOM     10  H   UNL     1       4.478  47.693   6.561  1.00  0.00     0.210 HD
ENDBRANCH   8   9
ENDBRANCH   3   8
BRANCH   4  11
ATOM     11  O   UNL     1       1.292  48.792   8.128  1.00  0.00    -0.387 OA
ATOM     12  H   UNL     1       1.623  49.004   9.040  1.00  0.00     0.211 HD
ENDBRANCH   4  11
BRANCH   6  13
ATOM     13  O   UNL     1      -0.852  47.023   7.400  1.00  0.00    -0.387 OA
ATOM     14  H   UNL     1      -1.335  47.796   7.793  1.00  0.00     0.211 HD
ENDBRANCH   6  13
BRANCH   7  15
ATOM     15  O   UNL     1       0.596  44.705   6.966  1.00  0.00    -0.385 OA
ATOM     16  H   UNL     1       0.554  43.714   6.990  1.00  0.00     0.211 HD
ENDBRANCH   7  15
ENDBRANCH   1   2
BRANCH   1  17
ATOM     17  C   UNL     1       1.742  44.018  11.389  1.00  0.00     0.224 C 
ATOM     18  C   UNL     1       2.953  44.498  12.217  1.00  0.00     0.208 C 
ATOM     19  O   UNL     1       2.130  42.847  10.684  1.00  0.00    -0.337 OA
ATOM     20  C   UNL     1       3.767  43.240  12.372  1.00  0.00     0.180 C 
ATOM     21  C   UNL     1       3.426  42.475  11.097  1.00  0.00     0.179 C 
BRANCH  17  22
ATOM     22  C   UNL     1       0.568  43.660  12.328  1.00  0.00     0.225 C 
BRANCH  22  23
ATOM     23  O   UNL     1      -0.490  44.564  12.153  1.00  0.00    -0.391 OA
ATOM     24  H   UNL     1      -0.839  44.760  13.060  1.00  0.00     0.210 HD
ENDBRANCH  22  23
ENDBRANCH  17  22
BRANCH  18  25
ATOM     25  O   UNL     1       3.677  45.470  11.501  1.00  0.00    -0.385 OA
ATOM     26  H   UNL     1       4.501  45.659  12.022  1.00  0.00     0.211 HD
ENDBRANCH  18  25
BRANCH  20  27
ATOM     27  O   UNL     1       5.141  43.519  12.456  1.00  0.00    -0.387 OA
ATOM     28  H   UNL     1       5.413  43.340  13.393  1.00  0.00     0.211 HD
ENDBRANCH  20  27
BRANCH  21  29
ATOM     29  C   UNL     1       3.479  40.955  11.290  1.00  0.00     0.191 C 
BRANCH  29  30
ATOM     30  O   UNL     1       4.613  40.579  12.025  1.00  0.00    -0.394 OA
ATOM     31  H   UNL     1       4.285  40.240  12.900  1.00  0.00     0.210 HD
ENDBRANCH  29  30
ENDBRANCH  21  29
ENDBRANCH   1  17
TORSDOF 13
ENDMDL
MODEL 3
REMARK VINA RESULT:    -4.601      1.208      2.053
REMARK INTER + INTRA:          -7.934
REMARK INTER:                  -7.245
REMARK INTRA:                  -0.688
REMARK UNBOUND:                -0.912
REMARK SMILES OC[C@@H]1O[C@@H](O[C@@]2(CO)O[C@H](CO)[C@@H](O)[C@H]2O)[C@H](O)[C@H](O)[C@H]1O
REMARK SMILES IDX 6 1 5 2 3 3 22 4 4 5 20 6 18 7 2 8 1 9 23 11 21 13 19 15
REMARK SMILES IDX 7 17 16 18 10 19 14 20 11 21 8 22 9 23 17 25 15 27 12 29
REMARK SMILES IDX 13 30
REMARK H PARENT 1 10 23 12 21 14 19 16 9 24 17 26 15 28 13 31
REMARK Flexibility Score: inf
ROOT
ATOM      1  O   UNL     1       0.850  44.680   9.518  1.00  0.00    -0.313 OA
ENDROOT
BRANCH   1   2
ATOM      2  C   UNL     1       1.333  44.691  10.856  1.00  0.00     0.285 C 
ATOM      3  C   UNL     1       3.572  44.873  10.147  1.00  0.00     0.178 C 
ATOM      4  C   UNL     1       3.922  43.435  10.602  1.00  0.00     0.177 C 
ATOM      5  O   UNL     1       2.549  45.418  10.967  1.00  0.00    -0.341 OA
ATOM      6  C   UNL     1       2.655  42.563  10.578  1.00  0.00     0.179 C 
ATOM      7  C   UNL     1       1.517  43.249  11.356  1.00  0.00     0.202 C 
BRANCH   3   8
ATOM      8  C   UNL     1       4.788  45.808  10.234  1.00  0.00     0.191 C 
BRANCH   8   9
ATOM      9  O   UNL     1       4.502  46.945  11.004  1.00  0.00    -0.394 OA
ATOM     10  H   UNL     1       3.769  47.428  10.539  1.00  0.00     0.210 HD
ENDBRANCH   8   9
ENDBRANCH   3   8
BRANCH   4  11
ATOM     11  O   UNL     1       4.876  42.869   9.737  1.00  0.00    -0.387 OA
ATOM     12  H   UNL     1       4.441  42.104   9.277  1.00  0.00     0.211 HD
ENDBRANCH   4  11
BRANCH   6  13
ATOM     13  O   UNL     1       2.918  41.302  11.139  1.00  0.00    -0.387 OA
ATOM     14  H   UNL     1       3.659  41.424  11.788  1.00  0.00     0.211 HD
ENDBRANCH   6  13
BRANCH   7  15
ATOM     15  O   UNL     1       1.809  43.276  12.732  1.00  0.00    -0.385 OA
ATOM     16  H   UNL     1       2.146  42.375  12.975  1.00  0.00     0.211 HD
ENDBRANCH   7  15
ENDBRANCH   1   2
BRANCH   1  17
ATOM     17  C   UNL     1      -0.049  45.747   9.221  1.00  0.00     0.224 C 
ATOM     18  C   UNL     1      -0.755  45.442   7.883  1.00  0.00     0.208 C 
ATOM     19  O   UNL     1       0.629  46.989   9.086  1.00  0.00    -0.337 OA
ATOM     20  C   UNL     1      -0.903  46.810   7.268  1.00  0.00     0.180 C 
ATOM     21  C   UNL     1       0.303  47.551   7.834  1.00  0.00     0.179 C 
BRANCH  17  22
ATOM     22  C   UNL     1      -1.093  45.878  10.352  1.00  0.00     0.225 C 
BRANCH  22  23
ATOM     23  O   UNL     1      -1.125  47.193  10.837  1.00  0.00    -0.391 OA
ATOM     24  H   UNL     1      -1.188  47.780  10.041  1.00  0.00     0.210 HD
ENDBRANCH  22  23
ENDBRANCH  17  22
BRANCH  18  25
ATOM     25  O   UNL     1       0.062  44.626   7.077  1.00  0.00    -0.385 OA
ATOM     26  H   UNL     1      -0.516  44.258   6.358  1.00  0.00     0.211 HD
ENDBRANCH  18  25
BRANCH  20  27
ATOM     27  O   UNL     1      -0.865  46.755   5.865  1.00  0.00    -0.387 OA
ATOM     28  H   UNL     1      -0.003  47.157   5.586  1.00  0.00     0.211 HD
ENDBRANCH  20  27
BRANCH  21  29
ATOM     29  C   UNL     1       0.043  49.053   8.007  1.00  0.00     0.191 C 
BRANCH  29  30
ATOM     30  O   UNL     1       1.166  49.805   7.635  1.00  0.00    -0.394 OA
ATOM     31  H   UNL     1       1.075  50.691   8.077  1.00  0.00     0.210 HD
ENDBRANCH  29  30
ENDBRANCH  21  29
ENDBRANCH   1  17
TORSDOF 13
ENDMDL
MODEL 4
REMARK VINA RESULT:    -4.455      1.539      6.029
REMARK INTER + INTRA:          -7.712
REMARK INTER:                  -6.629
REMARK INTRA:                  -1.082
REMARK UNBOUND:                -0.912
REMARK SMILES OC[C@@H]1O[C@@H](O[C@@]2(CO)O[C@H](CO)[C@@H](O)[C@H]2O)[C@H](O)[C@H](O)[C@H]1O
REMARK SMILES IDX 6 1 5 2 3 3 22 4 4 5 20 6 18 7 2 8 1 9 23 11 21 13 19 15
REMARK SMILES IDX 7 17 16 18 10 19 14 20 11 21 8 22 9 23 17 25 15 27 12 29
REMARK SMILES IDX 13 30
REMARK H PARENT 1 10 23 12 21 14 19 16 9 24 17 26 15 28 13 31
REMARK Flexibility Score: inf
ROOT
ATOM      1  O   UNL     1       2.022  45.775   8.767  1.00  0.00    -0.313 OA
ENDROOT
BRANCH   1   2
ATOM      2  C   UNL     1       0.730  45.602   9.336  1.00  0.00     0.285 C 
ATOM      3  C   UNL     1      -0.261  45.286   7.223  1.00  0.00     0.178 C 
ATOM      4  C   UNL     1      -1.009  46.641   7.275  1.00  0.00     0.177 C 
ATOM      5  O   UNL     1      -0.088  44.763   8.532  1.00  0.00    -0.341 OA
ATOM      6  C   UNL     1      -0.238  47.621   8.177  1.00  0.00     0.179 C 
ATOM      7  C   UNL     1       0.062  46.972   9.540  1.00  0.00     0.202 C 
BRANCH   3   8
ATOM      8  C   UNL     1      -1.035  44.242   6.402  1.00  0.00     0.191 C 
BRANCH   8   9
ATOM      9  O   UNL     1      -0.773  44.376   5.030  1.00  0.00    -0.394 OA
ATOM     10  H   UNL     1      -1.620  44.163   4.556  1.00  0.00     0.210 HD
ENDBRANCH   8   9
ENDBRANCH   3   8
BRANCH   4  11
ATOM     11  O   UNL     1      -1.106  47.194   5.986  1.00  0.00    -0.387 OA
ATOM     12  H   UNL     1      -1.467  48.114   6.085  1.00  0.00     0.211 HD
ENDBRANCH   4  11
BRANCH   6  13
ATOM     13  O   UNL     1      -0.980  48.798   8.366  1.00  0.00    -0.387 OA
ATOM     14  H   UNL     1      -1.936  48.534   8.402  1.00  0.00     0.211 HD
ENDBRANCH   6  13
BRANCH   7  15
ATOM     15  O   UNL     1      -1.125  46.798  10.273  1.00  0.00    -0.385 OA
ATOM     16  H   UNL     1      -1.484  45.903  10.037  1.00  0.00     0.211 HD
ENDBRANCH   7  15
ENDBRANCH   1   2
BRANCH   1  17
ATOM     17  C   UNL     1       3.081  45.277   9.583  1.00  0.00     0.224 C 
ATOM     18  C   UNL     1       3.469  43.869   9.086  1.00  0.00     0.208 C 
ATOM     19  O   UNL     1       2.694  45.170  10.946  1.00  0.00    -0.337 OA
ATOM     20  C   UNL     1       3.825  43.154  10.364  1.00  0.00     0.180 C 
ATOM     21  C   UNL     1       2.931  43.850  11.384  1.00  0.00     0.179 C 
BRANCH  17  22
ATOM     22  C   UNL     1       4.299  46.224   9.491  1.00  0.00     0.225 C 
BRANCH  22  23
ATOM     23  O   UNL     1       4.588  46.771  10.749  1.00  0.00    -0.391 OA
ATOM     24  H   UNL     1       3.776  47.267  11.028  1.00  0.00     0.210 HD
ENDBRANCH  22  23
ENDBRANCH  17  22
BRANCH  18  25
ATOM     25  O   UNL     1       2.366  43.251   8.466  1.00  0.00    -0.385 OA
ATOM     26  H   UNL     1       2.728  42.572   7.839  1.00  0.00     0.211 HD
ENDBRANCH  18  25
BRANCH  20  27
ATOM     27  O   UNL     1       3.546  41.780  10.284  1.00  0.00    -0.387 OA
ATOM     28  H   UNL     1       2.586  41.669  10.506  1.00  0.00     0.211 HD
ENDBRANCH  20  27
BRANCH  21  29
ATOM     29  C   UNL     1       3.555  43.887  12.785  1.00  0.00     0.191 C 
BRANCH  29  30
ATOM     30  O   UNL     1       4.869  44.374  12.740  1.00  0.00    -0.394 OA
ATOM     31  H   UNL     1       4.926  44.964  11.942  1.00  0.00     0.210 HD
ENDBRANCH  29  30
ENDBRANCH  21  29
ENDBRANCH   1  17
TORSDOF 13
ENDMDL
MODEL 5
REMARK VINA RESULT:    -4.246      1.575      3.317
REMARK INTER + INTRA:          -7.392
REMARK INTER:                  -8.580
REMARK INTRA:                   1.188
REMARK UNBOUND:                -0.912
REMARK SMILES OC[C@@H]1O[C@@H](O[C@@]2(CO)O[C@H](CO)[C@@H](O)[C@H]2O)[C@H](O)[C@H](O)[C@H]1O
REMARK SMILES IDX 6 1 5 2 3 3 22 4 4 5 20 6 18 7 2 8 1 9 23 11 21 13 19 15
REMARK SMILES IDX 7 17 16 18 10 19 14 20 11 21 8 22 9 23 17 25 15 27 12 29
REMARK SMILES IDX 13 30
REMARK H PARENT 1 10 23 12 21 14 19 16 9 24 17 26 15 28 13 31
REMARK Flexibility Score: inf
ROOT
ATOM      1  O   UNL     1       1.192  44.576  10.586  1.00  0.00    -0.313 OA
ENDROOT
BRANCH   1   2
ATOM      2  C   UNL     1       2.199  44.104   9.698  1.00  0.00     0.285 C 
ATOM      3  C   UNL     1       3.129  42.703  11.347  1.00  0.00     0.178 C 
ATOM      4  C   UNL     1       4.408  43.566  11.481  1.00  0.00     0.177 C 
ATOM      5  O   UNL     1       2.611  42.784  10.027  1.00  0.00    -0.341 OA
ATOM      6  C   UNL     1       4.093  45.020  11.087  1.00  0.00     0.179 C 
ATOM      7  C   UNL     1       3.399  45.064   9.713  1.00  0.00     0.202 C 
BRANCH   3   8
ATOM      8  C   UNL     1       3.410  41.222  11.648  1.00  0.00     0.191 C 
BRANCH   8   9
ATOM      9  O   UNL     1       4.776  40.999  11.877  1.00  0.00    -0.394 OA
ATOM     10  H   UNL     1       4.839  40.216  12.486  1.00  0.00     0.210 HD
ENDBRANCH   8   9
ENDBRANCH   3   8
BRANCH   4  11
ATOM     11  O   UNL     1       4.872  43.548  12.808  1.00  0.00    -0.387 OA
ATOM     12  H   UNL     1       4.257  42.966  13.328  1.00  0.00     0.211 HD
ENDBRANCH   4  11
BRANCH   6  13
ATOM     13  O   UNL     1       5.272  45.782  11.046  1.00  0.00    -0.387 OA
ATOM     14  H   UNL     1       5.756  45.522  10.220  1.00  0.00     0.211 HD
ENDBRANCH   6  13
BRANCH   7  15
ATOM     15  O   UNL     1       4.297  44.691   8.697  1.00  0.00    -0.385 OA
ATOM     16  H   UNL     1       3.992  43.814   8.348  1.00  0.00     0.211 HD
ENDBRANCH   7  15
ENDBRANCH   1   2
BRANCH   1  17
ATOM     17  C   UNL     1       0.358  45.587  10.024  1.00  0.00     0.224 C 
ATOM     18  C   UNL     1      -0.152  45.103   8.651  1.00  0.00     0.208 C 
ATOM     19  O   UNL     1       1.063  46.805   9.826  1.00  0.00    -0.337 OA
ATOM     20  C   UNL     1      -0.195  46.377   7.846  1.00  0.00     0.180 C 
ATOM     21  C   UNL     1       0.926  47.195   8.477  1.00  0.00     0.179 C 
BRANCH  17  22
ATOM     22  C   UNL     1      -0.837  45.859  10.966  1.00  0.00     0.225 C 
BRANCH  22  23
ATOM     23  O   UNL     1      -0.786  45.007  12.078  1.00  0.00    -0.391 OA
ATOM     24  H   UNL     1      -1.612  44.460  12.046  1.00  0.00     0.210 HD
ENDBRANCH  22  23
ENDBRANCH  17  22
BRANCH  18  25
ATOM     25  O   UNL     1       0.762  44.193   8.086  1.00  0.00    -0.385 OA
ATOM     26  H   UNL     1       0.753  43.381   8.657  1.00  0.00     0.211 HD
ENDBRANCH  18  25
BRANCH  20  27
ATOM     27  O   UNL     1       0.044  46.136   6.483  1.00  0.00    -0.387 OA
ATOM     28  H   UNL     1      -0.641  46.646   5.978  1.00  0.00     0.211 HD
ENDBRANCH  20  27
BRANCH  21  29
ATOM     29  C   UNL     1       0.662  48.705   8.411  1.00  0.00     0.191 C 
BRANCH  29  30
ATOM     30  O   UNL     1       1.661  49.360   7.678  1.00  0.00    -0.394 OA
ATOM     31  H   UNL     1       1.717  50.285   8.037  1.00  0.00     0.210 HD
ENDBRANCH  29  30
ENDBRANCH  21  29
ENDBRANCH   1  17
TORSDOF 13
ENDMDL
MODEL 6
REMARK VINA RESULT:    -4.195      1.353      2.687
REMARK INTER + INTRA:          -7.315
REMARK INTER:                  -6.483
REMARK INTRA:                  -0.832
REMARK UNBOUND:                -0.912
REMARK SMILES OC[C@@H]1O[C@@H](O[C@@]2(CO)O[C@H](CO)[C@@H](O)[C@H]2O)[C@H](O)[C@H](O)[C@H]1O
REMARK SMILES IDX 6 1 5 2 3 3 22 4 4 5 20 6 18 7 2 8 1 9 23 11 21 13 19 15
REMARK SMILES IDX 7 17 16 18 10 19 14 20 11 21 8 22 9 23 17 25 15 27 12 29
REMARK SMILES IDX 13 30
REMARK H PARENT 1 10 23 12 21 14 19 16 9 24 17 26 15 28 13 31
REMARK Flexibility Score: inf
ROOT
ATOM      1  O   UNL     1       1.474  45.681   9.770  1.00  0.00    -0.313 OA
ENDROOT
BRANCH   1   2
ATOM      2  C   UNL     1       2.035  44.420   9.429  1.00  0.00     0.285 C 
ATOM      3  C   UNL     1       1.819  43.620  11.634  1.00  0.00     0.178 C 
ATOM      4  C   UNL     1       3.348  43.631  11.879  1.00  0.00     0.177 C 
ATOM      5  O   UNL     1       1.537  43.382  10.262  1.00  0.00    -0.341 OA
ATOM      6  C   UNL     1       4.008  44.687  10.975  1.00  0.00     0.179 C 
ATOM      7  C   UNL     1       3.569  44.491   9.513  1.00  0.00     0.202 C 
BRANCH   3   8
ATOM      8  C   UNL     1       1.121  42.522  12.451  1.00  0.00     0.191 C 
BRANCH   8   9
ATOM      9  O   UNL     1       1.897  41.355  12.505  1.00  0.00    -0.394 OA
ATOM     10  H   UNL     1       2.421  41.400  13.348  1.00  0.00     0.210 HD
ENDBRANCH   8   9
ENDBRANCH   3   8
BRANCH   4  11
ATOM     11  O   UNL     1       3.624  43.948  13.221  1.00  0.00    -0.387 OA
ATOM     12  H   UNL     1       4.117  43.178  13.611  1.00  0.00     0.211 HD
ENDBRANCH   4  11
BRANCH   6  13
ATOM     13  O   UNL     1       5.407  44.601  11.064  1.00  0.00    -0.387 OA
ATOM     14  H   UNL     1       5.762  44.703  10.143  1.00  0.00     0.211 HD
ENDBRANCH   6  13
BRANCH   7  15
ATOM     15  O   UNL     1       4.112  43.303   8.991  1.00  0.00    -0.385 OA
ATOM     16  H   UNL     1       4.760  42.961   9.661  1.00  0.00     0.211 HD
ENDBRANCH   7  15
ENDBRANCH   1   2
BRANCH   1  17
ATOM     17  C   UNL     1       0.927  46.388   8.658  1.00  0.00     0.224 C 
ATOM     18  C   UNL     1       2.036  47.256   8.029  1.00  0.00     0.208 C 
ATOM     19  O   UNL     1      -0.135  47.248   9.048  1.00  0.00    -0.337 OA
ATOM     20  C   UNL     1       1.283  48.482   7.581  1.00  0.00     0.180 C 
ATOM     21  C   UNL     1       0.150  48.555   8.600  1.00  0.00     0.179 C 
BRANCH  17  22
ATOM     22  C   UNL     1       0.388  45.382   7.616  1.00  0.00     0.225 C 
BRANCH  22  23
ATOM     23  O   UNL     1      -0.955  45.656   7.323  1.00  0.00    -0.391 OA
ATOM     24  H   UNL     1      -0.975  45.968   6.382  1.00  0.00     0.210 HD
ENDBRANCH  22  23
ENDBRANCH  17  22
BRANCH  18  25
ATOM     25  O   UNL     1       2.998  47.595   8.999  1.00  0.00    -0.385 OA
ATOM     26  H   UNL     1       3.785  47.009   8.845  1.00  0.00     0.211 HD
ENDBRANCH  18  25
BRANCH  20  27
ATOM     27  O   UNL     1       2.091  49.631   7.623  1.00  0.00    -0.387 OA
ATOM     28  H   UNL     1       2.759  49.485   8.341  1.00  0.00     0.211 HD
ENDBRANCH  20  27
BRANCH  21  29
ATOM     29  C   UNL     1      -1.124  49.180   8.019  1.00  0.00     0.191 C 
BRANCH  29  30
ATOM     30  O   UNL     1      -0.819  50.271   7.193  1.00  0.00    -0.394 OA
ATOM     31  H   UNL     1      -0.869  49.941   6.256  1.00  0.00     0.210 HD
ENDBRANCH  29  30
ENDBRANCH  21  29
ENDBRANCH   1  17
TORSDOF 13
ENDMDL
MODEL 7
REMARK VINA RESULT:    -4.109      2.359      4.276
REMARK INTER + INTRA:          -7.183
REMARK INTER:                  -6.504
REMARK INTRA:                  -0.679
REMARK UNBOUND:                -0.912
REMARK SMILES OC[C@@H]1O[C@@H](O[C@@]2(CO)O[C@H](CO)[C@@H](O)[C@H]2O)[C@H](O)[C@H](O)[C@H]1O
REMARK SMILES IDX 6 1 5 2 3 3 22 4 4 5 20 6 18 7 2 8 1 9 23 11 21 13 19 15
REMARK SMILES IDX 7 17 16 18 10 19 14 20 11 21 8 22 9 23 17 25 15 27 12 29
REMARK SMILES IDX 13 30
REMARK H PARENT 1 10 23 12 21 14 19 16 9 24 17 26 15 28 13 31
REMARK Flexibility Score: inf
ROOT
ATOM      1  O   UNL     1       2.452  42.143  10.608  1.00  0.00    -0.313 OA
ENDROOT
BRANCH   1   2
ATOM      2  C   UNL     1       2.547  42.397  12.004  1.00  0.00     0.285 C 
ATOM      3  C   UNL     1       3.787  40.429  12.374  1.00  0.00     0.178 C 
ATOM      4  C   UNL     1       2.624  39.734  13.124  1.00  0.00     0.177 C 
ATOM      5  O   UNL     1       3.729  41.835  12.559  1.00  0.00    -0.341 OA
ATOM      6  C   UNL     1       1.282  40.312  12.643  1.00  0.00     0.179 C 
ATOM      7  C   UNL     1       1.301  41.849  12.720  1.00  0.00     0.202 C 
BRANCH   3   8
ATOM      8  C   UNL     1       5.157  39.948  12.879  1.00  0.00     0.191 C 
BRANCH   8   9
ATOM      9  O   UNL     1       5.020  39.067  13.962  1.00  0.00    -0.394 OA
ATOM     10  H   UNL     1       4.552  38.261  13.617  1.00  0.00     0.210 HD
ENDBRANCH   8   9
ENDBRANCH   3   8
BRANCH   4  11
ATOM     11  O   UNL     1       2.638  38.351  12.871  1.00  0.00    -0.387 OA
ATOM     12  H   UNL     1       2.728  37.891  13.747  1.00  0.00     0.211 HD
ENDBRANCH   4  11
BRANCH   6  13
ATOM     13  O   UNL     1       0.227  39.812  13.424  1.00  0.00    -0.387 OA
ATOM     14  H   UNL     1       0.557  38.985  13.860  1.00  0.00     0.211 HD
ENDBRANCH   6  13
BRANCH   7  15
ATOM     15  O   UNL     1       1.320  42.274  14.061  1.00  0.00    -0.385 OA
ATOM     16  H   UNL     1       0.615  41.764  14.537  1.00  0.00     0.211 HD
ENDBRANCH   7  15
ENDBRANCH   1   2
BRANCH   1  17
ATOM     17  C   UNL     1       2.482  43.322   9.805  1.00  0.00     0.224 C 
ATOM     18  C   UNL     1       3.950  43.648   9.459  1.00  0.00     0.208 C 
ATOM     19  O   UNL     1       1.934  44.442  10.488  1.00  0.00    -0.337 OA
ATOM     20  C   UNL     1       3.964  45.154   9.460  1.00  0.00     0.180 C 
ATOM     21  C   UNL     1       2.882  45.487  10.482  1.00  0.00     0.179 C 
BRANCH  17  22
ATOM     22  C   UNL     1       1.672  43.091   8.510  1.00  0.00     0.225 C 
BRANCH  22  23
ATOM     23  O   UNL     1       0.832  44.185   8.259  1.00  0.00    -0.391 OA
ATOM     24  H   UNL     1      -0.029  43.981   8.706  1.00  0.00     0.210 HD
ENDBRANCH  22  23
ENDBRANCH  17  22
BRANCH  18  25
ATOM     25  O   UNL     1       4.808  43.146  10.456  1.00  0.00    -0.385 OA
ATOM     26  H   UNL     1       5.690  43.583  10.326  1.00  0.00     0.211 HD
ENDBRANCH  18  25
BRANCH  20  27
ATOM     27  O   UNL     1       5.215  45.661   9.849  1.00  0.00    -0.387 OA
ATOM     28  H   UNL     1       5.134  45.925  10.802  1.00  0.00     0.211 HD
ENDBRANCH  20  27
BRANCH  21  29
ATOM     29  C   UNL     1       2.171  46.812  10.178  1.00  0.00     0.191 C 
BRANCH  29  30
ATOM     30  O   UNL     1       2.936  47.606   9.312  1.00  0.00    -0.394 OA
ATOM     31  H   UNL     1       3.658  47.024   8.955  1.00  0.00     0.210 HD
ENDBRANCH  29  30
ENDBRANCH  21  29
ENDBRANCH   1  17
TORSDOF 13
ENDMDL
MODEL 8
REMARK VINA RESULT:    -3.965      2.723      7.305
REMARK INTER + INTRA:          -6.964
REMARK INTER:                  -7.340
REMARK INTRA:                   0.376
REMARK UNBOUND:                -0.912
REMARK SMILES OC[C@@H]1O[C@@H](O[C@@]2(CO)O[C@H](CO)[C@@H](O)[C@H]2O)[C@H](O)[C@H](O)[C@H]1O
REMARK SMILES IDX 6 1 5 2 3 3 22 4 4 5 20 6 18 7 2 8 1 9 23 11 21 13 19 15
REMARK SMILES IDX 7 17 16 18 10 19 14 20 11 21 8 22 9 23 17 25 15 27 12 29
REMARK SMILES IDX 13 30
REMARK H PARENT 1 10 23 12 21 14 19 16 9 24 17 26 15 28 13 31
REMARK Flexibility Score: inf
ROOT
ATOM      1  O   UNL     1       3.165  41.932  11.242  1.00  0.00    -0.313 OA
ENDROOT
BRANCH   1   2
ATOM      2  C   UNL     1       3.345  43.194  11.874  1.00  0.00     0.285 C 
ATOM      3  C   UNL     1       1.456  44.105  10.801  1.00  0.00     0.178 C 
ATOM      4  C   UNL     1       2.308  45.036   9.903  1.00  0.00     0.177 C 
ATOM      5  O   UNL     1       2.110  43.877  12.041  1.00  0.00    -0.341 OA
ATOM      6  C   UNL     1       3.704  44.421   9.701  1.00  0.00     0.179 C 
ATOM      7  C   UNL     1       4.328  44.050  11.058  1.00  0.00     0.202 C 
BRANCH   3   8
ATOM      8  C   UNL     1       0.079  44.715  11.106  1.00  0.00     0.191 C 
BRANCH   8   9
ATOM      9  O   UNL     1      -0.038  46.005  10.567  1.00  0.00    -0.394 OA
ATOM     10  H   UNL     1       0.794  46.174  10.050  1.00  0.00     0.210 HD
ENDBRANCH   8   9
ENDBRANCH   3   8
BRANCH   4  11
ATOM     11  O   UNL     1       1.697  45.194   8.647  1.00  0.00    -0.387 OA
ATOM     12  H   UNL     1       0.815  45.626   8.800  1.00  0.00     0.211 HD
ENDBRANCH   4  11
BRANCH   6  13
ATOM     13  O   UNL     1       4.542  45.323   9.025  1.00  0.00    -0.387 OA
ATOM     14  H   UNL     1       4.087  45.559   8.176  1.00  0.00     0.211 HD
ENDBRANCH   6  13
BRANCH   7  15
ATOM     15  O   UNL     1       4.641  45.209  11.789  1.00  0.00    -0.385 OA
ATOM     16  H   UNL     1       4.177  45.966  11.346  1.00  0.00     0.211 HD
ENDBRANCH   7  15
ENDBRANCH   1   2
BRANCH   1  17
ATOM     17  C   UNL     1       2.823  40.881  12.145  1.00  0.00     0.224 C 
ATOM     18  C   UNL     1       4.034  40.599  13.058  1.00  0.00     0.208 C 
ATOM     19  O   UNL     1       2.503  39.678  11.459  1.00  0.00    -0.337 OA
ATOM     20  C   UNL     1       3.957  39.108  13.260  1.00  0.00     0.180 C 
ATOM     21  C   UNL     1       3.315  38.639  11.959  1.00  0.00     0.179 C 
BRANCH  17  22
ATOM     22  C   UNL     1       1.605  41.301  12.996  1.00  0.00     0.225 C 
BRANCH  22  23
ATOM     23  O   UNL     1       1.126  40.210  13.735  1.00  0.00    -0.391 OA
ATOM     24  H   UNL     1       0.902  40.562  14.634  1.00  0.00     0.210 HD
ENDBRANCH  22  23
ENDBRANCH  17  22
BRANCH  18  25
ATOM     25  O   UNL     1       5.230  40.947  12.402  1.00  0.00    -0.385 OA
ATOM     26  H   UNL     1       5.977  40.612  12.964  1.00  0.00     0.211 HD
ENDBRANCH  18  25
BRANCH  20  27
ATOM     27  O   UNL     1       5.230  38.543  13.442  1.00  0.00    -0.387 OA
ATOM     28  H   UNL     1       5.386  38.496  14.421  1.00  0.00     0.211 HD
ENDBRANCH  20  27
BRANCH  21  29
ATOM     29  C   UNL     1       2.464  37.376  12.144  1.00  0.00     0.191 C 
BRANCH  29  30
ATOM     30  O   UNL     1       2.942  36.325  11.349  1.00  0.00    -0.394 OA
ATOM     31  H   UNL     1       2.785  35.487  11.860  1.00  0.00     0.210 HD
ENDBRANCH  29  30
ENDBRANCH  21  29
ENDBRANCH   1  17
TORSDOF 13
ENDMDL
MODEL 9
REMARK VINA RESULT:    -3.914      1.922      5.743
REMARK INTER + INTRA:          -6.886
REMARK INTER:                  -7.031
REMARK INTRA:                   0.145
REMARK UNBOUND:                -0.912
REMARK SMILES OC[C@@H]1O[C@@H](O[C@@]2(CO)O[C@H](CO)[C@@H](O)[C@H]2O)[C@H](O)[C@H](O)[C@H]1O
REMARK SMILES IDX 6 1 5 2 3 3 22 4 4 5 20 6 18 7 2 8 1 9 23 11 21 13 19 15
REMARK SMILES IDX 7 17 16 18 10 19 14 20 11 21 8 22 9 23 17 25 15 27 12 29
REMARK SMILES IDX 13 30
REMARK H PARENT 1 10 23 12 21 14 19 16 9 24 17 26 15 28 13 31
REMARK Flexibility Score: inf
ROOT
ATOM      1  O   UNL     1       2.689  44.803   9.137  1.00  0.00    -0.313 OA
ENDROOT
BRANCH   1   2
ATOM      2  C   UNL     1       2.883  45.920   9.996  1.00  0.00     0.285 C 
ATOM      3  C   UNL     1       2.286  47.446   8.304  1.00  0.00     0.178 C 
ATOM      4  C   UNL     1       3.730  47.986   8.163  1.00  0.00     0.177 C 
ATOM      5  O   UNL     1       2.046  47.011   9.635  1.00  0.00    -0.341 OA
ATOM      6  C   UNL     1       4.732  46.899   8.590  1.00  0.00     0.179 C 
ATOM      7  C   UNL     1       4.361  46.344   9.977  1.00  0.00     0.202 C 
BRANCH   3   8
ATOM      8  C   UNL     1       1.242  48.523   7.970  1.00  0.00     0.191 C 
BRANCH   8   9
ATOM      9  O   UNL     1       1.852  49.701   7.516  1.00  0.00    -0.394 OA
ATOM     10  H   UNL     1       1.141  50.394   7.477  1.00  0.00     0.210 HD
ENDBRANCH   8   9
ENDBRANCH   3   8
BRANCH   4  11
ATOM     11  O   UNL     1       3.990  48.340   6.827  1.00  0.00    -0.387 OA
ATOM     12  H   UNL     1       4.439  49.226   6.838  1.00  0.00     0.211 HD
ENDBRANCH   4  11
BRANCH   6  13
ATOM     13  O   UNL     1       6.035  47.421   8.623  1.00  0.00    -0.387 OA
ATOM     14  H   UNL     1       6.058  48.182   7.987  1.00  0.00     0.211 HD
ENDBRANCH   6  13
BRANCH   7  15
ATOM     15  O   UNL     1       4.571  47.318  10.969  1.00  0.00    -0.385 OA
ATOM     16  H   UNL     1       3.997  48.094  10.740  1.00  0.00     0.211 HD
ENDBRANCH   7  15
ENDBRANCH   1   2
BRANCH   1  17
ATOM     17  C   UNL     1       2.868  43.543   9.781  1.00  0.00     0.224 C 
ATOM     18  C   UNL     1       1.586  43.204  10.570  1.00  0.00     0.208 C 
ATOM     19  O   UNL     1       3.954  43.567  10.698  1.00  0.00    -0.337 OA
ATOM     20  C   UNL     1       2.124  42.492  11.785  1.00  0.00     0.180 C 
ATOM     21  C   UNL     1       3.491  43.143  11.962  1.00  0.00     0.179 C 
BRANCH  17  22
ATOM     22  C   UNL     1       3.142  42.451   8.723  1.00  0.00     0.225 C 
BRANCH  22  23
ATOM     23  O   UNL     1       4.264  42.789   7.952  1.00  0.00    -0.391 OA
ATOM     24  H   UNL     1       4.134  43.731   7.673  1.00  0.00     0.210 HD
ENDBRANCH  22  23
ENDBRANCH  17  22
BRANCH  18  25
ATOM     25  O   UNL     1       0.919  44.386  10.946  1.00  0.00    -0.385 OA
ATOM     26  H   UNL     1      -0.001  44.127  11.212  1.00  0.00     0.211 HD
ENDBRANCH  18  25
BRANCH  20  27
ATOM     27  O   UNL     1       1.305  42.695  12.908  1.00  0.00    -0.387 OA
ATOM     28  H   UNL     1       1.577  42.023  13.585  1.00  0.00     0.211 HD
ENDBRANCH  20  27
BRANCH  21  29
ATOM     29  C   UNL     1       4.520  42.190  12.584  1.00  0.00     0.191 C 
BRANCH  29  30
ATOM     30  O   UNL     1       4.536  40.959  11.914  1.00  0.00    -0.394 OA
ATOM     31  H   UNL     1       3.719  40.932  11.348  1.00  0.00     0.210 HD
ENDBRANCH  29  30
ENDBRANCH  21  29
ENDBRANCH   1  17
TORSDOF 13
ENDMDL
