MODEL 1
REMARK VINA RESULT:    -2.879      0.000      0.000
REMARK INTER + INTRA:          -3.131
REMARK INTER:                  -3.131
REMARK INTRA:                   0.000
REMARK UNBOUND:                 0.000
REMARK SMILES [NH3+]CC(=O)[O-]
REMARK SMILES IDX 2 1 1 2 3 6 4 7 5 8
REMARK H PARENT 1 3 1 4 1 5
REMARK Flexibility Score: inf
ROOT
ATOM      1  C   UNL     1      34.362   5.128  -6.164  1.00  0.00     0.312 C 
ENDROOT
BRANCH   1   2
ATOM      2  N   UNL     1      32.948   5.088  -6.532  1.00  0.00    -0.353 N 
ATOM      3  H   UNL     1      32.617   4.097  -6.581  1.00  0.00     0.344 HD
ATOM      4  H   UNL     1      32.806   5.554  -7.458  1.00  0.00     0.344 HD
ATOM      5  H   UNL     1      32.392   5.596  -5.807  1.00  0.00     0.344 HD
ENDBRANCH   1   2
BRANCH   1   6
ATOM      6  C   UNL     1      35.181   4.325  -7.127  1.00  0.00     0.096 C 
ATOM      7  O   UNL     1      34.734   3.244  -7.592  1.00  0.00    -0.544 OA
ATOM      8  O   UNL     1      36.459   4.747  -7.473  1.00  0.00    -0.544 OA
ENDBRANCH   1   6
TORSDOF 2
ENDMDL
MODEL 2
REMARK VINA RESULT:    -2.860      0.193      1.461
REMARK INTER + INTRA:          -3.111
REMARK INTER:                  -3.111
REMARK INTRA:                   0.000
REMARK UNBOUND:                 0.000
REMARK SMILES [NH3+]CC(=O)[O-]
REMARK SMILES IDX 2 1 1 2 3 6 4 7 5 8
REMARK H PARENT 1 3 1 4 1 5
REMARK Flexibility Score: inf
ROOT
ATOM      1  C   UNL     1      34.452   5.350  -6.405  1.00  0.00     0.312 C 
ENDROOT
BRANCH   1   2
ATOM      2  N   UNL     1      33.026   5.034  -6.448  1.00  0.00    -0.353 N 
ATOM      3  H   UNL     1      32.506   5.621  -5.755  1.00  0.00     0.344 HD
ATOM      4  H   UNL     1      32.877   4.020  -6.236  1.00  0.00     0.344 HD
ATOM      5  H   UNL     1      32.660   5.236  -7.407  1.00  0.00     0.344 HD
ENDBRANCH   1   2
BRANCH   1   6
ATOM      6  C   UNL     1      35.237   4.357  -7.205  1.00  0.00     0.096 C 
ATOM      7  O   UNL     1      36.406   4.631  -7.585  1.00  0.00    -0.544 OA
ATOM      8  O   UNL     1      34.658   3.149  -7.575  1.00  0.00    -0.544 OA
ENDBRANCH   1   6
TORSDOF 2
ENDMDL
MODEL 3
REMARK VINA RESULT:    -2.851      2.049      2.168
REMARK INTER + INTRA:          -3.101
REMARK INTER:                  -3.101
REMARK INTRA:                   0.000
REMARK UNBOUND:                 0.000
REMARK SMILES [NH3+]CC(=O)[O-]
REMARK SMILES IDX 2 1 1 2 3 6 4 7 5 8
REMARK H PARENT 1 3 1 4 1 5
REMARK Flexibility Score: inf
ROOT
ATOM      1  C   UNL     1      34.283   5.053  -6.136  1.00  0.00     0.312 C 
ENDROOT
BRANCH   1   2
ATOM      2  N   UNL     1      35.640   5.595  -6.149  1.00  0.00    -0.353 N 
ATOM      3  H   UNL     1      35.710   6.372  -6.846  1.00  0.00     0.344 HD
ATOM      4  H   UNL     1      36.325   4.841  -6.388  1.00  0.00     0.344 HD
ATOM      5  H   UNL     1      35.867   5.970  -5.199  1.00  0.00     0.344 HD
ENDBRANCH   1   2
BRANCH   1   6
ATOM      6  C   UNL     1      33.780   4.856  -7.533  1.00  0.00     0.096 C 
ATOM      7  O   UNL     1      33.863   3.726  -8.083  1.00  0.00    -0.544 OA
ATOM      8  O   UNL     1      33.267   5.933  -8.245  1.00  0.00    -0.544 OA
ENDBRANCH   1   6
TORSDOF 2
ENDMDL
MODEL 4
REMARK VINA RESULT:    -2.778     10.674     10.864
REMARK INTER + INTRA:          -3.022
REMARK INTER:                  -3.022
REMARK INTRA:                   0.000
REMARK UNBOUND:                 0.000
REMARK SMILES [NH3+]CC(=O)[O-]
REMARK SMILES IDX 2 1 1 2 3 6 4 7 5 8
REMARK H PARENT 1 3 1 4 1 5
REMARK Flexibility Score: inf
ROOT
ATOM      1  C   UNL     1      26.531  -1.638  -2.874  1.00  0.00     0.312 C 
ENDROOT
BRANCH   1   2
ATOM      2  N   UNL     1      25.123  -1.510  -3.245  1.00  0.00    -0.353 N 
ATOM      3  H   UNL     1      25.031  -0.934  -4.113  1.00  0.00     0.344 HD
ATOM      4  H   UNL     1      24.585  -1.066  -2.465  1.00  0.00     0.344 HD
ATOM      5  H   UNL     1      24.730  -2.462  -3.427  1.00  0.00     0.344 HD
ENDBRANCH   1   2
BRANCH   1   6
ATOM      6  C   UNL     1      26.998  -0.414  -2.149  1.00  0.00     0.096 C 
ATOM      7  O   UNL     1      27.809  -0.516  -1.190  1.00  0.00    -0.544 OA
ATOM      8  O   UNL     1      26.498   0.835  -2.498  1.00  0.00    -0.544 OA
ENDBRANCH   1   6
TORSDOF 2
ENDMDL
MODEL 5
REMARK VINA RESULT:    -2.739     12.560     12.972
REMARK INTER + INTRA:          -2.979
REMARK INTER:                  -2.979
REMARK INTRA:                   0.000
REMARK UNBOUND:                 0.000
REMARK SMILES [NH3+]CC(=O)[O-]
REMARK SMILES IDX 2 1 1 2 3 6 4 7 5 8
REMARK H PARENT 1 3 1 4 1 5
REMARK Flexibility Score: inf
ROOT
ATOM      1  C   UNL     1      26.110  -2.316  -2.872  1.00  0.00     0.312 C 
ENDROOT
BRANCH   1   2
ATOM      2  N   UNL     1      25.184  -1.262  -3.281  1.00  0.00    -0.353 N 
ATOM      3  H   UNL     1      24.939  -0.660  -2.462  1.00  0.00     0.344 HD
ATOM      4  H   UNL     1      24.315  -1.684  -3.684  1.00  0.00     0.344 HD
ATOM      5  H   UNL     1      25.642  -0.670  -4.012  1.00  0.00     0.344 HD
ENDBRANCH   1   2
BRANCH   1   6
ATOM      6  C   UNL     1      25.374  -3.430  -2.192  1.00  0.00     0.096 C 
ATOM      7  O   UNL     1      24.259  -3.213  -1.649  1.00  0.00    -0.544 OA
ATOM      8  O   UNL     1      25.944  -4.695  -2.116  1.00  0.00    -0.544 OA
ENDBRANCH   1   6
TORSDOF 2
ENDMDL
MODEL 6
REMARK VINA RESULT:    -2.722      2.456      2.696
REMARK INTER + INTRA:          -2.961
REMARK INTER:                  -2.961
REMARK INTRA:                   0.000
REMARK UNBOUND:                 0.000
REMARK SMILES [NH3+]CC(=O)[O-]
REMARK SMILES IDX 2 1 1 2 3 6 4 7 5 8
REMARK H PARENT 1 3 1 4 1 5
REMARK Flexibility Score: inf
ROOT
ATOM      1  C   UNL     1      34.145   3.837  -8.265  1.00  0.00     0.312 C 
ENDROOT
BRANCH   1   2
ATOM      2  N   UNL     1      34.208   2.829  -7.209  1.00  0.00    -0.353 N 
ATOM      3  H   UNL     1      33.300   2.793  -6.692  1.00  0.00     0.344 HD
ATOM      4  H   UNL     1      34.985   3.053  -6.545  1.00  0.00     0.344 HD
ATOM      5  H   UNL     1      34.390   1.894  -7.640  1.00  0.00     0.344 HD
ENDBRANCH   1   2
BRANCH   1   6
ATOM      6  C   UNL     1      33.860   5.189  -7.687  1.00  0.00     0.096 C 
ATOM      7  O   UNL     1      34.250   5.477  -6.524  1.00  0.00    -0.544 OA
ATOM      8  O   UNL     1      33.121   6.114  -8.414  1.00  0.00    -0.544 OA
ENDBRANCH   1   6
TORSDOF 2
ENDMDL
MODEL 7
REMARK VINA RESULT:    -2.696     10.548     10.689
REMARK INTER + INTRA:          -2.933
REMARK INTER:                  -2.933
REMARK INTRA:                   0.000
REMARK UNBOUND:                 0.000
REMARK SMILES [NH3+]CC(=O)[O-]
REMARK SMILES IDX 2 1 1 2 3 6 4 7 5 8
REMARK H PARENT 1 3 1 4 1 5
REMARK Flexibility Score: inf
ROOT
ATOM      1  C   UNL     1      41.260   3.120   2.187  1.00  0.00     0.312 C 
ENDROOT
BRANCH   1   2
ATOM      2  N   UNL     1      41.971   2.526   1.056  1.00  0.00    -0.353 N 
ATOM      3  H   UNL     1      42.997   2.487   1.257  1.00  0.00     0.344 HD
ATOM      4  H   UNL     1      41.801   3.089   0.190  1.00  0.00     0.344 HD
ATOM      5  H   UNL     1      41.618   1.554   0.903  1.00  0.00     0.344 HD
ENDBRANCH   1   2
BRANCH   1   6
ATOM      6  C   UNL     1      39.795   3.225   1.891  1.00  0.00     0.096 C 
ATOM      7  O   UNL     1      39.168   2.235   1.430  1.00  0.00    -0.544 OA
ATOM      8  O   UNL     1      39.134   4.433   2.078  1.00  0.00    -0.544 OA
ENDBRANCH   1   6
TORSDOF 2
ENDMDL
MODEL 8
REMARK VINA RESULT:    -2.693     10.916     11.121
REMARK INTER + INTRA:          -2.929
REMARK INTER:                  -2.929
REMARK INTRA:                   0.000
REMARK UNBOUND:                 0.000
REMARK SMILES [NH3+]CC(=O)[O-]
REMARK SMILES IDX 2 1 1 2 3 6 4 7 5 8
REMARK H PARENT 1 3 1 4 1 5
REMARK Flexibility Score: inf
ROOT
ATOM      1  C   UNL     1      29.789  13.982  -3.012  1.00  0.00     0.312 C 
ENDROOT
BRANCH   1   2
ATOM      2  N   UNL     1      30.693  15.124  -2.897  1.00  0.00    -0.353 N 
ATOM      3  H   UNL     1      31.143  15.320  -3.821  1.00  0.00     0.344 HD
ATOM      4  H   UNL     1      31.429  14.928  -2.179  1.00  0.00     0.344 HD
ATOM      5  H   UNL     1      30.146  15.965  -2.601  1.00  0.00     0.344 HD
ENDBRANCH   1   2
BRANCH   1   6
ATOM      6  C   UNL     1      30.193  12.892  -2.068  1.00  0.00     0.096 C 
ATOM      7  O   UNL     1      29.327  12.111  -1.592  1.00  0.00    -0.544 OA
ATOM      8  O   UNL     1      31.520  12.770  -1.674  1.00  0.00    -0.544 OA
ENDBRANCH   1   6
TORSDOF 2
ENDMDL
MODEL 9
REMARK VINA RESULT:    -2.627     11.429     11.740
REMARK INTER + INTRA:          -2.857
REMARK INTER:                  -2.857
REMARK INTRA:                   0.000
REMARK UNBOUND:                 0.000
REMARK SMILES [NH3+]CC(=O)[O-]
REMARK SMILES IDX 2 1 1 2 3 6 4 7 5 8
REMARK H PARENT 1 3 1 4 1 5
REMARK Flexibility Score: inf
ROOT
ATOM      1  C   UNL     1      30.774  13.907  -2.367  1.00  0.00     0.312 C 
ENDROOT
BRANCH   1   2
ATOM      2  N   UNL     1      30.465  14.772  -3.503  1.00  0.00    -0.353 N 
ATOM      3  H   UNL     1      29.985  15.641  -3.173  1.00  0.00     0.344 HD
ATOM      4  H   UNL     1      29.851  14.266  -4.183  1.00  0.00     0.344 HD
ATOM      5  H   UNL     1      31.355  15.037  -3.983  1.00  0.00     0.344 HD
ENDBRANCH   1   2
BRANCH   1   6
ATOM      6  C   UNL     1      29.517  13.359  -1.764  1.00  0.00     0.096 C 
ATOM      7  O   UNL     1      29.324  12.115  -1.722  1.00  0.00    -0.544 OA
ATOM      8  O   UNL     1      28.536  14.224  -1.295  1.00  0.00    -0.544 OA
ENDBRANCH   1   6
TORSDOF 2
ENDMDL
