MODEL 1
REMARK VINA RESULT:    -6.599      0.000      0.000
REMARK INTER + INTRA:         -10.346
REMARK INTER:                  -9.107
REMARK INTRA:                  -1.239
REMARK UNBOUND:                -1.239
REMARK SMILES C=C(CC[C@H](C(=O)[O-])[C@@H]1CC[C@@]2(C)C3=C(CC[C@]12C)[C@@]1(C)CC[C@H](O)C(C)(C)[C@H]1CC3)C(C)C
REMARK SMILES IDX 4 1 5 2 6 3 7 4 8 5 9 6 10 7 18 8 11 9 12 10 17 11 19 12
REMARK SMILES IDX 13 13 14 14 16 15 15 16 31 17 20 18 30 19 29 20 22 21 21 22
REMARK SMILES IDX 26 23 23 24 24 25 27 26 28 27 25 28 3 30 2 31 1 32 32 33
REMARK SMILES IDX 33 34 34 35
REMARK H PARENT 25 29
REMARK Flexibility Score: inf
ROOT
ATOM      1  C   UNL     1      13.323  18.161  14.734  1.00  0.00     0.014 C 
ENDROOT
BRANCH   1   2
ATOM      2  C   UNL     1      12.143  17.159  14.600  1.00  0.00     0.039 C 
BRANCH   2   3
ATOM      3  C   UNL     1      12.716  15.781  14.371  1.00  0.00     0.045 C 
ATOM      4  O   UNL     1      12.321  14.809  15.068  1.00  0.00    -0.550 OA
ATOM      5  O   UNL     1      13.717  15.581  13.427  1.00  0.00    -0.550 OA
ENDBRANCH   2   3
BRANCH   2   6
ATOM      6  C   UNL     1      11.175  17.556  13.432  1.00  0.00     0.004 C 
ATOM      7  C   UNL     1      11.350  19.019  12.930  1.00  0.00     0.006 C 
ATOM      8  C   UNL     1       9.624  17.419  13.680  1.00  0.00    -0.020 C 
ATOM      9  C   UNL     1       9.952  19.638  12.819  1.00  0.00     0.012 C 
ATOM     10  C   UNL     1       9.132  18.884  13.870  1.00  0.00    -0.006 C 
ATOM     11  C   UNL     1       9.109  16.603  14.887  1.00  0.00     0.012 C 
ATOM     12  C   UNL     1       9.037  16.745  12.388  1.00  0.00     0.012 C 
ATOM     13  C   UNL     1       9.459  19.523  15.260  1.00  0.00     0.017 C 
ATOM     14  C   UNL     1       7.618  18.922  13.762  1.00  0.00    -0.064 C 
ATOM     15  C   UNL     1       7.570  16.756  15.080  1.00  0.00     0.032 C 
ATOM     16  C   UNL     1       6.877  17.969  14.406  1.00  0.00    -0.064 C 
ATOM     17  C   UNL     1       6.909  20.049  13.056  1.00  0.00     0.032 C 
ATOM     18  C   UNL     1       5.347  18.194  14.588  1.00  0.00    -0.008 C 
ATOM     19  C   UNL     1       5.734  19.451  12.307  1.00  0.00     0.009 C 
ATOM     20  C   UNL     1       4.666  18.848  13.283  1.00  0.00     0.007 C 
ATOM     21  C   UNL     1       5.239  19.098  15.852  1.00  0.00     0.014 C 
ATOM     22  C   UNL     1       4.658  16.833  14.887  1.00  0.00     0.016 C 
ATOM     23  C   UNL     1       3.370  19.767  13.541  1.00  0.00    -0.006 C 
ATOM     24  C   UNL     1       3.874  19.734  16.052  1.00  0.00     0.033 C 
ATOM     25  C   UNL     1       3.512  20.602  14.849  1.00  0.00     0.120 C 
ATOM     26  C   UNL     1       2.083  18.888  13.596  1.00  0.00     0.014 C 
ATOM     27  C   UNL     1       3.110  20.767  12.379  1.00  0.00     0.014 C 
BRANCH  25  28
ATOM     28  O   UNL     1       2.315  21.283  15.144  1.00  0.00    -0.393 OA
ATOM     29  H   UNL     1       1.759  20.680  15.699  1.00  0.00     0.210 HD
ENDBRANCH  25  28
ENDBRANCH   2   6
ENDBRANCH   1   2
BRANCH   1  30
ATOM     30  C   UNL     1      13.942  18.165  16.145  1.00  0.00     0.031 C 
BRANCH  30  31
ATOM     31  C   UNL     1      15.405  17.744  16.236  1.00  0.00    -0.075 C 
ATOM     32  C   UNL     1      16.314  18.730  16.349  1.00  0.00     0.008 C 
BRANCH  31  33
ATOM     33  C   UNL     1      15.870  16.285  16.201  1.00  0.00     0.008 C 
ATOM     34  C   UNL     1      15.151  15.442  17.262  1.00  0.00     0.012 C 
ATOM     35  C   UNL     1      17.393  16.188  16.360  1.00  0.00     0.012 C 
ENDBRANCH  31  33
ENDBRANCH  30  31
ENDBRANCH   1  30
TORSDOF 7
ENDMDL
MODEL 2
REMARK VINA RESULT:    -5.609      1.911      9.096
REMARK INTER + INTRA:          -8.979
REMARK INTER:                  -7.747
REMARK INTRA:                  -1.232
REMARK UNBOUND:                -1.239
REMARK SMILES C=C(CC[C@H](C(=O)[O-])[C@@H]1CC[C@@]2(C)C3=C(CC[C@]12C)[C@@]1(C)CC[C@H](O)C(C)(C)[C@H]1CC3)C(C)C
REMARK SMILES IDX 4 1 5 2 6 3 7 4 8 5 9 6 10 7 18 8 11 9 12 10 17 11 19 12
REMARK SMILES IDX 13 13 14 14 16 15 15 16 31 17 20 18 30 19 29 20 22 21 21 22
REMARK SMILES IDX 26 23 23 24 24 25 27 26 28 27 25 28 3 30 2 31 1 32 32 33
REMARK SMILES IDX 33 34 34 35
REMARK H PARENT 25 29
REMARK Flexibility Score: inf
ROOT
ATOM      1  C   UNL     1       4.212  17.938  12.511  1.00  0.00     0.014 C 
ENDROOT
BRANCH   1   2
ATOM      2  C   UNL     1       5.271  17.199  13.375  1.00  0.00     0.039 C 
BRANCH   2   3
ATOM      3  C   UNL     1       4.546  16.378  14.413  1.00  0.00     0.045 C 
ATOM      4  O   UNL     1       4.463  16.791  15.600  1.00  0.00    -0.550 OA
ATOM      5  O   UNL     1       4.007  15.140  14.083  1.00  0.00    -0.550 OA
ENDBRANCH   2   3
BRANCH   2   6
ATOM      6  C   UNL     1       6.264  18.202  14.058  1.00  0.00     0.004 C 
ATOM      7  C   UNL     1       6.532  19.494  13.232  1.00  0.00     0.006 C 
ATOM      8  C   UNL     1       7.705  17.678  14.425  1.00  0.00    -0.020 C 
ATOM      9  C   UNL     1       8.047  19.727  13.218  1.00  0.00     0.012 C 
ATOM     10  C   UNL     1       8.636  18.320  13.355  1.00  0.00    -0.006 C 
ATOM     11  C   UNL     1       7.992  16.160  14.431  1.00  0.00     0.012 C 
ATOM     12  C   UNL     1       7.999  18.203  15.877  1.00  0.00     0.012 C 
ATOM     13  C   UNL     1       8.582  17.655  11.940  1.00  0.00     0.017 C 
ATOM     14  C   UNL     1      10.081  18.187  13.801  1.00  0.00    -0.064 C 
ATOM     15  C   UNL     1       9.509  15.853  14.613  1.00  0.00     0.032 C 
ATOM     16  C   UNL     1      10.515  16.995  14.314  1.00  0.00    -0.064 C 
ATOM     17  C   UNL     1      11.074  19.300  13.590  1.00  0.00     0.032 C 
ATOM     18  C   UNL     1      12.046  16.742  14.448  1.00  0.00    -0.008 C 
ATOM     19  C   UNL     1      11.972  19.349  14.810  1.00  0.00     0.009 C 
ATOM     20  C   UNL     1      12.841  18.051  14.947  1.00  0.00     0.007 C 
ATOM     21  C   UNL     1      12.482  16.264  13.032  1.00  0.00     0.014 C 
ATOM     22  C   UNL     1      12.290  15.588  15.462  1.00  0.00     0.016 C 
ATOM     23  C   UNL     1      14.367  18.188  14.457  1.00  0.00    -0.006 C 
ATOM     24  C   UNL     1      13.985  16.268  12.806  1.00  0.00     0.033 C 
ATOM     25  C   UNL     1      14.547  17.674  12.997  1.00  0.00     0.120 C 
ATOM     26  C   UNL     1      15.319  17.417  15.423  1.00  0.00     0.014 C 
ATOM     27  C   UNL     1      14.876  19.656  14.498  1.00  0.00     0.014 C 
BRANCH  25  28
ATOM     28  O   UNL     1      15.908  17.656  12.633  1.00  0.00    -0.393 OA
ATOM     29  H   UNL     1      16.011  18.243  11.841  1.00  0.00     0.210 HD
ENDBRANCH  25  28
ENDBRANCH   2   6
ENDBRANCH   1   2
BRANCH   1  30
ATOM     30  C   UNL     1       2.982  18.380  13.328  1.00  0.00     0.031 C 
BRANCH  30  31
ATOM     31  C   UNL     1       2.880  19.871  13.629  1.00  0.00    -0.075 C 
ATOM     32  C   UNL     1       2.945  20.709  12.578  1.00  0.00     0.008 C 
BRANCH  31  33
ATOM     33  C   UNL     1       2.714  20.440  15.042  1.00  0.00     0.008 C 
ATOM     34  C   UNL     1       3.754  19.857  16.007  1.00  0.00     0.012 C 
ATOM     35  C   UNL     1       1.289  20.212  15.564  1.00  0.00     0.012 C 
ENDBRANCH  31  33
ENDBRANCH  30  31
ENDBRANCH   1  30
TORSDOF 7
ENDMDL
MODEL 3
REMARK VINA RESULT:    -5.527      1.842      3.177
REMARK INTER + INTRA:          -8.865
REMARK INTER:                  -7.492
REMARK INTRA:                  -1.373
REMARK UNBOUND:                -1.239
REMARK SMILES C=C(CC[C@H](C(=O)[O-])[C@@H]1CC[C@@]2(C)C3=C(CC[C@]12C)[C@@]1(C)CC[C@H](O)C(C)(C)[C@H]1CC3)C(C)C
REMARK SMILES IDX 4 1 5 2 6 3 7 4 8 5 9 6 10 7 18 8 11 9 12 10 17 11 19 12
REMARK SMILES IDX 13 13 14 14 16 15 15 16 31 17 20 18 30 19 29 20 22 21 21 22
REMARK SMILES IDX 26 23 23 24 24 25 27 26 28 27 25 28 3 30 2 31 1 32 32 33
REMARK SMILES IDX 33 34 34 35
REMARK H PARENT 25 29
REMARK Flexibility Score: inf
ROOT
ATOM      1  C   UNL     1      16.248  17.304  14.639  1.00  0.00     0.014 C 
ENDROOT
BRANCH   1   2
ATOM      2  C   UNL     1      14.998  16.393  14.487  1.00  0.00     0.039 C 
BRANCH   2   3
ATOM      3  C   UNL     1      15.470  14.983  14.228  1.00  0.00     0.045 C 
ATOM      4  O   UNL     1      14.876  14.263  13.381  1.00  0.00    -0.550 OA
ATOM      5  O   UNL     1      16.528  14.449  14.954  1.00  0.00    -0.550 OA
ENDBRANCH   2   3
BRANCH   2   6
ATOM      6  C   UNL     1      14.060  16.883  13.330  1.00  0.00     0.004 C 
ATOM      7  C   UNL     1      14.294  18.362  12.904  1.00  0.00     0.006 C 
ATOM      8  C   UNL     1      12.502  16.793  13.555  1.00  0.00    -0.020 C 
ATOM      9  C   UNL     1      12.922  19.037  12.809  1.00  0.00     0.012 C 
ATOM     10  C   UNL     1      12.062  18.263  13.813  1.00  0.00    -0.006 C 
ATOM     11  C   UNL     1      11.942  15.937  14.714  1.00  0.00     0.012 C 
ATOM     12  C   UNL     1      11.906  16.206  12.225  1.00  0.00     0.012 C 
ATOM     13  C   UNL     1      12.395  18.820  15.236  1.00  0.00     0.017 C 
ATOM     14  C   UNL     1      10.552  18.364  13.691  1.00  0.00    -0.064 C 
ATOM     15  C   UNL     1      10.408  16.139  14.899  1.00  0.00     0.032 C 
ATOM     16  C   UNL     1       9.768  17.408  14.279  1.00  0.00    -0.064 C 
ATOM     17  C   UNL     1       9.894  19.550  13.034  1.00  0.00     0.032 C 
ATOM     18  C   UNL     1       8.245  17.682  14.455  1.00  0.00    -0.008 C 
ATOM     19  C   UNL     1       8.707  19.034  12.244  1.00  0.00     0.009 C 
ATOM     20  C   UNL     1       7.605  18.424  13.177  1.00  0.00     0.007 C 
ATOM     21  C   UNL     1       8.155  18.525  15.761  1.00  0.00     0.014 C 
ATOM     22  C   UNL     1       7.503  16.334  14.679  1.00  0.00     0.016 C 
ATOM     23  C   UNL     1       6.341  19.377  13.467  1.00  0.00    -0.006 C 
ATOM     24  C   UNL     1       6.813  19.201  15.978  1.00  0.00     0.033 C 
ATOM     25  C   UNL     1       6.497  20.140  14.817  1.00  0.00     0.120 C 
ATOM     26  C   UNL     1       5.021  18.545  13.465  1.00  0.00     0.014 C 
ATOM     27  C   UNL     1       6.132  20.442  12.354  1.00  0.00     0.014 C 
BRANCH  25  28
ATOM     28  O   UNL     1       5.323  20.850  15.133  1.00  0.00    -0.393 OA
ATOM     29  H   UNL     1       5.491  21.341  15.978  1.00  0.00     0.210 HD
ENDBRANCH  25  28
ENDBRANCH   2   6
ENDBRANCH   1   2
BRANCH   1  30
ATOM     30  C   UNL     1      16.252  18.091  15.964  1.00  0.00     0.031 C 
BRANCH  30  31
ATOM     31  C   UNL     1      16.895  19.472  15.920  1.00  0.00    -0.075 C 
ATOM     32  C   UNL     1      16.330  20.379  15.101  1.00  0.00     0.008 C 
BRANCH  31  33
ATOM     33  C   UNL     1      18.126  19.861  16.745  1.00  0.00     0.008 C 
ATOM     34  C   UNL     1      17.808  21.000  17.722  1.00  0.00     0.012 C 
ATOM     35  C   UNL     1      19.304  20.229  15.834  1.00  0.00     0.012 C 
ENDBRANCH  31  33
ENDBRANCH  30  31
ENDBRANCH   1  30
TORSDOF 7
ENDMDL
MODEL 4
REMARK VINA RESULT:    -5.484      3.149     10.302
REMARK INTER + INTRA:          -8.807
REMARK INTER:                  -7.602
REMARK INTRA:                  -1.205
REMARK UNBOUND:                -1.239
REMARK SMILES C=C(CC[C@H](C(=O)[O-])[C@@H]1CC[C@@]2(C)C3=C(CC[C@]12C)[C@@]1(C)CC[C@H](O)C(C)(C)[C@H]1CC3)C(C)C
REMARK SMILES IDX 4 1 5 2 6 3 7 4 8 5 9 6 10 7 18 8 11 9 12 10 17 11 19 12
REMARK SMILES IDX 13 13 14 14 16 15 15 16 31 17 20 18 30 19 29 20 22 21 21 22
REMARK SMILES IDX 26 23 23 24 24 25 27 26 28 27 25 28 3 30 2 31 1 32 32 33
REMARK SMILES IDX 33 34 34 35
REMARK H PARENT 25 29
REMARK Flexibility Score: inf
ROOT
ATOM      1  C   UNL     1       9.717  16.651  14.859  1.00  0.00     0.014 C 
ENDROOT
BRANCH   1   2
ATOM      2  C   UNL     1      10.408  15.975  13.642  1.00  0.00     0.039 C 
BRANCH   2   3
ATOM      3  C   UNL     1       9.353  15.250  12.842  1.00  0.00     0.045 C 
ATOM      4  O   UNL     1       9.613  14.134  12.318  1.00  0.00    -0.550 OA
ATOM      5  O   UNL     1       8.106  15.828  12.633  1.00  0.00    -0.550 OA
ENDBRANCH   2   3
BRANCH   2   6
ATOM      6  C   UNL     1      11.537  14.985  14.093  1.00  0.00     0.004 C 
ATOM      7  C   UNL     1      11.578  14.721  15.626  1.00  0.00     0.006 C 
ATOM      8  C   UNL     1      13.027  15.350  13.729  1.00  0.00    -0.020 C 
ATOM      9  C   UNL     1      13.037  14.845  16.077  1.00  0.00     0.012 C 
ATOM     10  C   UNL     1      13.649  15.827  15.074  1.00  0.00    -0.006 C 
ATOM     11  C   UNL     1      13.314  16.446  12.677  1.00  0.00     0.012 C 
ATOM     12  C   UNL     1      13.680  14.024  13.196  1.00  0.00     0.012 C 
ATOM     13  C   UNL     1      13.239  17.267  15.524  1.00  0.00     0.017 C 
ATOM     14  C   UNL     1      15.161  15.868  14.941  1.00  0.00    -0.064 C 
ATOM     15  C   UNL     1      14.829  16.804  12.607  1.00  0.00     0.032 C 
ATOM     16  C   UNL     1      15.719  16.410  13.815  1.00  0.00    -0.064 C 
ATOM     17  C   UNL     1      16.061  15.429  16.067  1.00  0.00     0.032 C 
ATOM     18  C   UNL     1      17.235  16.768  13.818  1.00  0.00    -0.008 C 
ATOM     19  C   UNL     1      17.241  14.703  15.451  1.00  0.00     0.009 C 
ATOM     20  C   UNL     1      18.123  15.659  14.577  1.00  0.00     0.007 C 
ATOM     21  C   UNL     1      17.297  18.170  14.494  1.00  0.00     0.014 C 
ATOM     22  C   UNL     1      17.736  16.898  12.352  1.00  0.00     0.016 C 
ATOM     23  C   UNL     1      19.473  16.187  15.277  1.00  0.00    -0.006 C 
ATOM     24  C   UNL     1      18.691  18.599  14.917  1.00  0.00     0.033 C 
ATOM     25  C   UNL     1      19.276  17.597  15.910  1.00  0.00     0.120 C 
ATOM     26  C   UNL     1      20.645  16.214  14.248  1.00  0.00     0.014 C 
ATOM     27  C   UNL     1      19.967  15.238  16.405  1.00  0.00     0.014 C 
BRANCH  25  28
ATOM     28  O   UNL     1      20.498  18.112  16.384  1.00  0.00    -0.393 OA
ATOM     29  H   UNL     1      20.853  18.723  15.689  1.00  0.00     0.210 HD
ENDBRANCH  25  28
ENDBRANCH   2   6
ENDBRANCH   1   2
BRANCH   1  30
ATOM     30  C   UNL     1       9.670  18.186  14.739  1.00  0.00     0.031 C 
BRANCH  30  31
ATOM     31  C   UNL     1       8.441  18.866  15.331  1.00  0.00    -0.075 C 
ATOM     32  C   UNL     1       7.454  18.062  15.769  1.00  0.00     0.008 C 
BRANCH  31  33
ATOM     33  C   UNL     1       8.284  20.386  15.441  1.00  0.00     0.008 C 
ATOM     34  C   UNL     1       8.290  21.052  14.059  1.00  0.00     0.012 C 
ATOM     35  C   UNL     1       9.367  20.986  16.346  1.00  0.00     0.012 C 
ENDBRANCH  31  33
ENDBRANCH  30  31
ENDBRANCH   1  30
TORSDOF 7
ENDMDL
MODEL 5
REMARK VINA RESULT:    -5.416      1.991      8.784
REMARK INTER + INTRA:          -8.713
REMARK INTER:                  -7.031
REMARK INTRA:                  -1.682
REMARK UNBOUND:                -1.239
REMARK SMILES C=C(CC[C@H](C(=O)[O-])[C@@H]1CC[C@@]2(C)C3=C(CC[C@]12C)[C@@]1(C)CC[C@H](O)C(C)(C)[C@H]1CC3)C(C)C
REMARK SMILES IDX 4 1 5 2 6 3 7 4 8 5 9 6 10 7 18 8 11 9 12 10 17 11 19 12
REMARK SMILES IDX 13 13 14 14 16 15 15 16 31 17 20 18 30 19 29 20 22 21 21 22
REMARK SMILES IDX 26 23 23 24 24 25 27 26 28 27 25 28 3 30 2 31 1 32 32 33
REMARK SMILES IDX 33 34 34 35
REMARK H PARENT 25 29
REMARK Flexibility Score: inf
ROOT
ATOM      1  C   UNL     1       4.964  19.118  14.957  1.00  0.00     0.014 C 
ENDROOT
BRANCH   1   2
ATOM      2  C   UNL     1       5.340  18.933  13.460  1.00  0.00     0.039 C 
BRANCH   2   3
ATOM      3  C   UNL     1       4.064  18.858  12.657  1.00  0.00     0.045 C 
ATOM      4  O   UNL     1       3.502  17.747  12.466  1.00  0.00    -0.550 OA
ATOM      5  O   UNL     1       3.527  20.003  12.080  1.00  0.00    -0.550 OA
ENDBRANCH   2   3
BRANCH   2   6
ATOM      6  C   UNL     1       6.210  17.647  13.236  1.00  0.00     0.004 C 
ATOM      7  C   UNL     1       6.059  16.574  14.353  1.00  0.00     0.006 C 
ATOM      8  C   UNL     1       7.769  17.828  13.089  1.00  0.00    -0.020 C 
ATOM      9  C   UNL     1       7.468  16.114  14.745  1.00  0.00     0.012 C 
ATOM     10  C   UNL     1       8.348  17.332  14.446  1.00  0.00    -0.006 C 
ATOM     11  C   UNL     1       8.358  19.233  12.826  1.00  0.00     0.012 C 
ATOM     12  C   UNL     1       8.198  16.920  11.880  1.00  0.00     0.012 C 
ATOM     13  C   UNL     1       8.186  18.326  15.643  1.00  0.00     0.017 C 
ATOM     14  C   UNL     1       9.844  17.119  14.307  1.00  0.00    -0.064 C 
ATOM     15  C   UNL     1       9.913  19.239  12.917  1.00  0.00     0.032 C 
ATOM     16  C   UNL     1      10.597  18.063  13.661  1.00  0.00    -0.064 C 
ATOM     17  C   UNL     1      10.535  15.950  14.958  1.00  0.00     0.032 C 
ATOM     18  C   UNL     1      12.146  18.028  13.813  1.00  0.00    -0.008 C 
ATOM     19  C   UNL     1      11.603  15.459  14.000  1.00  0.00     0.009 C 
ATOM     20  C   UNL     1      12.730  16.527  13.785  1.00  0.00     0.007 C 
ATOM     21  C   UNL     1      12.417  18.766  15.157  1.00  0.00     0.014 C 
ATOM     22  C   UNL     1      12.795  18.842  12.657  1.00  0.00     0.016 C 
ATOM     23  C   UNL     1      14.087  16.276  14.613  1.00  0.00    -0.006 C 
ATOM     24  C   UNL     1      13.824  18.580  15.700  1.00  0.00     0.033 C 
ATOM     25  C   UNL     1      14.111  17.100  15.936  1.00  0.00     0.120 C 
ATOM     26  C   UNL     1      15.330  16.622  13.737  1.00  0.00     0.014 C 
ATOM     27  C   UNL     1      14.283  14.781  14.994  1.00  0.00     0.014 C 
BRANCH  25  28
ATOM     28  O   UNL     1      15.362  16.991  16.574  1.00  0.00    -0.393 OA
ATOM     29  H   UNL     1      15.977  17.632  16.134  1.00  0.00     0.210 HD
ENDBRANCH  25  28
ENDBRANCH   2   6
ENDBRANCH   1   2
BRANCH   1  30
ATOM     30  C   UNL     1       4.708  20.592  15.327  1.00  0.00     0.031 C 
BRANCH  30  31
ATOM     31  C   UNL     1       5.677  21.608  14.735  1.00  0.00    -0.075 C 
ATOM     32  C   UNL     1       6.946  21.569  15.181  1.00  0.00     0.008 C 
BRANCH  31  33
ATOM     33  C   UNL     1       5.276  22.648  13.683  1.00  0.00     0.008 C 
ATOM     34  C   UNL     1       6.099  22.490  12.398  1.00  0.00     0.012 C 
ATOM     35  C   UNL     1       5.395  24.071  14.242  1.00  0.00     0.012 C 
ENDBRANCH  31  33
ENDBRANCH  30  31
ENDBRANCH   1  30
TORSDOF 7
ENDMDL
MODEL 6
REMARK VINA RESULT:    -5.358      1.728      9.510
REMARK INTER + INTRA:          -8.632
REMARK INTER:                  -7.832
REMARK INTRA:                  -0.800
REMARK UNBOUND:                -1.239
REMARK SMILES C=C(CC[C@H](C(=O)[O-])[C@@H]1CC[C@@]2(C)C3=C(CC[C@]12C)[C@@]1(C)CC[C@H](O)C(C)(C)[C@H]1CC3)C(C)C
REMARK SMILES IDX 4 1 5 2 6 3 7 4 8 5 9 6 10 7 18 8 11 9 12 10 17 11 19 12
REMARK SMILES IDX 13 13 14 14 16 15 15 16 31 17 20 18 30 19 29 20 22 21 21 22
REMARK SMILES IDX 26 23 23 24 24 25 27 26 28 27 25 28 3 30 2 31 1 32 32 33
REMARK SMILES IDX 33 34 34 35
REMARK H PARENT 25 29
REMARK Flexibility Score: inf
ROOT
ATOM      1  C   UNL     1       4.460  19.887  15.437  1.00  0.00     0.014 C 
ENDROOT
BRANCH   1   2
ATOM      2  C   UNL     1       5.445  20.085  14.252  1.00  0.00     0.039 C 
BRANCH   2   3
ATOM      3  C   UNL     1       4.689  20.714  13.107  1.00  0.00     0.045 C 
ATOM      4  O   UNL     1       4.643  20.138  11.988  1.00  0.00    -0.550 OA
ATOM      5  O   UNL     1       4.080  21.954  13.262  1.00  0.00    -0.550 OA
ENDBRANCH   2   3
BRANCH   2   6
ATOM      6  C   UNL     1       6.096  18.730  13.806  1.00  0.00     0.004 C 
ATOM      7  C   UNL     1       5.882  17.560  14.811  1.00  0.00     0.006 C 
ATOM      8  C   UNL     1       7.647  18.713  13.526  1.00  0.00    -0.020 C 
ATOM      9  C   UNL     1       7.235  16.869  15.010  1.00  0.00     0.012 C 
ATOM     10  C   UNL     1       8.256  17.983  14.759  1.00  0.00    -0.006 C 
ATOM     11  C   UNL     1       8.412  20.046  13.360  1.00  0.00     0.012 C 
ATOM     12  C   UNL     1       7.837  17.908  12.190  1.00  0.00     0.012 C 
ATOM     13  C   UNL     1       8.341  18.837  16.066  1.00  0.00     0.017 C 
ATOM     14  C   UNL     1       9.689  17.587  14.450  1.00  0.00    -0.064 C 
ATOM     15  C   UNL     1       9.954  19.829  13.297  1.00  0.00     0.032 C 
ATOM     16  C   UNL     1      10.516  18.490  13.840  1.00  0.00    -0.064 C 
ATOM     17  C   UNL     1      10.252  16.264  14.901  1.00  0.00     0.032 C 
ATOM     18  C   UNL     1      12.051  18.226  13.833  1.00  0.00    -0.008 C 
ATOM     19  C   UNL     1      11.155  15.751  13.795  1.00  0.00     0.009 C 
ATOM     20  C   UNL     1      12.404  16.674  13.586  1.00  0.00     0.007 C 
ATOM     21  C   UNL     1      12.537  18.752  15.215  1.00  0.00     0.014 C 
ATOM     22  C   UNL     1      12.714  19.077  12.713  1.00  0.00     0.016 C 
ATOM     23  C   UNL     1      13.773  16.142  14.245  1.00  0.00    -0.006 C 
ATOM     24  C   UNL     1      13.941  18.313  15.594  1.00  0.00     0.033 C 
ATOM     25  C   UNL     1      14.026  16.789  15.640  1.00  0.00     0.120 C 
ATOM     26  C   UNL     1      14.977  16.419  13.293  1.00  0.00     0.014 C 
ATOM     27  C   UNL     1      13.778  14.600  14.441  1.00  0.00     0.014 C 
BRANCH  25  28
ATOM     28  O   UNL     1      15.296  16.435  16.136  1.00  0.00    -0.393 OA
ATOM     29  H   UNL     1      15.480  15.506  15.844  1.00  0.00     0.210 HD
ENDBRANCH  25  28
ENDBRANCH   2   6
ENDBRANCH   1   2
BRANCH   1  30
ATOM     30  C   UNL     1       3.266  18.983  15.072  1.00  0.00     0.031 C 
BRANCH  30  31
ATOM     31  C   UNL     1       1.913  19.675  14.958  1.00  0.00    -0.075 C 
ATOM     32  C   UNL     1       1.641  20.631  15.866  1.00  0.00     0.008 C 
BRANCH  31  33
ATOM     33  C   UNL     1       0.875  19.335  13.884  1.00  0.00     0.008 C 
ATOM     34  C   UNL     1       1.058  17.904  13.362  1.00  0.00     0.012 C 
ATOM     35  C   UNL     1       0.919  20.350  12.735  1.00  0.00     0.012 C 
ENDBRANCH  31  33
ENDBRANCH  30  31
ENDBRANCH   1  30
TORSDOF 7
ENDMDL
MODEL 7
REMARK VINA RESULT:    -5.322      2.381     10.018
REMARK INTER + INTRA:          -8.583
REMARK INTER:                  -7.483
REMARK INTRA:                  -1.100
REMARK UNBOUND:                -1.239
REMARK SMILES C=C(CC[C@H](C(=O)[O-])[C@@H]1CC[C@@]2(C)C3=C(CC[C@]12C)[C@@]1(C)CC[C@H](O)C(C)(C)[C@H]1CC3)C(C)C
REMARK SMILES IDX 4 1 5 2 6 3 7 4 8 5 9 6 10 7 18 8 11 9 12 10 17 11 19 12
REMARK SMILES IDX 13 13 14 14 16 15 15 16 31 17 20 18 30 19 29 20 22 21 21 22
REMARK SMILES IDX 26 23 23 24 24 25 27 26 28 27 25 28 3 30 2 31 1 32 32 33
REMARK SMILES IDX 33 34 34 35
REMARK H PARENT 25 29
REMARK Flexibility Score: inf
ROOT
ATOM      1  C   UNL     1       7.665  17.031  14.923  1.00  0.00     0.014 C 
ENDROOT
BRANCH   1   2
ATOM      2  C   UNL     1       8.931  17.932  14.917  1.00  0.00     0.039 C 
BRANCH   2   3
ATOM      3  C   UNL     1       8.488  19.370  14.801  1.00  0.00     0.045 C 
ATOM      4  O   UNL     1       8.730  20.023  13.751  1.00  0.00    -0.550 OA
ATOM      5  O   UNL     1       7.855  20.001  15.866  1.00  0.00    -0.550 OA
ENDBRANCH   2   3
BRANCH   2   6
ATOM      6  C   UNL     1       9.903  17.557  13.746  1.00  0.00     0.004 C 
ATOM      7  C   UNL     1       9.807  16.072  13.289  1.00  0.00     0.006 C 
ATOM      8  C   UNL     1      11.447  17.789  13.966  1.00  0.00    -0.020 C 
ATOM      9  C   UNL     1      11.236  15.531  13.173  1.00  0.00     0.012 C 
ATOM     10  C   UNL     1      12.026  16.361  14.189  1.00  0.00    -0.006 C 
ATOM     11  C   UNL     1      11.932  18.669  15.140  1.00  0.00     0.012 C 
ATOM     12  C   UNL     1      11.977  18.458  12.646  1.00  0.00     0.012 C 
ATOM     13  C   UNL     1      11.756  15.746  15.602  1.00  0.00     0.017 C 
ATOM     14  C   UNL     1      13.538  16.407  14.059  1.00  0.00    -0.064 C 
ATOM     15  C   UNL     1      13.479  18.609  15.314  1.00  0.00     0.032 C 
ATOM     16  C   UNL     1      14.232  17.419  14.664  1.00  0.00    -0.064 C 
ATOM     17  C   UNL     1      14.301  15.302  13.373  1.00  0.00     0.032 C 
ATOM     18  C   UNL     1      15.775  17.287  14.827  1.00  0.00    -0.008 C 
ATOM     19  C   UNL     1      15.428  15.945  12.590  1.00  0.00     0.009 C 
ATOM     20  C   UNL     1      16.474  16.636  13.531  1.00  0.00     0.007 C 
ATOM     21  C   UNL     1      15.952  16.429  16.115  1.00  0.00     0.014 C 
ATOM     22  C   UNL     1      16.388  18.694  15.077  1.00  0.00     0.016 C 
ATOM     23  C   UNL     1      17.824  15.800  13.794  1.00  0.00    -0.006 C 
ATOM     24  C   UNL     1      17.354  15.878  16.311  1.00  0.00     0.033 C 
ATOM     25  C   UNL     1      17.749  14.998  15.128  1.00  0.00     0.120 C 
ATOM     26  C   UNL     1      19.059  16.753  13.805  1.00  0.00     0.014 C 
ATOM     27  C   UNL     1      18.125  14.783  12.657  1.00  0.00     0.014 C 
BRANCH  25  28
ATOM     28  O   UNL     1      18.987  14.395  15.423  1.00  0.00    -0.393 OA
ATOM     29  H   UNL     1      19.616  15.117  15.679  1.00  0.00     0.210 HD
ENDBRANCH  25  28
ENDBRANCH   2   6
ENDBRANCH   1   2
BRANCH   1  30
ATOM     30  C   UNL     1       6.609  17.483  13.895  1.00  0.00     0.031 C 
BRANCH  30  31
ATOM     31  C   UNL     1       5.180  17.601  14.412  1.00  0.00    -0.075 C 
ATOM     32  C   UNL     1       4.583  16.462  14.812  1.00  0.00     0.008 C 
BRANCH  31  33
ATOM     33  C   UNL     1       4.413  18.925  14.489  1.00  0.00     0.008 C 
ATOM     34  C   UNL     1       5.037  19.987  13.574  1.00  0.00     0.012 C 
ATOM     35  C   UNL     1       4.326  19.427  15.936  1.00  0.00     0.012 C 
ENDBRANCH  31  33
ENDBRANCH  30  31
ENDBRANCH   1  30
TORSDOF 7
ENDMDL
