MODEL 1
REMARK VINA RESULT:    -5.151      0.000      0.000
REMARK INTER + INTRA:         -10.995
REMARK INTER:                  -9.367
REMARK INTRA:                  -1.628
REMARK UNBOUND:                -1.628
REMARK SMILES CCCCCCCCCCCCCC[C@@H](C)C(=O)[O-]
REMARK SMILES IDX 9 1 10 2 11 3 12 4 13 5 14 6 15 7 16 8 17 9 18 10 19 11 8 12
REMARK SMILES IDX 7 13 6 14 5 15 4 16 3 17 2 18 1 19
REMARK H PARENT
REMARK Flexibility Score: inf
ROOT
ATOM      1  C   UNL     1      15.328 -34.722  20.347  1.00  0.00     0.000 C 
ENDROOT
BRANCH   1   2
ATOM      2  C   UNL     1      15.393 -34.361  21.841  1.00  0.00     0.000 C 
BRANCH   2   3
ATOM      3  C   UNL     1      14.687 -33.031  22.157  1.00  0.00     0.000 C 
BRANCH   3   4
ATOM      4  C   UNL     1      14.047 -32.382  20.917  1.00  0.00     0.000 C 
BRANCH   4   5
ATOM      5  C   UNL     1      13.239 -31.099  21.189  1.00  0.00     0.001 C 
BRANCH   5   6
ATOM      6  C   UNL     1      12.760 -30.988  22.647  1.00  0.00     0.009 C 
BRANCH   6   7
ATOM      7  C   UNL     1      13.385 -29.785  23.389  1.00  0.00     0.032 C 
ATOM      8  C   UNL     1      14.464 -29.081  22.555  1.00  0.00     0.014 C 
BRANCH   7   9
ATOM      9  C   UNL     1      12.309 -28.797  23.750  1.00  0.00     0.044 C 
ATOM     10  O   UNL     1      11.259 -28.724  23.061  1.00  0.00    -0.550 OA
ATOM     11  O   UNL     1      12.468 -27.958  24.848  1.00  0.00    -0.550 OA
ENDBRANCH   7   9
ENDBRANCH   6   7
ENDBRANCH   5   6
ENDBRANCH   4   5
ENDBRANCH   3   4
ENDBRANCH   2   3
ENDBRANCH   1   2
BRANCH   1  12
ATOM     12  C   UNL     1      16.461 -35.674  19.922  1.00  0.00     0.000 C 
BRANCH  12  13
ATOM     13  C   UNL     1      17.855 -35.076  20.169  1.00  0.00    -0.000 C 
BRANCH  13  14
ATOM     14  C   UNL     1      18.022 -33.679  19.543  1.00  0.00    -0.000 C 
BRANCH  14  15
ATOM     15  C   UNL     1      18.679 -32.674  20.501  1.00  0.00    -0.000 C 
BRANCH  15  16
ATOM     16  C   UNL     1      17.776 -31.466  20.800  1.00  0.00    -0.000 C 
BRANCH  16  17
ATOM     17  C   UNL     1      18.576 -30.209  21.175  1.00  0.00    -0.000 C 
BRANCH  17  18
ATOM     18  C   UNL     1      20.089 -30.469  21.247  1.00  0.00    -0.003 C 
ATOM     19  C   UNL     1      20.880 -29.213  20.891  1.00  0.00     0.004 C 
ENDBRANCH  17  18
ENDBRANCH  16  17
ENDBRANCH  15  16
ENDBRANCH  14  15
ENDBRANCH  13  14
ENDBRANCH  12  13
ENDBRANCH   1  12
TORSDOF 14
ENDMDL
MODEL 2
REMARK VINA RESULT:    -5.116      1.730      2.565
REMARK INTER + INTRA:         -10.931
REMARK INTER:                  -8.843
REMARK INTRA:                  -2.088
REMARK UNBOUND:                -1.628
REMARK SMILES CCCCCCCCCCCCCC[C@@H](C)C(=O)[O-]
REMARK SMILES IDX 9 1 10 2 11 3 12 4 13 5 14 6 15 7 16 8 17 9 18 10 19 11 8 12
REMARK SMILES IDX 7 13 6 14 5 15 4 16 3 17 2 18 1 19
REMARK H PARENT
REMARK Flexibility Score: inf
ROOT
ATOM      1  C   UNL     1      15.358 -35.017  20.283  1.00  0.00     0.000 C 
ENDROOT
BRANCH   1   2
ATOM      2  C   UNL     1      14.640 -33.658  20.324  1.00  0.00     0.000 C 
BRANCH   2   3
ATOM      3  C   UNL     1      14.650 -33.028  21.728  1.00  0.00     0.000 C 
BRANCH   3   4
ATOM      4  C   UNL     1      15.344 -31.654  21.764  1.00  0.00     0.000 C 
BRANCH   4   5
ATOM      5  C   UNL     1      15.271 -30.915  23.113  1.00  0.00     0.001 C 
BRANCH   5   6
ATOM      6  C   UNL     1      13.863 -30.938  23.736  1.00  0.00     0.009 C 
BRANCH   6   7
ATOM      7  C   UNL     1      13.174 -29.556  23.704  1.00  0.00     0.032 C 
ATOM      8  C   UNL     1      14.143 -28.429  23.316  1.00  0.00     0.014 C 
BRANCH   7   9
ATOM      9  C   UNL     1      12.026 -29.583  22.732  1.00  0.00     0.044 C 
ATOM     10  O   UNL     1      11.194 -28.639  22.709  1.00  0.00    -0.550 OA
ATOM     11  O   UNL     1      11.876 -30.650  21.853  1.00  0.00    -0.550 OA
ENDBRANCH   7   9
ENDBRANCH   6   7
ENDBRANCH   5   6
ENDBRANCH   4   5
ENDBRANCH   3   4
ENDBRANCH   2   3
ENDBRANCH   1   2
BRANCH   1  12
ATOM     12  C   UNL     1      16.594 -35.002  19.366  1.00  0.00     0.000 C 
BRANCH  12  13
ATOM     13  C   UNL     1      17.340 -36.346  19.361  1.00  0.00    -0.000 C 
BRANCH  13  14
ATOM     14  C   UNL     1      17.597 -36.888  20.780  1.00  0.00    -0.000 C 
BRANCH  14  15
ATOM     15  C   UNL     1      18.611 -36.040  21.563  1.00  0.00    -0.000 C 
BRANCH  15  16
ATOM     16  C   UNL     1      17.997 -35.391  22.815  1.00  0.00    -0.000 C 
BRANCH  16  17
ATOM     17  C   UNL     1      18.109 -33.858  22.801  1.00  0.00    -0.000 C 
BRANCH  17  18
ATOM     18  C   UNL     1      19.273 -33.358  21.931  1.00  0.00    -0.003 C 
ATOM     19  C   UNL     1      18.762 -32.528  20.756  1.00  0.00     0.004 C 
ENDBRANCH  17  18
ENDBRANCH  16  17
ENDBRANCH  15  16
ENDBRANCH  14  15
ENDBRANCH  13  14
ENDBRANCH  12  13
ENDBRANCH   1  12
TORSDOF 14
ENDMDL
MODEL 3
REMARK VINA RESULT:    -5.065      3.545      6.568
REMARK INTER + INTRA:         -10.838
REMARK INTER:                  -8.169
REMARK INTRA:                  -2.669
REMARK UNBOUND:                -1.628
REMARK SMILES CCCCCCCCCCCCCC[C@@H](C)C(=O)[O-]
REMARK SMILES IDX 9 1 10 2 11 3 12 4 13 5 14 6 15 7 16 8 17 9 18 10 19 11 8 12
REMARK SMILES IDX 7 13 6 14 5 15 4 16 3 17 2 18 1 19
REMARK H PARENT
REMARK Flexibility Score: inf
ROOT
ATOM      1  C   UNL     1      16.356 -31.487  23.877  1.00  0.00     0.000 C 
ENDROOT
BRANCH   1   2
ATOM      2  C   UNL     1      17.670 -31.048  23.209  1.00  0.00     0.000 C 
BRANCH   2   3
ATOM      3  C   UNL     1      17.447 -30.445  21.811  1.00  0.00     0.000 C 
BRANCH   3   4
ATOM      4  C   UNL     1      18.304 -31.118  20.723  1.00  0.00     0.000 C 
BRANCH   4   5
ATOM      5  C   UNL     1      18.716 -32.573  21.017  1.00  0.00     0.001 C 
BRANCH   5   6
ATOM      6  C   UNL     1      18.162 -33.575  19.988  1.00  0.00     0.009 C 
BRANCH   6   7
ATOM      7  C   UNL     1      18.441 -35.044  20.376  1.00  0.00     0.032 C 
ATOM      8  C   UNL     1      18.462 -35.251  21.897  1.00  0.00     0.014 C 
BRANCH   7   9
ATOM      9  C   UNL     1      17.396 -35.938  19.765  1.00  0.00     0.044 C 
ATOM     10  O   UNL     1      16.422 -35.439  19.143  1.00  0.00    -0.550 OA
ATOM     11  O   UNL     1      17.499 -37.319  19.883  1.00  0.00    -0.550 OA
ENDBRANCH   7   9
ENDBRANCH   6   7
ENDBRANCH   5   6
ENDBRANCH   4   5
ENDBRANCH   3   4
ENDBRANCH   2   3
ENDBRANCH   1   2
BRANCH   1  12
ATOM     12  C   UNL     1      16.138 -33.009  23.799  1.00  0.00     0.000 C 
BRANCH  12  13
ATOM     13  C   UNL     1      14.873 -33.383  23.011  1.00  0.00    -0.000 C 
BRANCH  13  14
ATOM     14  C   UNL     1      15.031 -33.162  21.495  1.00  0.00    -0.000 C 
BRANCH  14  15
ATOM     15  C   UNL     1      13.807 -32.478  20.866  1.00  0.00    -0.000 C 
BRANCH  15  16
ATOM     16  C   UNL     1      13.778 -30.962  21.127  1.00  0.00    -0.000 C 
BRANCH  16  17
ATOM     17  C   UNL     1      12.607 -30.541  22.028  1.00  0.00    -0.000 C 
BRANCH  17  18
ATOM     18  C   UNL     1      13.055 -29.673  23.214  1.00  0.00    -0.003 C 
ATOM     19  C   UNL     1      14.213 -28.760  22.821  1.00  0.00     0.004 C 
ENDBRANCH  17  18
ENDBRANCH  16  17
ENDBRANCH  15  16
ENDBRANCH  14  15
ENDBRANCH  13  14
ENDBRANCH  12  13
ENDBRANCH   1  12
TORSDOF 14
ENDMDL
MODEL 4
REMARK VINA RESULT:    -5.041      3.825      5.917
REMARK INTER + INTRA:         -10.794
REMARK INTER:                  -8.200
REMARK INTRA:                  -2.595
REMARK UNBOUND:                -1.628
REMARK SMILES CCCCCCCCCCCCCC[C@@H](C)C(=O)[O-]
REMARK SMILES IDX 9 1 10 2 11 3 12 4 13 5 14 6 15 7 16 8 17 9 18 10 19 11 8 12
REMARK SMILES IDX 7 13 6 14 5 15 4 16 3 17 2 18 1 19
REMARK H PARENT
REMARK Flexibility Score: inf
ROOT
ATOM      1  C   UNL     1      14.457 -30.424  23.239  1.00  0.00     0.000 C 
ENDROOT
BRANCH   1   2
ATOM      2  C   UNL     1      14.343 -31.825  23.863  1.00  0.00     0.000 C 
BRANCH   2   3
ATOM      3  C   UNL     1      14.587 -32.947  22.839  1.00  0.00     0.000 C 
BRANCH   3   4
ATOM      4  C   UNL     1      14.223 -32.537  21.400  1.00  0.00     0.000 C 
BRANCH   4   5
ATOM      5  C   UNL     1      14.603 -33.556  20.310  1.00  0.00     0.001 C 
BRANCH   5   6
ATOM      6  C   UNL     1      15.403 -34.751  20.856  1.00  0.00     0.009 C 
BRANCH   6   7
ATOM      7  C   UNL     1      16.260 -35.441  19.771  1.00  0.00     0.032 C 
ATOM      8  C   UNL     1      17.083 -34.438  18.951  1.00  0.00     0.014 C 
BRANCH   7   9
ATOM      9  C   UNL     1      17.185 -36.440  20.412  1.00  0.00     0.044 C 
ATOM     10  O   UNL     1      17.584 -37.440  19.761  1.00  0.00    -0.550 OA
ATOM     11  O   UNL     1      17.604 -36.264  21.726  1.00  0.00    -0.550 OA
ENDBRANCH   7   9
ENDBRANCH   6   7
ENDBRANCH   5   6
ENDBRANCH   4   5
ENDBRANCH   3   4
ENDBRANCH   2   3
ENDBRANCH   1   2
BRANCH   1  12
ATOM     12  C   UNL     1      15.904 -29.897  23.239  1.00  0.00     0.000 C 
BRANCH  12  13
ATOM     13  C   UNL     1      16.358 -29.425  21.848  1.00  0.00    -0.000 C 
BRANCH  13  14
ATOM     14  C   UNL     1      17.765 -29.931  21.480  1.00  0.00    -0.000 C 
BRANCH  14  15
ATOM     15  C   UNL     1      17.740 -31.309  20.800  1.00  0.00    -0.000 C 
BRANCH  15  16
ATOM     16  C   UNL     1      18.954 -32.176  21.177  1.00  0.00    -0.000 C 
BRANCH  16  17
ATOM     17  C   UNL     1      19.127 -32.319  22.697  1.00  0.00    -0.000 C 
BRANCH  17  18
ATOM     18  C   UNL     1      18.015 -33.160  23.343  1.00  0.00    -0.003 C 
ATOM     19  C   UNL     1      17.833 -32.792  24.813  1.00  0.00     0.004 C 
ENDBRANCH  17  18
ENDBRANCH  16  17
ENDBRANCH  15  16
ENDBRANCH  14  15
ENDBRANCH  13  14
ENDBRANCH  12  13
ENDBRANCH   1  12
TORSDOF 14
ENDMDL
MODEL 5
REMARK VINA RESULT:    -5.031      1.612      2.051
REMARK INTER + INTRA:         -10.776
REMARK INTER:                  -8.729
REMARK INTRA:                  -2.047
REMARK UNBOUND:                -1.628
REMARK SMILES CCCCCCCCCCCCCC[C@@H](C)C(=O)[O-]
REMARK SMILES IDX 9 1 10 2 11 3 12 4 13 5 14 6 15 7 16 8 17 9 18 10 19 11 8 12
REMARK SMILES IDX 7 13 6 14 5 15 4 16 3 17 2 18 1 19
REMARK H PARENT
REMARK Flexibility Score: inf
ROOT
ATOM      1  C   UNL     1      15.263 -34.967  20.535  1.00  0.00     0.000 C 
ENDROOT
BRANCH   1   2
ATOM      2  C   UNL     1      14.619 -33.666  20.027  1.00  0.00     0.000 C 
BRANCH   2   3
ATOM      3  C   UNL     1      14.291 -32.686  21.168  1.00  0.00     0.000 C 
BRANCH   3   4
ATOM      4  C   UNL     1      14.725 -33.208  22.550  1.00  0.00     0.000 C 
BRANCH   4   5
ATOM      5  C   UNL     1      14.367 -32.297  23.739  1.00  0.00     0.001 C 
BRANCH   5   6
ATOM      6  C   UNL     1      13.232 -31.308  23.419  1.00  0.00     0.009 C 
BRANCH   6   7
ATOM      7  C   UNL     1      13.576 -29.857  23.822  1.00  0.00     0.032 C 
ATOM      8  C   UNL     1      14.755 -29.291  23.019  1.00  0.00     0.014 C 
BRANCH   7   9
ATOM      9  C   UNL     1      12.371 -28.977  23.628  1.00  0.00     0.044 C 
ATOM     10  O   UNL     1      11.612 -29.152  22.639  1.00  0.00    -0.550 OA
ATOM     11  O   UNL     1      12.087 -27.965  24.539  1.00  0.00    -0.550 OA
ENDBRANCH   7   9
ENDBRANCH   6   7
ENDBRANCH   5   6
ENDBRANCH   4   5
ENDBRANCH   3   4
ENDBRANCH   2   3
ENDBRANCH   1   2
BRANCH   1  12
ATOM     12  C   UNL     1      16.481 -35.387  19.693  1.00  0.00     0.000 C 
BRANCH  12  13
ATOM     13  C   UNL     1      17.148 -34.196  18.987  1.00  0.00    -0.000 C 
BRANCH  13  14
ATOM     14  C   UNL     1      18.366 -33.655  19.759  1.00  0.00    -0.000 C 
BRANCH  14  15
ATOM     15  C   UNL     1      18.022 -32.437  20.631  1.00  0.00    -0.000 C 
BRANCH  15  16
ATOM     16  C   UNL     1      18.506 -32.595  22.083  1.00  0.00    -0.000 C 
BRANCH  16  17
ATOM     17  C   UNL     1      18.045 -31.441  22.987  1.00  0.00    -0.000 C 
BRANCH  17  18
ATOM     18  C   UNL     1      17.767 -31.893  24.429  1.00  0.00    -0.003 C 
ATOM     19  C   UNL     1      18.592 -31.085  25.426  1.00  0.00     0.004 C 
ENDBRANCH  17  18
ENDBRANCH  16  17
ENDBRANCH  15  16
ENDBRANCH  14  15
ENDBRANCH  13  14
ENDBRANCH  12  13
ENDBRANCH   1  12
TORSDOF 14
ENDMDL
MODEL 6
REMARK VINA RESULT:    -5.004      2.991      6.088
REMARK INTER + INTRA:         -10.727
REMARK INTER:                  -8.837
REMARK INTRA:                  -1.889
REMARK UNBOUND:                -1.628
REMARK SMILES CCCCCCCCCCCCCC[C@@H](C)C(=O)[O-]
REMARK SMILES IDX 9 1 10 2 11 3 12 4 13 5 14 6 15 7 16 8 17 9 18 10 19 11 8 12
REMARK SMILES IDX 7 13 6 14 5 15 4 16 3 17 2 18 1 19
REMARK H PARENT
REMARK Flexibility Score: inf
ROOT
ATOM      1  C   UNL     1      14.690 -33.984  20.179  1.00  0.00     0.000 C 
ENDROOT
BRANCH   1   2
ATOM      2  C   UNL     1      15.772 -35.022  20.523  1.00  0.00     0.000 C 
BRANCH   2   3
ATOM      3  C   UNL     1      16.677 -35.350  19.323  1.00  0.00     0.000 C 
BRANCH   3   4
ATOM      4  C   UNL     1      17.773 -34.293  19.091  1.00  0.00     0.000 C 
BRANCH   4   5
ATOM      5  C   UNL     1      18.329 -33.632  20.366  1.00  0.00     0.001 C 
BRANCH   5   6
ATOM      6  C   UNL     1      17.975 -32.138  20.472  1.00  0.00     0.009 C 
BRANCH   6   7
ATOM      7  C   UNL     1      18.014 -31.617  21.926  1.00  0.00     0.032 C 
ATOM      8  C   UNL     1      17.650 -32.705  22.945  1.00  0.00     0.014 C 
BRANCH   7   9
ATOM      9  C   UNL     1      19.384 -31.080  22.236  1.00  0.00     0.044 C 
ATOM     10  O   UNL     1      20.141 -30.700  21.305  1.00  0.00    -0.550 OA
ATOM     11  O   UNL     1      19.823 -30.998  23.553  1.00  0.00    -0.550 OA
ENDBRANCH   7   9
ENDBRANCH   6   7
ENDBRANCH   5   6
ENDBRANCH   4   5
ENDBRANCH   3   4
ENDBRANCH   2   3
ENDBRANCH   1   2
BRANCH   1  12
ATOM     12  C   UNL     1      14.428 -33.003  21.336  1.00  0.00     0.000 C 
BRANCH  12  13
ATOM     13  C   UNL     1      13.655 -31.753  20.883  1.00  0.00    -0.000 C 
BRANCH  13  14
ATOM     14  C   UNL     1      14.283 -30.447  21.402  1.00  0.00    -0.000 C 
BRANCH  14  15
ATOM     15  C   UNL     1      14.557 -30.481  22.914  1.00  0.00    -0.000 C 
BRANCH  15  16
ATOM     16  C   UNL     1      13.306 -30.158  23.749  1.00  0.00    -0.000 C 
BRANCH  16  17
ATOM     17  C   UNL     1      12.323 -29.240  23.007  1.00  0.00    -0.000 C 
BRANCH  17  18
ATOM     18  C   UNL     1      11.773 -28.116  23.899  1.00  0.00    -0.003 C 
ATOM     19  C   UNL     1      12.793 -27.707  24.957  1.00  0.00     0.004 C 
ENDBRANCH  17  18
ENDBRANCH  16  17
ENDBRANCH  15  16
ENDBRANCH  14  15
ENDBRANCH  13  14
ENDBRANCH  12  13
ENDBRANCH   1  12
TORSDOF 14
ENDMDL
MODEL 7
REMARK VINA RESULT:    -4.967      2.097      2.886
REMARK INTER + INTRA:         -10.660
REMARK INTER:                  -7.852
REMARK INTRA:                  -2.807
REMARK UNBOUND:                -1.628
REMARK SMILES CCCCCCCCCCCCCC[C@@H](C)C(=O)[O-]
REMARK SMILES IDX 9 1 10 2 11 3 12 4 13 5 14 6 15 7 16 8 17 9 18 10 19 11 8 12
REMARK SMILES IDX 7 13 6 14 5 15 4 16 3 17 2 18 1 19
REMARK H PARENT
REMARK Flexibility Score: inf
ROOT
ATOM      1  C   UNL     1      16.741 -34.617  21.690  1.00  0.00     0.000 C 
ENDROOT
BRANCH   1   2
ATOM      2  C   UNL     1      15.434 -34.028  22.249  1.00  0.00     0.000 C 
BRANCH   2   3
ATOM      3  C   UNL     1      15.431 -33.955  23.786  1.00  0.00     0.000 C 
BRANCH   3   4
ATOM      4  C   UNL     1      14.303 -33.066  24.342  1.00  0.00     0.000 C 
BRANCH   4   5
ATOM      5  C   UNL     1      13.773 -31.993  23.372  1.00  0.00     0.001 C 
BRANCH   5   6
ATOM      6  C   UNL     1      13.665 -30.600  24.017  1.00  0.00     0.009 C 
BRANCH   6   7
ATOM      7  C   UNL     1      13.532 -29.469  22.973  1.00  0.00     0.032 C 
ATOM      8  C   UNL     1      14.085 -29.874  21.600  1.00  0.00     0.014 C 
BRANCH   7   9
ATOM      9  C   UNL     1      12.087 -29.074  22.833  1.00  0.00     0.044 C 
ATOM     10  O   UNL     1      11.666 -28.013  23.362  1.00  0.00    -0.550 OA
ATOM     11  O   UNL     1      11.207 -29.878  22.117  1.00  0.00    -0.550 OA
ENDBRANCH   7   9
ENDBRANCH   6   7
ENDBRANCH   5   6
ENDBRANCH   4   5
ENDBRANCH   3   4
ENDBRANCH   2   3
ENDBRANCH   1   2
BRANCH   1  12
ATOM     12  C   UNL     1      17.570 -33.577  20.915  1.00  0.00     0.000 C 
BRANCH  12  13
ATOM     13  C   UNL     1      16.946 -32.173  20.964  1.00  0.00    -0.000 C 
BRANCH  13  14
ATOM     14  C   UNL     1      17.995 -31.052  20.844  1.00  0.00    -0.000 C 
BRANCH  14  15
ATOM     15  C   UNL     1      18.373 -30.447  22.205  1.00  0.00    -0.000 C 
BRANCH  15  16
ATOM     16  C   UNL     1      17.286 -30.666  23.271  1.00  0.00    -0.000 C 
BRANCH  16  17
ATOM     17  C   UNL     1      17.851 -31.237  24.581  1.00  0.00    -0.000 C 
BRANCH  17  18
ATOM     18  C   UNL     1      18.780 -32.439  24.352  1.00  0.00    -0.003 C 
ATOM     19  C   UNL     1      18.607 -33.484  25.451  1.00  0.00     0.004 C 
ENDBRANCH  17  18
ENDBRANCH  16  17
ENDBRANCH  15  16
ENDBRANCH  14  15
ENDBRANCH  13  14
ENDBRANCH  12  13
ENDBRANCH   1  12
TORSDOF 14
ENDMDL
MODEL 8
REMARK VINA RESULT:    -4.948      2.300      3.608
REMARK INTER + INTRA:         -10.626
REMARK INTER:                  -8.139
REMARK INTRA:                  -2.487
REMARK UNBOUND:                -1.628
REMARK SMILES CCCCCCCCCCCCCC[C@@H](C)C(=O)[O-]
REMARK SMILES IDX 9 1 10 2 11 3 12 4 13 5 14 6 15 7 16 8 17 9 18 10 19 11 8 12
REMARK SMILES IDX 7 13 6 14 5 15 4 16 3 17 2 18 1 19
REMARK H PARENT
REMARK Flexibility Score: inf
ROOT
ATOM      1  C   UNL     1      19.230 -35.547  22.113  1.00  0.00     0.000 C 
ENDROOT
BRANCH   1   2
ATOM      2  C   UNL     1      18.723 -34.740  23.320  1.00  0.00     0.000 C 
BRANCH   2   3
ATOM      3  C   UNL     1      17.754 -35.546  24.203  1.00  0.00     0.000 C 
BRANCH   3   4
ATOM      4  C   UNL     1      16.498 -34.748  24.599  1.00  0.00     0.000 C 
BRANCH   4   5
ATOM      5  C   UNL     1      15.906 -33.858  23.490  1.00  0.00     0.001 C 
BRANCH   5   6
ATOM      6  C   UNL     1      14.505 -33.320  23.833  1.00  0.00     0.009 C 
BRANCH   6   7
ATOM      7  C   UNL     1      14.397 -31.789  23.665  1.00  0.00     0.032 C 
ATOM      8  C   UNL     1      15.772 -31.117  23.535  1.00  0.00     0.014 C 
BRANCH   7   9
ATOM      9  C   UNL     1      13.568 -31.468  22.451  1.00  0.00     0.044 C 
ATOM     10  O   UNL     1      13.992 -31.756  21.301  1.00  0.00    -0.550 OA
ATOM     11  O   UNL     1      12.329 -30.853  22.591  1.00  0.00    -0.550 OA
ENDBRANCH   7   9
ENDBRANCH   6   7
ENDBRANCH   5   6
ENDBRANCH   4   5
ENDBRANCH   3   4
ENDBRANCH   2   3
ENDBRANCH   1   2
BRANCH   1  12
ATOM     12  C   UNL     1      18.749 -37.009  22.140  1.00  0.00     0.000 C 
BRANCH  12  13
ATOM     13  C   UNL     1      17.999 -37.405  20.858  1.00  0.00    -0.000 C 
BRANCH  13  14
ATOM     14  C   UNL     1      17.732 -36.205  19.931  1.00  0.00    -0.000 C 
BRANCH  14  15
ATOM     15  C   UNL     1      16.286 -35.693  20.027  1.00  0.00    -0.000 C 
BRANCH  15  16
ATOM     16  C   UNL     1      16.181 -34.175  19.801  1.00  0.00    -0.000 C 
BRANCH  16  17
ATOM     17  C   UNL     1      17.556 -33.495  19.714  1.00  0.00    -0.000 C 
BRANCH  17  18
ATOM     18  C   UNL     1      17.653 -32.239  20.593  1.00  0.00    -0.003 C 
ATOM     19  C   UNL     1      19.106 -31.914  20.930  1.00  0.00     0.004 C 
ENDBRANCH  17  18
ENDBRANCH  16  17
ENDBRANCH  15  16
ENDBRANCH  14  15
ENDBRANCH  13  14
ENDBRANCH  12  13
ENDBRANCH   1  12
TORSDOF 14
ENDMDL
MODEL 9
REMARK VINA RESULT:    -4.927      3.288      6.313
REMARK INTER + INTRA:         -10.587
REMARK INTER:                  -8.111
REMARK INTRA:                  -2.476
REMARK UNBOUND:                -1.628
REMARK SMILES CCCCCCCCCCCCCC[C@@H](C)C(=O)[O-]
REMARK SMILES IDX 9 1 10 2 11 3 12 4 13 5 14 6 15 7 16 8 17 9 18 10 19 11 8 12
REMARK SMILES IDX 7 13 6 14 5 15 4 16 3 17 2 18 1 19
REMARK H PARENT
REMARK Flexibility Score: inf
ROOT
ATOM      1  C   UNL     1      17.751 -31.257  24.546  1.00  0.00     0.000 C 
ENDROOT
BRANCH   1   2
ATOM      2  C   UNL     1      18.649 -32.490  24.349  1.00  0.00     0.000 C 
BRANCH   2   3
ATOM      3  C   UNL     1      17.882 -33.812  24.530  1.00  0.00     0.000 C 
BRANCH   3   4
ATOM      4  C   UNL     1      16.358 -33.614  24.619  1.00  0.00     0.000 C 
BRANCH   4   5
ATOM      5  C   UNL     1      15.571 -33.975  23.346  1.00  0.00     0.001 C 
BRANCH   5   6
ATOM      6  C   UNL     1      16.469 -34.509  22.215  1.00  0.00     0.009 C 
BRANCH   6   7
ATOM      7  C   UNL     1      16.571 -33.532  21.023  1.00  0.00     0.032 C 
ATOM      8  C   UNL     1      18.026 -33.216  20.650  1.00  0.00     0.014 C 
BRANCH   7   9
ATOM      9  C   UNL     1      15.864 -34.111  19.829  1.00  0.00     0.044 C 
ATOM     10  O   UNL     1      16.511 -34.747  18.956  1.00  0.00    -0.550 OA
ATOM     11  O   UNL     1      14.491 -33.949  19.680  1.00  0.00    -0.550 OA
ENDBRANCH   7   9
ENDBRANCH   6   7
ENDBRANCH   5   6
ENDBRANCH   4   5
ENDBRANCH   3   4
ENDBRANCH   2   3
ENDBRANCH   1   2
BRANCH   1  12
ATOM     12  C   UNL     1      17.378 -30.583  23.213  1.00  0.00     0.000 C 
BRANCH  12  13
ATOM     13  C   UNL     1      15.872 -30.293  23.102  1.00  0.00    -0.000 C 
BRANCH  13  14
ATOM     14  C   UNL     1      15.430 -29.993  21.658  1.00  0.00    -0.000 C 
BRANCH  14  15
ATOM     15  C   UNL     1      14.170 -30.772  21.250  1.00  0.00    -0.000 C 
BRANCH  15  16
ATOM     16  C   UNL     1      13.138 -30.863  22.387  1.00  0.00    -0.000 C 
BRANCH  16  17
ATOM     17  C   UNL     1      11.788 -30.232  22.009  1.00  0.00    -0.000 C 
BRANCH  17  18
ATOM     18  C   UNL     1      11.424 -29.033  22.897  1.00  0.00    -0.003 C 
ATOM     19  C   UNL     1      12.515 -28.765  23.931  1.00  0.00     0.004 C 
ENDBRANCH  17  18
ENDBRANCH  16  17
ENDBRANCH  15  16
ENDBRANCH  14  15
ENDBRANCH  13  14
ENDBRANCH  12  13
ENDBRANCH   1  12
TORSDOF 14
ENDMDL
