MODEL 1
REMARK VINA RESULT:    -5.078      0.000      0.000
REMARK INTER + INTRA:          -8.372
REMARK INTER:                  -7.156
REMARK INTRA:                  -1.215
REMARK UNBOUND:                -1.215
REMARK SMILES OCC1=C[C@@H](O)[C@H]2C=CO[C@H](O[C@H]3O[C@@H](CO)[C@H](O)[C@H](O)[C@@H]3O)[C@@H]12
REMARK SMILES IDX 12 1 11 2 8 3 9 4 7 5 10 6 24 7 5 8 3 9 4 10 6 11 2 13 1 14
REMARK SMILES IDX 13 16 22 17 14 18 20 19 15 20 18 21 23 22 21 24 16 26 17 27
REMARK SMILES IDX 19 29
REMARK H PARENT 6 12 1 15 23 23 21 25 17 28 19 30
REMARK Flexibility Score: inf
ROOT
ATOM      1  O   UNL     1     -13.175  81.974  -6.460  1.00  0.00    -0.310 OA
ENDROOT
BRANCH   1   2
ATOM      2  C   UNL     1     -12.278  80.876  -6.344  1.00  0.00     0.316 C 
ATOM      3  C   UNL     1     -10.589  79.067  -4.881  1.00  0.00     0.018 C 
ATOM      4  C   UNL     1     -10.202  80.322  -5.113  1.00  0.00     0.186 C 
ATOM      5  C   UNL     1     -12.015  78.625  -5.111  1.00  0.00     0.061 C 
ATOM      6  O   UNL     1     -11.096  81.258  -5.627  1.00  0.00    -0.472 OA
ATOM      7  C   UNL     1     -12.991  79.722  -5.602  1.00  0.00     0.096 C 
ATOM      8  C   UNL     1     -12.150  77.462  -6.114  1.00  0.00     0.145 C 
ATOM      9  C   UNL     1     -13.895  78.967  -6.529  1.00  0.00    -0.036 C 
ATOM     10  C   UNL     1     -13.436  77.753  -6.807  1.00  0.00     0.007 C 
BRANCH   8  11
ATOM     11  O   UNL     1     -11.103  77.450  -7.052  1.00  0.00    -0.388 OA
ATOM     12  H   UNL     1     -11.103  78.344  -7.485  1.00  0.00     0.211 HD
ENDBRANCH   8  11
BRANCH   9  13
ATOM     13  C   UNL     1     -15.180  79.516  -7.095  1.00  0.00     0.187 C 
BRANCH  13  14
ATOM     14  O   UNL     1     -15.743  80.446  -6.209  1.00  0.00    -0.392 OA
ATOM     15  H   UNL     1     -16.309  79.931  -5.571  1.00  0.00     0.211 HD
ENDBRANCH  13  14
ENDBRANCH   9  13
ENDBRANCH   1   2
BRANCH   1  16
ATOM     16  C   UNL     1     -13.042  82.635  -7.710  1.00  0.00     0.286 C 
ATOM     17  C   UNL     1     -14.427  82.798  -8.351  1.00  0.00     0.202 C 
ATOM     18  O   UNL     1     -12.211  81.878  -8.576  1.00  0.00    -0.341 OA
ATOM     19  C   UNL     1     -14.325  83.708  -9.601  1.00  0.00     0.179 C 
ATOM     20  C   UNL     1     -12.090  82.415  -9.896  1.00  0.00     0.178 C 
ATOM     21  C   UNL     1     -12.888  83.729 -10.196  1.00  0.00     0.177 C 
BRANCH  17  22
ATOM     22  O   UNL     1     -15.349  83.310  -7.426  1.00  0.00    -0.385 OA
ATOM     23  H   UNL     1     -14.839  83.575  -6.618  1.00  0.00     0.211 HD
ENDBRANCH  17  22
BRANCH  19  24
ATOM     24  O   UNL     1     -14.719  85.018  -9.278  1.00  0.00    -0.387 OA
ATOM     25  H   UNL     1     -15.683  85.106  -9.496  1.00  0.00     0.211 HD
ENDBRANCH  19  24
BRANCH  20  26
ATOM     26  C   UNL     1     -12.408  81.302 -10.918  1.00  0.00     0.191 C 
BRANCH  26  27
ATOM     27  O   UNL     1     -11.283  81.001 -11.697  1.00  0.00    -0.394 OA
ATOM     28  H   UNL     1     -10.676  80.477 -11.110  1.00  0.00     0.210 HD
ENDBRANCH  26  27
ENDBRANCH  20  26
BRANCH  21  29
ATOM     29  O   UNL     1     -12.152  84.819  -9.679  1.00  0.00    -0.387 OA
ATOM     30  H   UNL     1     -11.209  84.517  -9.574  1.00  0.00     0.211 HD
ENDBRANCH  21  29
ENDBRANCH   1  16
TORSDOF 10
ENDMDL
MODEL 2
REMARK VINA RESULT:    -4.861      1.551      1.972
REMARK INTER + INTRA:          -8.066
REMARK INTER:                  -6.993
REMARK INTRA:                  -1.074
REMARK UNBOUND:                -1.215
REMARK SMILES OCC1=C[C@@H](O)[C@H]2C=CO[C@H](O[C@H]3O[C@@H](CO)[C@H](O)[C@H](O)[C@@H]3O)[C@@H]12
REMARK SMILES IDX 12 1 11 2 8 3 9 4 7 5 10 6 24 7 5 8 3 9 4 10 6 11 2 13 1 14
REMARK SMILES IDX 13 16 22 17 14 18 20 19 15 20 18 21 23 22 21 24 16 26 17 27
REMARK SMILES IDX 19 29
REMARK H PARENT 6 12 1 15 23 23 21 25 17 28 19 30
REMARK Flexibility Score: inf
ROOT
ATOM      1  O   UNL     1     -12.916  82.173  -6.535  1.00  0.00    -0.310 OA
ENDROOT
BRANCH   1   2
ATOM      2  C   UNL     1     -12.083  81.024  -6.445  1.00  0.00     0.316 C 
ATOM      3  C   UNL     1     -10.485  79.101  -5.026  1.00  0.00     0.018 C 
ATOM      4  C   UNL     1     -10.029  80.334  -5.246  1.00  0.00     0.186 C 
ATOM      5  C   UNL     1     -11.936  78.745  -5.244  1.00  0.00     0.061 C 
ATOM      6  O   UNL     1     -10.873  81.327  -5.737  1.00  0.00    -0.472 OA
ATOM      7  C   UNL     1     -12.852  79.903  -5.709  1.00  0.00     0.096 C 
ATOM      8  C   UNL     1     -12.150  77.605  -6.261  1.00  0.00     0.145 C 
ATOM      9  C   UNL     1     -13.809  79.214  -6.635  1.00  0.00    -0.036 C 
ATOM     10  C   UNL     1     -13.424  77.980  -6.935  1.00  0.00     0.007 C 
BRANCH   8  11
ATOM     11  O   UNL     1     -11.115  77.546  -7.212  1.00  0.00    -0.388 OA
ATOM     12  H   UNL     1     -10.282  77.807  -6.737  1.00  0.00     0.211 HD
ENDBRANCH   8  11
BRANCH   9  13
ATOM     13  C   UNL     1     -15.067  79.844  -7.178  1.00  0.00     0.187 C 
BRANCH  13  14
ATOM     14  O   UNL     1     -14.766  80.663  -8.276  1.00  0.00    -0.392 OA
ATOM     15  H   UNL     1     -14.111  81.343  -7.957  1.00  0.00     0.211 HD
ENDBRANCH  13  14
ENDBRANCH   9  13
ENDBRANCH   1   2
BRANCH   1  16
ATOM     16  C   UNL     1     -12.420  83.113  -7.477  1.00  0.00     0.286 C 
ATOM     17  C   UNL     1     -12.843  84.528  -7.059  1.00  0.00     0.202 C 
ATOM     18  O   UNL     1     -12.939  82.831  -8.768  1.00  0.00    -0.341 OA
ATOM     19  C   UNL     1     -12.128  85.576  -7.947  1.00  0.00     0.179 C 
ATOM     20  C   UNL     1     -12.572  83.780  -9.771  1.00  0.00     0.178 C 
ATOM     21  C   UNL     1     -11.677  84.980  -9.312  1.00  0.00     0.177 C 
BRANCH  17  22
ATOM     22  O   UNL     1     -12.575  84.748  -5.699  1.00  0.00    -0.385 OA
ATOM     23  H   UNL     1     -11.690  85.194  -5.642  1.00  0.00     0.211 HD
ENDBRANCH  17  22
BRANCH  19  24
ATOM     24  O   UNL     1     -11.012  86.101  -7.272  1.00  0.00    -0.387 OA
ATOM     25  H   UNL     1     -10.201  85.842  -7.780  1.00  0.00     0.211 HD
ENDBRANCH  19  24
BRANCH  20  26
ATOM     26  C   UNL     1     -13.848  84.258 -10.497  1.00  0.00     0.191 C 
BRANCH  26  27
ATOM     27  O   UNL     1     -14.374  83.244 -11.308  1.00  0.00    -0.394 OA
ATOM     28  H   UNL     1     -14.787  82.586 -10.689  1.00  0.00     0.210 HD
ENDBRANCH  26  27
ENDBRANCH  20  26
BRANCH  21  29
ATOM     29  O   UNL     1     -10.339  84.529  -9.239  1.00  0.00    -0.387 OA
ATOM     30  H   UNL     1     -10.357  83.536  -9.309  1.00  0.00     0.211 HD
ENDBRANCH  21  29
ENDBRANCH   1  16
TORSDOF 10
ENDMDL
MODEL 3
REMARK VINA RESULT:    -4.735      1.536      5.988
REMARK INTER + INTRA:          -7.888
REMARK INTER:                  -6.522
REMARK INTRA:                  -1.365
REMARK UNBOUND:                -1.215
REMARK SMILES OCC1=C[C@@H](O)[C@H]2C=CO[C@H](O[C@H]3O[C@@H](CO)[C@H](O)[C@H](O)[C@@H]3O)[C@@H]12
REMARK SMILES IDX 12 1 11 2 8 3 9 4 7 5 10 6 24 7 5 8 3 9 4 10 6 11 2 13 1 14
REMARK SMILES IDX 13 16 22 17 14 18 20 19 15 20 18 21 23 22 21 24 16 26 17 27
REMARK SMILES IDX 19 29
REMARK H PARENT 6 12 1 15 23 23 21 25 17 28 19 30
REMARK Flexibility Score: inf
ROOT
ATOM      1  O   UNL     1     -13.938  80.718  -7.684  1.00  0.00    -0.310 OA
ENDROOT
BRANCH   1   2
ATOM      2  C   UNL     1     -13.344  81.591  -8.638  1.00  0.00     0.316 C 
ATOM      3  C   UNL     1     -13.241  82.973 -11.156  1.00  0.00     0.018 C 
ATOM      4  C   UNL     1     -12.989  81.666 -11.087  1.00  0.00     0.186 C 
ATOM      5  C   UNL     1     -13.862  83.720 -10.000  1.00  0.00     0.061 C 
ATOM      6  O   UNL     1     -13.246  80.953  -9.919  1.00  0.00    -0.472 OA
ATOM      7  C   UNL     1     -14.207  82.868  -8.754  1.00  0.00     0.096 C 
ATOM      8  C   UNL     1     -13.002  84.891  -9.484  1.00  0.00     0.145 C 
ATOM      9  C   UNL     1     -13.924  83.810  -7.623  1.00  0.00    -0.036 C 
ATOM     10  C   UNL     1     -13.270  84.895  -8.018  1.00  0.00     0.007 C 
BRANCH   8  11
ATOM     11  O   UNL     1     -11.631  84.679  -9.710  1.00  0.00    -0.388 OA
ATOM     12  H   UNL     1     -11.361  85.316 -10.423  1.00  0.00     0.211 HD
ENDBRANCH   8  11
BRANCH   9  13
ATOM     13  C   UNL     1     -14.326  83.561  -6.191  1.00  0.00     0.187 C 
BRANCH  13  14
ATOM     14  O   UNL     1     -13.310  82.871  -5.514  1.00  0.00    -0.392 OA
ATOM     15  H   UNL     1     -12.580  83.527  -5.345  1.00  0.00     0.211 HD
ENDBRANCH  13  14
ENDBRANCH   9  13
ENDBRANCH   1   2
BRANCH   1  16
ATOM     16  C   UNL     1     -12.999  79.789  -7.163  1.00  0.00     0.286 C 
ATOM     17  C   UNL     1     -13.490  79.276  -5.802  1.00  0.00     0.202 C 
ATOM     18  O   UNL     1     -11.734  80.412  -6.999  1.00  0.00    -0.341 OA
ATOM     19  C   UNL     1     -12.595  78.104  -5.327  1.00  0.00     0.179 C 
ATOM     20  C   UNL     1     -10.742  79.583  -6.390  1.00  0.00     0.178 C 
ATOM     21  C   UNL     1     -11.186  78.136  -5.986  1.00  0.00     0.177 C 
BRANCH  17  22
ATOM     22  O   UNL     1     -14.837  78.888  -5.871  1.00  0.00    -0.385 OA
ATOM     23  H   UNL     1     -14.921  78.244  -6.621  1.00  0.00     0.211 HD
ENDBRANCH  17  22
BRANCH  19  24
ATOM     24  O   UNL     1     -13.218  76.875  -5.609  1.00  0.00    -0.387 OA
ATOM     25  H   UNL     1     -12.960  76.235  -4.898  1.00  0.00     0.211 HD
ENDBRANCH  19  24
BRANCH  20  26
ATOM     26  C   UNL     1     -10.114  80.345  -5.204  1.00  0.00     0.191 C 
BRANCH  26  27
ATOM     27  O   UNL     1     -10.696  81.611  -5.056  1.00  0.00    -0.394 OA
ATOM     28  H   UNL     1     -11.426  81.500  -4.391  1.00  0.00     0.210 HD
ENDBRANCH  26  27
ENDBRANCH  20  26
BRANCH  21  29
ATOM     29  O   UNL     1     -11.161  77.327  -7.144  1.00  0.00    -0.387 OA
ATOM     30  H   UNL     1     -10.789  76.443  -6.880  1.00  0.00     0.211 HD
ENDBRANCH  21  29
ENDBRANCH   1  16
TORSDOF 10
ENDMDL
MODEL 4
REMARK VINA RESULT:    -4.727     13.263     15.566
REMARK INTER + INTRA:          -7.877
REMARK INTER:                  -6.762
REMARK INTRA:                  -1.115
REMARK UNBOUND:                -1.215
REMARK SMILES OCC1=C[C@@H](O)[C@H]2C=CO[C@H](O[C@H]3O[C@@H](CO)[C@H](O)[C@H](O)[C@@H]3O)[C@@H]12
REMARK SMILES IDX 12 1 11 2 8 3 9 4 7 5 10 6 24 7 5 8 3 9 4 10 6 11 2 13 1 14
REMARK SMILES IDX 13 16 22 17 14 18 20 19 15 20 18 21 23 22 21 24 16 26 17 27
REMARK SMILES IDX 19 29
REMARK H PARENT 6 12 1 15 23 23 21 25 17 28 19 30
REMARK Flexibility Score: inf
ROOT
ATOM      1  O   UNL     1      -3.914  92.794 -12.331  1.00  0.00    -0.310 OA
ENDROOT
BRANCH   1   2
ATOM      2  C   UNL     1      -4.599  92.571 -11.105  1.00  0.00     0.316 C 
ATOM      3  C   UNL     1      -4.798  91.633  -8.395  1.00  0.00     0.018 C 
ATOM      4  C   UNL     1      -4.800  90.773  -9.414  1.00  0.00     0.186 C 
ATOM      5  C   UNL     1      -4.408  93.080  -8.583  1.00  0.00     0.061 C 
ATOM      6  O   UNL     1      -4.489  91.199 -10.703  1.00  0.00    -0.472 OA
ATOM      7  C   UNL     1      -3.990  93.485 -10.017  1.00  0.00     0.096 C 
ATOM      8  C   UNL     1      -5.508  94.078  -8.168  1.00  0.00     0.145 C 
ATOM      9  C   UNL     1      -4.521  94.881 -10.133  1.00  0.00    -0.036 C 
ATOM     10  C   UNL     1      -5.343  95.195  -9.139  1.00  0.00     0.007 C 
BRANCH   8  11
ATOM     11  O   UNL     1      -6.796  93.528  -8.299  1.00  0.00    -0.388 OA
ATOM     12  H   UNL     1      -6.818  92.723  -7.717  1.00  0.00     0.211 HD
ENDBRANCH   8  11
BRANCH   9  13
ATOM     13  C   UNL     1      -4.174  95.832 -11.251  1.00  0.00     0.187 C 
BRANCH  13  14
ATOM     14  O   UNL     1      -2.875  95.581 -11.717  1.00  0.00    -0.392 OA
ATOM     15  H   UNL     1      -2.371  96.437 -11.640  1.00  0.00     0.211 HD
ENDBRANCH  13  14
ENDBRANCH   9  13
ENDBRANCH   1   2
BRANCH   1  16
ATOM     16  C   UNL     1      -4.654  92.314 -13.445  1.00  0.00     0.286 C 
ATOM     17  C   UNL     1      -3.812  91.287 -14.214  1.00  0.00     0.202 C 
ATOM     18  O   UNL     1      -4.985  93.390 -14.310  1.00  0.00    -0.341 OA
ATOM     19  C   UNL     1      -4.682  90.596 -15.294  1.00  0.00     0.179 C 
ATOM     20  C   UNL     1      -5.652  92.996 -15.512  1.00  0.00     0.178 C 
ATOM     21  C   UNL     1      -5.906  91.463 -15.706  1.00  0.00     0.177 C 
BRANCH  17  22
ATOM     22  O   UNL     1      -3.250  90.345 -13.338  1.00  0.00    -0.385 OA
ATOM     23  H   UNL     1      -2.998  90.829 -12.509  1.00  0.00     0.211 HD
ENDBRANCH  17  22
BRANCH  19  24
ATOM     24  O   UNL     1      -5.127  89.346 -14.829  1.00  0.00    -0.387 OA
ATOM     25  H   UNL     1      -4.391  88.694 -14.961  1.00  0.00     0.211 HD
ENDBRANCH  19  24
BRANCH  20  26
ATOM     26  C   UNL     1      -4.913  93.615 -16.718  1.00  0.00     0.191 C 
BRANCH  26  27
ATOM     27  O   UNL     1      -4.771  95.000 -16.563  1.00  0.00    -0.394 OA
ATOM     28  H   UNL     1      -4.068  95.127 -15.873  1.00  0.00     0.210 HD
ENDBRANCH  26  27
ENDBRANCH  20  26
BRANCH  21  29
ATOM     29  O   UNL     1      -7.044  91.106 -14.949  1.00  0.00    -0.387 OA
ATOM     30  H   UNL     1      -6.725  90.595 -14.157  1.00  0.00     0.211 HD
ENDBRANCH  21  29
ENDBRANCH   1  16
TORSDOF 10
ENDMDL
MODEL 5
REMARK VINA RESULT:    -4.649     12.824     16.384
REMARK INTER + INTRA:          -7.768
REMARK INTER:                  -6.417
REMARK INTRA:                  -1.350
REMARK UNBOUND:                -1.215
REMARK SMILES OCC1=C[C@@H](O)[C@H]2C=CO[C@H](O[C@H]3O[C@@H](CO)[C@H](O)[C@H](O)[C@@H]3O)[C@@H]12
REMARK SMILES IDX 12 1 11 2 8 3 9 4 7 5 10 6 24 7 5 8 3 9 4 10 6 11 2 13 1 14
REMARK SMILES IDX 13 16 22 17 14 18 20 19 15 20 18 21 23 22 21 24 16 26 17 27
REMARK SMILES IDX 19 29
REMARK H PARENT 6 12 1 15 23 23 21 25 17 28 19 30
REMARK Flexibility Score: inf
ROOT
ATOM      1  O   UNL     1      -5.216  93.428 -14.999  1.00  0.00    -0.310 OA
ENDROOT
BRANCH   1   2
ATOM      2  C   UNL     1      -5.884  93.108 -16.213  1.00  0.00     0.316 C 
ATOM      3  C   UNL     1      -7.061  93.748 -18.757  1.00  0.00     0.018 C 
ATOM      4  C   UNL     1      -7.689  94.051 -17.621  1.00  0.00     0.186 C 
ATOM      5  C   UNL     1      -5.609  93.330 -18.769  1.00  0.00     0.061 C 
ATOM      6  O   UNL     1      -7.036  93.942 -16.396  1.00  0.00    -0.472 OA
ATOM      7  C   UNL     1      -4.903  93.305 -17.391  1.00  0.00     0.096 C 
ATOM      8  C   UNL     1      -5.369  91.940 -19.391  1.00  0.00     0.145 C 
ATOM      9  C   UNL     1      -3.976  92.134 -17.519  1.00  0.00    -0.036 C 
ATOM     10  C   UNL     1      -4.234  91.398 -18.592  1.00  0.00     0.007 C 
BRANCH   8  11
ATOM     11  O   UNL     1      -6.487  91.099 -19.249  1.00  0.00    -0.388 OA
ATOM     12  H   UNL     1      -7.271  91.693 -19.112  1.00  0.00     0.211 HD
ENDBRANCH   8  11
BRANCH   9  13
ATOM     13  C   UNL     1      -2.875  91.813 -16.540  1.00  0.00     0.187 C 
BRANCH  13  14
ATOM     14  O   UNL     1      -3.173  90.633 -15.843  1.00  0.00    -0.392 OA
ATOM     15  H   UNL     1      -3.668  90.043 -16.475  1.00  0.00     0.211 HD
ENDBRANCH  13  14
ENDBRANCH   9  13
ENDBRANCH   1   2
BRANCH   1  16
ATOM     16  C   UNL     1      -5.556  92.526 -13.955  1.00  0.00     0.286 C 
ATOM     17  C   UNL     1      -4.314  92.247 -13.097  1.00  0.00     0.202 C 
ATOM     18  O   UNL     1      -6.031  91.305 -14.502  1.00  0.00    -0.341 OA
ATOM     19  C   UNL     1      -4.716  91.446 -11.834  1.00  0.00     0.179 C 
ATOM     20  C   UNL     1      -6.311  90.294 -13.531  1.00  0.00     0.178 C 
ATOM     21  C   UNL     1      -6.047  90.665 -12.033  1.00  0.00     0.177 C 
BRANCH  17  22
ATOM     22  O   UNL     1      -3.666  93.443 -12.753  1.00  0.00    -0.385 OA
ATOM     23  H   UNL     1      -3.898  93.644 -11.810  1.00  0.00     0.211 HD
ENDBRANCH  17  22
BRANCH  19  24
ATOM     24  O   UNL     1      -4.839  92.311 -10.732  1.00  0.00    -0.387 OA
ATOM     25  H   UNL     1      -5.510  91.921 -10.115  1.00  0.00     0.211 HD
ENDBRANCH  19  24
BRANCH  20  26
ATOM     26  C   UNL     1      -5.584  88.994 -13.940  1.00  0.00     0.191 C 
BRANCH  26  27
ATOM     27  O   UNL     1      -5.393  88.941 -15.326  1.00  0.00    -0.394 OA
ATOM     28  H   UNL     1      -5.050  88.029 -15.520  1.00  0.00     0.210 HD
ENDBRANCH  26  27
ENDBRANCH  20  26
BRANCH  21  29
ATOM     29  O   UNL     1      -7.143  91.425 -11.567  1.00  0.00    -0.387 OA
ATOM     30  H   UNL     1      -7.354  92.101 -12.267  1.00  0.00     0.211 HD
ENDBRANCH  21  29
ENDBRANCH   1  16
TORSDOF 10
ENDMDL
MODEL 6
REMARK VINA RESULT:    -4.593      1.667      2.097
REMARK INTER + INTRA:          -7.688
REMARK INTER:                  -6.707
REMARK INTRA:                  -0.981
REMARK UNBOUND:                -1.215
REMARK SMILES OCC1=C[C@@H](O)[C@H]2C=CO[C@H](O[C@H]3O[C@@H](CO)[C@H](O)[C@H](O)[C@@H]3O)[C@@H]12
REMARK SMILES IDX 12 1 11 2 8 3 9 4 7 5 10 6 24 7 5 8 3 9 4 10 6 11 2 13 1 14
REMARK SMILES IDX 13 16 22 17 14 18 20 19 15 20 18 21 23 22 21 24 16 26 17 27
REMARK SMILES IDX 19 29
REMARK H PARENT 6 12 1 15 23 23 21 25 17 28 19 30
REMARK Flexibility Score: inf
ROOT
ATOM      1  O   UNL     1     -13.991  81.216  -8.173  1.00  0.00    -0.310 OA
ENDROOT
BRANCH   1   2
ATOM      2  C   UNL     1     -12.888  80.388  -7.826  1.00  0.00     0.316 C 
ATOM      3  C   UNL     1     -10.602  79.666  -6.239  1.00  0.00     0.018 C 
ATOM      4  C   UNL     1     -10.532  80.667  -7.117  1.00  0.00     0.186 C 
ATOM      5  C   UNL     1     -11.927  79.065  -5.831  1.00  0.00     0.061 C 
ATOM      6  O   UNL     1     -11.683  81.159  -7.727  1.00  0.00    -0.472 OA
ATOM      7  C   UNL     1     -13.183  79.702  -6.473  1.00  0.00     0.096 C 
ATOM      8  C   UNL     1     -12.033  77.552  -6.108  1.00  0.00     0.145 C 
ATOM      9  C   UNL     1     -14.091  78.524  -6.656  1.00  0.00    -0.036 C 
ATOM     10  C   UNL     1     -13.467  77.368  -6.465  1.00  0.00     0.007 C 
BRANCH   8  11
ATOM     11  O   UNL     1     -11.225  77.155  -7.188  1.00  0.00    -0.388 OA
ATOM     12  H   UNL     1     -11.508  77.704  -7.967  1.00  0.00     0.211 HD
ENDBRANCH   8  11
BRANCH   9  13
ATOM     13  C   UNL     1     -15.550  78.626  -7.023  1.00  0.00     0.187 C 
BRANCH  13  14
ATOM     14  O   UNL     1     -16.105  79.797  -6.487  1.00  0.00    -0.392 OA
ATOM     15  H   UNL     1     -16.860  80.057  -7.083  1.00  0.00     0.211 HD
ENDBRANCH  13  14
ENDBRANCH   9  13
ENDBRANCH   1   2
BRANCH   1  16
ATOM     16  C   UNL     1     -13.703  82.592  -7.965  1.00  0.00     0.286 C 
ATOM     17  C   UNL     1     -15.010  83.353  -7.705  1.00  0.00     0.202 C 
ATOM     18  O   UNL     1     -13.065  83.136  -9.111  1.00  0.00    -0.341 OA
ATOM     19  C   UNL     1     -14.696  84.803  -7.259  1.00  0.00     0.179 C 
ATOM     20  C   UNL     1     -12.819  84.542  -9.037  1.00  0.00     0.178 C 
ATOM     21  C   UNL     1     -13.290  85.271  -7.733  1.00  0.00     0.177 C 
BRANCH  17  22
ATOM     22  O   UNL     1     -15.794  82.688  -6.749  1.00  0.00    -0.385 OA
ATOM     23  H   UNL     1     -15.788  81.724  -6.982  1.00  0.00     0.211 HD
ENDBRANCH  17  22
BRANCH  19  24
ATOM     24  O   UNL     1     -14.779  84.907  -5.860  1.00  0.00    -0.387 OA
ATOM     25  H   UNL     1     -14.947  83.999  -5.499  1.00  0.00     0.211 HD
ENDBRANCH  19  24
BRANCH  20  26
ATOM     26  C   UNL     1     -13.380  85.214 -10.308  1.00  0.00     0.191 C 
BRANCH  26  27
ATOM     27  O   UNL     1     -14.195  84.330 -11.026  1.00  0.00    -0.394 OA
ATOM     28  H   UNL     1     -14.939  84.878 -11.390  1.00  0.00     0.210 HD
ENDBRANCH  26  27
ENDBRANCH  20  26
BRANCH  21  29
ATOM     29  O   UNL     1     -12.325  85.042  -6.727  1.00  0.00    -0.387 OA
ATOM     30  H   UNL     1     -11.435  85.264  -7.114  1.00  0.00     0.211 HD
ENDBRANCH  21  29
ENDBRANCH   1  16
TORSDOF 10
ENDMDL
MODEL 7
REMARK VINA RESULT:    -4.579     11.945     15.385
REMARK INTER + INTRA:          -7.668
REMARK INTER:                  -6.307
REMARK INTRA:                  -1.360
REMARK UNBOUND:                -1.215
REMARK SMILES OCC1=C[C@@H](O)[C@H]2C=CO[C@H](O[C@H]3O[C@@H](CO)[C@H](O)[C@H](O)[C@@H]3O)[C@@H]12
REMARK SMILES IDX 12 1 11 2 8 3 9 4 7 5 10 6 24 7 5 8 3 9 4 10 6 11 2 13 1 14
REMARK SMILES IDX 13 16 22 17 14 18 20 19 15 20 18 21 23 22 21 24 16 26 17 27
REMARK SMILES IDX 19 29
REMARK H PARENT 6 12 1 15 23 23 21 25 17 28 19 30
REMARK Flexibility Score: inf
ROOT
ATOM      1  O   UNL     1      -4.718  90.410 -15.521  1.00  0.00    -0.310 OA
ENDROOT
BRANCH   1   2
ATOM      2  C   UNL     1      -5.813  90.276 -14.623  1.00  0.00     0.316 C 
ATOM      3  C   UNL     1      -7.365  88.897 -12.635  1.00  0.00     0.018 C 
ATOM      4  C   UNL     1      -7.400  88.513 -13.911  1.00  0.00     0.186 C 
ATOM      5  C   UNL     1      -6.317  89.859 -12.127  1.00  0.00     0.061 C 
ATOM      6  O   UNL     1      -6.495  89.032 -14.834  1.00  0.00    -0.472 OA
ATOM      7  C   UNL     1      -5.283  90.343 -13.173  1.00  0.00     0.096 C 
ATOM      8  C   UNL     1      -6.903  91.137 -11.493  1.00  0.00     0.145 C 
ATOM      9  C   UNL     1      -5.035  91.761 -12.758  1.00  0.00    -0.036 C 
ATOM     10  C   UNL     1      -5.913  92.188 -11.859  1.00  0.00     0.007 C 
BRANCH   8  11
ATOM     11  O   UNL     1      -8.159  91.466 -12.034  1.00  0.00    -0.388 OA
ATOM     12  H   UNL     1      -8.295  92.435 -11.860  1.00  0.00     0.211 HD
ENDBRANCH   8  11
BRANCH   9  13
ATOM     13  C   UNL     1      -3.921  92.621 -13.299  1.00  0.00     0.187 C 
BRANCH  13  14
ATOM     14  O   UNL     1      -4.373  93.368 -14.397  1.00  0.00    -0.392 OA
ATOM     15  H   UNL     1      -5.306  93.073 -14.581  1.00  0.00     0.211 HD
ENDBRANCH  13  14
ENDBRANCH   9  13
ENDBRANCH   1   2
BRANCH   1  16
ATOM     16  C   UNL     1      -5.117  90.982 -16.758  1.00  0.00     0.286 C 
ATOM     17  C   UNL     1      -3.877  91.479 -17.514  1.00  0.00     0.202 C 
ATOM     18  O   UNL     1      -5.995  92.074 -16.531  1.00  0.00    -0.341 OA
ATOM     19  C   UNL     1      -4.271  91.902 -18.952  1.00  0.00     0.179 C 
ATOM     20  C   UNL     1      -6.380  92.778 -17.713  1.00  0.00     0.178 C 
ATOM     21  C   UNL     1      -5.779  92.263 -19.065  1.00  0.00     0.177 C 
BRANCH  17  22
ATOM     22  O   UNL     1      -2.875  90.497 -17.531  1.00  0.00    -0.385 OA
ATOM     23  H   UNL     1      -2.719  90.219 -16.591  1.00  0.00     0.211 HD
ENDBRANCH  17  22
BRANCH  19  24
ATOM     24  O   UNL     1      -3.965  90.871 -19.858  1.00  0.00    -0.387 OA
ATOM     25  H   UNL     1      -4.821  90.500 -20.194  1.00  0.00     0.211 HD
ENDBRANCH  19  24
BRANCH  20  26
ATOM     26  C   UNL     1      -6.119  94.286 -17.504  1.00  0.00     0.191 C 
BRANCH  26  27
ATOM     27  O   UNL     1      -4.929  94.495 -16.796  1.00  0.00    -0.394 OA
ATOM     28  H   UNL     1      -4.194  94.251 -17.419  1.00  0.00     0.210 HD
ENDBRANCH  26  27
ENDBRANCH  20  26
BRANCH  21  29
ATOM     29  O   UNL     1      -6.529  91.141 -19.481  1.00  0.00    -0.387 OA
ATOM     30  H   UNL     1      -5.902  90.370 -19.539  1.00  0.00     0.211 HD
ENDBRANCH  21  29
ENDBRANCH   1  16
TORSDOF 10
ENDMDL
MODEL 8
REMARK VINA RESULT:    -4.543      1.512      2.003
REMARK INTER + INTRA:          -7.617
REMARK INTER:                  -7.195
REMARK INTRA:                  -0.423
REMARK UNBOUND:                -1.215
REMARK SMILES OCC1=C[C@@H](O)[C@H]2C=CO[C@H](O[C@H]3O[C@@H](CO)[C@H](O)[C@H](O)[C@@H]3O)[C@@H]12
REMARK SMILES IDX 12 1 11 2 8 3 9 4 7 5 10 6 24 7 5 8 3 9 4 10 6 11 2 13 1 14
REMARK SMILES IDX 13 16 22 17 14 18 20 19 15 20 18 21 23 22 21 24 16 26 17 27
REMARK SMILES IDX 19 29
REMARK H PARENT 6 12 1 15 23 23 21 25 17 28 19 30
REMARK Flexibility Score: inf
ROOT
ATOM      1  O   UNL     1     -13.730  82.321  -6.849  1.00  0.00    -0.310 OA
ENDROOT
BRANCH   1   2
ATOM      2  C   UNL     1     -12.911  81.165  -6.973  1.00  0.00     0.316 C 
ATOM      3  C   UNL     1     -10.883  79.332  -6.082  1.00  0.00     0.018 C 
ATOM      4  C   UNL     1     -10.553  80.532  -6.562  1.00  0.00     0.186 C 
ATOM      5  C   UNL     1     -12.309  78.993  -5.717  1.00  0.00     0.061 C 
ATOM      6  O   UNL     1     -11.528  81.498  -6.791  1.00  0.00    -0.472 OA
ATOM      7  C   UNL     1     -13.343  80.128  -5.911  1.00  0.00     0.096 C 
ATOM      8  C   UNL     1     -12.872  77.776  -6.479  1.00  0.00     0.145 C 
ATOM      9  C   UNL     1     -14.567  79.386  -6.354  1.00  0.00    -0.036 C 
ATOM     10  C   UNL     1     -14.309  78.122  -6.666  1.00  0.00     0.007 C 
BRANCH   8  11
ATOM     11  O   UNL     1     -12.262  77.613  -7.736  1.00  0.00    -0.388 OA
ATOM     12  H   UNL     1     -12.884  78.004  -8.404  1.00  0.00     0.211 HD
ENDBRANCH   8  11
BRANCH   9  13
ATOM     13  C   UNL     1     -15.943  79.996  -6.447  1.00  0.00     0.187 C 
BRANCH  13  14
ATOM     14  O   UNL     1     -16.125  80.597  -7.701  1.00  0.00    -0.392 OA
ATOM     15  H   UNL     1     -16.461  79.887  -8.314  1.00  0.00     0.211 HD
ENDBRANCH  13  14
ENDBRANCH   9  13
ENDBRANCH   1   2
BRANCH   1  16
ATOM     16  C   UNL     1     -13.555  83.212  -7.942  1.00  0.00     0.286 C 
ATOM     17  C   UNL     1     -13.219  82.410  -9.206  1.00  0.00     0.202 C 
ATOM     18  O   UNL     1     -12.497  84.118  -7.668  1.00  0.00    -0.341 OA
ATOM     19  C   UNL     1     -13.244  83.342 -10.444  1.00  0.00     0.179 C 
ATOM     20  C   UNL     1     -12.179  84.998  -8.748  1.00  0.00     0.178 C 
ATOM     21  C   UNL     1     -13.018  84.832 -10.060  1.00  0.00     0.177 C 
BRANCH  17  22
ATOM     22  O   UNL     1     -14.106  81.333  -9.365  1.00  0.00    -0.385 OA
ATOM     23  H   UNL     1     -14.993  81.714  -9.596  1.00  0.00     0.211 HD
ENDBRANCH  17  22
BRANCH  19  24
ATOM     24  O   UNL     1     -14.469  83.211 -11.122  1.00  0.00    -0.387 OA
ATOM     25  H   UNL     1     -14.467  83.856 -11.875  1.00  0.00     0.211 HD
ENDBRANCH  19  24
BRANCH  20  26
ATOM     26  C   UNL     1     -10.661  84.925  -9.022  1.00  0.00     0.191 C 
BRANCH  26  27
ATOM     27  O   UNL     1     -10.099  83.785  -8.432  1.00  0.00    -0.394 OA
ATOM     28  H   UNL     1      -9.419  83.452  -9.074  1.00  0.00     0.210 HD
ENDBRANCH  26  27
ENDBRANCH  20  26
BRANCH  21  29
ATOM     29  O   UNL     1     -14.255  85.491  -9.878  1.00  0.00    -0.387 OA
ATOM     30  H   UNL     1     -14.055  86.439  -9.647  1.00  0.00     0.211 HD
ENDBRANCH  21  29
ENDBRANCH   1  16
TORSDOF 10
ENDMDL
MODEL 9
REMARK VINA RESULT:    -4.474      6.137      8.300
REMARK INTER + INTRA:          -7.521
REMARK INTER:                  -6.271
REMARK INTRA:                  -1.250
REMARK UNBOUND:                -1.215
REMARK SMILES OCC1=C[C@@H](O)[C@H]2C=CO[C@H](O[C@H]3O[C@@H](CO)[C@H](O)[C@H](O)[C@@H]3O)[C@@H]12
REMARK SMILES IDX 12 1 11 2 8 3 9 4 7 5 10 6 24 7 5 8 3 9 4 10 6 11 2 13 1 14
REMARK SMILES IDX 13 16 22 17 14 18 20 19 15 20 18 21 23 22 21 24 16 26 17 27
REMARK SMILES IDX 19 29
REMARK H PARENT 6 12 1 15 23 23 21 25 17 28 19 30
REMARK Flexibility Score: inf
ROOT
ATOM      1  O   UNL     1      -6.779  84.706  -9.947  1.00  0.00    -0.310 OA
ENDROOT
BRANCH   1   2
ATOM      2  C   UNL     1      -5.742  84.007  -9.270  1.00  0.00     0.316 C 
ATOM      3  C   UNL     1      -3.147  82.781  -9.093  1.00  0.00     0.018 C 
ATOM      4  C   UNL     1      -4.139  82.182  -9.754  1.00  0.00     0.186 C 
ATOM      5  C   UNL     1      -3.243  84.227  -8.665  1.00  0.00     0.061 C 
ATOM      6  O   UNL     1      -5.324  82.862 -10.026  1.00  0.00    -0.472 OA
ATOM      7  C   UNL     1      -4.545  84.963  -9.065  1.00  0.00     0.096 C 
ATOM      8  C   UNL     1      -3.091  84.435  -7.145  1.00  0.00     0.145 C 
ATOM      9  C   UNL     1      -4.780  85.872  -7.896  1.00  0.00    -0.036 C 
ATOM     10  C   UNL     1      -4.000  85.580  -6.862  1.00  0.00     0.007 C 
BRANCH   8  11
ATOM     11  O   UNL     1      -3.512  83.309  -6.414  1.00  0.00    -0.388 OA
ATOM     12  H   UNL     1      -3.761  82.617  -7.082  1.00  0.00     0.211 HD
ENDBRANCH   8  11
BRANCH   9  13
ATOM     13  C   UNL     1      -5.791  86.991  -7.880  1.00  0.00     0.187 C 
BRANCH  13  14
ATOM     14  O   UNL     1      -5.968  87.503  -9.174  1.00  0.00    -0.392 OA
ATOM     15  H   UNL     1      -5.325  88.257  -9.276  1.00  0.00     0.211 HD
ENDBRANCH  13  14
ENDBRANCH   9  13
ENDBRANCH   1   2
BRANCH   1  16
ATOM     16  C   UNL     1      -8.066  84.271  -9.532  1.00  0.00     0.286 C 
ATOM     17  C   UNL     1      -8.844  85.458  -8.949  1.00  0.00     0.202 C 
ATOM     18  O   UNL     1      -7.945  83.259  -8.544  1.00  0.00    -0.341 OA
ATOM     19  C   UNL     1     -10.318  85.051  -8.699  1.00  0.00     0.179 C 
ATOM     20  C   UNL     1      -9.188  82.820  -7.993  1.00  0.00     0.178 C 
ATOM     21  C   UNL     1     -10.483  83.512  -8.539  1.00  0.00     0.177 C 
BRANCH  17  22
ATOM     22  O   UNL     1      -8.764  86.573  -9.796  1.00  0.00    -0.385 OA
ATOM     23  H   UNL     1      -9.321  86.378 -10.594  1.00  0.00     0.211 HD
ENDBRANCH  17  22
BRANCH  19  24
ATOM     24  O   UNL     1     -11.129  85.503  -9.754  1.00  0.00    -0.387 OA
ATOM     25  H   UNL     1     -10.647  86.237 -10.213  1.00  0.00     0.211 HD
ENDBRANCH  19  24
BRANCH  20  26
ATOM     26  C   UNL     1      -9.104  82.888  -6.453  1.00  0.00     0.191 C 
BRANCH  26  27
ATOM     27  O   UNL     1      -7.961  83.588  -6.043  1.00  0.00    -0.394 OA
ATOM     28  H   UNL     1      -7.864  84.346  -6.677  1.00  0.00     0.210 HD
ENDBRANCH  26  27
ENDBRANCH  20  26
BRANCH  21  29
ATOM     29  O   UNL     1     -10.813  82.916  -9.777  1.00  0.00    -0.387 OA
ATOM     30  H   UNL     1     -11.755  82.602  -9.712  1.00  0.00     0.211 HD
ENDBRANCH  21  29
ENDBRANCH   1  16
TORSDOF 10
ENDMDL
