MODEL 1
REMARK VINA RESULT:    -5.366      0.000      0.000
REMARK INTER + INTRA:          -6.293
REMARK INTER:                  -6.150
REMARK INTRA:                  -0.143
REMARK UNBOUND:                -0.143
REMARK SMILES O=C([O-])C=Cc1ccc(O)cc1
REMARK SMILES IDX 6 1 7 2 12 3 8 4 11 5 9 6 5 7 4 8 2 9 1 10 3 11 10 12
REMARK H PARENT 10 13
REMARK Flexibility Score: inf
ROOT
ATOM      1  C   UNL     1      10.574   9.717  13.475  1.00  0.00    -0.025 A 
ATOM      2  C   UNL     1      10.179  10.232  14.722  1.00  0.00     0.012 A 
ATOM      3  C   UNL     1       9.595   9.146  12.635  1.00  0.00     0.012 A 
ATOM      4  C   UNL     1       8.837  10.204  15.111  1.00  0.00     0.047 A 
ATOM      5  C   UNL     1       8.253   9.120  13.030  1.00  0.00     0.047 A 
ATOM      6  C   UNL     1       7.870   9.650  14.265  1.00  0.00     0.115 A 
ENDROOT
BRANCH   1   7
ATOM      7  C   UNL     1      12.012   9.759  13.112  1.00  0.00     0.010 C 
ATOM      8  C   UNL     1      12.995   9.320  13.911  1.00  0.00     0.025 C 
BRANCH   8   9
ATOM      9  C   UNL     1      14.408   9.372  13.504  1.00  0.00     0.064 C 
ATOM     10  O   UNL     1      14.942  10.483  13.248  1.00  0.00    -0.545 OA
ATOM     11  O   UNL     1      15.167   8.211  13.399  1.00  0.00    -0.545 OA
ENDBRANCH   8   9
ENDBRANCH   1   7
BRANCH   6  12
ATOM     12  O   UNL     1       6.529   9.617  14.642  1.00  0.00    -0.508 OA
ATOM     13  H   UNL     1       5.802   9.986  14.041  1.00  0.00     0.293 HD
ENDBRANCH   6  12
TORSDOF 3
ENDMDL
MODEL 2
REMARK VINA RESULT:    -5.306      0.094      1.400
REMARK INTER + INTRA:          -6.225
REMARK INTER:                  -6.088
REMARK INTRA:                  -0.137
REMARK UNBOUND:                -0.143
REMARK SMILES O=C([O-])C=Cc1ccc(O)cc1
REMARK SMILES IDX 6 1 7 2 12 3 8 4 11 5 9 6 5 7 4 8 2 9 1 10 3 11 10 12
REMARK H PARENT 10 13
REMARK Flexibility Score: inf
ROOT
ATOM      1  C   UNL     1      10.613   9.737  13.603  1.00  0.00    -0.025 A 
ATOM      2  C   UNL     1       9.688   9.184  12.701  1.00  0.00     0.012 A 
ATOM      3  C   UNL     1      10.141  10.262  14.824  1.00  0.00     0.012 A 
ATOM      4  C   UNL     1       8.328   9.130  13.020  1.00  0.00     0.047 A 
ATOM      5  C   UNL     1       8.779  10.206  15.138  1.00  0.00     0.047 A 
ATOM      6  C   UNL     1       7.871   9.639  14.241  1.00  0.00     0.115 A 
ENDROOT
BRANCH   1   7
ATOM      7  C   UNL     1      12.045   9.781  13.214  1.00  0.00     0.010 C 
ATOM      8  C   UNL     1      13.043   9.358  14.001  1.00  0.00     0.025 C 
BRANCH   8   9
ATOM      9  C   UNL     1      14.449   9.410  13.570  1.00  0.00     0.064 C 
ATOM     10  O   UNL     1      14.974  10.520  13.294  1.00  0.00    -0.545 OA
ATOM     11  O   UNL     1      15.209   8.251  13.460  1.00  0.00    -0.545 OA
ENDBRANCH   8   9
ENDBRANCH   1   7
BRANCH   6  12
ATOM     12  O   UNL     1       6.518   9.590  14.570  1.00  0.00    -0.508 OA
ATOM     13  H   UNL     1       5.982   8.735  14.479  1.00  0.00     0.293 HD
ENDBRANCH   6  12
TORSDOF 3
ENDMDL
MODEL 3
REMARK VINA RESULT:    -5.087      1.838      2.341
REMARK INTER + INTRA:          -5.974
REMARK INTER:                  -5.838
REMARK INTRA:                  -0.136
REMARK UNBOUND:                -0.143
REMARK SMILES O=C([O-])C=Cc1ccc(O)cc1
REMARK SMILES IDX 6 1 7 2 12 3 8 4 11 5 9 6 5 7 4 8 2 9 1 10 3 11 10 12
REMARK H PARENT 10 13
REMARK Flexibility Score: inf
ROOT
ATOM      1  C   UNL     1      11.966  10.167  13.785  1.00  0.00    -0.025 A 
ATOM      2  C   UNL     1      11.028   9.279  14.342  1.00  0.00     0.012 A 
ATOM      3  C   UNL     1      11.804  11.551  14.005  1.00  0.00     0.012 A 
ATOM      4  C   UNL     1       9.971   9.757  15.121  1.00  0.00     0.047 A 
ATOM      5  C   UNL     1      10.744  12.024  14.784  1.00  0.00     0.047 A 
ATOM      6  C   UNL     1       9.828  11.131  15.346  1.00  0.00     0.115 A 
ENDROOT
BRANCH   1   7
ATOM      7  C   UNL     1      13.065   9.611  12.956  1.00  0.00     0.010 C 
ATOM      8  C   UNL     1      14.123   8.964  13.462  1.00  0.00     0.025 C 
BRANCH   8   9
ATOM      9  C   UNL     1      15.185   8.419  12.601  1.00  0.00     0.064 C 
ATOM     10  O   UNL     1      15.859   9.198  11.877  1.00  0.00    -0.545 OA
ATOM     11  O   UNL     1      15.457   7.056  12.572  1.00  0.00    -0.545 OA
ENDBRANCH   8   9
ENDBRANCH   1   7
BRANCH   6  12
ATOM     12  O   UNL     1       8.777  11.618  16.121  1.00  0.00    -0.508 OA
ATOM     13  H   UNL     1       8.868  11.729  17.125  1.00  0.00     0.293 HD
ENDBRANCH   6  12
TORSDOF 3
ENDMDL
MODEL 4
REMARK VINA RESULT:    -5.000     11.980     13.549
REMARK INTER + INTRA:          -5.874
REMARK INTER:                  -5.730
REMARK INTRA:                  -0.144
REMARK UNBOUND:                -0.143
REMARK SMILES O=C([O-])C=Cc1ccc(O)cc1
REMARK SMILES IDX 6 1 7 2 12 3 8 4 11 5 9 6 5 7 4 8 2 9 1 10 3 11 10 12
REMARK H PARENT 10 13
REMARK Flexibility Score: inf
ROOT
ATOM      1  C   UNL     1      10.657   0.032  21.579  1.00  0.00    -0.025 A 
ATOM      2  C   UNL     1      11.283   0.049  22.838  1.00  0.00     0.012 A 
ATOM      3  C   UNL     1      11.462  -0.003  20.421  1.00  0.00     0.012 A 
ATOM      4  C   UNL     1      12.676   0.004  22.941  1.00  0.00     0.047 A 
ATOM      5  C   UNL     1      12.856  -0.047  20.529  1.00  0.00     0.047 A 
ATOM      6  C   UNL     1      13.466  -0.046  21.787  1.00  0.00     0.115 A 
ENDROOT
BRANCH   1   7
ATOM      7  C   UNL     1       9.176   0.092  21.522  1.00  0.00     0.010 C 
ATOM      8  C   UNL     1       8.437   0.949  22.240  1.00  0.00     0.025 C 
BRANCH   8   9
ATOM      9  C   UNL     1       6.969   0.981  22.143  1.00  0.00     0.064 C 
ATOM     10  O   UNL     1       6.425   1.255  21.041  1.00  0.00    -0.545 OA
ATOM     11  O   UNL     1       6.171   0.712  23.249  1.00  0.00    -0.545 OA
ENDBRANCH   8   9
ENDBRANCH   1   7
BRANCH   6  12
ATOM     12  O   UNL     1      14.856  -0.091  21.877  1.00  0.00    -0.508 OA
ATOM     13  H   UNL     1      15.320  -0.484  22.687  1.00  0.00     0.293 HD
ENDBRANCH   6  12
TORSDOF 3
ENDMDL
MODEL 5
REMARK VINA RESULT:    -4.777      1.576      5.766
REMARK INTER + INTRA:          -5.619
REMARK INTER:                  -5.477
REMARK INTRA:                  -0.142
REMARK UNBOUND:                -0.143
REMARK SMILES O=C([O-])C=Cc1ccc(O)cc1
REMARK SMILES IDX 6 1 7 2 12 3 8 4 11 5 9 6 5 7 4 8 2 9 1 10 3 11 10 12
REMARK H PARENT 10 13
REMARK Flexibility Score: inf
ROOT
ATOM      1  C   UNL     1      12.573   9.732  13.032  1.00  0.00    -0.025 A 
ATOM      2  C   UNL     1      13.542   9.367  13.982  1.00  0.00     0.012 A 
ATOM      3  C   UNL     1      12.892   9.626  11.662  1.00  0.00     0.012 A 
ATOM      4  C   UNL     1      14.789   8.883  13.578  1.00  0.00     0.047 A 
ATOM      5  C   UNL     1      14.142   9.143  11.262  1.00  0.00     0.047 A 
ATOM      6  C   UNL     1      15.091   8.767  12.216  1.00  0.00     0.115 A 
ENDROOT
BRANCH   1   7
ATOM      7  C   UNL     1      11.267  10.250  13.511  1.00  0.00     0.010 C 
ATOM      8  C   UNL     1      10.497   9.613  14.404  1.00  0.00     0.025 C 
BRANCH   8   9
ATOM      9  C   UNL     1       9.214  10.171  14.860  1.00  0.00     0.064 C 
ATOM     10  O   UNL     1       9.189  11.297  15.422  1.00  0.00    -0.545 OA
ATOM     11  O   UNL     1       8.024   9.473  14.681  1.00  0.00    -0.545 OA
ENDBRANCH   8   9
ENDBRANCH   1   7
BRANCH   6  12
ATOM     12  O   UNL     1      16.332   8.286  11.801  1.00  0.00    -0.508 OA
ATOM     13  H   UNL     1      16.493   7.999  10.843  1.00  0.00     0.293 HD
ENDBRANCH   6  12
TORSDOF 3
ENDMDL
MODEL 6
REMARK VINA RESULT:    -4.777      1.654      5.955
REMARK INTER + INTRA:          -5.618
REMARK INTER:                  -5.480
REMARK INTRA:                  -0.138
REMARK UNBOUND:                -0.143
REMARK SMILES O=C([O-])C=Cc1ccc(O)cc1
REMARK SMILES IDX 6 1 7 2 12 3 8 4 11 5 9 6 5 7 4 8 2 9 1 10 3 11 10 12
REMARK H PARENT 10 13
REMARK Flexibility Score: inf
ROOT
ATOM      1  C   UNL     1      12.643   9.776  13.087  1.00  0.00    -0.025 A 
ATOM      2  C   UNL     1      12.910   9.641  11.713  1.00  0.00     0.012 A 
ATOM      3  C   UNL     1      13.613   9.339  14.013  1.00  0.00     0.012 A 
ATOM      4  C   UNL     1      14.125   9.109  11.273  1.00  0.00     0.047 A 
ATOM      5  C   UNL     1      14.827   8.805  13.568  1.00  0.00     0.047 A 
ATOM      6  C   UNL     1      15.088   8.692  12.199  1.00  0.00     0.115 A 
ENDROOT
BRANCH   1   7
ATOM      7  C   UNL     1      11.335  10.338  13.505  1.00  0.00     0.010 C 
ATOM      8  C   UNL     1      10.568   9.803  14.465  1.00  0.00     0.025 C 
BRANCH   8   9
ATOM      9  C   UNL     1       9.281  10.401  14.855  1.00  0.00     0.064 C 
ATOM     10  O   UNL     1       8.209   9.796  14.592  1.00  0.00    -0.545 OA
ATOM     11  O   UNL     1       9.228  11.626  15.511  1.00  0.00    -0.545 OA
ENDBRANCH   8   9
ENDBRANCH   1   7
BRANCH   6  12
ATOM     12  O   UNL     1      16.302   8.159  11.772  1.00  0.00    -0.508 OA
ATOM     13  H   UNL     1      16.384   7.673  10.887  1.00  0.00     0.293 HD
ENDBRANCH   6  12
TORSDOF 3
ENDMDL
MODEL 7
REMARK VINA RESULT:    -4.495      5.131      7.179
REMARK INTER + INTRA:          -5.296
REMARK INTER:                  -5.157
REMARK INTRA:                  -0.139
REMARK UNBOUND:                -0.143
REMARK SMILES O=C([O-])C=Cc1ccc(O)cc1
REMARK SMILES IDX 6 1 7 2 12 3 8 4 11 5 9 6 5 7 4 8 2 9 1 10 3 11 10 12
REMARK H PARENT 10 13
REMARK Flexibility Score: inf
ROOT
ATOM      1  C   UNL     1      15.614   5.741  12.773  1.00  0.00    -0.025 A 
ATOM      2  C   UNL     1      16.298   5.507  13.979  1.00  0.00     0.012 A 
ATOM      3  C   UNL     1      15.047   4.645  12.090  1.00  0.00     0.012 A 
ATOM      4  C   UNL     1      16.391   4.215  14.505  1.00  0.00     0.047 A 
ATOM      5  C   UNL     1      15.144   3.354  12.620  1.00  0.00     0.047 A 
ATOM      6  C   UNL     1      15.811   3.136  13.828  1.00  0.00     0.115 A 
ENDROOT
BRANCH   1   7
ATOM      7  C   UNL     1      15.552   7.128  12.250  1.00  0.00     0.010 C 
ATOM      8  C   UNL     1      15.038   8.159  12.935  1.00  0.00     0.025 C 
BRANCH   8   9
ATOM      9  C   UNL     1      15.007   9.522  12.381  1.00  0.00     0.064 C 
ATOM     10  O   UNL     1      13.974   9.929  11.786  1.00  0.00    -0.545 OA
ATOM     11  O   UNL     1      16.101  10.371  12.503  1.00  0.00    -0.545 OA
ENDBRANCH   8   9
ENDBRANCH   1   7
BRANCH   6  12
ATOM     12  O   UNL     1      15.898   1.844  14.343  1.00  0.00    -0.508 OA
ATOM     13  H   UNL     1      15.220   1.494  15.010  1.00  0.00     0.293 HD
ENDBRANCH   6  12
TORSDOF 3
ENDMDL
MODEL 8
REMARK VINA RESULT:    -4.263     16.051     16.775
REMARK INTER + INTRA:          -5.029
REMARK INTER:                  -4.880
REMARK INTRA:                  -0.150
REMARK UNBOUND:                -0.143
REMARK SMILES O=C([O-])C=Cc1ccc(O)cc1
REMARK SMILES IDX 6 1 7 2 12 3 8 4 11 5 9 6 5 7 4 8 2 9 1 10 3 11 10 12
REMARK H PARENT 10 13
REMARK Flexibility Score: inf
ROOT
ATOM      1  C   UNL     1      17.422  -5.613  16.637  1.00  0.00    -0.025 A 
ATOM      2  C   UNL     1      16.468  -4.890  17.375  1.00  0.00     0.012 A 
ATOM      3  C   UNL     1      17.000  -6.747  15.911  1.00  0.00     0.012 A 
ATOM      4  C   UNL     1      15.124  -5.271  17.368  1.00  0.00     0.047 A 
ATOM      5  C   UNL     1      15.654  -7.125  15.908  1.00  0.00     0.047 A 
ATOM      6  C   UNL     1      14.713  -6.388  16.632  1.00  0.00     0.115 A 
ENDROOT
BRANCH   1   7
ATOM      7  C   UNL     1      18.838  -5.175  16.685  1.00  0.00     0.010 C 
ATOM      8  C   UNL     1      19.389  -4.549  17.734  1.00  0.00     0.025 C 
BRANCH   8   9
ATOM      9  C   UNL     1      20.803  -4.142  17.742  1.00  0.00     0.064 C 
ATOM     10  O   UNL     1      21.281  -3.534  16.749  1.00  0.00    -0.545 OA
ATOM     11  O   UNL     1      21.623  -4.419  18.831  1.00  0.00    -0.545 OA
ENDBRANCH   8   9
ENDBRANCH   1   7
BRANCH   6  12
ATOM     12  O   UNL     1      13.375  -6.778  16.618  1.00  0.00    -0.508 OA
ATOM     13  H   UNL     1      13.045  -7.557  17.175  1.00  0.00     0.293 HD
ENDBRANCH   6  12
TORSDOF 3
ENDMDL
