MODEL 1
REMARK VINA RESULT:     0.220      0.000      0.000
REMARK INTER + INTRA:           1.294
REMARK INTER:                   0.581
REMARK INTRA:                   0.713
REMARK UNBOUND:                 0.713
REMARK SMILES CCCCCCCCCCCCCCCCCCCCCCCCCCCCCC(=O)[O-]
REMARK SMILES IDX 16 1 17 2 18 3 19 4 20 5 21 6 22 7 23 8 24 9 25 10 26 11
REMARK SMILES IDX 27 12 28 13 29 14 30 15 31 16 32 17 15 18 14 19 13 20 12 21
REMARK SMILES IDX 11 22 10 23 9 24 8 25 7 26 6 27 5 28 4 29 3 30 2 31 1 32
REMARK H PARENT
REMARK Flexibility Score: inf
ROOT
ATOM      1  C   UNL     1       2.395  10.401   7.256  1.00  0.00     0.000 C 
ENDROOT
BRANCH   1   2
ATOM      2  C   UNL     1       3.185  11.708   7.112  1.00  0.00     0.000 C 
BRANCH   2   3
ATOM      3  C   UNL     1       4.027  11.989   8.366  1.00  0.00     0.000 C 
BRANCH   3   4
ATOM      4  C   UNL     1       5.536  11.956   8.083  1.00  0.00     0.000 C 
BRANCH   4   5
ATOM      5  C   UNL     1       6.294  13.110   8.762  1.00  0.00     0.000 C 
BRANCH   5   6
ATOM      6  C   UNL     1       7.791  13.115   8.411  1.00  0.00     0.000 C 
BRANCH   6   7
ATOM      7  C   UNL     1       8.449  11.741   8.622  1.00  0.00     0.000 C 
BRANCH   7   8
ATOM      8  C   UNL     1       7.977  10.697   7.600  1.00  0.00     0.000 C 
BRANCH   8   9
ATOM      9  C   UNL     1       8.827  10.704   6.315  1.00  0.00     0.000 C 
BRANCH   9  10
ATOM     10  C   UNL     1      10.024  11.663   6.406  1.00  0.00     0.000 C 
BRANCH  10  11
ATOM     11  C   UNL     1       9.777  12.987   5.666  1.00  0.00     0.000 C 
BRANCH  11  12
ATOM     12  C   UNL     1      10.015  12.818   4.157  1.00  0.00     0.000 C 
BRANCH  12  13
ATOM     13  C   UNL     1       8.750  12.401   3.392  1.00  0.00     0.006 C 
BRANCH  13  14
ATOM     14  C   UNL     1       7.481  13.065   3.939  1.00  0.00     0.053 C 
BRANCH  14  15
ATOM     15  C   UNL     1       6.448  12.030   4.258  1.00  0.00     0.041 C 
ATOM     16  O   UNL     1       6.435  10.937   3.634  1.00  0.00    -0.550 OA
ATOM     17  O   UNL     1       5.476  12.287   5.219  1.00  0.00    -0.550 OA
ENDBRANCH  14  15
ENDBRANCH  13  14
ENDBRANCH  12  13
ENDBRANCH  11  12
ENDBRANCH  10  11
ENDBRANCH   9  10
ENDBRANCH   8   9
ENDBRANCH   7   8
ENDBRANCH   6   7
ENDBRANCH   5   6
ENDBRANCH   4   5
ENDBRANCH   3   4
ENDBRANCH   2   3
ENDBRANCH   1   2
BRANCH   1  18
ATOM     18  C   UNL     1       3.200   9.212   6.709  1.00  0.00     0.000 C 
BRANCH  18  19
ATOM     19  C   UNL     1       4.435   8.894   7.567  1.00  0.00     0.000 C 
BRANCH  19  20
ATOM     20  C   UNL     1       4.074   8.239   8.906  1.00  0.00     0.000 C 
BRANCH  20  21
ATOM     21  C   UNL     1       4.447   9.162  10.076  1.00  0.00     0.000 C 
BRANCH  21  22
ATOM     22  C   UNL     1       3.266   9.447  11.019  1.00  0.00     0.000 C 
BRANCH  22  23
ATOM     23  C   UNL     1       1.906   9.648  10.320  1.00  0.00     0.000 C 
BRANCH  23  24
ATOM     24  C   UNL     1       1.078  10.852  10.815  1.00  0.00    -0.000 C 
BRANCH  24  25
ATOM     25  C   UNL     1       1.500  12.217  10.246  1.00  0.00    -0.000 C 
BRANCH  25  26
ATOM     26  C   UNL     1       0.927  12.483   8.843  1.00  0.00    -0.000 C 
BRANCH  26  27
ATOM     27  C   UNL     1      -0.477  13.122   8.896  1.00  0.00    -0.000 C 
BRANCH  27  28
ATOM     28  C   UNL     1      -1.603  12.125   9.222  1.00  0.00    -0.000 C 
BRANCH  28  29
ATOM     29  C   UNL     1      -3.001  12.679   8.914  1.00  0.00    -0.000 C 
BRANCH  29  30
ATOM     30  C   UNL     1      -3.685  11.978   7.726  1.00  0.00    -0.000 C 
BRANCH  30  31
ATOM     31  C   UNL     1      -4.187  12.938   6.629  1.00  0.00    -0.003 C 
ATOM     32  C   UNL     1      -3.893  12.435   5.214  1.00  0.00     0.004 C 
ENDBRANCH  30  31
ENDBRANCH  29  30
ENDBRANCH  28  29
ENDBRANCH  27  28
ENDBRANCH  26  27
ENDBRANCH  25  26
ENDBRANCH  24  25
ENDBRANCH  23  24
ENDBRANCH  22  23
ENDBRANCH  21  22
ENDBRANCH  20  21
ENDBRANCH  19  20
ENDBRANCH  18  19
ENDBRANCH   1  18
TORSDOF 28
ENDMDL
