MODEL 1
REMARK VINA RESULT:    -4.376      0.000      0.000
REMARK INTER + INTRA:          -4.885
REMARK INTER:                  -4.760
REMARK INTRA:                  -0.126
REMARK UNBOUND:                -0.126
REMARK SMILES Cc1ccc(C(C)C)cc1O
REMARK SMILES IDX 1 1 2 2 10 3 9 4 5 5 4 6 3 7 11 8 6 10 7 11 8 12
REMARK H PARENT 11 9
REMARK Flexibility Score: inf
ROOT
ATOM      1  C   UNL     1      29.636  34.212  72.300  1.00  0.00     0.048 C 
ATOM      2  C   UNL     1      29.235  32.802  72.639  1.00  0.00    -0.009 A 
ATOM      3  C   UNL     1      27.890  32.470  72.914  1.00  0.00     0.118 A 
ATOM      4  C   UNL     1      27.549  31.148  73.225  1.00  0.00     0.050 A 
ATOM      5  C   UNL     1      28.530  30.141  73.269  1.00  0.00    -0.042 A 
ATOM      6  C   UNL     1      29.864  30.479  72.994  1.00  0.00     0.004 A 
ATOM      7  C   UNL     1      30.212  31.794  72.682  1.00  0.00     0.007 A 
ENDROOT
BRANCH   3   8
ATOM      8  O   UNL     1      26.871  33.426  72.887  1.00  0.00    -0.508 OA
ATOM      9  H   UNL     1      26.237  33.533  72.105  1.00  0.00     0.293 HD
ENDBRANCH   3   8
BRANCH   5  10
ATOM     10  C   UNL     1      28.165  28.707  73.607  1.00  0.00     0.013 C 
ATOM     11  C   UNL     1      29.339  27.978  74.270  1.00  0.00     0.012 C 
ATOM     12  C   UNL     1      26.911  28.648  74.488  1.00  0.00     0.012 C 
ENDBRANCH   5  10
TORSDOF 2
ENDMDL
MODEL 2
REMARK VINA RESULT:    -4.350      1.521      2.110
REMARK INTER + INTRA:          -4.858
REMARK INTER:                  -4.731
REMARK INTRA:                  -0.127
REMARK UNBOUND:                -0.126
REMARK SMILES Cc1ccc(C(C)C)cc1O
REMARK SMILES IDX 1 1 2 2 10 3 9 4 5 5 4 6 3 7 11 8 6 10 7 11 8 12
REMARK H PARENT 11 9
REMARK Flexibility Score: inf
ROOT
ATOM      1  C   UNL     1      29.665  34.466  72.076  1.00  0.00     0.048 C 
ATOM      2  C   UNL     1      29.266  33.065  72.452  1.00  0.00    -0.009 A 
ATOM      3  C   UNL     1      30.217  32.022  72.502  1.00  0.00     0.118 A 
ATOM      4  C   UNL     1      29.814  30.729  72.856  1.00  0.00     0.050 A 
ATOM      5  C   UNL     1      28.470  30.450  73.164  1.00  0.00    -0.042 A 
ATOM      6  C   UNL     1      27.531  31.493  73.111  1.00  0.00     0.004 A 
ATOM      7  C   UNL     1      27.925  32.785  72.760  1.00  0.00     0.007 A 
ENDROOT
BRANCH   3   8
ATOM      8  O   UNL     1      31.566  32.236  72.208  1.00  0.00    -0.508 OA
ATOM      9  H   UNL     1      31.877  32.780  71.413  1.00  0.00     0.293 HD
ENDBRANCH   3   8
BRANCH   5  10
ATOM     10  C   UNL     1      28.029  29.050  73.547  1.00  0.00     0.013 C 
ATOM     11  C   UNL     1      29.048  28.383  74.478  1.00  0.00     0.012 C 
ATOM     12  C   UNL     1      26.632  29.063  74.179  1.00  0.00     0.012 C 
ENDBRANCH   5  10
TORSDOF 2
ENDMDL
MODEL 3
REMARK VINA RESULT:    -4.084      2.639      3.969
REMARK INTER + INTRA:          -4.567
REMARK INTER:                  -4.442
REMARK INTRA:                  -0.126
REMARK UNBOUND:                -0.126
REMARK SMILES Cc1ccc(C(C)C)cc1O
REMARK SMILES IDX 1 1 2 2 10 3 9 4 5 5 4 6 3 7 11 8 6 10 7 11 8 12
REMARK H PARENT 11 9
REMARK Flexibility Score: inf
ROOT
ATOM      1  C   UNL     1      31.607  28.612  75.098  1.00  0.00     0.048 C 
ATOM      2  C   UNL     1      30.164  28.729  74.692  1.00  0.00    -0.009 A 
ATOM      3  C   UNL     1      29.754  29.649  73.701  1.00  0.00     0.118 A 
ATOM      4  C   UNL     1      28.403  29.734  73.344  1.00  0.00     0.050 A 
ATOM      5  C   UNL     1      27.441  28.913  73.960  1.00  0.00    -0.042 A 
ATOM      6  C   UNL     1      27.856  28.001  74.944  1.00  0.00     0.004 A 
ATOM      7  C   UNL     1      29.202  27.910  75.304  1.00  0.00     0.007 A 
ENDROOT
BRANCH   3   8
ATOM      8  O   UNL     1      30.662  30.491  73.053  1.00  0.00    -0.508 OA
ATOM      9  H   UNL     1      30.388  31.146  72.331  1.00  0.00     0.293 HD
ENDBRANCH   3   8
BRANCH   5  10
ATOM     10  C   UNL     1      25.976  29.001  73.578  1.00  0.00     0.013 C 
ATOM     11  C   UNL     1      25.072  28.638  74.761  1.00  0.00     0.012 C 
ATOM     12  C   UNL     1      25.630  30.390  73.027  1.00  0.00     0.012 C 
ENDBRANCH   5  10
TORSDOF 2
ENDMDL
MODEL 4
REMARK VINA RESULT:    -4.071     18.297     19.860
REMARK INTER + INTRA:          -4.554
REMARK INTER:                  -4.454
REMARK INTRA:                  -0.100
REMARK UNBOUND:                -0.126
REMARK SMILES Cc1ccc(C(C)C)cc1O
REMARK SMILES IDX 1 1 2 2 10 3 9 4 5 5 4 6 3 7 11 8 6 10 7 11 8 12
REMARK H PARENT 11 9
REMARK Flexibility Score: inf
ROOT
ATOM      1  C   UNL     1      25.664  44.591  89.491  1.00  0.00     0.048 C 
ATOM      2  C   UNL     1      26.520  44.706  88.260  1.00  0.00    -0.009 A 
ATOM      3  C   UNL     1      27.924  44.832  88.354  1.00  0.00     0.118 A 
ATOM      4  C   UNL     1      28.694  44.935  87.189  1.00  0.00     0.050 A 
ATOM      5  C   UNL     1      28.088  44.916  85.920  1.00  0.00    -0.042 A 
ATOM      6  C   UNL     1      26.693  44.790  85.835  1.00  0.00     0.004 A 
ATOM      7  C   UNL     1      25.918  44.685  86.991  1.00  0.00     0.007 A 
ENDROOT
BRANCH   3   8
ATOM      8  O   UNL     1      28.583  44.857  89.586  1.00  0.00    -0.508 OA
ATOM      9  H   UNL     1      28.559  44.085  90.240  1.00  0.00     0.293 HD
ENDBRANCH   3   8
BRANCH   5  10
ATOM     10  C   UNL     1      28.919  45.029  84.655  1.00  0.00     0.013 C 
ATOM     11  C   UNL     1      29.309  46.485  84.377  1.00  0.00     0.012 C 
ATOM     12  C   UNL     1      30.158  44.129  84.724  1.00  0.00     0.012 C 
ENDBRANCH   5  10
TORSDOF 2
ENDMDL
MODEL 5
REMARK VINA RESULT:    -4.060     14.772     16.739
REMARK INTER + INTRA:          -4.542
REMARK INTER:                  -4.414
REMARK INTRA:                  -0.128
REMARK UNBOUND:                -0.126
REMARK SMILES Cc1ccc(C(C)C)cc1O
REMARK SMILES IDX 1 1 2 2 10 3 9 4 5 5 4 6 3 7 11 8 6 10 7 11 8 12
REMARK H PARENT 11 9
REMARK Flexibility Score: inf
ROOT
ATOM      1  C   UNL     1      26.518  43.847  79.668  1.00  0.00     0.048 C 
ATOM      2  C   UNL     1      27.328  44.184  80.889  1.00  0.00    -0.009 A 
ATOM      3  C   UNL     1      28.733  44.314  80.822  1.00  0.00     0.118 A 
ATOM      4  C   UNL     1      29.459  44.630  81.976  1.00  0.00     0.050 A 
ATOM      5  C   UNL     1      28.808  44.819  83.209  1.00  0.00    -0.042 A 
ATOM      6  C   UNL     1      27.412  44.688  83.267  1.00  0.00     0.004 A 
ATOM      7  C   UNL     1      26.681  44.374  82.120  1.00  0.00     0.007 A 
ENDROOT
BRANCH   3   8
ATOM      8  O   UNL     1      29.436  44.139  79.627  1.00  0.00    -0.508 OA
ATOM      9  H   UNL     1      29.984  43.311  79.427  1.00  0.00     0.293 HD
ENDBRANCH   3   8
BRANCH   5  10
ATOM     10  C   UNL     1      29.591  45.160  84.463  1.00  0.00     0.013 C 
ATOM     11  C   UNL     1      28.874  46.235  85.289  1.00  0.00     0.012 C 
ATOM     12  C   UNL     1      29.861  43.908  85.305  1.00  0.00     0.012 C 
ENDBRANCH   5  10
TORSDOF 2
ENDMDL
MODEL 6
REMARK VINA RESULT:    -3.971     16.208     17.386
REMARK INTER + INTRA:          -4.445
REMARK INTER:                  -4.345
REMARK INTRA:                  -0.100
REMARK UNBOUND:                -0.126
REMARK SMILES Cc1ccc(C(C)C)cc1O
REMARK SMILES IDX 1 1 2 2 10 3 9 4 5 5 4 6 3 7 11 8 6 10 7 11 8 12
REMARK H PARENT 11 9
REMARK Flexibility Score: inf
ROOT
ATOM      1  C   UNL     1      29.459  47.207  79.298  1.00  0.00     0.048 C 
ATOM      2  C   UNL     1      29.351  46.627  80.681  1.00  0.00    -0.009 A 
ATOM      3  C   UNL     1      29.407  45.233  80.897  1.00  0.00     0.118 A 
ATOM      4  C   UNL     1      29.306  44.724  82.198  1.00  0.00     0.050 A 
ATOM      5  C   UNL     1      29.147  45.585  83.299  1.00  0.00    -0.042 A 
ATOM      6  C   UNL     1      29.092  46.970  83.076  1.00  0.00     0.004 A 
ATOM      7  C   UNL     1      29.194  47.485  81.782  1.00  0.00     0.007 A 
ENDROOT
BRANCH   3   8
ATOM      8  O   UNL     1      29.564  44.327  79.845  1.00  0.00    -0.508 OA
ATOM      9  H   UNL     1      29.220  44.504  78.909  1.00  0.00     0.293 HD
ENDBRANCH   3   8
BRANCH   5  10
ATOM     10  C   UNL     1      29.035  45.038  84.710  1.00  0.00     0.013 C 
ATOM     11  C   UNL     1      27.630  44.488  84.980  1.00  0.00     0.012 C 
ATOM     12  C   UNL     1      30.105  43.974  84.978  1.00  0.00     0.012 C 
ENDBRANCH   5  10
TORSDOF 2
ENDMDL
MODEL 7
REMARK VINA RESULT:    -3.960     16.234     18.199
REMARK INTER + INTRA:          -4.433
REMARK INTER:                  -4.306
REMARK INTRA:                  -0.127
REMARK UNBOUND:                -0.126
REMARK SMILES Cc1ccc(C(C)C)cc1O
REMARK SMILES IDX 1 1 2 2 10 3 9 4 5 5 4 6 3 7 11 8 6 10 7 11 8 12
REMARK H PARENT 11 9
REMARK Flexibility Score: inf
ROOT
ATOM      1  C   UNL     1      28.349  46.186  87.091  1.00  0.00     0.048 C 
ATOM      2  C   UNL     1      28.649  45.874  85.650  1.00  0.00    -0.009 A 
ATOM      3  C   UNL     1      29.245  44.649  85.276  1.00  0.00     0.118 A 
ATOM      4  C   UNL     1      29.510  44.388  83.926  1.00  0.00     0.050 A 
ATOM      5  C   UNL     1      29.192  45.331  82.932  1.00  0.00    -0.042 A 
ATOM      6  C   UNL     1      28.600  46.546  83.313  1.00  0.00     0.004 A 
ATOM      7  C   UNL     1      28.331  46.813  84.656  1.00  0.00     0.007 A 
ENDROOT
BRANCH   3   8
ATOM      8  O   UNL     1      29.584  43.673  86.216  1.00  0.00    -0.508 OA
ATOM      9  H   UNL     1      29.608  43.852  87.212  1.00  0.00     0.293 HD
ENDBRANCH   3   8
BRANCH   5  10
ATOM     10  C   UNL     1      29.479  45.053  81.468  1.00  0.00     0.013 C 
ATOM     11  C   UNL     1      28.523  43.993  80.908  1.00  0.00     0.012 C 
ATOM     12  C   UNL     1      29.422  46.341  80.638  1.00  0.00     0.012 C 
ENDBRANCH   5  10
TORSDOF 2
ENDMDL
MODEL 8
REMARK VINA RESULT:    -3.887      7.224      9.099
REMARK INTER + INTRA:          -4.353
REMARK INTER:                  -4.227
REMARK INTRA:                  -0.126
REMARK UNBOUND:                -0.126
REMARK SMILES Cc1ccc(C(C)C)cc1O
REMARK SMILES IDX 1 1 2 2 10 3 9 4 5 5 4 6 3 7 11 8 6 10 7 11 8 12
REMARK H PARENT 11 9
REMARK Flexibility Score: inf
ROOT
ATOM      1  C   UNL     1      34.477  40.989  73.875  1.00  0.00     0.048 C 
ATOM      2  C   UNL     1      33.204  40.197  73.758  1.00  0.00    -0.009 A 
ATOM      3  C   UNL     1      32.066  40.524  74.529  1.00  0.00     0.118 A 
ATOM      4  C   UNL     1      30.895  39.768  74.397  1.00  0.00     0.050 A 
ATOM      5  C   UNL     1      30.834  38.682  73.505  1.00  0.00    -0.042 A 
ATOM      6  C   UNL     1      31.969  38.364  72.743  1.00  0.00     0.004 A 
ATOM      7  C   UNL     1      33.140  39.113  72.868  1.00  0.00     0.007 A 
ENDROOT
BRANCH   3   8
ATOM      8  O   UNL     1      32.065  41.591  75.431  1.00  0.00    -0.508 OA
ATOM      9  H   UNL     1      32.533  42.469  75.247  1.00  0.00     0.293 HD
ENDBRANCH   3   8
BRANCH   5  10
ATOM     10  C   UNL     1      29.567  37.859  73.359  1.00  0.00     0.013 C 
ATOM     11  C   UNL     1      28.319  38.718  73.591  1.00  0.00     0.012 C 
ATOM     12  C   UNL     1      29.512  37.164  71.994  1.00  0.00     0.012 C 
ENDBRANCH   5  10
TORSDOF 2
ENDMDL
MODEL 9
REMARK VINA RESULT:    -3.873     14.769     16.695
REMARK INTER + INTRA:          -4.338
REMARK INTER:                  -4.237
REMARK INTRA:                  -0.102
REMARK UNBOUND:                -0.126
REMARK SMILES Cc1ccc(C(C)C)cc1O
REMARK SMILES IDX 1 1 2 2 10 3 9 4 5 5 4 6 3 7 11 8 6 10 7 11 8 12
REMARK H PARENT 11 9
REMARK Flexibility Score: inf
ROOT
ATOM      1  C   UNL     1      26.556  43.594  79.522  1.00  0.00     0.048 C 
ATOM      2  C   UNL     1      27.315  44.021  80.749  1.00  0.00    -0.009 A 
ATOM      3  C   UNL     1      26.641  44.437  81.918  1.00  0.00     0.118 A 
ATOM      4  C   UNL     1      27.376  44.828  83.044  1.00  0.00     0.050 A 
ATOM      5  C   UNL     1      28.782  44.813  83.028  1.00  0.00    -0.042 A 
ATOM      6  C   UNL     1      29.444  44.399  81.862  1.00  0.00     0.004 A 
ATOM      7  C   UNL     1      28.718  44.007  80.736  1.00  0.00     0.007 A 
ENDROOT
BRANCH   3   8
ATOM      8  O   UNL     1      25.246  44.473  81.996  1.00  0.00    -0.508 OA
ATOM      9  H   UNL     1      24.658  44.747  81.219  1.00  0.00     0.293 HD
ENDBRANCH   3   8
BRANCH   5  10
ATOM     10  C   UNL     1      29.583  45.237  84.246  1.00  0.00     0.013 C 
ATOM     11  C   UNL     1      28.941  46.444  84.939  1.00  0.00     0.012 C 
ATOM     12  C   UNL     1      29.762  44.070  85.224  1.00  0.00     0.012 C 
ENDBRANCH   5  10
TORSDOF 2
ENDMDL
