MODEL 1
REMARK VINA RESULT:    -2.924      0.000      0.000
REMARK INTER + INTRA:          -3.866
REMARK INTER:                  -3.608
REMARK INTRA:                  -0.257
REMARK UNBOUND:                -0.257
REMARK SMILES CCCCCC(=O)[O-]
REMARK SMILES IDX 4 1 5 2 6 3 7 4 8 5 3 6 2 7 1 8
REMARK H PARENT
REMARK Flexibility Score: inf
ROOT
ATOM      1  C   UNL     1      17.662  15.224  15.156  1.00  0.00     0.006 C 
ENDROOT
BRANCH   1   2
ATOM      2  C   UNL     1      16.794  15.612  16.364  1.00  0.00     0.053 C 
BRANCH   2   3
ATOM      3  C   UNL     1      17.471  16.623  17.238  1.00  0.00     0.041 C 
ATOM      4  O   UNL     1      17.725  17.775  16.795  1.00  0.00    -0.550 OA
ATOM      5  O   UNL     1      17.849  16.284  18.530  1.00  0.00    -0.550 OA
ENDBRANCH   2   3
ENDBRANCH   1   2
BRANCH   1   6
ATOM      6  C   UNL     1      19.079  14.744  15.523  1.00  0.00     0.000 C 
BRANCH   6   7
ATOM      7  C   UNL     1      19.080  13.375  16.219  1.00  0.00    -0.003 C 
ATOM      8  C   UNL     1      19.985  13.385  17.448  1.00  0.00     0.004 C 
ENDBRANCH   6   7
ENDBRANCH   1   6
TORSDOF 4
ENDMDL
MODEL 2
REMARK VINA RESULT:    -2.878      2.313      3.929
REMARK INTER + INTRA:          -3.809
REMARK INTER:                  -3.652
REMARK INTRA:                  -0.157
REMARK UNBOUND:                -0.257
REMARK SMILES CCCCCC(=O)[O-]
REMARK SMILES IDX 4 1 5 2 6 3 7 4 8 5 3 6 2 7 1 8
REMARK H PARENT
REMARK Flexibility Score: inf
ROOT
ATOM      1  C   UNL     1      19.017  14.513  16.085  1.00  0.00     0.006 C 
ENDROOT
BRANCH   1   2
ATOM      2  C   UNL     1      19.277  13.013  16.297  1.00  0.00     0.053 C 
BRANCH   2   3
ATOM      3  C   UNL     1      20.015  12.747  17.573  1.00  0.00     0.041 C 
ATOM      4  O   UNL     1      20.393  11.579  17.855  1.00  0.00    -0.550 OA
ATOM      5  O   UNL     1      20.258  13.783  18.464  1.00  0.00    -0.550 OA
ENDBRANCH   2   3
ENDBRANCH   1   2
BRANCH   1   6
ATOM      6  C   UNL     1      17.619  14.841  15.528  1.00  0.00     0.000 C 
BRANCH   6   7
ATOM      7  C   UNL     1      16.886  15.908  16.354  1.00  0.00    -0.003 C 
ATOM      8  C   UNL     1      17.668  16.259  17.617  1.00  0.00     0.004 C 
ENDBRANCH   6   7
ENDBRANCH   1   6
TORSDOF 4
ENDMDL
MODEL 3
REMARK VINA RESULT:    -2.865      0.962      1.708
REMARK INTER + INTRA:          -3.792
REMARK INTER:                  -3.653
REMARK INTRA:                  -0.139
REMARK UNBOUND:                -0.257
REMARK SMILES CCCCCC(=O)[O-]
REMARK SMILES IDX 4 1 5 2 6 3 7 4 8 5 3 6 2 7 1 8
REMARK H PARENT
REMARK Flexibility Score: inf
ROOT
ATOM      1  C   UNL     1      16.859  15.692  16.341  1.00  0.00     0.006 C 
ENDROOT
BRANCH   1   2
ATOM      2  C   UNL     1      17.565  17.055  16.251  1.00  0.00     0.053 C 
BRANCH   2   3
ATOM      3  C   UNL     1      17.715  17.697  17.596  1.00  0.00     0.041 C 
ATOM      4  O   UNL     1      17.546  17.021  18.644  1.00  0.00    -0.550 OA
ATOM      5  O   UNL     1      18.012  19.050  17.691  1.00  0.00    -0.550 OA
ENDBRANCH   2   3
ENDBRANCH   1   2
BRANCH   1   6
ATOM      6  C   UNL     1      17.624  14.537  15.669  1.00  0.00     0.000 C 
BRANCH   6   7
ATOM      7  C   UNL     1      19.065  14.400  16.185  1.00  0.00    -0.003 C 
ATOM      8  C   UNL     1      19.389  12.948  16.527  1.00  0.00     0.004 C 
ENDBRANCH   6   7
ENDBRANCH   1   6
TORSDOF 4
ENDMDL
MODEL 4
REMARK VINA RESULT:    -2.812      0.882      1.785
REMARK INTER + INTRA:          -3.726
REMARK INTER:                  -3.615
REMARK INTRA:                  -0.111
REMARK UNBOUND:                -0.257
REMARK SMILES CCCCCC(=O)[O-]
REMARK SMILES IDX 4 1 5 2 6 3 7 4 8 5 3 6 2 7 1 8
REMARK H PARENT
REMARK Flexibility Score: inf
ROOT
ATOM      1  C   UNL     1      18.952  14.437  15.589  1.00  0.00     0.006 C 
ENDROOT
BRANCH   1   2
ATOM      2  C   UNL     1      17.507  14.880  15.875  1.00  0.00     0.053 C 
BRANCH   2   3
ATOM      3  C   UNL     1      17.455  16.209  16.564  1.00  0.00     0.041 C 
ATOM      4  O   UNL     1      17.461  16.272  17.822  1.00  0.00    -0.550 OA
ATOM      5  O   UNL     1      17.368  17.376  15.817  1.00  0.00    -0.550 OA
ENDBRANCH   2   3
ENDBRANCH   1   2
BRANCH   1   6
ATOM      6  C   UNL     1      19.355  13.117  16.270  1.00  0.00     0.000 C 
BRANCH   6   7
ATOM      7  C   UNL     1      20.051  13.334  17.622  1.00  0.00    -0.003 C 
ATOM      8  C   UNL     1      20.752  12.062  18.090  1.00  0.00     0.004 C 
ENDBRANCH   6   7
ENDBRANCH   1   6
TORSDOF 4
ENDMDL
MODEL 5
REMARK VINA RESULT:    -2.741      2.595      3.945
REMARK INTER + INTRA:          -3.639
REMARK INTER:                  -3.433
REMARK INTRA:                  -0.207
REMARK UNBOUND:                -0.257
REMARK SMILES CCCCCC(=O)[O-]
REMARK SMILES IDX 4 1 5 2 6 3 7 4 8 5 3 6 2 7 1 8
REMARK H PARENT
REMARK Flexibility Score: inf
ROOT
ATOM      1  C   UNL     1      19.399  15.480  16.951  1.00  0.00     0.006 C 
ENDROOT
BRANCH   1   2
ATOM      2  C   UNL     1      19.851  14.337  17.875  1.00  0.00     0.053 C 
BRANCH   2   3
ATOM      3  C   UNL     1      19.949  13.033  17.145  1.00  0.00     0.041 C 
ATOM      4  O   UNL     1      19.616  12.958  15.933  1.00  0.00    -0.550 OA
ATOM      5  O   UNL     1      20.380  11.894  17.812  1.00  0.00    -0.550 OA
ENDBRANCH   2   3
ENDBRANCH   1   2
BRANCH   1   6
ATOM      6  C   UNL     1      18.004  16.044  17.278  1.00  0.00     0.000 C 
BRANCH   6   7
ATOM      7  C   UNL     1      16.913  15.513  16.336  1.00  0.00    -0.003 C 
ATOM      8  C   UNL     1      17.433  15.392  14.907  1.00  0.00     0.004 C 
ENDBRANCH   6   7
ENDBRANCH   1   6
TORSDOF 4
ENDMDL
MODEL 6
REMARK VINA RESULT:    -2.735      1.761      2.388
REMARK INTER + INTRA:          -3.632
REMARK INTER:                  -3.551
REMARK INTRA:                  -0.082
REMARK UNBOUND:                -0.257
REMARK SMILES CCCCCC(=O)[O-]
REMARK SMILES IDX 4 1 5 2 6 3 7 4 8 5 3 6 2 7 1 8
REMARK H PARENT
REMARK Flexibility Score: inf
ROOT
ATOM      1  C   UNL     1      18.944  14.601  16.524  1.00  0.00     0.006 C 
ENDROOT
BRANCH   1   2
ATOM      2  C   UNL     1      17.571  14.922  15.909  1.00  0.00     0.053 C 
BRANCH   2   3
ATOM      3  C   UNL     1      17.668  15.965  14.838  1.00  0.00     0.041 C 
ATOM      4  O   UNL     1      17.684  15.628  13.625  1.00  0.00    -0.550 OA
ATOM      5  O   UNL     1      17.772  17.306  15.181  1.00  0.00    -0.550 OA
ENDBRANCH   2   3
ENDBRANCH   1   2
BRANCH   1   6
ATOM      6  C   UNL     1      19.566  13.282  16.028  1.00  0.00     0.000 C 
BRANCH   6   7
ATOM      7  C   UNL     1      19.542  12.177  17.095  1.00  0.00    -0.003 C 
ATOM      8  C   UNL     1      20.785  12.239  17.978  1.00  0.00     0.004 C 
ENDBRANCH   6   7
ENDBRANCH   1   6
TORSDOF 4
ENDMDL
MODEL 7
REMARK VINA RESULT:    -2.720      2.110      3.420
REMARK INTER + INTRA:          -3.614
REMARK INTER:                  -3.397
REMARK INTRA:                  -0.217
REMARK UNBOUND:                -0.257
REMARK SMILES CCCCCC(=O)[O-]
REMARK SMILES IDX 4 1 5 2 6 3 7 4 8 5 3 6 2 7 1 8
REMARK H PARENT
REMARK Flexibility Score: inf
ROOT
ATOM      1  C   UNL     1      16.994  15.680  16.337  1.00  0.00     0.006 C 
ENDROOT
BRANCH   1   2
ATOM      2  C   UNL     1      17.792  14.813  15.349  1.00  0.00     0.053 C 
BRANCH   2   3
ATOM      3  C   UNL     1      19.031  14.248  15.972  1.00  0.00     0.041 C 
ATOM      4  O   UNL     1      20.051  14.971  16.122  1.00  0.00    -0.550 OA
ATOM      5  O   UNL     1      19.069  12.915  16.359  1.00  0.00    -0.550 OA
ENDBRANCH   2   3
ENDBRANCH   1   2
BRANCH   1   6
ATOM      6  C   UNL     1      17.404  17.164  16.351  1.00  0.00     0.000 C 
BRANCH   6   7
ATOM      7  C   UNL     1      17.801  17.658  17.750  1.00  0.00    -0.003 C 
ATOM      8  C   UNL     1      17.802  16.511  18.757  1.00  0.00     0.004 C 
ENDBRANCH   6   7
ENDBRANCH   1   6
TORSDOF 4
ENDMDL
MODEL 8
REMARK VINA RESULT:    -2.677      2.498      3.402
REMARK INTER + INTRA:          -3.560
REMARK INTER:                  -3.435
REMARK INTRA:                  -0.125
REMARK UNBOUND:                -0.257
REMARK SMILES CCCCCC(=O)[O-]
REMARK SMILES IDX 4 1 5 2 6 3 7 4 8 5 3 6 2 7 1 8
REMARK H PARENT
REMARK Flexibility Score: inf
ROOT
ATOM      1  C   UNL     1      17.780  16.824  17.318  1.00  0.00     0.006 C 
ENDROOT
BRANCH   1   2
ATOM      2  C   UNL     1      16.840  15.972  16.449  1.00  0.00     0.053 C 
BRANCH   2   3
ATOM      3  C   UNL     1      17.598  15.096  15.499  1.00  0.00     0.041 C 
ATOM      4  O   UNL     1      18.074  13.998  15.891  1.00  0.00    -0.550 OA
ATOM      5  O   UNL     1      17.804  15.506  14.188  1.00  0.00    -0.550 OA
ENDBRANCH   2   3
ENDBRANCH   1   2
BRANCH   1   6
ATOM      6  C   UNL     1      17.763  16.458  18.814  1.00  0.00     0.000 C 
BRANCH   6   7
ATOM      7  C   UNL     1      18.991  15.638  19.238  1.00  0.00    -0.003 C 
ATOM      8  C   UNL     1      18.928  15.283  20.721  1.00  0.00     0.004 C 
ENDBRANCH   6   7
ENDBRANCH   1   6
TORSDOF 4
ENDMDL
MODEL 9
REMARK VINA RESULT:    -2.601      2.537      3.804
REMARK INTER + INTRA:          -3.466
REMARK INTER:                  -3.299
REMARK INTRA:                  -0.168
REMARK UNBOUND:                -0.257
REMARK SMILES CCCCCC(=O)[O-]
REMARK SMILES IDX 4 1 5 2 6 3 7 4 8 5 3 6 2 7 1 8
REMARK H PARENT
REMARK Flexibility Score: inf
ROOT
ATOM      1  C   UNL     1      16.965  16.126  16.446  1.00  0.00     0.006 C 
ENDROOT
BRANCH   1   2
ATOM      2  C   UNL     1      17.514  15.135  15.406  1.00  0.00     0.053 C 
BRANCH   2   3
ATOM      3  C   UNL     1      18.097  15.836  14.218  1.00  0.00     0.041 C 
ATOM      4  O   UNL     1      17.577  15.696  13.080  1.00  0.00    -0.550 OA
ATOM      5  O   UNL     1      19.236  16.618  14.362  1.00  0.00    -0.550 OA
ENDBRANCH   2   3
ENDBRANCH   1   2
BRANCH   1   6
ATOM      6  C   UNL     1      17.743  16.144  17.774  1.00  0.00     0.000 C 
BRANCH   6   7
ATOM      7  C   UNL     1      17.791  17.539  18.416  1.00  0.00    -0.003 C 
ATOM      8  C   UNL     1      18.112  18.610  17.377  1.00  0.00     0.004 C 
ENDBRANCH   6   7
ENDBRANCH   1   6
TORSDOF 4
ENDMDL
