MODEL 1
REMARK VINA RESULT:    -2.516      0.000      0.000
REMARK INTER + INTRA:          -6.276
REMARK INTER:                  -4.576
REMARK INTRA:                  -1.700
REMARK UNBOUND:                -1.700
REMARK SMILES CCCCCCCCCCCCCC[C@@H](C)C(=O)[O-]
REMARK SMILES IDX 9 1 10 2 11 3 12 4 13 5 14 6 15 7 16 8 17 9 18 10 19 11 8 12
REMARK SMILES IDX 7 13 6 14 5 15 4 16 3 17 2 18 1 19
REMARK H PARENT
REMARK Flexibility Score: inf
ROOT
ATOM      1  C   UNL     1       6.419  -8.452  -5.852  1.00  0.00     0.000 C 
ENDROOT
BRANCH   1   2
ATOM      2  C   UNL     1       6.894  -9.677  -6.653  1.00  0.00     0.000 C 
BRANCH   2   3
ATOM      3  C   UNL     1       5.882 -10.122  -7.721  1.00  0.00     0.000 C 
BRANCH   3   4
ATOM      4  C   UNL     1       4.813  -9.042  -7.945  1.00  0.00     0.000 C 
BRANCH   4   5
ATOM      5  C   UNL     1       4.943  -8.357  -9.314  1.00  0.00     0.001 C 
BRANCH   5   6
ATOM      6  C   UNL     1       6.251  -8.722 -10.040  1.00  0.00     0.009 C 
BRANCH   6   7
ATOM      7  C   UNL     1       7.247  -7.545 -10.067  1.00  0.00     0.032 C 
ATOM      8  C   UNL     1       6.691  -6.346  -9.291  1.00  0.00     0.014 C 
BRANCH   7   9
ATOM      9  C   UNL     1       8.586  -7.942  -9.506  1.00  0.00     0.044 C 
ATOM     10  O   UNL     1       9.090  -9.064  -9.785  1.00  0.00    -0.550 OA
ATOM     11  O   UNL     1       9.275  -7.070  -8.674  1.00  0.00    -0.550 OA
ENDBRANCH   7   9
ENDBRANCH   6   7
ENDBRANCH   5   6
ENDBRANCH   4   5
ENDBRANCH   3   4
ENDBRANCH   2   3
ENDBRANCH   1   2
BRANCH   1  12
ATOM     12  C   UNL     1       6.400  -8.641  -4.322  1.00  0.00     0.000 C 
BRANCH  12  13
ATOM     13  C   UNL     1       7.557  -9.486  -3.755  1.00  0.00    -0.000 C 
BRANCH  13  14
ATOM     14  C   UNL     1       7.951  -9.160  -2.300  1.00  0.00    -0.000 C 
BRANCH  14  15
ATOM     15  C   UNL     1       9.462  -9.208  -2.009  1.00  0.00    -0.000 C 
BRANCH  15  16
ATOM     16  C   UNL     1      10.125  -7.824  -2.061  1.00  0.00    -0.000 C 
BRANCH  16  17
ATOM     17  C   UNL     1       9.199  -6.796  -2.721  1.00  0.00    -0.000 C 
BRANCH  17  18
ATOM     18  C   UNL     1       9.935  -6.015  -3.816  1.00  0.00    -0.003 C 
ATOM     19  C   UNL     1       9.393  -6.364  -5.200  1.00  0.00     0.004 C 
ENDBRANCH  17  18
ENDBRANCH  16  17
ENDBRANCH  15  16
ENDBRANCH  14  15
ENDBRANCH  13  14
ENDBRANCH  12  13
ENDBRANCH   1  12
TORSDOF 14
ENDMDL
MODEL 2
REMARK VINA RESULT:    -2.415      1.829      2.793
REMARK INTER + INTRA:          -6.092
REMARK INTER:                  -4.538
REMARK INTRA:                  -1.555
REMARK UNBOUND:                -1.700
REMARK SMILES CCCCCCCCCCCCCC[C@@H](C)C(=O)[O-]
REMARK SMILES IDX 9 1 10 2 11 3 12 4 13 5 14 6 15 7 16 8 17 9 18 10 19 11 8 12
REMARK SMILES IDX 7 13 6 14 5 15 4 16 3 17 2 18 1 19
REMARK H PARENT
REMARK Flexibility Score: inf
ROOT
ATOM      1  C   UNL     1       6.770  -8.941  -5.394  1.00  0.00     0.000 C 
ENDROOT
BRANCH   1   2
ATOM      2  C   UNL     1       7.374  -7.532  -5.260  1.00  0.00     0.000 C 
BRANCH   2   3
ATOM      3  C   UNL     1       7.307  -6.726  -6.566  1.00  0.00     0.000 C 
BRANCH   3   4
ATOM      4  C   UNL     1       8.712  -6.513  -7.151  1.00  0.00     0.000 C 
BRANCH   4   5
ATOM      5  C   UNL     1       8.844  -7.051  -8.584  1.00  0.00     0.001 C 
BRANCH   5   6
ATOM      6  C   UNL     1       7.518  -6.993  -9.365  1.00  0.00     0.009 C 
BRANCH   6   7
ATOM      7  C   UNL     1       7.022  -8.395  -9.773  1.00  0.00     0.032 C 
ATOM      8  C   UNL     1       7.967  -9.479  -9.241  1.00  0.00     0.014 C 
BRANCH   7   9
ATOM      9  C   UNL     1       5.622  -8.649  -9.282  1.00  0.00     0.044 C 
ATOM     10  O   UNL     1       4.681  -7.871  -9.598  1.00  0.00    -0.550 OA
ATOM     11  O   UNL     1       5.360  -9.748  -8.475  1.00  0.00    -0.550 OA
ENDBRANCH   7   9
ENDBRANCH   6   7
ENDBRANCH   5   6
ENDBRANCH   4   5
ENDBRANCH   3   4
ENDBRANCH   2   3
ENDBRANCH   1   2
BRANCH   1  12
ATOM     12  C   UNL     1       7.002  -9.867  -4.183  1.00  0.00     0.000 C 
BRANCH  12  13
ATOM     13  C   UNL     1       6.943  -9.171  -2.809  1.00  0.00    -0.000 C 
BRANCH  13  14
ATOM     14  C   UNL     1       7.720  -9.883  -1.683  1.00  0.00    -0.000 C 
BRANCH  14  15
ATOM     15  C   UNL     1       9.227 -10.059  -1.943  1.00  0.00    -0.000 C 
BRANCH  15  16
ATOM     16  C   UNL     1       9.799  -8.988  -2.883  1.00  0.00    -0.000 C 
BRANCH  16  17
ATOM     17  C   UNL     1      10.105  -7.694  -2.121  1.00  0.00    -0.000 C 
BRANCH  17  18
ATOM     18  C   UNL     1      10.125  -6.488  -3.068  1.00  0.00    -0.003 C 
ATOM     19  C   UNL     1       8.894  -5.609  -2.867  1.00  0.00     0.004 C 
ENDBRANCH  17  18
ENDBRANCH  16  17
ENDBRANCH  15  16
ENDBRANCH  14  15
ENDBRANCH  13  14
ENDBRANCH  12  13
ENDBRANCH   1  12
TORSDOF 14
ENDMDL
MODEL 3
REMARK VINA RESULT:    -1.530      1.540      2.587
REMARK INTER + INTRA:          -4.483
REMARK INTER:                  -3.679
REMARK INTRA:                  -0.805
REMARK UNBOUND:                -1.700
REMARK SMILES CCCCCCCCCCCCCC[C@@H](C)C(=O)[O-]
REMARK SMILES IDX 9 1 10 2 11 3 12 4 13 5 14 6 15 7 16 8 17 9 18 10 19 11 8 12
REMARK SMILES IDX 7 13 6 14 5 15 4 16 3 17 2 18 1 19
REMARK H PARENT
REMARK Flexibility Score: inf
ROOT
ATOM      1  C   UNL     1       6.198  -8.495  -6.228  1.00  0.00     0.000 C 
ENDROOT
BRANCH   1   2
ATOM      2  C   UNL     1       5.132  -8.510  -7.337  1.00  0.00     0.000 C 
BRANCH   2   3
ATOM      3  C   UNL     1       5.736  -8.439  -8.748  1.00  0.00     0.000 C 
BRANCH   3   4
ATOM      4  C   UNL     1       7.065  -7.670  -8.736  1.00  0.00     0.000 C 
BRANCH   4   5
ATOM      5  C   UNL     1       8.159  -8.368  -9.560  1.00  0.00     0.001 C 
BRANCH   5   6
ATOM      6  C   UNL     1       9.554  -8.247  -8.919  1.00  0.00     0.009 C 
BRANCH   6   7
ATOM      7  C   UNL     1      10.090  -6.801  -8.963  1.00  0.00     0.032 C 
ATOM      8  C   UNL     1       9.370  -5.990 -10.045  1.00  0.00     0.014 C 
BRANCH   7   9
ATOM      9  C   UNL     1       9.946  -6.119  -7.629  1.00  0.00     0.044 C 
ATOM     10  O   UNL     1      10.125  -4.875  -7.523  1.00  0.00    -0.550 OA
ATOM     11  O   UNL     1       9.612  -6.861  -6.504  1.00  0.00    -0.550 OA
ENDBRANCH   7   9
ENDBRANCH   6   7
ENDBRANCH   5   6
ENDBRANCH   4   5
ENDBRANCH   3   4
ENDBRANCH   2   3
ENDBRANCH   1   2
BRANCH   1  12
ATOM     12  C   UNL     1       6.840  -9.863  -5.923  1.00  0.00     0.000 C 
BRANCH  12  13
ATOM     13  C   UNL     1       8.355  -9.825  -5.642  1.00  0.00    -0.000 C 
BRANCH  13  14
ATOM     14  C   UNL     1       8.756 -10.124  -4.184  1.00  0.00    -0.000 C 
BRANCH  14  15
ATOM     15  C   UNL     1       7.861  -9.470  -3.116  1.00  0.00    -0.000 C 
BRANCH  15  16
ATOM     16  C   UNL     1       8.620  -9.135  -1.824  1.00  0.00    -0.000 C 
BRANCH  16  17
ATOM     17  C   UNL     1       9.755  -8.141  -2.096  1.00  0.00    -0.000 C 
BRANCH  17  18
ATOM     18  C   UNL     1       9.332  -7.092  -3.132  1.00  0.00    -0.003 C 
ATOM     19  C   UNL     1       9.837  -5.704  -2.749  1.00  0.00     0.004 C 
ENDBRANCH  17  18
ENDBRANCH  16  17
ENDBRANCH  15  16
ENDBRANCH  14  15
ENDBRANCH  13  14
ENDBRANCH  12  13
ENDBRANCH   1  12
TORSDOF 14
ENDMDL
MODEL 4
REMARK VINA RESULT:    -0.976      1.445      2.270
REMARK INTER + INTRA:          -3.476
REMARK INTER:                  -3.148
REMARK INTRA:                  -0.328
REMARK UNBOUND:                -1.700
REMARK SMILES CCCCCCCCCCCCCC[C@@H](C)C(=O)[O-]
REMARK SMILES IDX 9 1 10 2 11 3 12 4 13 5 14 6 15 7 16 8 17 9 18 10 19 11 8 12
REMARK SMILES IDX 7 13 6 14 5 15 4 16 3 17 2 18 1 19
REMARK H PARENT
REMARK Flexibility Score: inf
ROOT
ATOM      1  C   UNL     1       7.220  -8.653  -4.231  1.00  0.00     0.000 C 
ENDROOT
BRANCH   1   2
ATOM      2  C   UNL     1       6.011  -8.775  -5.174  1.00  0.00     0.000 C 
BRANCH   2   3
ATOM      3  C   UNL     1       6.416  -8.956  -6.645  1.00  0.00     0.000 C 
BRANCH   3   4
ATOM      4  C   UNL     1       7.934  -8.792  -6.819  1.00  0.00     0.000 C 
BRANCH   4   5
ATOM      5  C   UNL     1       8.533  -9.823  -7.788  1.00  0.00     0.001 C 
BRANCH   5   6
ATOM      6  C   UNL     1       9.417  -9.178  -8.870  1.00  0.00     0.009 C 
BRANCH   6   7
ATOM      7  C   UNL     1       8.583  -8.586 -10.025  1.00  0.00     0.032 C 
ATOM      8  C   UNL     1       7.220  -9.281 -10.120  1.00  0.00     0.014 C 
BRANCH   7   9
ATOM      9  C   UNL     1       8.391  -7.102  -9.862  1.00  0.00     0.044 C 
ATOM     10  O   UNL     1       7.246  -6.624  -9.638  1.00  0.00    -0.550 OA
ATOM     11  O   UNL     1       9.482  -6.247  -9.958  1.00  0.00    -0.550 OA
ENDBRANCH   7   9
ENDBRANCH   6   7
ENDBRANCH   5   6
ENDBRANCH   4   5
ENDBRANCH   3   4
ENDBRANCH   2   3
ENDBRANCH   1   2
BRANCH   1  12
ATOM     12  C   UNL     1       7.611  -9.955  -3.502  1.00  0.00     0.000 C 
BRANCH  12  13
ATOM     13  C   UNL     1       9.118 -10.118  -3.222  1.00  0.00    -0.000 C 
BRANCH  13  14
ATOM     14  C   UNL     1       9.792  -8.903  -2.555  1.00  0.00    -0.000 C 
BRANCH  14  15
ATOM     15  C   UNL     1       8.993  -7.589  -2.636  1.00  0.00    -0.000 C 
BRANCH  15  16
ATOM     16  C   UNL     1       9.874  -6.343  -2.461  1.00  0.00    -0.000 C 
BRANCH  16  17
ATOM     17  C   UNL     1      10.104  -5.641  -3.804  1.00  0.00    -0.000 C 
BRANCH  17  18
ATOM     18  C   UNL     1      10.115  -6.649  -4.958  1.00  0.00    -0.003 C 
ATOM     19  C   UNL     1       9.918  -5.952  -6.302  1.00  0.00     0.004 C 
ENDBRANCH  17  18
ENDBRANCH  16  17
ENDBRANCH  15  16
ENDBRANCH  14  15
ENDBRANCH  13  14
ENDBRANCH  12  13
ENDBRANCH   1  12
TORSDOF 14
ENDMDL
MODEL 5
REMARK VINA RESULT:    -0.795      1.979      3.944
REMARK INTER + INTRA:          -3.146
REMARK INTER:                  -3.100
REMARK INTRA:                  -0.046
REMARK UNBOUND:                -1.700
REMARK SMILES CCCCCCCCCCCCCC[C@@H](C)C(=O)[O-]
REMARK SMILES IDX 9 1 10 2 11 3 12 4 13 5 14 6 15 7 16 8 17 9 18 10 19 11 8 12
REMARK SMILES IDX 7 13 6 14 5 15 4 16 3 17 2 18 1 19
REMARK H PARENT
REMARK Flexibility Score: inf
ROOT
ATOM      1  C   UNL     1       3.937  -8.899  -8.249  1.00  0.00     0.000 C 
ENDROOT
BRANCH   1   2
ATOM      2  C   UNL     1       4.158  -8.531  -9.726  1.00  0.00     0.000 C 
BRANCH   2   3
ATOM      3  C   UNL     1       4.982  -7.247  -9.905  1.00  0.00     0.000 C 
BRANCH   3   4
ATOM      4  C   UNL     1       6.484  -7.536  -9.761  1.00  0.00     0.000 C 
BRANCH   4   5
ATOM      5  C   UNL     1       7.275  -6.319  -9.257  1.00  0.00     0.001 C 
BRANCH   5   6
ATOM      6  C   UNL     1       7.822  -6.515  -7.831  1.00  0.00     0.009 C 
BRANCH   6   7
ATOM      7  C   UNL     1       9.348  -6.296  -7.761  1.00  0.00     0.032 C 
ATOM      8  C   UNL     1      10.072  -7.620  -7.492  1.00  0.00     0.014 C 
BRANCH   7   9
ATOM      9  C   UNL     1       9.874  -5.670  -9.024  1.00  0.00     0.044 C 
ATOM     10  O   UNL     1      10.101  -6.378 -10.044  1.00  0.00    -0.550 OA
ATOM     11  O   UNL     1      10.115  -4.304  -9.072  1.00  0.00    -0.550 OA
ENDBRANCH   7   9
ENDBRANCH   6   7
ENDBRANCH   5   6
ENDBRANCH   4   5
ENDBRANCH   3   4
ENDBRANCH   2   3
ENDBRANCH   1   2
BRANCH   1  12
ATOM     12  C   UNL     1       4.925  -9.938  -7.682  1.00  0.00     0.000 C 
BRANCH  12  13
ATOM     13  C   UNL     1       6.373  -9.807  -8.192  1.00  0.00    -0.000 C 
BRANCH  13  14
ATOM     14  C   UNL     1       7.464 -10.125  -7.150  1.00  0.00    -0.000 C 
BRANCH  14  15
ATOM     15  C   UNL     1       7.440  -9.238  -5.892  1.00  0.00    -0.000 C 
BRANCH  15  16
ATOM     16  C   UNL     1       7.439 -10.050  -4.588  1.00  0.00    -0.000 C 
BRANCH  16  17
ATOM     17  C   UNL     1       7.126  -9.156  -3.384  1.00  0.00    -0.000 C 
BRANCH  17  18
ATOM     18  C   UNL     1       6.754  -9.995  -2.156  1.00  0.00    -0.003 C 
ATOM     19  C   UNL     1       7.840  -9.921  -1.087  1.00  0.00     0.004 C 
ENDBRANCH  17  18
ENDBRANCH  16  17
ENDBRANCH  15  16
ENDBRANCH  14  15
ENDBRANCH  13  14
ENDBRANCH  12  13
ENDBRANCH   1  12
TORSDOF 14
ENDMDL
MODEL 6
REMARK VINA RESULT:    -0.683     13.219     16.174
REMARK INTER + INTRA:          -2.942
REMARK INTER:                  -3.371
REMARK INTRA:                   0.428
REMARK UNBOUND:                -1.700
REMARK SMILES CCCCCCCCCCCCCC[C@@H](C)C(=O)[O-]
REMARK SMILES IDX 9 1 10 2 11 3 12 4 13 5 14 6 15 7 16 8 17 9 18 10 19 11 8 12
REMARK SMILES IDX 7 13 6 14 5 15 4 16 3 17 2 18 1 19
REMARK H PARENT
REMARK Flexibility Score: inf
ROOT
ATOM      1  C   UNL     1      -5.130  -7.478  -7.137  1.00  0.00     0.000 C 
ENDROOT
BRANCH   1   2
ATOM      2  C   UNL     1      -6.531  -8.104  -7.035  1.00  0.00     0.000 C 
BRANCH   2   3
ATOM      3  C   UNL     1      -6.742  -8.888  -5.730  1.00  0.00     0.000 C 
BRANCH   3   4
ATOM      4  C   UNL     1      -7.628 -10.120  -5.969  1.00  0.00     0.000 C 
BRANCH   4   5
ATOM      5  C   UNL     1      -9.114  -9.842  -5.693  1.00  0.00     0.001 C 
BRANCH   5   6
ATOM      6  C   UNL     1      -9.335  -8.568  -4.857  1.00  0.00     0.009 C 
BRANCH   6   7
ATOM      7  C   UNL     1      -9.140  -7.285  -5.691  1.00  0.00     0.032 C 
ATOM      8  C   UNL     1     -10.101  -7.265  -6.885  1.00  0.00     0.014 C 
BRANCH   7   9
ATOM      9  C   UNL     1      -9.336  -6.049  -4.855  1.00  0.00     0.044 C 
ATOM     10  O   UNL     1      -9.047  -6.053  -3.627  1.00  0.00    -0.550 OA
ATOM     11  O   UNL     1      -9.840  -4.892  -5.435  1.00  0.00    -0.550 OA
ENDBRANCH   7   9
ENDBRANCH   6   7
ENDBRANCH   5   6
ENDBRANCH   4   5
ENDBRANCH   3   4
ENDBRANCH   2   3
ENDBRANCH   1   2
BRANCH   1  12
ATOM     12  C   UNL     1      -4.669  -7.143  -8.570  1.00  0.00     0.000 C 
BRANCH  12  13
ATOM     13  C   UNL     1      -3.407  -7.893  -9.041  1.00  0.00    -0.000 C 
BRANCH  13  14
ATOM     14  C   UNL     1      -3.669  -9.078  -9.992  1.00  0.00    -0.000 C 
BRANCH  14  15
ATOM     15  C   UNL     1      -4.668 -10.125  -9.467  1.00  0.00    -0.000 C 
BRANCH  15  16
ATOM     16  C   UNL     1      -6.052 -10.012 -10.124  1.00  0.00    -0.000 C 
BRANCH  16  17
ATOM     17  C   UNL     1      -7.166 -10.063  -9.073  1.00  0.00    -0.000 C 
BRANCH  17  18
ATOM     18  C   UNL     1      -8.546 -10.124  -9.736  1.00  0.00    -0.003 C 
ATOM     19  C   UNL     1      -9.403  -8.926  -9.337  1.00  0.00     0.004 C 
ENDBRANCH  17  18
ENDBRANCH  16  17
ENDBRANCH  15  16
ENDBRANCH  14  15
ENDBRANCH  13  14
ENDBRANCH  12  13
ENDBRANCH   1  12
TORSDOF 14
ENDMDL
