MODEL 1
REMARK VINA RESULT:    15.787      0.000      0.000
REMARK INTER + INTRA:          34.965
REMARK INTER:                  36.090
REMARK INTRA:                  -1.126
REMARK UNBOUND:                -1.126
REMARK SMILES CCCCCCCCCCCCCCCCCCCCCCCC(=O)[O-]
REMARK SMILES IDX 13 1 14 2 15 3 16 4 17 5 18 6 19 7 20 8 21 9 22 10 23 11
REMARK SMILES IDX 24 12 25 13 26 14 12 15 11 16 10 17 9 18 8 19 7 20 6 21 5 22
REMARK SMILES IDX 4 23 3 24 2 25 1 26
REMARK H PARENT
REMARK Flexibility Score: inf
ROOT
ATOM      1  C   UNL     1     -33.105  11.953  19.484  1.00  0.00     0.000 C 
ENDROOT
BRANCH   1   2
ATOM      2  C   UNL     1     -33.419  10.568  20.074  1.00  0.00     0.000 C 
BRANCH   2   3
ATOM      3  C   UNL     1     -34.136  10.580  21.440  1.00  0.00     0.000 C 
BRANCH   3   4
ATOM      4  C   UNL     1     -34.412  11.994  21.991  1.00  0.00     0.000 C 
BRANCH   4   5
ATOM      5  C   UNL     1     -34.314  12.069  23.524  1.00  0.00     0.000 C 
BRANCH   5   6
ATOM      6  C   UNL     1     -34.144  10.674  24.162  1.00  0.00     0.000 C 
BRANCH   6   7
ATOM      7  C   UNL     1     -33.666  10.712  25.623  1.00  0.00     0.000 C 
BRANCH   7   8
ATOM      8  C   UNL     1     -33.842   9.366  26.345  1.00  0.00     0.000 C 
BRANCH   8   9
ATOM      9  C   UNL     1     -34.854   8.433  25.652  1.00  0.00     0.000 C 
BRANCH   9  10
ATOM     10  C   UNL     1     -34.312   7.045  25.265  1.00  0.00     0.006 C 
BRANCH  10  11
ATOM     11  C   UNL     1     -35.207   6.301  24.265  1.00  0.00     0.053 C 
BRANCH  11  12
ATOM     12  C   UNL     1     -34.697   6.465  22.865  1.00  0.00     0.041 C 
ATOM     13  O   UNL     1     -34.940   5.585  21.997  1.00  0.00    -0.550 OA
ATOM     14  O   UNL     1     -33.972   7.596  22.511  1.00  0.00    -0.550 OA
ENDBRANCH  11  12
ENDBRANCH  10  11
ENDBRANCH   9  10
ENDBRANCH   8   9
ENDBRANCH   7   8
ENDBRANCH   6   7
ENDBRANCH   5   6
ENDBRANCH   4   5
ENDBRANCH   3   4
ENDBRANCH   2   3
ENDBRANCH   1   2
BRANCH   1  15
ATOM     15  C   UNL     1     -32.123  11.960  18.295  1.00  0.00     0.000 C 
BRANCH  15  16
ATOM     16  C   UNL     1     -32.615  12.771  17.077  1.00  0.00     0.000 C 
BRANCH  16  17
ATOM     17  C   UNL     1     -34.141  12.980  17.076  1.00  0.00     0.000 C 
BRANCH  17  18
ATOM     18  C   UNL     1     -34.550  14.398  17.501  1.00  0.00    -0.000 C 
BRANCH  18  19
ATOM     19  C   UNL     1     -34.998  15.272  16.315  1.00  0.00    -0.000 C 
BRANCH  19  20
ATOM     20  C   UNL     1     -35.037  16.768  16.661  1.00  0.00    -0.000 C 
BRANCH  20  21
ATOM     21  C   UNL     1     -35.318  17.026  18.152  1.00  0.00    -0.000 C 
BRANCH  21  22
ATOM     22  C   UNL     1     -36.823  17.223  18.433  1.00  0.00    -0.000 C 
BRANCH  22  23
ATOM     23  C   UNL     1     -37.711  16.115  17.836  1.00  0.00    -0.000 C 
BRANCH  23  24
ATOM     24  C   UNL     1     -38.602  15.388  18.858  1.00  0.00    -0.000 C 
BRANCH  24  25
ATOM     25  C   UNL     1     -40.086  15.760  18.721  1.00  0.00    -0.003 C 
ATOM     26  C   UNL     1     -40.350  16.484  17.405  1.00  0.00     0.004 C 
ENDBRANCH  24  25
ENDBRANCH  23  24
ENDBRANCH  22  23
ENDBRANCH  21  22
ENDBRANCH  20  21
ENDBRANCH  19  20
ENDBRANCH  18  19
ENDBRANCH  17  18
ENDBRANCH  16  17
ENDBRANCH  15  16
ENDBRANCH   1  15
TORSDOF 22
ENDMDL
MODEL 2
REMARK VINA RESULT:    15.814      1.689      2.714
REMARK INTER + INTRA:          35.026
REMARK INTER:                  34.926
REMARK INTRA:                   0.101
REMARK UNBOUND:                -1.126
REMARK SMILES CCCCCCCCCCCCCCCCCCCCCCCC(=O)[O-]
REMARK SMILES IDX 13 1 14 2 15 3 16 4 17 5 18 6 19 7 20 8 21 9 22 10 23 11
REMARK SMILES IDX 24 12 25 13 26 14 12 15 11 16 10 17 9 18 8 19 7 20 6 21 5 22
REMARK SMILES IDX 4 23 3 24 2 25 1 26
REMARK H PARENT
REMARK Flexibility Score: inf
ROOT
ATOM      1  C   UNL     1     -32.920  11.261  19.246  1.00  0.00     0.000 C 
ENDROOT
BRANCH   1   2
ATOM      2  C   UNL     1     -33.732  11.846  20.415  1.00  0.00     0.000 C 
BRANCH   2   3
ATOM      3  C   UNL     1     -34.343  10.807  21.378  1.00  0.00     0.000 C 
BRANCH   3   4
ATOM      4  C   UNL     1     -33.900   9.356  21.099  1.00  0.00     0.000 C 
BRANCH   4   5
ATOM      5  C   UNL     1     -33.739   8.523  22.381  1.00  0.00     0.000 C 
BRANCH   5   6
ATOM      6  C   UNL     1     -33.969   7.018  22.128  1.00  0.00     0.000 C 
BRANCH   6   7
ATOM      7  C   UNL     1     -35.020   6.384  23.055  1.00  0.00     0.000 C 
BRANCH   7   8
ATOM      8  C   UNL     1     -34.582   6.360  24.528  1.00  0.00     0.000 C 
BRANCH   8   9
ATOM      9  C   UNL     1     -34.744   7.722  25.231  1.00  0.00     0.000 C 
BRANCH   9  10
ATOM     10  C   UNL     1     -33.713   8.019  26.336  1.00  0.00     0.006 C 
BRANCH  10  11
ATOM     11  C   UNL     1     -33.483   9.519  26.564  1.00  0.00     0.053 C 
BRANCH  11  12
ATOM     12  C   UNL     1     -34.477  10.336  25.795  1.00  0.00     0.041 C 
ATOM     13  O   UNL     1     -34.087  11.104  24.875  1.00  0.00    -0.550 OA
ATOM     14  O   UNL     1     -35.833  10.238  26.078  1.00  0.00    -0.550 OA
ENDBRANCH  11  12
ENDBRANCH  10  11
ENDBRANCH   9  10
ENDBRANCH   8   9
ENDBRANCH   7   8
ENDBRANCH   6   7
ENDBRANCH   5   6
ENDBRANCH   4   5
ENDBRANCH   3   4
ENDBRANCH   2   3
ENDBRANCH   1   2
BRANCH   1  15
ATOM     15  C   UNL     1     -32.072  12.278  18.455  1.00  0.00     0.000 C 
BRANCH  15  16
ATOM     16  C   UNL     1     -32.558  12.514  17.009  1.00  0.00     0.000 C 
BRANCH  16  17
ATOM     17  C   UNL     1     -34.054  12.874  16.935  1.00  0.00     0.000 C 
BRANCH  17  18
ATOM     18  C   UNL     1     -34.390  14.182  17.668  1.00  0.00    -0.000 C 
BRANCH  18  19
ATOM     19  C   UNL     1     -35.277  15.123  16.834  1.00  0.00    -0.000 C 
BRANCH  19  20
ATOM     20  C   UNL     1     -34.866  16.598  16.965  1.00  0.00    -0.000 C 
BRANCH  20  21
ATOM     21  C   UNL     1     -35.379  17.245  18.264  1.00  0.00    -0.000 C 
BRANCH  21  22
ATOM     22  C   UNL     1     -36.915  17.402  18.267  1.00  0.00    -0.000 C 
BRANCH  22  23
ATOM     23  C   UNL     1     -37.666  16.109  17.896  1.00  0.00    -0.000 C 
BRANCH  23  24
ATOM     24  C   UNL     1     -38.675  15.630  18.955  1.00  0.00    -0.000 C 
BRANCH  24  25
ATOM     25  C   UNL     1     -40.125  15.665  18.450  1.00  0.00    -0.003 C 
ATOM     26  C   UNL     1     -40.301  16.718  17.361  1.00  0.00     0.004 C 
ENDBRANCH  24  25
ENDBRANCH  23  24
ENDBRANCH  22  23
ENDBRANCH  21  22
ENDBRANCH  20  21
ENDBRANCH  19  20
ENDBRANCH  18  19
ENDBRANCH  17  18
ENDBRANCH  16  17
ENDBRANCH  15  16
ENDBRANCH   1  15
TORSDOF 22
ENDMDL
MODEL 3
REMARK VINA RESULT:    15.913      1.815      2.823
REMARK INTER + INTRA:          35.252
REMARK INTER:                  36.757
REMARK INTRA:                  -1.505
REMARK UNBOUND:                -1.126
REMARK SMILES CCCCCCCCCCCCCCCCCCCCCCCC(=O)[O-]
REMARK SMILES IDX 13 1 14 2 15 3 16 4 17 5 18 6 19 7 20 8 21 9 22 10 23 11
REMARK SMILES IDX 24 12 25 13 26 14 12 15 11 16 10 17 9 18 8 19 7 20 6 21 5 22
REMARK SMILES IDX 4 23 3 24 2 25 1 26
REMARK H PARENT
REMARK Flexibility Score: inf
ROOT
ATOM      1  C   UNL     1     -33.121  11.152  19.081  1.00  0.00     0.000 C 
ENDROOT
BRANCH   1   2
ATOM      2  C   UNL     1     -33.786  11.345  20.454  1.00  0.00     0.000 C 
BRANCH   2   3
ATOM      3  C   UNL     1     -34.208  10.046  21.172  1.00  0.00     0.000 C 
BRANCH   3   4
ATOM      4  C   UNL     1     -33.140   8.933  21.134  1.00  0.00     0.000 C 
BRANCH   4   5
ATOM      5  C   UNL     1     -33.288   7.924  22.285  1.00  0.00     0.000 C 
BRANCH   5   6
ATOM      6  C   UNL     1     -34.631   7.166  22.222  1.00  0.00     0.000 C 
BRANCH   6   7
ATOM      7  C   UNL     1     -34.811   6.124  23.339  1.00  0.00     0.000 C 
BRANCH   7   8
ATOM      8  C   UNL     1     -34.666   6.725  24.747  1.00  0.00     0.000 C 
BRANCH   8   9
ATOM      9  C   UNL     1     -35.906   7.521  25.197  1.00  0.00     0.000 C 
BRANCH   9  10
ATOM     10  C   UNL     1     -35.621   8.710  26.133  1.00  0.00     0.006 C 
BRANCH  10  11
ATOM     11  C   UNL     1     -34.211   8.680  26.740  1.00  0.00     0.053 C 
BRANCH  11  12
ATOM     12  C   UNL     1     -33.434   9.901  26.350  1.00  0.00     0.041 C 
ATOM     13  O   UNL     1     -33.896  10.696  25.489  1.00  0.00    -0.550 OA
ATOM     14  O   UNL     1     -32.210  10.173  26.950  1.00  0.00    -0.550 OA
ENDBRANCH  11  12
ENDBRANCH  10  11
ENDBRANCH   9  10
ENDBRANCH   8   9
ENDBRANCH   7   8
ENDBRANCH   6   7
ENDBRANCH   5   6
ENDBRANCH   4   5
ENDBRANCH   3   4
ENDBRANCH   2   3
ENDBRANCH   1   2
BRANCH   1  15
ATOM     15  C   UNL     1     -32.275  12.340  18.581  1.00  0.00     0.000 C 
BRANCH  15  16
ATOM     16  C   UNL     1     -32.650  12.828  17.165  1.00  0.00     0.000 C 
BRANCH  16  17
ATOM     17  C   UNL     1     -34.075  12.417  16.751  1.00  0.00     0.000 C 
BRANCH  17  18
ATOM     18  C   UNL     1     -35.064  13.593  16.770  1.00  0.00    -0.000 C 
BRANCH  18  19
ATOM     19  C   UNL     1     -34.558  14.785  17.603  1.00  0.00    -0.000 C 
BRANCH  19  20
ATOM     20  C   UNL     1     -34.934  16.142  16.986  1.00  0.00    -0.000 C 
BRANCH  20  21
ATOM     21  C   UNL     1     -35.202  17.223  18.048  1.00  0.00    -0.000 C 
BRANCH  21  22
ATOM     22  C   UNL     1     -36.710  17.411  18.318  1.00  0.00    -0.000 C 
BRANCH  22  23
ATOM     23  C   UNL     1     -37.577  16.247  17.803  1.00  0.00    -0.000 C 
BRANCH  23  24
ATOM     24  C   UNL     1     -38.402  15.533  18.889  1.00  0.00    -0.000 C 
BRANCH  24  25
ATOM     25  C   UNL     1     -39.914  15.620  18.637  1.00  0.00    -0.003 C 
ATOM     26  C   UNL     1     -40.222  16.539  17.459  1.00  0.00     0.004 C 
ENDBRANCH  24  25
ENDBRANCH  23  24
ENDBRANCH  22  23
ENDBRANCH  21  22
ENDBRANCH  20  21
ENDBRANCH  19  20
ENDBRANCH  18  19
ENDBRANCH  17  18
ENDBRANCH  16  17
ENDBRANCH  15  16
ENDBRANCH   1  15
TORSDOF 22
ENDMDL
MODEL 4
REMARK VINA RESULT:    16.095      2.946      9.533
REMARK INTER + INTRA:          35.668
REMARK INTER:                  36.531
REMARK INTRA:                  -0.863
REMARK UNBOUND:                -1.126
REMARK SMILES CCCCCCCCCCCCCCCCCCCCCCCC(=O)[O-]
REMARK SMILES IDX 13 1 14 2 15 3 16 4 17 5 18 6 19 7 20 8 21 9 22 10 23 11
REMARK SMILES IDX 24 12 25 13 26 14 12 15 11 16 10 17 9 18 8 19 7 20 6 21 5 22
REMARK SMILES IDX 4 23 3 24 2 25 1 26
REMARK H PARENT
REMARK Flexibility Score: inf
ROOT
ATOM      1  C   UNL     1     -33.126  12.042  19.438  1.00  0.00     0.000 C 
ENDROOT
BRANCH   1   2
ATOM      2  C   UNL     1     -32.178  11.991  18.228  1.00  0.00     0.000 C 
BRANCH   2   3
ATOM      3  C   UNL     1     -32.668  12.741  16.973  1.00  0.00     0.000 C 
BRANCH   3   4
ATOM      4  C   UNL     1     -34.174  13.078  16.992  1.00  0.00     0.000 C 
BRANCH   4   5
ATOM      5  C   UNL     1     -34.455  14.538  17.386  1.00  0.00     0.000 C 
BRANCH   5   6
ATOM      6  C   UNL     1     -35.057  15.348  16.219  1.00  0.00     0.000 C 
BRANCH   6   7
ATOM      7  C   UNL     1     -34.976  16.872  16.412  1.00  0.00     0.000 C 
BRANCH   7   8
ATOM      8  C   UNL     1     -34.633  17.276  17.854  1.00  0.00     0.000 C 
BRANCH   8   9
ATOM      9  C   UNL     1     -35.870  17.667  18.686  1.00  0.00     0.000 C 
BRANCH   9  10
ATOM     10  C   UNL     1     -37.226  17.272  18.073  1.00  0.00     0.006 C 
BRANCH  10  11
ATOM     11  C   UNL     1     -37.562  15.784  18.251  1.00  0.00     0.053 C 
BRANCH  11  12
ATOM     12  C   UNL     1     -38.977  15.605  18.710  1.00  0.00     0.041 C 
ATOM     13  O   UNL     1     -39.913  16.212  18.124  1.00  0.00    -0.550 OA
ATOM     14  O   UNL     1     -39.267  14.754  19.769  1.00  0.00    -0.550 OA
ENDBRANCH  11  12
ENDBRANCH  10  11
ENDBRANCH   9  10
ENDBRANCH   8   9
ENDBRANCH   7   8
ENDBRANCH   6   7
ENDBRANCH   5   6
ENDBRANCH   4   5
ENDBRANCH   3   4
ENDBRANCH   2   3
ENDBRANCH   1   2
BRANCH   1  15
ATOM     15  C   UNL     1     -33.899  10.740  19.730  1.00  0.00     0.000 C 
BRANCH  15  16
ATOM     16  C   UNL     1     -34.049  10.421  21.233  1.00  0.00     0.000 C 
BRANCH  16  17
ATOM     17  C   UNL     1     -33.942  11.673  22.122  1.00  0.00     0.000 C 
BRANCH  17  18
ATOM     18  C   UNL     1     -34.828  11.594  23.375  1.00  0.00    -0.000 C 
BRANCH  18  19
ATOM     19  C   UNL     1     -34.015  11.541  24.680  1.00  0.00    -0.000 C 
BRANCH  19  20
ATOM     20  C   UNL     1     -34.600  10.558  25.705  1.00  0.00    -0.000 C 
BRANCH  20  21
ATOM     21  C   UNL     1     -33.545   9.590  26.270  1.00  0.00    -0.000 C 
BRANCH  21  22
ATOM     22  C   UNL     1     -34.066   8.138  26.340  1.00  0.00    -0.000 C 
BRANCH  22  23
ATOM     23  C   UNL     1     -35.012   7.768  25.182  1.00  0.00    -0.000 C 
BRANCH  23  24
ATOM     24  C   UNL     1     -34.789   6.362  24.597  1.00  0.00    -0.000 C 
BRANCH  24  25
ATOM     25  C   UNL     1     -34.772   6.355  23.061  1.00  0.00    -0.003 C 
ATOM     26  C   UNL     1     -34.065   7.592  22.515  1.00  0.00     0.004 C 
ENDBRANCH  24  25
ENDBRANCH  23  24
ENDBRANCH  22  23
ENDBRANCH  21  22
ENDBRANCH  20  21
ENDBRANCH  19  20
ENDBRANCH  18  19
ENDBRANCH  17  18
ENDBRANCH  16  17
ENDBRANCH  15  16
ENDBRANCH   1  15
TORSDOF 22
ENDMDL
MODEL 5
REMARK VINA RESULT:    16.336      4.844      7.542
REMARK INTER + INTRA:          36.221
REMARK INTER:                  36.676
REMARK INTRA:                  -0.456
REMARK UNBOUND:                -1.126
REMARK SMILES CCCCCCCCCCCCCCCCCCCCCCCC(=O)[O-]
REMARK SMILES IDX 13 1 14 2 15 3 16 4 17 5 18 6 19 7 20 8 21 9 22 10 23 11
REMARK SMILES IDX 24 12 25 13 26 14 12 15 11 16 10 17 9 18 8 19 7 20 6 21 5 22
REMARK SMILES IDX 4 23 3 24 2 25 1 26
REMARK H PARENT
REMARK Flexibility Score: inf
ROOT
ATOM      1  C   UNL     1     -31.734  12.047  18.776  1.00  0.00     0.000 C 
ENDROOT
BRANCH   1   2
ATOM      2  C   UNL     1     -31.183  12.491  17.410  1.00  0.00     0.000 C 
BRANCH   2   3
ATOM      3  C   UNL     1     -29.673  12.806  17.378  1.00  0.00     0.000 C 
BRANCH   3   4
ATOM      4  C   UNL     1     -29.145  13.207  15.985  1.00  0.00     0.000 C 
BRANCH   4   5
ATOM      5  C   UNL     1     -28.212  14.428  16.028  1.00  0.00     0.000 C 
BRANCH   5   6
ATOM      6  C   UNL     1     -27.700  14.716  17.455  1.00  0.00     0.000 C 
BRANCH   6   7
ATOM      7  C   UNL     1     -26.528  15.711  17.507  1.00  0.00     0.000 C 
BRANCH   7   8
ATOM      8  C   UNL     1     -25.770  15.672  18.844  1.00  0.00     0.000 C 
BRANCH   8   9
ATOM      9  C   UNL     1     -25.994  16.931  19.704  1.00  0.00     0.000 C 
BRANCH   9  10
ATOM     10  C   UNL     1     -26.559  16.674  21.113  1.00  0.00     0.006 C 
BRANCH  10  11
ATOM     11  C   UNL     1     -26.722  15.183  21.438  1.00  0.00     0.053 C 
BRANCH  11  12
ATOM     12  C   UNL     1     -27.947  14.946  22.269  1.00  0.00     0.041 C 
ATOM     13  O   UNL     1     -28.543  13.837  22.215  1.00  0.00    -0.550 OA
ATOM     14  O   UNL     1     -28.421  15.940  23.117  1.00  0.00    -0.550 OA
ENDBRANCH  11  12
ENDBRANCH  10  11
ENDBRANCH   9  10
ENDBRANCH   8   9
ENDBRANCH   7   8
ENDBRANCH   6   7
ENDBRANCH   5   6
ENDBRANCH   4   5
ENDBRANCH   3   4
ENDBRANCH   2   3
ENDBRANCH   1   2
BRANCH   1  15
ATOM     15  C   UNL     1     -33.271  12.029  18.896  1.00  0.00     0.000 C 
BRANCH  15  16
ATOM     16  C   UNL     1     -34.000  11.631  17.595  1.00  0.00     0.000 C 
BRANCH  16  17
ATOM     17  C   UNL     1     -34.241  12.828  16.655  1.00  0.00     0.000 C 
BRANCH  17  18
ATOM     18  C   UNL     1     -34.466  14.145  17.413  1.00  0.00    -0.000 C 
BRANCH  18  19
ATOM     19  C   UNL     1     -35.454  15.084  16.698  1.00  0.00    -0.000 C 
BRANCH  19  20
ATOM     20  C   UNL     1     -35.011  16.555  16.740  1.00  0.00    -0.000 C 
BRANCH  20  21
ATOM     21  C   UNL     1     -35.176  17.187  18.134  1.00  0.00    -0.000 C 
BRANCH  21  22
ATOM     22  C   UNL     1     -36.656  17.463  18.475  1.00  0.00    -0.000 C 
BRANCH  22  23
ATOM     23  C   UNL     1     -37.629  16.428  17.877  1.00  0.00    -0.000 C 
BRANCH  23  24
ATOM     24  C   UNL     1     -38.444  15.641  18.917  1.00  0.00    -0.000 C 
BRANCH  24  25
ATOM     25  C   UNL     1     -39.947  15.617  18.597  1.00  0.00    -0.003 C 
ATOM     26  C   UNL     1     -40.279  16.572  17.456  1.00  0.00     0.004 C 
ENDBRANCH  24  25
ENDBRANCH  23  24
ENDBRANCH  22  23
ENDBRANCH  21  22
ENDBRANCH  20  21
ENDBRANCH  19  20
ENDBRANCH  18  19
ENDBRANCH  17  18
ENDBRANCH  16  17
ENDBRANCH  15  16
ENDBRANCH   1  15
TORSDOF 22
ENDMDL
MODEL 6
REMARK VINA RESULT:    16.393      2.947      9.600
REMARK INTER + INTRA:          36.350
REMARK INTER:                  37.767
REMARK INTRA:                  -1.417
REMARK UNBOUND:                -1.126
REMARK SMILES CCCCCCCCCCCCCCCCCCCCCCCC(=O)[O-]
REMARK SMILES IDX 13 1 14 2 15 3 16 4 17 5 18 6 19 7 20 8 21 9 22 10 23 11
REMARK SMILES IDX 24 12 25 13 26 14 12 15 11 16 10 17 9 18 8 19 7 20 6 21 5 22
REMARK SMILES IDX 4 23 3 24 2 25 1 26
REMARK H PARENT
REMARK Flexibility Score: inf
ROOT
ATOM      1  C   UNL     1     -33.782  12.087  19.821  1.00  0.00     0.000 C 
ENDROOT
BRANCH   1   2
ATOM      2  C   UNL     1     -32.576  11.732  18.934  1.00  0.00     0.000 C 
BRANCH   2   3
ATOM      3  C   UNL     1     -32.522  12.455  17.573  1.00  0.00     0.000 C 
BRANCH   3   4
ATOM      4  C   UNL     1     -33.907  12.835  17.009  1.00  0.00     0.000 C 
BRANCH   4   5
ATOM      5  C   UNL     1     -34.379  14.224  17.470  1.00  0.00     0.000 C 
BRANCH   5   6
ATOM      6  C   UNL     1     -35.027  15.027  16.323  1.00  0.00     0.000 C 
BRANCH   6   7
ATOM      7  C   UNL     1     -34.920  16.552  16.492  1.00  0.00     0.000 C 
BRANCH   7   8
ATOM      8  C   UNL     1     -34.833  16.987  17.963  1.00  0.00     0.000 C 
BRANCH   8   9
ATOM      9  C   UNL     1     -36.074  17.765  18.440  1.00  0.00     0.000 C 
BRANCH   9  10
ATOM     10  C   UNL     1     -37.429  17.116  18.102  1.00  0.00     0.006 C 
BRANCH  10  11
ATOM     11  C   UNL     1     -37.621  15.740  18.754  1.00  0.00     0.053 C 
BRANCH  11  12
ATOM     12  C   UNL     1     -39.071  15.359  18.782  1.00  0.00     0.041 C 
ATOM     13  O   UNL     1     -39.932  16.109  18.250  1.00  0.00    -0.550 OA
ATOM     14  O   UNL     1     -39.471  14.169  19.378  1.00  0.00    -0.550 OA
ENDBRANCH  11  12
ENDBRANCH  10  11
ENDBRANCH   9  10
ENDBRANCH   8   9
ENDBRANCH   7   8
ENDBRANCH   6   7
ENDBRANCH   5   6
ENDBRANCH   4   5
ENDBRANCH   3   4
ENDBRANCH   2   3
ENDBRANCH   1   2
BRANCH   1  15
ATOM     15  C   UNL     1     -33.935  11.241  21.101  1.00  0.00     0.000 C 
BRANCH  15  16
ATOM     16  C   UNL     1     -33.886   9.717  20.858  1.00  0.00     0.000 C 
BRANCH  16  17
ATOM     17  C   UNL     1     -34.479   8.908  22.028  1.00  0.00     0.000 C 
BRANCH  17  18
ATOM     18  C   UNL     1     -33.718   7.600  22.294  1.00  0.00    -0.000 C 
BRANCH  18  19
ATOM     19  C   UNL     1     -34.652   6.422  22.624  1.00  0.00    -0.000 C 
BRANCH  19  20
ATOM     20  C   UNL     1     -35.231   6.503  24.045  1.00  0.00    -0.000 C 
BRANCH  20  21
ATOM     21  C   UNL     1     -34.154   6.775  25.111  1.00  0.00    -0.000 C 
BRANCH  21  22
ATOM     22  C   UNL     1     -34.585   7.874  26.105  1.00  0.00    -0.000 C 
BRANCH  22  23
ATOM     23  C   UNL     1     -33.417   8.746  26.604  1.00  0.00    -0.000 C 
BRANCH  23  24
ATOM     24  C   UNL     1     -33.576  10.251  26.324  1.00  0.00    -0.000 C 
BRANCH  24  25
ATOM     25  C   UNL     1     -34.614  10.543  25.230  1.00  0.00    -0.003 C 
ATOM     26  C   UNL     1     -34.121  11.632  24.282  1.00  0.00     0.004 C 
ENDBRANCH  24  25
ENDBRANCH  23  24
ENDBRANCH  22  23
ENDBRANCH  21  22
ENDBRANCH  20  21
ENDBRANCH  19  20
ENDBRANCH  18  19
ENDBRANCH  17  18
ENDBRANCH  16  17
ENDBRANCH  15  16
ENDBRANCH   1  15
TORSDOF 22
ENDMDL
MODEL 7
REMARK VINA RESULT:    16.617      1.758      2.858
REMARK INTER + INTRA:          36.862
REMARK INTER:                  38.253
REMARK INTRA:                  -1.391
REMARK UNBOUND:                -1.126
REMARK SMILES CCCCCCCCCCCCCCCCCCCCCCCC(=O)[O-]
REMARK SMILES IDX 13 1 14 2 15 3 16 4 17 5 18 6 19 7 20 8 21 9 22 10 23 11
REMARK SMILES IDX 24 12 25 13 26 14 12 15 11 16 10 17 9 18 8 19 7 20 6 21 5 22
REMARK SMILES IDX 4 23 3 24 2 25 1 26
REMARK H PARENT
REMARK Flexibility Score: inf
ROOT
ATOM      1  C   UNL     1     -32.631  11.726  19.286  1.00  0.00     0.000 C 
ENDROOT
BRANCH   1   2
ATOM      2  C   UNL     1     -33.653  12.200  20.333  1.00  0.00     0.000 C 
BRANCH   2   3
ATOM      3  C   UNL     1     -34.136  11.117  21.320  1.00  0.00     0.000 C 
BRANCH   3   4
ATOM      4  C   UNL     1     -34.289   9.717  20.690  1.00  0.00     0.000 C 
BRANCH   4   5
ATOM      5  C   UNL     1     -33.225   8.722  21.180  1.00  0.00     0.000 C 
BRANCH   5   6
ATOM      6  C   UNL     1     -33.587   8.114  22.552  1.00  0.00     0.000 C 
BRANCH   6   7
ATOM      7  C   UNL     1     -34.702   7.057  22.490  1.00  0.00     0.000 C 
BRANCH   7   8
ATOM      8  C   UNL     1     -34.642   6.055  23.654  1.00  0.00     0.000 C 
BRANCH   8   9
ATOM      9  C   UNL     1     -34.609   6.734  25.038  1.00  0.00     0.000 C 
BRANCH   9  10
ATOM     10  C   UNL     1     -35.534   7.955  25.194  1.00  0.00     0.006 C 
BRANCH  10  11
ATOM     11  C   UNL     1     -35.225   8.794  26.442  1.00  0.00     0.053 C 
BRANCH  11  12
ATOM     12  C   UNL     1     -33.998   9.629  26.236  1.00  0.00     0.041 C 
ATOM     13  O   UNL     1     -33.986  10.528  25.354  1.00  0.00    -0.550 OA
ATOM     14  O   UNL     1     -32.874   9.430  27.030  1.00  0.00    -0.550 OA
ENDBRANCH  11  12
ENDBRANCH  10  11
ENDBRANCH   9  10
ENDBRANCH   8   9
ENDBRANCH   7   8
ENDBRANCH   6   7
ENDBRANCH   5   6
ENDBRANCH   4   5
ENDBRANCH   3   4
ENDBRANCH   2   3
ENDBRANCH   1   2
BRANCH   1  15
ATOM     15  C   UNL     1     -32.738  12.399  17.903  1.00  0.00     0.000 C 
BRANCH  15  16
ATOM     16  C   UNL     1     -34.097  12.184  17.202  1.00  0.00     0.000 C 
BRANCH  16  17
ATOM     17  C   UNL     1     -34.688  13.489  16.634  1.00  0.00     0.000 C 
BRANCH  17  18
ATOM     18  C   UNL     1     -34.385  14.713  17.512  1.00  0.00    -0.000 C 
BRANCH  18  19
ATOM     19  C   UNL     1     -34.938  16.023  16.922  1.00  0.00    -0.000 C 
BRANCH  19  20
ATOM     20  C   UNL     1     -35.161  17.107  17.988  1.00  0.00    -0.000 C 
BRANCH  20  21
ATOM     21  C   UNL     1     -36.644  17.272  18.366  1.00  0.00    -0.000 C 
BRANCH  21  22
ATOM     22  C   UNL     1     -37.471  16.010  18.040  1.00  0.00    -0.000 C 
BRANCH  22  23
ATOM     23  C   UNL     1     -38.954  16.305  17.746  1.00  0.00    -0.000 C 
BRANCH  23  24
ATOM     24  C   UNL     1     -39.939  15.704  18.764  1.00  0.00    -0.000 C 
BRANCH  24  25
ATOM     25  C   UNL     1     -39.305  14.599  19.622  1.00  0.00    -0.003 C 
ATOM     26  C   UNL     1     -39.930  13.242  19.318  1.00  0.00     0.004 C 
ENDBRANCH  24  25
ENDBRANCH  23  24
ENDBRANCH  22  23
ENDBRANCH  21  22
ENDBRANCH  20  21
ENDBRANCH  19  20
ENDBRANCH  18  19
ENDBRANCH  17  18
ENDBRANCH  16  17
ENDBRANCH  15  16
ENDBRANCH   1  15
TORSDOF 22
ENDMDL
MODEL 8
REMARK VINA RESULT:    16.669      4.970      9.282
REMARK INTER + INTRA:          36.981
REMARK INTER:                  37.943
REMARK INTRA:                  -0.962
REMARK UNBOUND:                -1.126
REMARK SMILES CCCCCCCCCCCCCCCCCCCCCCCC(=O)[O-]
REMARK SMILES IDX 13 1 14 2 15 3 16 4 17 5 18 6 19 7 20 8 21 9 22 10 23 11
REMARK SMILES IDX 24 12 25 13 26 14 12 15 11 16 10 17 9 18 8 19 7 20 6 21 5 22
REMARK SMILES IDX 4 23 3 24 2 25 1 26
REMARK H PARENT
REMARK Flexibility Score: inf
ROOT
ATOM      1  C   UNL     1     -32.147  12.660  18.852  1.00  0.00     0.000 C 
ENDROOT
BRANCH   1   2
ATOM      2  C   UNL     1     -33.320  11.664  18.861  1.00  0.00     0.000 C 
BRANCH   2   3
ATOM      3  C   UNL     1     -34.134  11.590  17.553  1.00  0.00     0.000 C 
BRANCH   3   4
ATOM      4  C   UNL     1     -33.919  12.795  16.612  1.00  0.00     0.000 C 
BRANCH   4   5
ATOM      5  C   UNL     1     -34.488  14.105  17.180  1.00  0.00     0.000 C 
BRANCH   5   6
ATOM      6  C   UNL     1     -34.944  15.070  16.066  1.00  0.00     0.000 C 
BRANCH   6   7
ATOM      7  C   UNL     1     -34.900  16.554  16.469  1.00  0.00     0.000 C 
BRANCH   7   8
ATOM      8  C   UNL     1     -34.668  16.758  17.975  1.00  0.00     0.000 C 
BRANCH   8   9
ATOM      9  C   UNL     1     -35.823  17.502  18.672  1.00  0.00     0.000 C 
BRANCH   9  10
ATOM     10  C   UNL     1     -37.223  17.242  18.084  1.00  0.00     0.006 C 
BRANCH  10  11
ATOM     11  C   UNL     1     -37.618  15.759  18.090  1.00  0.00     0.053 C 
BRANCH  11  12
ATOM     12  C   UNL     1     -38.988  15.573  18.671  1.00  0.00     0.041 C 
ATOM     13  O   UNL     1     -39.139  14.916  19.736  1.00  0.00    -0.550 OA
ATOM     14  O   UNL     1     -40.095  16.138  18.050  1.00  0.00    -0.550 OA
ENDBRANCH  11  12
ENDBRANCH  10  11
ENDBRANCH   9  10
ENDBRANCH   8   9
ENDBRANCH   7   8
ENDBRANCH   6   7
ENDBRANCH   5   6
ENDBRANCH   4   5
ENDBRANCH   3   4
ENDBRANCH   2   3
ENDBRANCH   1   2
BRANCH   1  15
ATOM     15  C   UNL     1     -30.866  12.169  18.148  1.00  0.00     0.000 C 
BRANCH  15  16
ATOM     16  C   UNL     1     -30.402  13.070  16.984  1.00  0.00     0.000 C 
BRANCH  16  17
ATOM     17  C   UNL     1     -28.916  12.871  16.632  1.00  0.00     0.000 C 
BRANCH  17  18
ATOM     18  C   UNL     1     -28.354  14.001  15.755  1.00  0.00    -0.000 C 
BRANCH  18  19
ATOM     19  C   UNL     1     -27.915  15.230  16.572  1.00  0.00    -0.000 C 
BRANCH  19  20
ATOM     20  C   UNL     1     -27.145  14.851  17.846  1.00  0.00    -0.000 C 
BRANCH  20  21
ATOM     21  C   UNL     1     -25.930  15.762  18.099  1.00  0.00    -0.000 C 
BRANCH  21  22
ATOM     22  C   UNL     1     -26.094  16.606  19.381  1.00  0.00    -0.000 C 
BRANCH  22  23
ATOM     23  C   UNL     1     -26.249  15.760  20.660  1.00  0.00    -0.000 C 
BRANCH  23  24
ATOM     24  C   UNL     1     -26.875  16.508  21.850  1.00  0.00    -0.000 C 
BRANCH  24  25
ATOM     25  C   UNL     1     -28.111  15.793  22.414  1.00  0.00    -0.003 C 
ATOM     26  C   UNL     1     -27.961  14.278  22.315  1.00  0.00     0.004 C 
ENDBRANCH  24  25
ENDBRANCH  23  24
ENDBRANCH  22  23
ENDBRANCH  21  22
ENDBRANCH  20  21
ENDBRANCH  19  20
ENDBRANCH  18  19
ENDBRANCH  17  18
ENDBRANCH  16  17
ENDBRANCH  15  16
ENDBRANCH   1  15
TORSDOF 22
ENDMDL
