MODEL 1
REMARK VINA RESULT:    -4.107      0.000      0.000
REMARK INTER + INTRA:         -11.221
REMARK INTER:                  -8.909
REMARK INTRA:                  -2.312
REMARK UNBOUND:                -2.312
REMARK SMILES CCCCCCCCCCCCCCCCCCCCCC(=O)[O-]
REMARK SMILES IDX 12 1 11 2 10 3 9 4 8 5 7 6 6 7 5 8 4 9 3 10 2 11 1 12 13 13
REMARK SMILES IDX 14 14 15 15 16 16 17 17 18 18 19 19 20 20 21 21 22 22 23 23
REMARK SMILES IDX 24 24
REMARK H PARENT
REMARK Flexibility Score: inf
ROOT
ATOM      1  C   UNL     1       2.316  18.071   8.539  1.00  0.00     0.000 C 
ENDROOT
BRANCH   1   2
ATOM      2  C   UNL     1       2.286  18.573   9.989  1.00  0.00     0.000 C 
BRANCH   2   3
ATOM      3  C   UNL     1       2.463  17.431  11.007  1.00  0.00     0.000 C 
BRANCH   3   4
ATOM      4  C   UNL     1       3.636  16.496  10.659  1.00  0.00    -0.000 C 
BRANCH   4   5
ATOM      5  C   UNL     1       3.234  15.014  10.654  1.00  0.00    -0.000 C 
BRANCH   5   6
ATOM      6  C   UNL     1       3.999  14.193  11.701  1.00  0.00    -0.000 C 
BRANCH   6   7
ATOM      7  C   UNL     1       3.284  14.232  13.057  1.00  0.00    -0.000 C 
BRANCH   7   8
ATOM      8  C   UNL     1       4.271  14.546  14.190  1.00  0.00    -0.000 C 
BRANCH   8   9
ATOM      9  C   UNL     1       5.585  15.169  13.685  1.00  0.00    -0.000 C 
BRANCH   9  10
ATOM     10  C   UNL     1       5.776  16.663  14.019  1.00  0.00    -0.000 C 
BRANCH  10  11
ATOM     11  C   UNL     1       4.505  17.390  14.498  1.00  0.00    -0.003 C 
ATOM     12  C   UNL     1       4.760  18.846  14.882  1.00  0.00     0.004 C 
ENDBRANCH  10  11
ENDBRANCH   9  10
ENDBRANCH   8   9
ENDBRANCH   7   8
ENDBRANCH   6   7
ENDBRANCH   5   6
ENDBRANCH   4   5
ENDBRANCH   3   4
ENDBRANCH   2   3
ENDBRANCH   1   2
BRANCH   1  13
ATOM     13  C   UNL     1       3.389  18.784   7.703  1.00  0.00     0.000 C 
BRANCH  13  14
ATOM     14  C   UNL     1       2.892  19.152   6.284  1.00  0.00     0.000 C 
BRANCH  14  15
ATOM     15  C   UNL     1       2.657  17.936   5.362  1.00  0.00     0.000 C 
BRANCH  15  16
ATOM     16  C   UNL     1       2.223  18.307   3.933  1.00  0.00     0.000 C 
BRANCH  16  17
ATOM     17  C   UNL     1       3.129  17.689   2.840  1.00  0.00     0.000 C 
BRANCH  17  18
ATOM     18  C   UNL     1       4.360  16.976   3.432  1.00  0.00     0.000 C 
BRANCH  18  19
ATOM     19  C   UNL     1       4.300  15.459   3.200  1.00  0.00     0.000 C 
BRANCH  19  20
ATOM     20  C   UNL     1       4.417  14.680   4.519  1.00  0.00     0.006 C 
BRANCH  20  21
ATOM     21  C   UNL     1       5.701  15.027   5.282  1.00  0.00     0.053 C 
BRANCH  21  22
ATOM     22  C   UNL     1       5.419  15.507   6.671  1.00  0.00     0.041 C 
ATOM     23  O   UNL     1       6.304  16.115   7.324  1.00  0.00    -0.550 OA
ATOM     24  O   UNL     1       4.170  15.291   7.240  1.00  0.00    -0.550 OA
ENDBRANCH  21  22
ENDBRANCH  20  21
ENDBRANCH  19  20
ENDBRANCH  18  19
ENDBRANCH  17  18
ENDBRANCH  16  17
ENDBRANCH  15  16
ENDBRANCH  14  15
ENDBRANCH  13  14
ENDBRANCH   1  13
TORSDOF 20
ENDMDL
MODEL 2
REMARK VINA RESULT:    -3.837      1.588      3.100
REMARK INTER + INTRA:         -10.635
REMARK INTER:                  -7.726
REMARK INTRA:                  -2.909
REMARK UNBOUND:                -2.312
REMARK SMILES CCCCCCCCCCCCCCCCCCCCCC(=O)[O-]
REMARK SMILES IDX 12 1 11 2 10 3 9 4 8 5 7 6 6 7 5 8 4 9 3 10 2 11 1 12 13 13
REMARK SMILES IDX 14 14 15 15 16 16 17 17 18 18 19 19 20 20 21 21 22 22 23 23
REMARK SMILES IDX 24 24
REMARK H PARENT
REMARK Flexibility Score: inf
ROOT
ATOM      1  C   UNL     1       4.097  16.164  10.762  1.00  0.00     0.000 C 
ENDROOT
BRANCH   1   2
ATOM      2  C   UNL     1       3.140  15.117  11.349  1.00  0.00     0.000 C 
BRANCH   2   3
ATOM      3  C   UNL     1       3.847  14.160  12.327  1.00  0.00     0.000 C 
BRANCH   3   4
ATOM      4  C   UNL     1       3.205  14.153  13.726  1.00  0.00    -0.000 C 
BRANCH   4   5
ATOM      5  C   UNL     1       2.055  15.163  13.857  1.00  0.00    -0.000 C 
BRANCH   5   6
ATOM      6  C   UNL     1       2.097  15.933  15.184  1.00  0.00    -0.000 C 
BRANCH   6   7
ATOM      7  C   UNL     1       2.089  17.446  14.939  1.00  0.00    -0.000 C 
BRANCH   7   8
ATOM      8  C   UNL     1       3.142  17.839  13.892  1.00  0.00    -0.000 C 
BRANCH   8   9
ATOM      9  C   UNL     1       4.546  18.025  14.496  1.00  0.00    -0.000 C 
BRANCH   9  10
ATOM     10  C   UNL     1       5.644  17.121  13.898  1.00  0.00    -0.000 C 
BRANCH  10  11
ATOM     11  C   UNL     1       6.115  15.977  14.816  1.00  0.00    -0.003 C 
ATOM     12  C   UNL     1       5.681  16.160  16.268  1.00  0.00     0.004 C 
ENDBRANCH  10  11
ENDBRANCH   9  10
ENDBRANCH   8   9
ENDBRANCH   7   8
ENDBRANCH   6   7
ENDBRANCH   5   6
ENDBRANCH   4   5
ENDBRANCH   3   4
ENDBRANCH   2   3
ENDBRANCH   1   2
BRANCH   1  13
ATOM     13  C   UNL     1       4.179  16.078   9.232  1.00  0.00     0.000 C 
BRANCH  13  14
ATOM     14  C   UNL     1       3.042  16.860   8.529  1.00  0.00     0.000 C 
BRANCH  14  15
ATOM     15  C   UNL     1       3.256  18.388   8.493  1.00  0.00     0.000 C 
BRANCH  15  16
ATOM     16  C   UNL     1       3.359  18.973   7.072  1.00  0.00     0.000 C 
BRANCH  16  17
ATOM     17  C   UNL     1       3.831  17.939   6.020  1.00  0.00     0.000 C 
BRANCH  17  18
ATOM     18  C   UNL     1       2.820  17.770   4.869  1.00  0.00     0.000 C 
BRANCH  18  19
ATOM     19  C   UNL     1       2.938  16.387   4.212  1.00  0.00     0.000 C 
BRANCH  19  20
ATOM     20  C   UNL     1       3.054  15.271   5.261  1.00  0.00     0.006 C 
BRANCH  20  21
ATOM     21  C   UNL     1       4.123  14.236   4.886  1.00  0.00     0.053 C 
BRANCH  21  22
ATOM     22  C   UNL     1       5.491  14.838   4.820  1.00  0.00     0.041 C 
ATOM     23  O   UNL     1       6.115  15.112   5.877  1.00  0.00    -0.550 OA
ATOM     24  O   UNL     1       6.083  15.086   3.588  1.00  0.00    -0.550 OA
ENDBRANCH  21  22
ENDBRANCH  20  21
ENDBRANCH  19  20
ENDBRANCH  18  19
ENDBRANCH  17  18
ENDBRANCH  16  17
ENDBRANCH  15  16
ENDBRANCH  14  15
ENDBRANCH  13  14
ENDBRANCH   1  13
TORSDOF 20
ENDMDL
MODEL 3
REMARK VINA RESULT:    -3.744      2.823      8.205
REMARK INTER + INTRA:         -10.434
REMARK INTER:                  -7.841
REMARK INTRA:                  -2.593
REMARK UNBOUND:                -2.312
REMARK SMILES CCCCCCCCCCCCCCCCCCCCCC(=O)[O-]
REMARK SMILES IDX 12 1 11 2 10 3 9 4 8 5 7 6 6 7 5 8 4 9 3 10 2 11 1 12 13 13
REMARK SMILES IDX 14 14 15 15 16 16 17 17 18 18 19 19 20 20 21 21 22 22 23 23
REMARK SMILES IDX 24 24
REMARK H PARENT
REMARK Flexibility Score: inf
ROOT
ATOM      1  C   UNL     1       3.303  18.917   7.823  1.00  0.00     0.000 C 
ENDROOT
BRANCH   1   2
ATOM      2  C   UNL     1       2.083  18.346   7.085  1.00  0.00     0.000 C 
BRANCH   2   3
ATOM      3  C   UNL     1       1.990  18.852   5.633  1.00  0.00     0.000 C 
BRANCH   3   4
ATOM      4  C   UNL     1       1.887  17.708   4.607  1.00  0.00    -0.000 C 
BRANCH   4   5
ATOM      5  C   UNL     1       2.207  18.163   3.175  1.00  0.00    -0.000 C 
BRANCH   5   6
ATOM      6  C   UNL     1       3.328  17.336   2.531  1.00  0.00    -0.000 C 
BRANCH   6   7
ATOM      7  C   UNL     1       4.444  17.047   3.541  1.00  0.00    -0.000 C 
BRANCH   7   8
ATOM      8  C   UNL     1       5.135  15.711   3.231  1.00  0.00    -0.000 C 
BRANCH   8   9
ATOM      9  C   UNL     1       5.490  14.912   4.498  1.00  0.00    -0.000 C 
BRANCH   9  10
ATOM     10  C   UNL     1       4.296  14.557   5.408  1.00  0.00    -0.000 C 
BRANCH  10  11
ATOM     11  C   UNL     1       4.237  15.334   6.737  1.00  0.00    -0.003 C 
ATOM     12  C   UNL     1       5.596  15.878   7.171  1.00  0.00     0.004 C 
ENDBRANCH  10  11
ENDBRANCH   9  10
ENDBRANCH   8   9
ENDBRANCH   7   8
ENDBRANCH   6   7
ENDBRANCH   5   6
ENDBRANCH   4   5
ENDBRANCH   3   4
ENDBRANCH   2   3
ENDBRANCH   1   2
BRANCH   1  13
ATOM     13  C   UNL     1       3.427  18.359   9.248  1.00  0.00     0.000 C 
BRANCH  13  14
ATOM     14  C   UNL     1       2.474  17.166   9.506  1.00  0.00     0.000 C 
BRANCH  14  15
ATOM     15  C   UNL     1       2.860  16.302  10.725  1.00  0.00     0.000 C 
BRANCH  15  16
ATOM     16  C   UNL     1       3.844  15.163  10.401  1.00  0.00     0.000 C 
BRANCH  16  17
ATOM     17  C   UNL     1       4.176  14.276  11.626  1.00  0.00     0.000 C 
BRANCH  17  18
ATOM     18  C   UNL     1       3.978  15.020  12.961  1.00  0.00     0.000 C 
BRANCH  18  19
ATOM     19  C   UNL     1       5.287  15.106  13.759  1.00  0.00     0.000 C 
BRANCH  19  20
ATOM     20  C   UNL     1       5.838  16.539  13.790  1.00  0.00     0.006 C 
BRANCH  20  21
ATOM     21  C   UNL     1       4.810  17.541  14.329  1.00  0.00     0.053 C 
BRANCH  21  22
ATOM     22  C   UNL     1       4.511  17.316  15.778  1.00  0.00     0.041 C 
ATOM     23  O   UNL     1       3.323  17.330  16.190  1.00  0.00    -0.550 OA
ATOM     24  O   UNL     1       5.546  17.078  16.673  1.00  0.00    -0.550 OA
ENDBRANCH  21  22
ENDBRANCH  20  21
ENDBRANCH  19  20
ENDBRANCH  18  19
ENDBRANCH  17  18
ENDBRANCH  16  17
ENDBRANCH  15  16
ENDBRANCH  14  15
ENDBRANCH  13  14
ENDBRANCH   1  13
TORSDOF 20
ENDMDL
MODEL 4
REMARK VINA RESULT:    -3.696      1.875      2.518
REMARK INTER + INTRA:         -10.329
REMARK INTER:                  -7.810
REMARK INTRA:                  -2.520
REMARK UNBOUND:                -2.312
REMARK SMILES CCCCCCCCCCCCCCCCCCCCCC(=O)[O-]
REMARK SMILES IDX 12 1 11 2 10 3 9 4 8 5 7 6 6 7 5 8 4 9 3 10 2 11 1 12 13 13
REMARK SMILES IDX 14 14 15 15 16 16 17 17 18 18 19 19 20 20 21 21 22 22 23 23
REMARK SMILES IDX 24 24
REMARK H PARENT
REMARK Flexibility Score: inf
ROOT
ATOM      1  C   UNL     1       4.551  17.184   8.399  1.00  0.00     0.000 C 
ENDROOT
BRANCH   1   2
ATOM      2  C   UNL     1       4.078  15.724   8.393  1.00  0.00     0.000 C 
BRANCH   2   3
ATOM      3  C   UNL     1       2.573  15.595   8.692  1.00  0.00     0.000 C 
BRANCH   3   4
ATOM      4  C   UNL     1       2.230  14.334   9.506  1.00  0.00    -0.000 C 
BRANCH   4   5
ATOM      5  C   UNL     1       2.492  14.508  11.010  1.00  0.00    -0.000 C 
BRANCH   5   6
ATOM      6  C   UNL     1       2.294  15.957  11.477  1.00  0.00    -0.000 C 
BRANCH   6   7
ATOM      7  C   UNL     1       3.440  16.397  12.396  1.00  0.00    -0.000 C 
BRANCH   7   8
ATOM      8  C   UNL     1       4.691  15.537  12.164  1.00  0.00    -0.000 C 
BRANCH   8   9
ATOM      9  C   UNL     1       5.302  15.004  13.472  1.00  0.00    -0.000 C 
BRANCH   9  10
ATOM     10  C   UNL     1       6.131  16.026  14.276  1.00  0.00    -0.000 C 
BRANCH  10  11
ATOM     11  C   UNL     1       5.711  16.191  15.748  1.00  0.00    -0.003 C 
ATOM     12  C   UNL     1       4.252  15.816  15.998  1.00  0.00     0.004 C 
ENDBRANCH  10  11
ENDBRANCH   9  10
ENDBRANCH   8   9
ENDBRANCH   7   8
ENDBRANCH   6   7
ENDBRANCH   5   6
ENDBRANCH   4   5
ENDBRANCH   3   4
ENDBRANCH   2   3
ENDBRANCH   1   2
BRANCH   1  13
ATOM     13  C   UNL     1       3.376  18.171   8.447  1.00  0.00     0.000 C 
BRANCH  13  14
ATOM     14  C   UNL     1       3.362  19.140   7.239  1.00  0.00     0.000 C 
BRANCH  14  15
ATOM     15  C   UNL     1       2.109  19.017   6.346  1.00  0.00     0.000 C 
BRANCH  15  16
ATOM     16  C   UNL     1       2.079  17.746   5.478  1.00  0.00     0.000 C 
BRANCH  16  17
ATOM     17  C   UNL     1       3.392  17.514   4.690  1.00  0.00     0.000 C 
BRANCH  17  18
ATOM     18  C   UNL     1       3.154  17.410   3.171  1.00  0.00     0.000 C 
BRANCH  18  19
ATOM     19  C   UNL     1       2.462  16.091   2.797  1.00  0.00     0.000 C 
BRANCH  19  20
ATOM     20  C   UNL     1       3.219  14.877   3.356  1.00  0.00     0.006 C 
BRANCH  20  21
ATOM     21  C   UNL     1       4.364  14.437   2.435  1.00  0.00     0.053 C 
BRANCH  21  22
ATOM     22  C   UNL     1       5.704  14.810   2.987  1.00  0.00     0.041 C 
ATOM     23  O   UNL     1       6.676  15.010   2.214  1.00  0.00    -0.550 OA
ATOM     24  O   UNL     1       5.877  14.948   4.358  1.00  0.00    -0.550 OA
ENDBRANCH  21  22
ENDBRANCH  20  21
ENDBRANCH  19  20
ENDBRANCH  18  19
ENDBRANCH  17  18
ENDBRANCH  16  17
ENDBRANCH  15  16
ENDBRANCH  14  15
ENDBRANCH  13  14
ENDBRANCH   1  13
TORSDOF 20
ENDMDL
MODEL 5
REMARK VINA RESULT:    -3.671      1.641      3.340
REMARK INTER + INTRA:         -10.275
REMARK INTER:                  -7.873
REMARK INTRA:                  -2.402
REMARK UNBOUND:                -2.312
REMARK SMILES CCCCCCCCCCCCCCCCCCCCCC(=O)[O-]
REMARK SMILES IDX 12 1 11 2 10 3 9 4 8 5 7 6 6 7 5 8 4 9 3 10 2 11 1 12 13 13
REMARK SMILES IDX 14 14 15 15 16 16 17 17 18 18 19 19 20 20 21 21 22 22 23 23
REMARK SMILES IDX 24 24
REMARK H PARENT
REMARK Flexibility Score: inf
ROOT
ATOM      1  C   UNL     1       4.047  16.159  10.726  1.00  0.00     0.000 C 
ENDROOT
BRANCH   1   2
ATOM      2  C   UNL     1       3.938  16.461  12.227  1.00  0.00     0.000 C 
BRANCH   2   3
ATOM      3  C   UNL     1       5.214  16.072  12.997  1.00  0.00     0.000 C 
BRANCH   3   4
ATOM      4  C   UNL     1       4.978  14.940  14.014  1.00  0.00    -0.000 C 
BRANCH   4   5
ATOM      5  C   UNL     1       3.716  14.120  13.707  1.00  0.00    -0.000 C 
BRANCH   5   6
ATOM      6  C   UNL     1       2.692  14.167  14.849  1.00  0.00    -0.000 C 
BRANCH   6   7
ATOM      7  C   UNL     1       3.261  14.909  16.064  1.00  0.00    -0.000 C 
BRANCH   7   8
ATOM      8  C   UNL     1       2.134  15.462  16.949  1.00  0.00    -0.000 C 
BRANCH   8   9
ATOM      9  C   UNL     1       2.026  16.997  16.890  1.00  0.00    -0.000 C 
BRANCH   9  10
ATOM     10  C   UNL     1       3.362  17.743  16.693  1.00  0.00    -0.000 C 
BRANCH  10  11
ATOM     11  C   UNL     1       3.426  18.642  15.444  1.00  0.00    -0.003 C 
ATOM     12  C   UNL     1       4.850  19.057  15.081  1.00  0.00     0.004 C 
ENDBRANCH  10  11
ENDBRANCH   9  10
ENDBRANCH   8   9
ENDBRANCH   7   8
ENDBRANCH   6   7
ENDBRANCH   5   6
ENDBRANCH   4   5
ENDBRANCH   3   4
ENDBRANCH   2   3
ENDBRANCH   1   2
BRANCH   1  13
ATOM     13  C   UNL     1       2.690  15.787  10.113  1.00  0.00     0.000 C 
BRANCH  13  14
ATOM     14  C   UNL     1       2.527  16.310   8.665  1.00  0.00     0.000 C 
BRANCH  14  15
ATOM     15  C   UNL     1       2.112  17.793   8.572  1.00  0.00     0.000 C 
BRANCH  15  16
ATOM     16  C   UNL     1       3.271  18.749   8.233  1.00  0.00     0.000 C 
BRANCH  16  17
ATOM     17  C   UNL     1       3.224  19.272   6.776  1.00  0.00     0.000 C 
BRANCH  17  18
ATOM     18  C   UNL     1       2.007  18.737   5.999  1.00  0.00     0.000 C 
BRANCH  18  19
ATOM     19  C   UNL     1       2.435  17.883   4.796  1.00  0.00     0.000 C 
BRANCH  19  20
ATOM     20  C   UNL     1       3.935  17.556   4.840  1.00  0.00     0.006 C 
BRANCH  20  21
ATOM     21  C   UNL     1       4.199  16.046   4.785  1.00  0.00     0.053 C 
BRANCH  21  22
ATOM     22  C   UNL     1       5.306  15.634   5.703  1.00  0.00     0.041 C 
ATOM     23  O   UNL     1       6.067  14.682   5.393  1.00  0.00    -0.550 OA
ATOM     24  O   UNL     1       5.506  16.312   6.899  1.00  0.00    -0.550 OA
ENDBRANCH  21  22
ENDBRANCH  20  21
ENDBRANCH  19  20
ENDBRANCH  18  19
ENDBRANCH  17  18
ENDBRANCH  16  17
ENDBRANCH  15  16
ENDBRANCH  14  15
ENDBRANCH  13  14
ENDBRANCH   1  13
TORSDOF 20
ENDMDL
MODEL 6
REMARK VINA RESULT:    -3.477      6.039     10.174
REMARK INTER + INTRA:          -9.855
REMARK INTER:                  -8.004
REMARK INTRA:                  -1.852
REMARK UNBOUND:                -2.312
REMARK SMILES CCCCCCCCCCCCCCCCCCCCCC(=O)[O-]
REMARK SMILES IDX 12 1 11 2 10 3 9 4 8 5 7 6 6 7 5 8 4 9 3 10 2 11 1 12 13 13
REMARK SMILES IDX 14 14 15 15 16 16 17 17 18 18 19 19 20 20 21 21 22 22 23 23
REMARK SMILES IDX 24 24
REMARK H PARENT
REMARK Flexibility Score: inf
ROOT
ATOM      1  C   UNL     1       2.665  21.680  15.254  1.00  0.00     0.000 C 
ENDROOT
BRANCH   1   2
ATOM      2  C   UNL     1       1.876  22.848  14.646  1.00  0.00     0.000 C 
BRANCH   2   3
ATOM      3  C   UNL     1       2.089  24.163  15.419  1.00  0.00     0.000 C 
BRANCH   3   4
ATOM      4  C   UNL     1       2.062  25.404  14.507  1.00  0.00    -0.000 C 
BRANCH   4   5
ATOM      5  C   UNL     1       2.437  25.080  13.053  1.00  0.00    -0.000 C 
BRANCH   5   6
ATOM      6  C   UNL     1       3.746  25.753  12.619  1.00  0.00    -0.000 C 
BRANCH   6   7
ATOM      7  C   UNL     1       3.501  27.207  12.199  1.00  0.00    -0.000 C 
BRANCH   7   8
ATOM      8  C   UNL     1       4.553  28.141  12.813  1.00  0.00    -0.000 C 
BRANCH   8   9
ATOM      9  C   UNL     1       5.490  27.421  13.801  1.00  0.00    -0.000 C 
BRANCH   9  10
ATOM     10  C   UNL     1       5.030  27.437  15.274  1.00  0.00    -0.000 C 
BRANCH  10  11
ATOM     11  C   UNL     1       5.490  26.230  16.112  1.00  0.00    -0.003 C 
ATOM     12  C   UNL     1       7.000  26.010  16.062  1.00  0.00     0.004 C 
ENDBRANCH  10  11
ENDBRANCH   9  10
ENDBRANCH   8   9
ENDBRANCH   7   8
ENDBRANCH   6   7
ENDBRANCH   5   6
ENDBRANCH   4   5
ENDBRANCH   3   4
ENDBRANCH   2   3
ENDBRANCH   1   2
BRANCH   1  13
ATOM     13  C   UNL     1       1.875  20.364  15.207  1.00  0.00     0.000 C 
BRANCH  13  14
ATOM     14  C   UNL     1       2.733  19.140  15.611  1.00  0.00     0.000 C 
BRANCH  14  15
ATOM     15  C   UNL     1       4.227  19.268  15.248  1.00  0.00     0.000 C 
BRANCH  15  16
ATOM     16  C   UNL     1       4.984  17.928  15.222  1.00  0.00     0.000 C 
BRANCH  16  17
ATOM     17  C   UNL     1       5.214  17.330  16.632  1.00  0.00     0.000 C 
BRANCH  17  18
ATOM     18  C   UNL     1       4.807  15.846  16.714  1.00  0.00     0.000 C 
BRANCH  18  19
ATOM     19  C   UNL     1       3.406  15.612  16.129  1.00  0.00     0.000 C 
BRANCH  19  20
ATOM     20  C   UNL     1       3.414  14.499  15.070  1.00  0.00     0.006 C 
BRANCH  20  21
ATOM     21  C   UNL     1       3.248  15.052  13.650  1.00  0.00     0.053 C 
BRANCH  21  22
ATOM     22  C   UNL     1       4.505  14.931  12.848  1.00  0.00     0.041 C 
ATOM     23  O   UNL     1       4.462  14.956  11.591  1.00  0.00    -0.550 OA
ATOM     24  O   UNL     1       5.730  14.802  13.491  1.00  0.00    -0.550 OA
ENDBRANCH  21  22
ENDBRANCH  20  21
ENDBRANCH  19  20
ENDBRANCH  18  19
ENDBRANCH  17  18
ENDBRANCH  16  17
ENDBRANCH  15  16
ENDBRANCH  14  15
ENDBRANCH  13  14
ENDBRANCH   1  13
TORSDOF 20
ENDMDL
MODEL 7
REMARK VINA RESULT:    -3.463      1.597      2.524
REMARK INTER + INTRA:          -9.824
REMARK INTER:                  -7.780
REMARK INTRA:                  -2.045
REMARK UNBOUND:                -2.312
REMARK SMILES CCCCCCCCCCCCCCCCCCCCCC(=O)[O-]
REMARK SMILES IDX 12 1 11 2 10 3 9 4 8 5 7 6 6 7 5 8 4 9 3 10 2 11 1 12 13 13
REMARK SMILES IDX 14 14 15 15 16 16 17 17 18 18 19 19 20 20 21 21 22 22 23 23
REMARK SMILES IDX 24 24
REMARK H PARENT
REMARK Flexibility Score: inf
ROOT
ATOM      1  C   UNL     1       2.299  17.437   9.881  1.00  0.00     0.000 C 
ENDROOT
BRANCH   1   2
ATOM      2  C   UNL     1       2.823  16.874  11.209  1.00  0.00     0.000 C 
BRANCH   2   3
ATOM      3  C   UNL     1       4.204  16.207  11.058  1.00  0.00     0.000 C 
BRANCH   3   4
ATOM      4  C   UNL     1       4.653  15.467  12.332  1.00  0.00    -0.000 C 
BRANCH   4   5
ATOM      5  C   UNL     1       5.599  16.307  13.204  1.00  0.00    -0.000 C 
BRANCH   5   6
ATOM      6  C   UNL     1       5.896  15.643  14.556  1.00  0.00    -0.000 C 
BRANCH   6   7
ATOM      7  C   UNL     1       4.599  15.214  15.252  1.00  0.00    -0.000 C 
BRANCH   7   8
ATOM      8  C   UNL     1       4.562  15.715  16.703  1.00  0.00    -0.000 C 
BRANCH   8   9
ATOM      9  C   UNL     1       5.434  16.964  16.928  1.00  0.00    -0.000 C 
BRANCH   9  10
ATOM     10  C   UNL     1       4.684  18.310  16.864  1.00  0.00    -0.000 C 
BRANCH  10  11
ATOM     11  C   UNL     1       4.553  18.915  15.454  1.00  0.00    -0.003 C 
ATOM     12  C   UNL     1       3.186  18.664  14.822  1.00  0.00     0.004 C 
ENDBRANCH  10  11
ENDBRANCH   9  10
ENDBRANCH   8   9
ENDBRANCH   7   8
ENDBRANCH   6   7
ENDBRANCH   5   6
ENDBRANCH   4   5
ENDBRANCH   3   4
ENDBRANCH   2   3
ENDBRANCH   1   2
BRANCH   1  13
ATOM     13  C   UNL     1       2.980  16.784   8.670  1.00  0.00     0.000 C 
BRANCH  13  14
ATOM     14  C   UNL     1       3.312  17.803   7.552  1.00  0.00     0.000 C 
BRANCH  14  15
ATOM     15  C   UNL     1       2.314  17.796   6.375  1.00  0.00     0.000 C 
BRANCH  15  16
ATOM     16  C   UNL     1       2.785  18.598   5.148  1.00  0.00     0.000 C 
BRANCH  16  17
ATOM     17  C   UNL     1       1.891  18.388   3.901  1.00  0.00     0.000 C 
BRANCH  17  18
ATOM     18  C   UNL     1       2.660  17.755   2.726  1.00  0.00     0.000 C 
BRANCH  18  19
ATOM     19  C   UNL     1       2.112  16.364   2.376  1.00  0.00     0.000 C 
BRANCH  19  20
ATOM     20  C   UNL     1       3.173  15.271   2.576  1.00  0.00     0.006 C 
BRANCH  20  21
ATOM     21  C   UNL     1       3.479  15.027   4.058  1.00  0.00     0.053 C 
BRANCH  21  22
ATOM     22  C   UNL     1       4.912  15.298   4.390  1.00  0.00     0.041 C 
ATOM     23  O   UNL     1       5.788  15.272   3.488  1.00  0.00    -0.550 OA
ATOM     24  O   UNL     1       5.280  15.591   5.697  1.00  0.00    -0.550 OA
ENDBRANCH  21  22
ENDBRANCH  20  21
ENDBRANCH  19  20
ENDBRANCH  18  19
ENDBRANCH  17  18
ENDBRANCH  16  17
ENDBRANCH  15  16
ENDBRANCH  14  15
ENDBRANCH  13  14
ENDBRANCH   1  13
TORSDOF 20
ENDMDL
MODEL 8
REMARK VINA RESULT:    -3.399      2.766      8.266
REMARK INTER + INTRA:          -9.685
REMARK INTER:                  -7.412
REMARK INTRA:                  -2.274
REMARK UNBOUND:                -2.312
REMARK SMILES CCCCCCCCCCCCCCCCCCCCCC(=O)[O-]
REMARK SMILES IDX 12 1 11 2 10 3 9 4 8 5 7 6 6 7 5 8 4 9 3 10 2 11 1 12 13 13
REMARK SMILES IDX 14 14 15 15 16 16 17 17 18 18 19 19 20 20 21 21 22 22 23 23
REMARK SMILES IDX 24 24
REMARK H PARENT
REMARK Flexibility Score: inf
ROOT
ATOM      1  C   UNL     1       4.836  17.097   8.331  1.00  0.00     0.000 C 
ENDROOT
BRANCH   1   2
ATOM      2  C   UNL     1       4.337  15.647   8.391  1.00  0.00     0.000 C 
BRANCH   2   3
ATOM      3  C   UNL     1       4.074  15.060   6.990  1.00  0.00     0.000 C 
BRANCH   3   4
ATOM      4  C   UNL     1       5.280  15.207   6.044  1.00  0.00    -0.000 C 
BRANCH   4   5
ATOM      5  C   UNL     1       5.145  14.355   4.773  1.00  0.00    -0.000 C 
BRANCH   5   6
ATOM      6  C   UNL     1       5.678  15.071   3.525  1.00  0.00    -0.000 C 
BRANCH   6   7
ATOM      7  C   UNL     1       4.540  15.759   2.762  1.00  0.00    -0.000 C 
BRANCH   7   8
ATOM      8  C   UNL     1       4.437  17.242   3.146  1.00  0.00    -0.000 C 
BRANCH   8   9
ATOM      9  C   UNL     1       2.982  17.727   3.278  1.00  0.00    -0.000 C 
BRANCH   9  10
ATOM     10  C   UNL     1       2.093  16.890   4.221  1.00  0.00    -0.000 C 
BRANCH  10  11
ATOM     11  C   UNL     1       1.918  17.470   5.636  1.00  0.00    -0.003 C 
ATOM     12  C   UNL     1       1.941  18.997   5.662  1.00  0.00     0.004 C 
ENDBRANCH  10  11
ENDBRANCH   9  10
ENDBRANCH   8   9
ENDBRANCH   7   8
ENDBRANCH   6   7
ENDBRANCH   5   6
ENDBRANCH   4   5
ENDBRANCH   3   4
ENDBRANCH   2   3
ENDBRANCH   1   2
BRANCH   1  13
ATOM     13  C   UNL     1       3.791  18.089   8.860  1.00  0.00     0.000 C 
BRANCH  13  14
ATOM     14  C   UNL     1       2.530  17.385   9.418  1.00  0.00     0.000 C 
BRANCH  14  15
ATOM     15  C   UNL     1       2.323  17.573  10.936  1.00  0.00     0.000 C 
BRANCH  15  16
ATOM     16  C   UNL     1       3.169  16.627  11.807  1.00  0.00     0.000 C 
BRANCH  16  17
ATOM     17  C   UNL     1       2.834  15.131  11.587  1.00  0.00     0.000 C 
BRANCH  17  18
ATOM     18  C   UNL     1       3.128  14.275  12.834  1.00  0.00     0.000 C 
BRANCH  18  19
ATOM     19  C   UNL     1       3.935  15.058  13.880  1.00  0.00     0.000 C 
BRANCH  19  20
ATOM     20  C   UNL     1       5.447  14.880  13.677  1.00  0.00     0.006 C 
BRANCH  20  21
ATOM     21  C   UNL     1       6.248  16.058  14.245  1.00  0.00     0.053 C 
BRANCH  21  22
ATOM     22  C   UNL     1       5.580  16.671  15.436  1.00  0.00     0.041 C 
ATOM     23  O   UNL     1       5.676  16.128  16.566  1.00  0.00    -0.550 OA
ATOM     24  O   UNL     1       4.860  17.850  15.298  1.00  0.00    -0.550 OA
ENDBRANCH  21  22
ENDBRANCH  20  21
ENDBRANCH  19  20
ENDBRANCH  18  19
ENDBRANCH  17  18
ENDBRANCH  16  17
ENDBRANCH  15  16
ENDBRANCH  14  15
ENDBRANCH  13  14
ENDBRANCH   1  13
TORSDOF 20
ENDMDL
MODEL 9
REMARK VINA RESULT:    -3.382      6.422     10.662
REMARK INTER + INTRA:          -9.648
REMARK INTER:                  -7.651
REMARK INTRA:                  -1.997
REMARK UNBOUND:                -2.312
REMARK SMILES CCCCCCCCCCCCCCCCCCCCCC(=O)[O-]
REMARK SMILES IDX 12 1 11 2 10 3 9 4 8 5 7 6 6 7 5 8 4 9 3 10 2 11 1 12 13 13
REMARK SMILES IDX 14 14 15 15 16 16 17 17 18 18 19 19 20 20 21 21 22 22 23 23
REMARK SMILES IDX 24 24
REMARK H PARENT
REMARK Flexibility Score: inf
ROOT
ATOM      1  C   UNL     1       3.211  24.246  14.225  1.00  0.00     0.000 C 
ENDROOT
BRANCH   1   2
ATOM      2  C   UNL     1       2.262  25.289  14.830  1.00  0.00     0.000 C 
BRANCH   2   3
ATOM      3  C   UNL     1       2.216  25.216  16.369  1.00  0.00     0.000 C 
BRANCH   3   4
ATOM      4  C   UNL     1       2.292  26.602  17.035  1.00  0.00    -0.000 C 
BRANCH   4   5
ATOM      5  C   UNL     1       3.575  27.366  16.674  1.00  0.00    -0.000 C 
BRANCH   5   6
ATOM      6  C   UNL     1       4.845  26.629  17.122  1.00  0.00    -0.000 C 
BRANCH   6   7
ATOM      7  C   UNL     1       6.017  26.938  16.184  1.00  0.00    -0.000 C 
BRANCH   7   8
ATOM      8  C   UNL     1       6.133  25.875  15.082  1.00  0.00    -0.000 C 
BRANCH   8   9
ATOM      9  C   UNL     1       5.928  26.452  13.669  1.00  0.00    -0.000 C 
BRANCH   9  10
ATOM     10  C   UNL     1       4.963  27.653  13.583  1.00  0.00    -0.000 C 
BRANCH  10  11
ATOM     11  C   UNL     1       4.482  28.000  12.161  1.00  0.00    -0.003 C 
ATOM     12  C   UNL     1       3.152  27.341  11.804  1.00  0.00     0.004 C 
ENDBRANCH  10  11
ENDBRANCH   9  10
ENDBRANCH   8   9
ENDBRANCH   7   8
ENDBRANCH   6   7
ENDBRANCH   5   6
ENDBRANCH   4   5
ENDBRANCH   3   4
ENDBRANCH   2   3
ENDBRANCH   1   2
BRANCH   1  13
ATOM     13  C   UNL     1       3.214  22.936  15.025  1.00  0.00     0.000 C 
BRANCH  13  14
ATOM     14  C   UNL     1       1.933  22.096  14.798  1.00  0.00     0.000 C 
BRANCH  14  15
ATOM     15  C   UNL     1       1.875  20.796  15.627  1.00  0.00     0.000 C 
BRANCH  15  16
ATOM     16  C   UNL     1       2.413  19.557  14.889  1.00  0.00     0.000 C 
BRANCH  16  17
ATOM     17  C   UNL     1       3.861  19.186  15.294  1.00  0.00     0.000 C 
BRANCH  17  18
ATOM     18  C   UNL     1       3.938  17.831  16.024  1.00  0.00     0.000 C 
BRANCH  18  19
ATOM     19  C   UNL     1       5.389  17.441  16.340  1.00  0.00     0.000 C 
BRANCH  19  20
ATOM     20  C   UNL     1       5.713  16.022  15.849  1.00  0.00     0.006 C 
BRANCH  20  21
ATOM     21  C   UNL     1       6.263  16.017  14.418  1.00  0.00     0.053 C 
BRANCH  21  22
ATOM     22  C   UNL     1       5.206  15.689  13.410  1.00  0.00     0.041 C 
ATOM     23  O   UNL     1       4.349  14.803  13.655  1.00  0.00    -0.550 OA
ATOM     24  O   UNL     1       5.162  16.374  12.202  1.00  0.00    -0.550 OA
ENDBRANCH  21  22
ENDBRANCH  20  21
ENDBRANCH  19  20
ENDBRANCH  18  19
ENDBRANCH  17  18
ENDBRANCH  16  17
ENDBRANCH  15  16
ENDBRANCH  14  15
ENDBRANCH  13  14
ENDBRANCH   1  13
TORSDOF 20
ENDMDL
