MODEL 1
REMARK VINA RESULT:    -5.625      0.000      0.000
REMARK INTER + INTRA:          -8.162
REMARK INTER:                  -7.434
REMARK INTRA:                  -0.728
REMARK UNBOUND:                -0.728
REMARK SMILES CC[C@H](C=C[C@@H](C)[C@@H]1CC[C@H]2[C@@H]3CC=C4C[C@@H](O)CC[C@@]4(C)[C@@H]3CC[C@]21C)C(C)C
REMARK SMILES IDX 6 1 7 2 5 3 4 4 3 5 2 6 1 7 28 8 29 9 30 10 8 11 9 12 26 13
REMARK SMILES IDX 10 14 11 15 25 16 27 17 12 18 24 19 23 20 13 21 21 22 14 23
REMARK SMILES IDX 15 24 20 25 22 26 16 27 19 28 17 29 18 30
REMARK H PARENT 18 31
REMARK Flexibility Score: inf
ROOT
ATOM      1  C   UNL     1      33.214  11.633 105.191  1.00  0.00     0.012 C 
ATOM      2  C   UNL     1      32.333  12.740 104.575  1.00  0.00     0.012 C 
ENDROOT
BRANCH   1   3
ATOM      3  C   UNL     1      32.389  10.623 105.969  1.00  0.00    -0.028 C 
ATOM      4  C   UNL     1      32.504   9.288 105.836  1.00  0.00    -0.027 C 
BRANCH   4   5
ATOM      5  C   UNL     1      31.631   8.336 106.633  1.00  0.00     0.014 C 
BRANCH   5   6
ATOM      6  C   UNL     1      30.842   7.435 105.644  1.00  0.00     0.004 C 
ATOM      7  C   UNL     1      31.002   5.935 105.895  1.00  0.00     0.004 C 
ENDBRANCH   5   6
BRANCH   5   8
ATOM      8  C   UNL     1      32.506   7.580 107.691  1.00  0.00    -0.011 C 
ATOM      9  C   UNL     1      33.837   8.288 107.992  1.00  0.00     0.008 C 
ATOM     10  C   UNL     1      31.758   7.252 108.992  1.00  0.00     0.008 C 
ENDBRANCH   5   8
ENDBRANCH   4   5
ENDBRANCH   1   3
BRANCH   1  11
ATOM     11  C   UNL     1      34.452  12.126 106.037  1.00  0.00     0.002 C 
ATOM     12  C   UNL     1      34.741  13.625 105.860  1.00  0.00     0.005 C 
ATOM     13  C   UNL     1      35.835  11.430 105.783  1.00  0.00    -0.026 C 
ATOM     14  C   UNL     1      35.941  13.747 104.926  1.00  0.00     0.005 C 
ATOM     15  C   UNL     1      36.497  12.329 104.697  1.00  0.00    -0.001 C 
ATOM     16  C   UNL     1      36.658  11.461 107.111  1.00  0.00     0.007 C 
ATOM     17  C   UNL     1      35.682   9.949 105.342  1.00  0.00     0.012 C 
ATOM     18  C   UNL     1      38.056  12.323 104.621  1.00  0.00     0.000 C 
ATOM     19  C   UNL     1      38.171  11.287 106.923  1.00  0.00     0.005 C 
ATOM     20  C   UNL     1      38.739  12.400 106.007  1.00  0.00     0.003 C 
ATOM     21  C   UNL     1      38.583  11.123 103.815  1.00  0.00     0.031 C 
ATOM     22  C   UNL     1      40.323  12.458 105.880  1.00  0.00    -0.008 C 
ATOM     23  C   UNL     1      40.077  11.110 103.747  1.00  0.00    -0.027 C 
ATOM     24  C   UNL     1      40.870  11.637 104.702  1.00  0.00    -0.065 C 
ATOM     25  C   UNL     1      40.750  13.942 105.623  1.00  0.00     0.014 C 
ATOM     26  C   UNL     1      40.991  11.977 107.198  1.00  0.00     0.016 C 
ATOM     27  C   UNL     1      42.354  11.744 104.415  1.00  0.00     0.063 C 
ATOM     28  C   UNL     1      42.247  14.124 105.283  1.00  0.00     0.033 C 
ATOM     29  C   UNL     1      42.712  13.209 104.132  1.00  0.00     0.118 C 
BRANCH  29  30
ATOM     30  O   UNL     1      42.120  13.609 102.922  1.00  0.00    -0.393 OA
ATOM     31  H   UNL     1      41.885  14.569 103.020  1.00  0.00     0.210 HD
ENDBRANCH  29  30
ENDBRANCH   1  11
TORSDOF 6
ENDMDL
MODEL 2
REMARK VINA RESULT:    -5.497      0.621      1.548
REMARK INTER + INTRA:          -7.993
REMARK INTER:                  -8.206
REMARK INTRA:                   0.214
REMARK UNBOUND:                -0.728
REMARK SMILES CC[C@H](C=C[C@@H](C)[C@@H]1CC[C@H]2[C@@H]3CC=C4C[C@@H](O)CC[C@@]4(C)[C@@H]3CC[C@]21C)C(C)C
REMARK SMILES IDX 6 1 7 2 5 3 4 4 3 5 2 6 1 7 28 8 29 9 30 10 8 11 9 12 26 13
REMARK SMILES IDX 10 14 11 15 25 16 27 17 12 18 24 19 23 20 13 21 21 22 14 23
REMARK SMILES IDX 15 24 20 25 22 26 16 27 19 28 17 29 18 30
REMARK H PARENT 18 31
REMARK Flexibility Score: inf
ROOT
ATOM      1  C   UNL     1      33.305  11.467 104.970  1.00  0.00     0.012 C 
ATOM      2  C   UNL     1      31.903  12.104 105.064  1.00  0.00     0.012 C 
ENDROOT
BRANCH   1   3
ATOM      3  C   UNL     1      33.288  10.002 105.372  1.00  0.00    -0.028 C 
ATOM      4  C   UNL     1      32.219   9.374 105.897  1.00  0.00    -0.027 C 
BRANCH   4   5
ATOM      5  C   UNL     1      32.279   7.910 106.296  1.00  0.00     0.014 C 
BRANCH   5   6
ATOM      6  C   UNL     1      32.596   7.818 107.813  1.00  0.00     0.004 C 
ATOM      7  C   UNL     1      31.386   8.026 108.723  1.00  0.00     0.004 C 
ENDBRANCH   5   6
BRANCH   5   8
ATOM      8  C   UNL     1      30.971   7.183 105.829  1.00  0.00    -0.011 C 
ATOM      9  C   UNL     1      30.495   7.629 104.438  1.00  0.00     0.008 C 
ATOM     10  C   UNL     1      31.050   5.651 105.913  1.00  0.00     0.008 C 
ENDBRANCH   5   8
ENDBRANCH   4   5
ENDBRANCH   1   3
BRANCH   1  11
ATOM     11  C   UNL     1      34.467  12.242 105.703  1.00  0.00     0.002 C 
ATOM     12  C   UNL     1      34.764  13.612 105.073  1.00  0.00     0.005 C 
ATOM     13  C   UNL     1      35.869  11.543 105.795  1.00  0.00    -0.026 C 
ATOM     14  C   UNL     1      36.037  13.463 104.245  1.00  0.00     0.005 C 
ATOM     15  C   UNL     1      36.615  12.064 104.531  1.00  0.00    -0.001 C 
ATOM     16  C   UNL     1      36.579  12.026 107.101  1.00  0.00     0.007 C 
ATOM     17  C   UNL     1      35.757   9.996 105.846  1.00  0.00     0.012 C 
ATOM     18  C   UNL     1      38.175  12.080 104.581  1.00  0.00     0.000 C 
ATOM     19  C   UNL     1      38.103  11.846 107.096  1.00  0.00     0.005 C 
ATOM     20  C   UNL     1      38.741  12.621 105.916  1.00  0.00     0.003 C 
ATOM     21  C   UNL     1      38.771  10.702 104.250  1.00  0.00     0.031 C 
ATOM     22  C   UNL     1      40.330  12.682 105.899  1.00  0.00    -0.008 C 
ATOM     23  C   UNL     1      40.266  10.713 104.305  1.00  0.00    -0.027 C 
ATOM     24  C   UNL     1      40.975  11.543 105.096  1.00  0.00    -0.065 C 
ATOM     25  C   UNL     1      40.771  14.016 105.209  1.00  0.00     0.014 C 
ATOM     26  C   UNL     1      40.888  12.673 107.349  1.00  0.00     0.016 C 
ATOM     27  C   UNL     1      42.477  11.596 104.905  1.00  0.00     0.063 C 
ATOM     28  C   UNL     1      42.290  14.125 104.945  1.00  0.00     0.033 C 
ATOM     29  C   UNL     1      42.852  12.902 104.191  1.00  0.00     0.118 C 
BRANCH  29  30
ATOM     30  O   UNL     1      42.360  12.872 102.875  1.00  0.00    -0.393 OA
ATOM     31  H   UNL     1      41.442  13.252 102.903  1.00  0.00     0.210 HD
ENDBRANCH  29  30
ENDBRANCH   1  11
TORSDOF 6
ENDMDL
MODEL 3
REMARK VINA RESULT:    -4.261      1.486      2.780
REMARK INTER + INTRA:          -6.360
REMARK INTER:                  -5.642
REMARK INTRA:                  -0.718
REMARK UNBOUND:                -0.728
REMARK SMILES CC[C@H](C=C[C@@H](C)[C@@H]1CC[C@H]2[C@@H]3CC=C4C[C@@H](O)CC[C@@]4(C)[C@@H]3CC[C@]21C)C(C)C
REMARK SMILES IDX 6 1 7 2 5 3 4 4 3 5 2 6 1 7 28 8 29 9 30 10 8 11 9 12 26 13
REMARK SMILES IDX 10 14 11 15 25 16 27 17 12 18 24 19 23 20 13 21 21 22 14 23
REMARK SMILES IDX 15 24 20 25 22 26 16 27 19 28 17 29 18 30
REMARK H PARENT 18 31
REMARK Flexibility Score: inf
ROOT
ATOM      1  C   UNL     1      34.021  12.711 104.968  1.00  0.00     0.012 C 
ATOM      2  C   UNL     1      34.191  14.011 105.782  1.00  0.00     0.012 C 
ENDROOT
BRANCH   1   3
ATOM      3  C   UNL     1      32.745  11.975 105.340  1.00  0.00    -0.028 C 
ATOM      4  C   UNL     1      32.648  10.637 105.448  1.00  0.00    -0.027 C 
BRANCH   4   5
ATOM      5  C   UNL     1      31.333   9.966 105.805  1.00  0.00     0.014 C 
BRANCH   5   6
ATOM      6  C   UNL     1      30.207  10.575 104.927  1.00  0.00     0.004 C 
ATOM      7  C   UNL     1      29.143  11.344 105.712  1.00  0.00     0.004 C 
ENDBRANCH   5   6
BRANCH   5   8
ATOM      8  C   UNL     1      31.496   8.410 105.718  1.00  0.00    -0.011 C 
ATOM      9  C   UNL     1      31.450   7.720 107.091  1.00  0.00     0.008 C 
ATOM     10  C   UNL     1      30.521   7.739 104.738  1.00  0.00     0.008 C 
ENDBRANCH   5   8
ENDBRANCH   4   5
ENDBRANCH   1   3
BRANCH   1  11
ATOM     11  C   UNL     1      35.258  11.733 104.961  1.00  0.00     0.002 C 
ATOM     12  C   UNL     1      35.816  11.461 106.368  1.00  0.00     0.005 C 
ATOM     13  C   UNL     1      36.515  12.147 104.118  1.00  0.00    -0.026 C 
ATOM     14  C   UNL     1      37.086  12.294 106.519  1.00  0.00     0.005 C 
ATOM     15  C   UNL     1      37.402  12.912 105.144  1.00  0.00    -0.001 C 
ATOM     16  C   UNL     1      37.229  10.849 103.620  1.00  0.00     0.007 C 
ATOM     17  C   UNL     1      36.140  13.001 102.877  1.00  0.00     0.012 C 
ATOM     18  C   UNL     1      38.938  12.953 104.867  1.00  0.00     0.000 C 
ATOM     19  C   UNL     1      38.698  11.047 103.225  1.00  0.00     0.005 C 
ATOM     20  C   UNL     1      39.518  11.589 104.422  1.00  0.00     0.003 C 
ATOM     21  C   UNL     1      39.308  14.060 103.865  1.00  0.00     0.031 C 
ATOM     22  C   UNL     1      41.093  11.659 104.215  1.00  0.00    -0.008 C 
ATOM     23  C   UNL     1      40.778  14.096 103.591  1.00  0.00    -0.027 C 
ATOM     24  C   UNL     1      41.576  13.012 103.670  1.00  0.00    -0.065 C 
ATOM     25  C   UNL     1      41.789  11.466 105.604  1.00  0.00     0.014 C 
ATOM     26  C   UNL     1      41.567  10.522 103.268  1.00  0.00     0.016 C 
ATOM     27  C   UNL     1      43.073  13.224 103.573  1.00  0.00     0.063 C 
ATOM     28  C   UNL     1      43.316  11.706 105.590  1.00  0.00     0.033 C 
ATOM     29  C   UNL     1      43.700  13.062 104.964  1.00  0.00     0.118 C 
BRANCH  29  30
ATOM     30  O   UNL     1      43.278  14.118 105.791  1.00  0.00    -0.393 OA
ATOM     31  H   UNL     1      43.801  14.919 105.522  1.00  0.00     0.210 HD
ENDBRANCH  29  30
ENDBRANCH   1  11
TORSDOF 6
ENDMDL
MODEL 4
REMARK VINA RESULT:    -3.726      2.802      8.825
REMARK INTER + INTRA:          -5.653
REMARK INTER:                  -4.956
REMARK INTRA:                  -0.697
REMARK UNBOUND:                -0.728
REMARK SMILES CC[C@H](C=C[C@@H](C)[C@@H]1CC[C@H]2[C@@H]3CC=C4C[C@@H](O)CC[C@@]4(C)[C@@H]3CC[C@]21C)C(C)C
REMARK SMILES IDX 6 1 7 2 5 3 4 4 3 5 2 6 1 7 28 8 29 9 30 10 8 11 9 12 26 13
REMARK SMILES IDX 10 14 11 15 25 16 27 17 12 18 24 19 23 20 13 21 21 22 14 23
REMARK SMILES IDX 15 24 20 25 22 26 16 27 19 28 17 29 18 30
REMARK H PARENT 18 31
REMARK Flexibility Score: inf
ROOT
ATOM      1  C   UNL     1      36.875  13.036 104.871  1.00  0.00     0.012 C 
ATOM      2  C   UNL     1      36.418  12.646 103.450  1.00  0.00     0.012 C 
ENDROOT
BRANCH   1   3
ATOM      3  C   UNL     1      38.290  13.591 104.877  1.00  0.00    -0.028 C 
ATOM      4  C   UNL     1      39.379  12.888 104.514  1.00  0.00    -0.027 C 
BRANCH   4   5
ATOM      5  C   UNL     1      40.767  13.501 104.563  1.00  0.00     0.014 C 
BRANCH   5   6
ATOM      6  C   UNL     1      41.349  13.309 105.991  1.00  0.00     0.004 C 
ATOM      7  C   UNL     1      41.038  11.951 106.620  1.00  0.00     0.004 C 
ENDBRANCH   5   6
BRANCH   5   8
ATOM      8  C   UNL     1      41.638  12.927 103.393  1.00  0.00    -0.011 C 
ATOM      9  C   UNL     1      43.145  12.960 103.689  1.00  0.00     0.008 C 
ATOM     10  C   UNL     1      41.205  11.529 102.925  1.00  0.00     0.008 C 
ENDBRANCH   5   8
ENDBRANCH   4   5
ENDBRANCH   1   3
BRANCH   1  11
ATOM     11  C   UNL     1      36.696  11.931 105.983  1.00  0.00     0.002 C 
ATOM     12  C   UNL     1      37.414  10.616 105.642  1.00  0.00     0.005 C 
ATOM     13  C   UNL     1      35.234  11.494 106.350  1.00  0.00    -0.026 C 
ATOM     14  C   UNL     1      36.349   9.629 105.169  1.00  0.00     0.005 C 
ATOM     15  C   UNL     1      34.974  10.280 105.410  1.00  0.00    -0.001 C 
ATOM     16  C   UNL     1      35.210  11.054 107.850  1.00  0.00     0.007 C 
ATOM     17  C   UNL     1      34.207  12.643 106.165  1.00  0.00     0.012 C 
ATOM     18  C   UNL     1      33.912   9.234 105.874  1.00  0.00     0.000 C 
ATOM     19  C   UNL     1      34.027  10.153 108.226  1.00  0.00     0.005 C 
ATOM     20  C   UNL     1      34.031   8.860 107.371  1.00  0.00     0.003 C 
ATOM     21  C   UNL     1      32.481   9.685 105.533  1.00  0.00     0.031 C 
ATOM     22  C   UNL     1      32.975   7.746 107.785  1.00  0.00    -0.008 C 
ATOM     23  C   UNL     1      31.461   8.689 105.984  1.00  0.00    -0.027 C 
ATOM     24  C   UNL     1      31.638   7.867 107.038  1.00  0.00    -0.065 C 
ATOM     25  C   UNL     1      33.562   6.341 107.420  1.00  0.00     0.014 C 
ATOM     26  C   UNL     1      32.717   7.786 109.316  1.00  0.00     0.016 C 
ATOM     27  C   UNL     1      30.620   6.767 107.261  1.00  0.00     0.063 C 
ATOM     28  C   UNL     1      32.564   5.172 107.585  1.00  0.00     0.033 C 
ATOM     29  C   UNL     1      31.230   5.420 106.852  1.00  0.00     0.118 C 
BRANCH  29  30
ATOM     30  O   UNL     1      31.427   5.400 105.461  1.00  0.00    -0.393 OA
ATOM     31  H   UNL     1      32.405   5.486 105.308  1.00  0.00     0.210 HD
ENDBRANCH  29  30
ENDBRANCH   1  11
TORSDOF 6
ENDMDL
MODEL 5
REMARK VINA RESULT:    -3.379      1.312      2.390
REMARK INTER + INTRA:          -5.193
REMARK INTER:                  -4.643
REMARK INTRA:                  -0.550
REMARK UNBOUND:                -0.728
REMARK SMILES CC[C@H](C=C[C@@H](C)[C@@H]1CC[C@H]2[C@@H]3CC=C4C[C@@H](O)CC[C@@]4(C)[C@@H]3CC[C@]21C)C(C)C
REMARK SMILES IDX 6 1 7 2 5 3 4 4 3 5 2 6 1 7 28 8 29 9 30 10 8 11 9 12 26 13
REMARK SMILES IDX 10 14 11 15 25 16 27 17 12 18 24 19 23 20 13 21 21 22 14 23
REMARK SMILES IDX 15 24 20 25 22 26 16 27 19 28 17 29 18 30
REMARK H PARENT 18 31
REMARK Flexibility Score: inf
ROOT
ATOM      1  C   UNL     1      34.165  11.814 105.081  1.00  0.00     0.012 C 
ATOM      2  C   UNL     1      34.250  13.047 106.003  1.00  0.00     0.012 C 
ENDROOT
BRANCH   1   3
ATOM      3  C   UNL     1      33.006  10.906 105.457  1.00  0.00    -0.028 C 
ATOM      4  C   UNL     1      33.138   9.752 106.137  1.00  0.00    -0.027 C 
BRANCH   4   5
ATOM      5  C   UNL     1      31.936   8.883 106.462  1.00  0.00     0.014 C 
BRANCH   5   6
ATOM      6  C   UNL     1      31.222   8.503 105.137  1.00  0.00     0.004 C 
ATOM      7  C   UNL     1      30.483   7.165 105.183  1.00  0.00     0.004 C 
ENDBRANCH   5   6
BRANCH   5   8
ATOM      8  C   UNL     1      32.383   7.681 107.363  1.00  0.00    -0.011 C 
ATOM      9  C   UNL     1      33.871   7.733 107.744  1.00  0.00     0.008 C 
ATOM     10  C   UNL     1      31.508   7.483 108.610  1.00  0.00     0.008 C 
ENDBRANCH   5   8
ENDBRANCH   4   5
ENDBRANCH   1   3
BRANCH   1  11
ATOM     11  C   UNL     1      35.497  10.988 104.907  1.00  0.00     0.002 C 
ATOM     12  C   UNL     1      36.143  10.602 106.247  1.00  0.00     0.005 C 
ATOM     13  C   UNL     1      36.664  11.645 104.088  1.00  0.00    -0.026 C 
ATOM     14  C   UNL     1      37.323  11.545 106.469  1.00  0.00     0.005 C 
ATOM     15  C   UNL     1      37.510  12.365 105.179  1.00  0.00    -0.001 C 
ATOM     16  C   UNL     1      37.488  10.509 103.400  1.00  0.00     0.007 C 
ATOM     17  C   UNL     1      36.145  12.604 102.983  1.00  0.00     0.012 C 
ATOM     18  C   UNL     1      39.018  12.612 104.862  1.00  0.00     0.000 C 
ATOM     19  C   UNL     1      38.909  10.918 102.990  1.00  0.00     0.005 C 
ATOM     20  C   UNL     1      39.720  11.390 104.223  1.00  0.00     0.003 C 
ATOM     21  C   UNL     1      39.223  13.873 104.005  1.00  0.00     0.031 C 
ATOM     22  C   UNL     1      41.268  11.661 103.979  1.00  0.00    -0.008 C 
ATOM     23  C   UNL     1      40.667  14.107 103.694  1.00  0.00    -0.027 C 
ATOM     24  C   UNL     1      41.579  13.118 103.604  1.00  0.00    -0.065 C 
ATOM     25  C   UNL     1      42.042  11.370 105.308  1.00  0.00     0.014 C 
ATOM     26  C   UNL     1      41.816  10.715 102.875  1.00  0.00     0.016 C 
ATOM     27  C   UNL     1      43.039  13.506 103.489  1.00  0.00     0.063 C 
ATOM     28  C   UNL     1      43.533  11.778 105.279  1.00  0.00     0.033 C 
ATOM     29  C   UNL     1      43.741  13.238 104.827  1.00  0.00     0.118 C 
BRANCH  29  30
ATOM     30  O   UNL     1      43.248  14.124 105.799  1.00  0.00    -0.393 OA
ATOM     31  H   UNL     1      43.258  13.637 106.665  1.00  0.00     0.210 HD
ENDBRANCH  29  30
ENDBRANCH   1  11
TORSDOF 6
ENDMDL
MODEL 6
REMARK VINA RESULT:    -3.040      1.931      3.508
REMARK INTER + INTRA:          -4.746
REMARK INTER:                  -4.894
REMARK INTRA:                   0.148
REMARK UNBOUND:                -0.728
REMARK SMILES CC[C@H](C=C[C@@H](C)[C@@H]1CC[C@H]2[C@@H]3CC=C4C[C@@H](O)CC[C@@]4(C)[C@@H]3CC[C@]21C)C(C)C
REMARK SMILES IDX 6 1 7 2 5 3 4 4 3 5 2 6 1 7 28 8 29 9 30 10 8 11 9 12 26 13
REMARK SMILES IDX 10 14 11 15 25 16 27 17 12 18 24 19 23 20 13 21 21 22 14 23
REMARK SMILES IDX 15 24 20 25 22 26 16 27 19 28 17 29 18 30
REMARK H PARENT 18 31
REMARK Flexibility Score: inf
ROOT
ATOM      1  C   UNL     1      34.014  13.011 104.843  1.00  0.00     0.012 C 
ATOM      2  C   UNL     1      34.431  14.100 105.853  1.00  0.00     0.012 C 
ENDROOT
BRANCH   1   3
ATOM      3  C   UNL     1      32.798  12.235 105.319  1.00  0.00    -0.028 C 
ATOM      4  C   UNL     1      31.882  11.687 104.500  1.00  0.00    -0.027 C 
BRANCH   4   5
ATOM      5  C   UNL     1      30.678  10.940 105.046  1.00  0.00     0.014 C 
BRANCH   5   6
ATOM      6  C   UNL     1      31.178   9.738 105.893  1.00  0.00     0.004 C 
ATOM      7  C   UNL     1      31.008   8.378 105.216  1.00  0.00     0.004 C 
ENDBRANCH   5   6
BRANCH   5   8
ATOM      8  C   UNL     1      29.727  11.943 105.785  1.00  0.00    -0.011 C 
ATOM      9  C   UNL     1      30.030  13.414 105.461  1.00  0.00     0.008 C 
ATOM     10  C   UNL     1      28.234  11.639 105.589  1.00  0.00     0.008 C 
ENDBRANCH   5   8
ENDBRANCH   4   5
ENDBRANCH   1   3
BRANCH   1  11
ATOM     11  C   UNL     1      35.159  12.036 104.368  1.00  0.00     0.002 C 
ATOM     12  C   UNL     1      35.310  10.802 105.272  1.00  0.00     0.005 C 
ATOM     13  C   UNL     1      36.614  12.615 104.253  1.00  0.00    -0.026 C 
ATOM     14  C   UNL     1      36.533  11.034 106.154  1.00  0.00     0.005 C 
ATOM     15  C   UNL     1      37.233  12.310 105.649  1.00  0.00    -0.001 C 
ATOM     16  C   UNL     1      37.369  11.840 103.126  1.00  0.00     0.007 C 
ATOM     17  C   UNL     1      36.623  14.125 103.895  1.00  0.00     0.012 C 
ATOM     18  C   UNL     1      38.788  12.188 105.727  1.00  0.00     0.000 C 
ATOM     19  C   UNL     1      38.898  11.923 103.216  1.00  0.00     0.005 C 
ATOM     20  C   UNL     1      39.397  11.360 104.570  1.00  0.00     0.003 C 
ATOM     21  C   UNL     1      39.464  13.566 105.832  1.00  0.00     0.031 C 
ATOM     22  C   UNL     1      40.972  11.205 104.724  1.00  0.00    -0.008 C 
ATOM     23  C   UNL     1      40.954  13.452 105.898  1.00  0.00    -0.027 C 
ATOM     24  C   UNL     1      41.648  12.439 105.340  1.00  0.00    -0.065 C 
ATOM     25  C   UNL     1      41.265  10.010 105.692  1.00  0.00     0.014 C 
ATOM     26  C   UNL     1      41.623  10.892 103.349  1.00  0.00     0.016 C 
ATOM     27  C   UNL     1      43.126  12.333 105.657  1.00  0.00     0.063 C 
ATOM     28  C   UNL     1      42.751   9.862 106.092  1.00  0.00     0.033 C 
ATOM     29  C   UNL     1      43.353  11.173 106.636  1.00  0.00     0.118 C 
BRANCH  29  30
ATOM     30  O   UNL     1      42.780  11.494 107.879  1.00  0.00    -0.393 OA
ATOM     31  H   UNL     1      41.850  11.145 107.864  1.00  0.00     0.210 HD
ENDBRANCH  29  30
ENDBRANCH   1  11
TORSDOF 6
ENDMDL
MODEL 7
REMARK VINA RESULT:    -2.830      1.387      2.776
REMARK INTER + INTRA:          -4.469
REMARK INTER:                  -3.854
REMARK INTRA:                  -0.615
REMARK UNBOUND:                -0.728
REMARK SMILES CC[C@H](C=C[C@@H](C)[C@@H]1CC[C@H]2[C@@H]3CC=C4C[C@@H](O)CC[C@@]4(C)[C@@H]3CC[C@]21C)C(C)C
REMARK SMILES IDX 6 1 7 2 5 3 4 4 3 5 2 6 1 7 28 8 29 9 30 10 8 11 9 12 26 13
REMARK SMILES IDX 10 14 11 15 25 16 27 17 12 18 24 19 23 20 13 21 21 22 14 23
REMARK SMILES IDX 15 24 20 25 22 26 16 27 19 28 17 29 18 30
REMARK H PARENT 18 31
REMARK Flexibility Score: inf
ROOT
ATOM      1  C   UNL     1      33.832  10.628 106.666  1.00  0.00     0.012 C 
ATOM      2  C   UNL     1      34.540  10.254 107.985  1.00  0.00     0.012 C 
ENDROOT
BRANCH   1   3
ATOM      3  C   UNL     1      32.750   9.625 106.302  1.00  0.00    -0.028 C 
ATOM      4  C   UNL     1      32.394   8.582 107.075  1.00  0.00    -0.027 C 
BRANCH   4   5
ATOM      5  C   UNL     1      31.316   7.607 106.639  1.00  0.00     0.014 C 
BRANCH   5   6
ATOM      6  C   UNL     1      31.361   7.470 105.093  1.00  0.00     0.004 C 
ATOM      7  C   UNL     1      29.990   7.320 104.435  1.00  0.00     0.004 C 
ENDBRANCH   5   6
BRANCH   5   8
ATOM      8  C   UNL     1      31.459   6.269 107.444  1.00  0.00    -0.011 C 
ATOM      9  C   UNL     1      31.458   5.021 106.547  1.00  0.00     0.008 C 
ATOM     10  C   UNL     1      32.659   6.249 108.403  1.00  0.00     0.008 C 
ENDBRANCH   5   8
ENDBRANCH   4   5
ENDBRANCH   1   3
BRANCH   1  11
ATOM     11  C   UNL     1      34.773  10.917 105.434  1.00  0.00     0.002 C 
ATOM     12  C   UNL     1      35.563   9.680 104.979  1.00  0.00     0.005 C 
ATOM     13  C   UNL     1      35.861  12.038 105.591  1.00  0.00    -0.026 C 
ATOM     14  C   UNL     1      36.991   9.840 105.494  1.00  0.00     0.005 C 
ATOM     15  C   UNL     1      37.114  11.257 106.086  1.00  0.00    -0.001 C 
ATOM     16  C   UNL     1      36.120  12.678 104.190  1.00  0.00     0.007 C 
ATOM     17  C   UNL     1      35.417  13.163 106.564  1.00  0.00     0.012 C 
ATOM     18  C   UNL     1      38.510  11.889 105.791  1.00  0.00     0.000 C 
ATOM     19  C   UNL     1      37.463  13.411 104.067  1.00  0.00     0.005 C 
ATOM     20  C   UNL     1      38.641  12.446 104.353  1.00  0.00     0.003 C 
ATOM     21  C   UNL     1      38.883  12.959 106.830  1.00  0.00     0.031 C 
ATOM     22  C   UNL     1      40.097  13.019 104.074  1.00  0.00    -0.008 C 
ATOM     23  C   UNL     1      40.217  13.573 106.545  1.00  0.00    -0.027 C 
ATOM     24  C   UNL     1      40.740  13.675 105.306  1.00  0.00    -0.065 C 
ATOM     25  C   UNL     1      41.032  11.832 103.665  1.00  0.00     0.014 C 
ATOM     26  C   UNL     1      40.062  14.041 102.904  1.00  0.00     0.016 C 
ATOM     27  C   UNL     1      42.181  14.125 105.177  1.00  0.00     0.063 C 
ATOM     28  C   UNL     1      42.527  12.208 103.552  1.00  0.00     0.033 C 
ATOM     29  C   UNL     1      43.058  12.919 104.814  1.00  0.00     0.118 C 
BRANCH  29  30
ATOM     30  O   UNL     1      43.095  12.026 105.898  1.00  0.00    -0.393 OA
ATOM     31  H   UNL     1      42.615  11.205 105.610  1.00  0.00     0.210 HD
ENDBRANCH  29  30
ENDBRANCH   1  11
TORSDOF 6
ENDMDL
MODEL 8
REMARK VINA RESULT:    -2.708      1.475      2.691
REMARK INTER + INTRA:          -4.308
REMARK INTER:                  -4.702
REMARK INTRA:                   0.395
REMARK UNBOUND:                -0.728
REMARK SMILES CC[C@H](C=C[C@@H](C)[C@@H]1CC[C@H]2[C@@H]3CC=C4C[C@@H](O)CC[C@@]4(C)[C@@H]3CC[C@]21C)C(C)C
REMARK SMILES IDX 6 1 7 2 5 3 4 4 3 5 2 6 1 7 28 8 29 9 30 10 8 11 9 12 26 13
REMARK SMILES IDX 10 14 11 15 25 16 27 17 12 18 24 19 23 20 13 21 21 22 14 23
REMARK SMILES IDX 15 24 20 25 22 26 16 27 19 28 17 29 18 30
REMARK H PARENT 18 31
REMARK Flexibility Score: inf
ROOT
ATOM      1  C   UNL     1      32.521  11.641 105.040  1.00  0.00     0.012 C 
ATOM      2  C   UNL     1      32.470  13.049 105.669  1.00  0.00     0.012 C 
ENDROOT
BRANCH   1   3
ATOM      3  C   UNL     1      32.054  10.571 106.012  1.00  0.00    -0.028 C 
ATOM      4  C   UNL     1      31.596   9.361 105.643  1.00  0.00    -0.027 C 
BRANCH   4   5
ATOM      5  C   UNL     1      31.126   8.346 106.669  1.00  0.00     0.014 C 
BRANCH   5   6
ATOM      6  C   UNL     1      30.939   6.974 105.967  1.00  0.00     0.004 C 
ATOM      7  C   UNL     1      30.546   7.069 104.493  1.00  0.00     0.004 C 
ENDBRANCH   5   6
BRANCH   5   8
ATOM      8  C   UNL     1      32.097   8.353 107.900  1.00  0.00    -0.011 C 
ATOM      9  C   UNL     1      31.379   8.113 109.237  1.00  0.00     0.008 C 
ATOM     10  C   UNL     1      33.297   7.406 107.748  1.00  0.00     0.008 C 
ENDBRANCH   5   8
ENDBRANCH   4   5
ENDBRANCH   1   3
BRANCH   1  11
ATOM     11  C   UNL     1      33.887  11.235 104.365  1.00  0.00     0.002 C 
ATOM     12  C   UNL     1      34.493   9.954 104.959  1.00  0.00     0.005 C 
ATOM     13  C   UNL     1      35.062  12.276 104.404  1.00  0.00    -0.026 C 
ATOM     14  C   UNL     1      35.630  10.379 105.885  1.00  0.00     0.005 C 
ATOM     15  C   UNL     1      35.839  11.893 105.698  1.00  0.00    -0.001 C 
ATOM     16  C   UNL     1      35.951  12.069 103.136  1.00  0.00     0.007 C 
ATOM     17  C   UNL     1      34.553  13.743 104.406  1.00  0.00     0.012 C 
ATOM     18  C   UNL     1      37.349  12.283 105.763  1.00  0.00     0.000 C 
ATOM     19  C   UNL     1      37.372  12.636 103.261  1.00  0.00     0.005 C 
ATOM     20  C   UNL     1      38.117  11.985 104.453  1.00  0.00     0.003 C 
ATOM     21  C   UNL     1      37.543  13.747 106.192  1.00  0.00     0.031 C 
ATOM     22  C   UNL     1      39.663  12.334 104.585  1.00  0.00    -0.008 C 
ATOM     23  C   UNL     1      38.989  14.125 106.247  1.00  0.00    -0.027 C 
ATOM     24  C   UNL     1      39.937  13.553 105.478  1.00  0.00    -0.065 C 
ATOM     25  C   UNL     1      40.394  11.121 105.252  1.00  0.00     0.014 C 
ATOM     26  C   UNL     1      40.286  12.571 103.182  1.00  0.00     0.016 C 
ATOM     27  C   UNL     1      41.387  13.878 105.778  1.00  0.00     0.063 C 
ATOM     28  C   UNL     1      41.870  11.393 105.624  1.00  0.00     0.033 C 
ATOM     29  C   UNL     1      42.045  12.674 106.465  1.00  0.00     0.118 C 
BRANCH  29  30
ATOM     30  O   UNL     1      41.483  12.500 107.741  1.00  0.00    -0.393 OA
ATOM     31  H   UNL     1      42.105  12.927 108.389  1.00  0.00     0.210 HD
ENDBRANCH  29  30
ENDBRANCH   1  11
TORSDOF 6
ENDMDL
