MODEL 1
REMARK VINA RESULT:    -2.078      0.000      0.000
REMARK INTER + INTRA:          -4.440
REMARK INTER:                  -3.414
REMARK INTRA:                  -1.026
REMARK UNBOUND:                -1.026
REMARK SMILES C[C@@H]1O[C@H](OC[C@@H]2O[C@@H](Oc3c(-c4ccc(O)c(O)c4)oc4cc(O)cc(O)c4c3=O)[C@H](O)[C@@H](O)[C@@H]2O)[C@@H](O)[C@@H](O)[C@H]1O
REMARK SMILES IDX 7 1 36 2 34 3 32 4 9 5 8 6 6 7 5 8 4 9 1 10 2 11 42 12 3 13
REMARK SMILES IDX 40 14 38 15 43 16 41 18 39 20 37 22 35 24 10 26 11 27 12 28
REMARK SMILES IDX 30 29 21 30 29 31 31 32 22 33 27 34 23 35 26 36 24 37 13 38
REMARK SMILES IDX 20 39 14 40 18 41 15 42 16 43 19 44 17 46 28 48 25 50 33 52
REMARK H PARENT 43 17 41 19 39 21 37 23 35 25 19 45 17 47 28 49 25 51 33 53
REMARK Flexibility Score: inf
ROOT
ATOM      1  C   UNL     1       9.630  13.049   0.077  1.00  0.00     0.180 C 
ATOM      2  C   UNL     1       8.212  13.835  -0.139  1.00  0.00     0.177 C 
ATOM      3  C   UNL     1       7.242  12.846  -0.865  1.00  0.00     0.180 C 
ATOM      4  C   UNL     1       7.760  12.566  -2.271  1.00  0.00     0.214 C 
ATOM      5  C   UNL     1       9.288  12.090  -2.194  1.00  0.00     0.339 C 
ATOM      6  O   UNL     1       9.715  11.871  -0.790  1.00  0.00    -0.332 OA
ENDROOT
BRANCH   1   7
ATOM      7  C   UNL     1      10.995  13.820  -0.158  1.00  0.00     0.198 C 
BRANCH   7   8
ATOM      8  O   UNL     1      10.959  15.073  -0.932  1.00  0.00    -0.347 OA
BRANCH   8   9
ATOM      9  C   UNL     1      11.937  16.031  -0.607  1.00  0.00     0.281 C 
ATOM     10  C   UNL     1      14.643  17.972  -2.024  1.00  0.00     0.041 C 
ATOM     11  C   UNL     1      14.110  16.971  -0.932  1.00  0.00     0.150 C 
ATOM     12  C   UNL     1      13.884  17.645   0.532  1.00  0.00     0.174 C 
ATOM     13  O   UNL     1      13.036  16.174  -1.515  1.00  0.00    -0.344 OA
ATOM     14  C   UNL     1      12.385  18.125   0.778  1.00  0.00     0.179 C 
ATOM     15  C   UNL     1      11.382  17.459  -0.255  1.00  0.00     0.202 C 
BRANCH  12  16
ATOM     16  O   UNL     1      14.373  16.828   1.654  1.00  0.00    -0.388 OA
ATOM     17  H   UNL     1      15.287  16.578   1.341  1.00  0.00     0.211 HD
ENDBRANCH  12  16
BRANCH  14  18
ATOM     18  O   UNL     1      11.931  17.890   2.101  1.00  0.00    -0.387 OA
ATOM     19  H   UNL     1      11.234  18.570   2.336  1.00  0.00     0.211 HD
ENDBRANCH  14  18
BRANCH  15  20
ATOM     20  O   UNL     1      10.012  17.545   0.036  1.00  0.00    -0.385 OA
ATOM     21  H   UNL     1       9.771  16.592   0.200  1.00  0.00     0.211 HD
ENDBRANCH  15  20
ENDBRANCH   8   9
ENDBRANCH   7   8
ENDBRANCH   1   7
BRANCH   2  22
ATOM     22  O   UNL     1       8.300  15.033  -0.872  1.00  0.00    -0.387 OA
ATOM     23  H   UNL     1       7.566  15.106  -1.534  1.00  0.00     0.211 HD
ENDBRANCH   2  22
BRANCH   3  24
ATOM     24  O   UNL     1       7.144  11.616  -0.187  1.00  0.00    -0.387 OA
ATOM     25  H   UNL     1       7.951  11.524   0.399  1.00  0.00     0.211 HD
ENDBRANCH   3  24
BRANCH   5  26
ATOM     26  O   UNL     1       9.491  10.901  -2.968  1.00  0.00    -0.454 OA
BRANCH  26  27
ATOM     27  C   UNL     1      10.174   9.711  -2.469  1.00  0.00     0.214 A 
ATOM     28  C   UNL     1      11.409   9.813  -1.806  1.00  0.00     0.180 A 
ATOM     29  C   UNL     1       9.453   8.514  -2.451  1.00  0.00     0.239 A 
ATOM     30  O   UNL     1      11.737   8.850  -0.909  1.00  0.00    -0.452 OA
ATOM     31  C   UNL     1      10.038   7.398  -1.806  1.00  0.00     0.111 A 
ATOM     32  O   UNL     1       8.317   8.434  -2.980  1.00  0.00    -0.285 OA
ATOM     33  C   UNL     1      11.099   7.662  -0.908  1.00  0.00     0.146 A 
ATOM     34  C   UNL     1       9.641   6.106  -2.150  1.00  0.00     0.134 A 
ATOM     35  C   UNL     1      11.701   6.508  -0.253  1.00  0.00     0.094 A 
ATOM     36  C   UNL     1      10.336   5.009  -1.579  1.00  0.00     0.093 A 
ATOM     37  C   UNL     1      11.339   5.218  -0.657  1.00  0.00     0.123 A 
BRANCH  28  38
ATOM     38  C   UNL     1      12.517  10.644  -2.326  1.00  0.00     0.025 A 
ATOM     39  C   UNL     1      13.821  10.148  -2.426  1.00  0.00     0.062 A 
ATOM     40  C   UNL     1      12.303  11.984  -2.681  1.00  0.00     0.016 A 
ATOM     41  C   UNL     1      14.883  10.991  -2.801  1.00  0.00     0.158 A 
ATOM     42  C   UNL     1      13.384  12.868  -2.885  1.00  0.00     0.051 A 
ATOM     43  C   UNL     1      14.669  12.370  -2.920  1.00  0.00     0.157 A 
BRANCH  41  44
ATOM     44  O   UNL     1      16.143  10.421  -3.011  1.00  0.00    -0.504 OA
ATOM     45  H   UNL     1      16.391   9.981  -3.893  1.00  0.00     0.293 HD
ENDBRANCH  41  44
BRANCH  43  46
ATOM     46  O   UNL     1      15.700  13.278  -3.125  1.00  0.00    -0.504 OA
ATOM     47  H   UNL     1      16.687  13.158  -2.880  1.00  0.00     0.293 HD
ENDBRANCH  43  46
ENDBRANCH  28  38
BRANCH  34  48
ATOM     48  O   UNL     1       8.666   5.893  -3.125  1.00  0.00    -0.507 OA
ATOM     49  H   UNL     1       8.904   5.720  -4.096  1.00  0.00     0.293 HD
ENDBRANCH  34  48
BRANCH  37  50
ATOM     50  O   UNL     1      12.139   4.076  -0.272  1.00  0.00    -0.508 OA
ATOM     51  H   UNL     1      12.603   4.008   0.661  1.00  0.00     0.293 HD
ENDBRANCH  37  50
ENDBRANCH  26  27
ENDBRANCH   5  26
BRANCH   4  52
ATOM     52  O   UNL     1       7.512  13.700  -3.124  1.00  0.00    -0.384 OA
ATOM     53  H   UNL     1       6.516  13.679  -3.072  1.00  0.00     0.211 HD
ENDBRANCH   4  52
TORSDOF 16
ENDMDL
