MODEL 1
REMARK VINA RESULT:    -4.763      0.000      0.000
REMARK INTER + INTRA:          -4.902
REMARK INTER:                  -4.902
REMARK INTRA:                   0.000
REMARK UNBOUND:                 0.000
REMARK SMILES Cc1cccc(O)c1C
REMARK SMILES IDX 1 1 2 2 8 3 6 4 5 5 4 6 3 7 9 8 7 9
REMARK H PARENT 7 10
REMARK Flexibility Score: inf
ROOT
ATOM      1  C   UNL     1      -4.706 -30.858 -25.335  1.00  0.00     0.045 C 
ATOM      2  C   UNL     1      -5.111 -29.914 -24.233  1.00  0.00    -0.045 A 
ATOM      3  C   UNL     1      -4.152 -29.135 -23.535  1.00  0.00    -0.006 A 
ATOM      4  C   UNL     1      -4.581 -28.281 -22.494  1.00  0.00     0.118 A 
ATOM      5  C   UNL     1      -5.944 -28.178 -22.188  1.00  0.00     0.046 A 
ATOM      6  C   UNL     1      -6.884 -28.921 -22.900  1.00  0.00     0.004 A 
ATOM      7  C   UNL     1      -6.473 -29.783 -23.915  1.00  0.00     0.004 A 
ATOM      8  C   UNL     1      -2.682 -29.255 -23.855  1.00  0.00     0.048 C 
ENDROOT
BRANCH   4   9
ATOM      9  O   UNL     1      -3.654 -27.538 -21.763  1.00  0.00    -0.508 OA
ATOM     10  H   UNL     1      -3.548 -27.655 -20.762  1.00  0.00     0.293 HD
ENDBRANCH   4   9
TORSDOF 1
ENDMDL
MODEL 2
REMARK VINA RESULT:    -4.750      0.960      2.694
REMARK INTER + INTRA:          -4.889
REMARK INTER:                  -4.889
REMARK INTRA:                   0.000
REMARK UNBOUND:                 0.000
REMARK SMILES Cc1cccc(O)c1C
REMARK SMILES IDX 1 1 2 2 8 3 6 4 5 5 4 6 3 7 9 8 7 9
REMARK H PARENT 7 10
REMARK Flexibility Score: inf
ROOT
ATOM      1  C   UNL     1      -7.822 -29.345 -23.473  1.00  0.00     0.045 C 
ATOM      2  C   UNL     1      -6.355 -29.591 -23.711  1.00  0.00    -0.045 A 
ATOM      3  C   UNL     1      -5.362 -28.971 -22.910  1.00  0.00    -0.006 A 
ATOM      4  C   UNL     1      -3.998 -29.216 -23.187  1.00  0.00     0.118 A 
ATOM      5  C   UNL     1      -3.639 -30.096 -24.216  1.00  0.00     0.046 A 
ATOM      6  C   UNL     1      -4.620 -30.728 -24.978  1.00  0.00     0.004 A 
ATOM      7  C   UNL     1      -5.969 -30.478 -24.729  1.00  0.00     0.004 A 
ATOM      8  C   UNL     1      -5.747 -28.012 -21.809  1.00  0.00     0.048 C 
ENDROOT
BRANCH   4   9
ATOM      9  O   UNL     1      -3.001 -28.585 -22.443  1.00  0.00    -0.508 OA
ATOM     10  H   UNL     1      -3.010 -27.585 -22.280  1.00  0.00     0.293 HD
ENDBRANCH   4   9
TORSDOF 1
ENDMDL
MODEL 3
REMARK VINA RESULT:    -4.642      1.162      2.543
REMARK INTER + INTRA:          -4.778
REMARK INTER:                  -4.778
REMARK INTRA:                   0.000
REMARK UNBOUND:                 0.000
REMARK SMILES Cc1cccc(O)c1C
REMARK SMILES IDX 1 1 2 2 8 3 6 4 5 5 4 6 3 7 9 8 7 9
REMARK H PARENT 7 10
REMARK Flexibility Score: inf
ROOT
ATOM      1  C   UNL     1      -5.017 -30.670 -25.691  1.00  0.00     0.045 C 
ATOM      2  C   UNL     1      -4.489 -29.711 -24.656  1.00  0.00    -0.045 A 
ATOM      3  C   UNL     1      -5.139 -29.537 -23.408  1.00  0.00    -0.006 A 
ATOM      4  C   UNL     1      -4.617 -28.609 -22.479  1.00  0.00     0.118 A 
ATOM      5  C   UNL     1      -3.445 -27.902 -22.778  1.00  0.00     0.046 A 
ATOM      6  C   UNL     1      -2.792 -28.102 -23.993  1.00  0.00     0.004 A 
ATOM      7  C   UNL     1      -3.309 -28.999 -24.927  1.00  0.00     0.004 A 
ATOM      8  C   UNL     1      -6.410 -30.288 -23.089  1.00  0.00     0.048 C 
ENDROOT
BRANCH   4   9
ATOM      9  O   UNL     1      -5.262 -28.387 -21.263  1.00  0.00    -0.508 OA
ATOM     10  H   UNL     1      -6.015 -28.984 -20.942  1.00  0.00     0.293 HD
ENDBRANCH   4   9
TORSDOF 1
ENDMDL
MODEL 4
REMARK VINA RESULT:    -4.539     14.317     15.309
REMARK INTER + INTRA:          -4.671
REMARK INTER:                  -4.671
REMARK INTRA:                   0.000
REMARK UNBOUND:                 0.000
REMARK SMILES Cc1cccc(O)c1C
REMARK SMILES IDX 1 1 2 2 8 3 6 4 5 5 4 6 3 7 9 8 7 9
REMARK H PARENT 7 10
REMARK Flexibility Score: inf
ROOT
ATOM      1  C   UNL     1     -12.871 -28.243 -35.128  1.00  0.00     0.045 C 
ATOM      2  C   UNL     1     -14.327 -27.913 -34.926  1.00  0.00    -0.045 A 
ATOM      3  C   UNL     1     -14.913 -27.907 -33.634  1.00  0.00    -0.006 A 
ATOM      4  C   UNL     1     -16.288 -27.612 -33.500  1.00  0.00     0.118 A 
ATOM      5  C   UNL     1     -17.049 -27.288 -34.631  1.00  0.00     0.046 A 
ATOM      6  C   UNL     1     -16.460 -27.263 -35.894  1.00  0.00     0.004 A 
ATOM      7  C   UNL     1     -15.109 -27.573 -36.042  1.00  0.00     0.004 A 
ATOM      8  C   UNL     1     -14.097 -28.268 -32.416  1.00  0.00     0.048 C 
ENDROOT
BRANCH   4   9
ATOM      9  O   UNL     1     -16.899 -27.642 -32.246  1.00  0.00    -0.508 OA
ATOM     10  H   UNL     1     -17.322 -26.816 -31.840  1.00  0.00     0.293 HD
ENDBRANCH   4   9
TORSDOF 1
ENDMDL
MODEL 5
REMARK VINA RESULT:    -4.526     13.916     14.875
REMARK INTER + INTRA:          -4.658
REMARK INTER:                  -4.658
REMARK INTRA:                   0.000
REMARK UNBOUND:                 0.000
REMARK SMILES Cc1cccc(O)c1C
REMARK SMILES IDX 1 1 2 2 8 3 6 4 5 5 4 6 3 7 9 8 7 9
REMARK H PARENT 7 10
REMARK Flexibility Score: inf
ROOT
ATOM      1  C   UNL     1     -12.074 -28.744 -33.956  1.00  0.00     0.045 C 
ATOM      2  C   UNL     1     -13.500 -28.263 -33.876  1.00  0.00    -0.045 A 
ATOM      3  C   UNL     1     -14.228 -27.911 -35.042  1.00  0.00    -0.006 A 
ATOM      4  C   UNL     1     -15.556 -27.444 -34.912  1.00  0.00     0.118 A 
ATOM      5  C   UNL     1     -16.154 -27.373 -33.647  1.00  0.00     0.046 A 
ATOM      6  C   UNL     1     -15.444 -27.752 -32.509  1.00  0.00     0.004 A 
ATOM      7  C   UNL     1     -14.126 -28.194 -32.621  1.00  0.00     0.004 A 
ATOM      8  C   UNL     1     -13.581 -27.975 -36.404  1.00  0.00     0.048 C 
ENDROOT
BRANCH   4   9
ATOM      9  O   UNL     1     -16.279 -27.050 -36.038  1.00  0.00    -0.508 OA
ATOM     10  H   UNL     1     -16.200 -27.542 -36.920  1.00  0.00     0.293 HD
ENDBRANCH   4   9
TORSDOF 1
ENDMDL
MODEL 6
REMARK VINA RESULT:    -4.385     13.873     14.945
REMARK INTER + INTRA:          -4.513
REMARK INTER:                  -4.513
REMARK INTRA:                   0.000
REMARK UNBOUND:                 0.000
REMARK SMILES Cc1cccc(O)c1C
REMARK SMILES IDX 1 1 2 2 8 3 6 4 5 5 4 6 3 7 9 8 7 9
REMARK H PARENT 7 10
REMARK Flexibility Score: inf
ROOT
ATOM      1  C   UNL     1     -14.445 -27.760 -36.519  1.00  0.00     0.045 C 
ATOM      2  C   UNL     1     -14.501 -27.868 -35.017  1.00  0.00    -0.045 A 
ATOM      3  C   UNL     1     -15.690 -27.582 -34.298  1.00  0.00    -0.006 A 
ATOM      4  C   UNL     1     -15.685 -27.678 -32.888  1.00  0.00     0.118 A 
ATOM      5  C   UNL     1     -14.527 -28.092 -32.217  1.00  0.00     0.046 A 
ATOM      6  C   UNL     1     -13.372 -28.404 -32.932  1.00  0.00     0.004 A 
ATOM      7  C   UNL     1     -13.357 -28.293 -34.322  1.00  0.00     0.004 A 
ATOM      8  C   UNL     1     -16.935 -27.123 -35.018  1.00  0.00     0.048 C 
ENDROOT
BRANCH   4   9
ATOM      9  O   UNL     1     -16.828 -27.359 -32.154  1.00  0.00    -0.508 OA
ATOM     10  H   UNL     1     -17.064 -26.401 -31.925  1.00  0.00     0.293 HD
ENDBRANCH   4   9
TORSDOF 1
ENDMDL
MODEL 7
REMARK VINA RESULT:    -4.380     13.841     14.825
REMARK INTER + INTRA:          -4.508
REMARK INTER:                  -4.508
REMARK INTRA:                   0.000
REMARK UNBOUND:                 0.000
REMARK SMILES Cc1cccc(O)c1C
REMARK SMILES IDX 1 1 2 2 8 3 6 4 5 5 4 6 3 7 9 8 7 9
REMARK H PARENT 7 10
REMARK Flexibility Score: inf
ROOT
ATOM      1  C   UNL     1     -16.390 -27.255 -36.204  1.00  0.00     0.045 C 
ATOM      2  C   UNL     1     -15.723 -27.572 -34.891  1.00  0.00    -0.045 A 
ATOM      3  C   UNL     1     -14.356 -27.946 -34.826  1.00  0.00    -0.006 A 
ATOM      4  C   UNL     1     -13.783 -28.255 -33.571  1.00  0.00     0.118 A 
ATOM      5  C   UNL     1     -14.551 -28.149 -32.404  1.00  0.00     0.046 A 
ATOM      6  C   UNL     1     -15.885 -27.749 -32.472  1.00  0.00     0.004 A 
ATOM      7  C   UNL     1     -16.468 -27.462 -33.705  1.00  0.00     0.004 A 
ATOM      8  C   UNL     1     -13.531 -28.073 -36.083  1.00  0.00     0.048 C 
ENDROOT
BRANCH   4   9
ATOM      9  O   UNL     1     -12.454 -28.668 -33.484  1.00  0.00    -0.508 OA
ATOM     10  H   UNL     1     -11.893 -28.835 -34.312  1.00  0.00     0.293 HD
ENDBRANCH   4   9
TORSDOF 1
ENDMDL
MODEL 8
REMARK VINA RESULT:    -4.377      1.305      2.375
REMARK INTER + INTRA:          -4.505
REMARK INTER:                  -4.505
REMARK INTRA:                   0.000
REMARK UNBOUND:                 0.000
REMARK SMILES Cc1cccc(O)c1C
REMARK SMILES IDX 1 1 2 2 8 3 6 4 5 5 4 6 3 7 9 8 7 9
REMARK H PARENT 7 10
REMARK Flexibility Score: inf
ROOT
ATOM      1  C   UNL     1      -7.155 -30.174 -23.502  1.00  0.00     0.045 C 
ATOM      2  C   UNL     1      -5.898 -29.394 -23.219  1.00  0.00    -0.045 A 
ATOM      3  C   UNL     1      -4.692 -29.653 -23.921  1.00  0.00    -0.006 A 
ATOM      4  C   UNL     1      -3.534 -28.909 -23.603  1.00  0.00     0.118 A 
ATOM      5  C   UNL     1      -3.593 -27.898 -22.634  1.00  0.00     0.046 A 
ATOM      6  C   UNL     1      -4.789 -27.626 -21.972  1.00  0.00     0.004 A 
ATOM      7  C   UNL     1      -5.934 -28.368 -22.260  1.00  0.00     0.004 A 
ATOM      8  C   UNL     1      -4.623 -30.750 -24.956  1.00  0.00     0.048 C 
ENDROOT
BRANCH   4   9
ATOM      9  O   UNL     1      -2.325 -29.174 -24.247  1.00  0.00    -0.508 OA
ATOM     10  H   UNL     1      -1.472 -29.347 -23.728  1.00  0.00     0.293 HD
ENDBRANCH   4   9
TORSDOF 1
ENDMDL
MODEL 9
REMARK VINA RESULT:    -4.196      7.801      9.468
REMARK INTER + INTRA:          -4.318
REMARK INTER:                  -4.318
REMARK INTRA:                   0.000
REMARK UNBOUND:                 0.000
REMARK SMILES Cc1cccc(O)c1C
REMARK SMILES IDX 1 1 2 2 8 3 6 4 5 5 4 6 3 7 9 8 7 9
REMARK H PARENT 7 10
REMARK Flexibility Score: inf
ROOT
ATOM      1  C   UNL     1      -5.190 -22.357 -17.875  1.00  0.00     0.045 C 
ATOM      2  C   UNL     1      -6.243 -21.533 -18.569  1.00  0.00    -0.045 A 
ATOM      3  C   UNL     1      -7.029 -22.069 -19.621  1.00  0.00    -0.006 A 
ATOM      4  C   UNL     1      -7.989 -21.248 -20.255  1.00  0.00     0.118 A 
ATOM      5  C   UNL     1      -8.187 -19.932 -19.815  1.00  0.00     0.046 A 
ATOM      6  C   UNL     1      -7.434 -19.422 -18.759  1.00  0.00     0.004 A 
ATOM      7  C   UNL     1      -6.469 -20.214 -18.139  1.00  0.00     0.004 A 
ATOM      8  C   UNL     1      -6.809 -23.482 -20.105  1.00  0.00     0.048 C 
ENDROOT
BRANCH   4   9
ATOM      9  O   UNL     1      -8.744 -21.738 -21.321  1.00  0.00    -0.508 OA
ATOM     10  H   UNL     1      -8.434 -21.641 -22.281  1.00  0.00     0.293 HD
ENDBRANCH   4   9
TORSDOF 1
ENDMDL
