MODEL 1
REMARK VINA RESULT:    -5.962      0.000      0.000
REMARK INTER + INTRA:         -11.920
REMARK INTER:                 -10.493
REMARK INTRA:                  -1.427
REMARK UNBOUND:                -1.427
REMARK SMILES CCCCCCC=CCCCCCCCC(=O)[O-]
REMARK SMILES IDX 10 1 11 2 12 3 13 4 14 5 15 6 16 7 17 8 18 9 9 10 8 11 7 12
REMARK SMILES IDX 6 13 5 14 4 15 3 16 2 17 1 18
REMARK H PARENT
REMARK Flexibility Score: inf
ROOT
ATOM      1  C   UNL     1       4.128 -55.202 -29.529  1.00  0.00     0.004 C 
ENDROOT
BRANCH   1   2
ATOM      2  C   UNL     1       3.431 -55.883 -28.342  1.00  0.00     0.000 C 
BRANCH   2   3
ATOM      3  C   UNL     1       4.047 -55.488 -26.990  1.00  0.00     0.000 C 
BRANCH   3   4
ATOM      4  C   UNL     1       4.049 -56.647 -25.978  1.00  0.00     0.000 C 
BRANCH   4   5
ATOM      5  C   UNL     1       5.329 -57.499 -26.040  1.00  0.00     0.006 C 
BRANCH   5   6
ATOM      6  C   UNL     1       5.792 -58.030 -24.672  1.00  0.00     0.053 C 
BRANCH   6   7
ATOM      7  C   UNL     1       7.258 -58.333 -24.633  1.00  0.00     0.041 C 
ATOM      8  O   UNL     1       7.824 -58.601 -23.541  1.00  0.00    -0.550 OA
ATOM      9  O   UNL     1       8.009 -58.289 -25.802  1.00  0.00    -0.550 OA
ENDBRANCH   6   7
ENDBRANCH   5   6
ENDBRANCH   4   5
ENDBRANCH   3   4
ENDBRANCH   2   3
ENDBRANCH   1   2
BRANCH   1  10
ATOM     10  C   UNL     1       5.002 -56.200 -30.298  1.00  0.00     0.027 C 
BRANCH  10  11
ATOM     11  C   UNL     1       6.461 -55.864 -30.161  1.00  0.00    -0.031 C 
ATOM     12  C   UNL     1       7.182 -56.283 -29.109  1.00  0.00    -0.031 C 
BRANCH  12  13
ATOM     13  C   UNL     1       8.641 -55.942 -28.966  1.00  0.00     0.027 C 
BRANCH  13  14
ATOM     14  C   UNL     1       8.892 -54.426 -28.983  1.00  0.00     0.004 C 
BRANCH  14  15
ATOM     15  C   UNL     1       9.683 -53.984 -30.226  1.00  0.00     0.000 C 
BRANCH  15  16
ATOM     16  C   UNL     1      10.030 -55.155 -31.163  1.00  0.00    -0.000 C 
BRANCH  16  17
ATOM     17  C   UNL     1       9.302 -55.137 -32.518  1.00  0.00    -0.003 C 
ATOM     18  C   UNL     1       9.628 -56.349 -33.389  1.00  0.00     0.004 C 
ENDBRANCH  16  17
ENDBRANCH  15  16
ENDBRANCH  14  15
ENDBRANCH  13  14
ENDBRANCH  12  13
ENDBRANCH  10  11
ENDBRANCH   1  10
TORSDOF 13
ENDMDL
MODEL 2
REMARK VINA RESULT:    -5.851      1.128      2.003
REMARK INTER + INTRA:         -11.724
REMARK INTER:                 -10.581
REMARK INTRA:                  -1.143
REMARK UNBOUND:                -1.427
REMARK SMILES CCCCCCC=CCCCCCCCC(=O)[O-]
REMARK SMILES IDX 10 1 11 2 12 3 13 4 14 5 15 6 16 7 17 8 18 9 9 10 8 11 7 12
REMARK SMILES IDX 6 13 5 14 4 15 3 16 2 17 1 18
REMARK H PARENT
REMARK Flexibility Score: inf
ROOT
ATOM      1  C   UNL     1       3.434 -55.000 -28.531  1.00  0.00     0.004 C 
ENDROOT
BRANCH   1   2
ATOM      2  C   UNL     1       2.664 -55.192 -27.216  1.00  0.00     0.000 C 
BRANCH   2   3
ATOM      3  C   UNL     1       3.593 -55.469 -26.023  1.00  0.00     0.000 C 
BRANCH   3   4
ATOM      4  C   UNL     1       3.286 -56.808 -25.332  1.00  0.00     0.000 C 
BRANCH   4   5
ATOM      5  C   UNL     1       4.543 -57.503 -24.778  1.00  0.00     0.006 C 
BRANCH   5   6
ATOM      6  C   UNL     1       5.681 -57.643 -25.804  1.00  0.00     0.053 C 
BRANCH   6   7
ATOM      7  C   UNL     1       6.954 -58.146 -25.193  1.00  0.00     0.041 C 
ATOM      8  O   UNL     1       7.018 -58.379 -23.957  1.00  0.00    -0.550 OA
ATOM      9  O   UNL     1       8.081 -58.329 -25.985  1.00  0.00    -0.550 OA
ENDBRANCH   6   7
ENDBRANCH   5   6
ENDBRANCH   4   5
ENDBRANCH   3   4
ENDBRANCH   2   3
ENDBRANCH   1   2
BRANCH   1  10
ATOM     10  C   UNL     1       3.701 -56.347 -29.212  1.00  0.00     0.027 C 
BRANCH  10  11
ATOM     11  C   UNL     1       4.892 -56.269 -30.126  1.00  0.00    -0.031 C 
ATOM     12  C   UNL     1       6.141 -56.174 -29.646  1.00  0.00    -0.031 C 
BRANCH  12  13
ATOM     13  C   UNL     1       7.334 -56.088 -30.560  1.00  0.00     0.027 C 
BRANCH  13  14
ATOM     14  C   UNL     1       7.413 -54.741 -31.294  1.00  0.00     0.004 C 
BRANCH  14  15
ATOM     15  C   UNL     1       8.771 -54.537 -31.986  1.00  0.00     0.000 C 
BRANCH  15  16
ATOM     16  C   UNL     1       9.955 -54.568 -31.002  1.00  0.00    -0.000 C 
BRANCH  16  17
ATOM     17  C   UNL     1       9.734 -53.779 -29.700  1.00  0.00    -0.003 C 
ATOM     18  C   UNL     1      10.122 -54.567 -28.450  1.00  0.00     0.004 C 
ENDBRANCH  16  17
ENDBRANCH  15  16
ENDBRANCH  14  15
ENDBRANCH  13  14
ENDBRANCH  12  13
ENDBRANCH  10  11
ENDBRANCH   1  10
TORSDOF 13
ENDMDL
MODEL 3
REMARK VINA RESULT:    -5.806      2.992      6.501
REMARK INTER + INTRA:         -11.646
REMARK INTER:                 -10.394
REMARK INTRA:                  -1.252
REMARK UNBOUND:                -1.427
REMARK SMILES CCCCCCC=CCCCCCCCC(=O)[O-]
REMARK SMILES IDX 10 1 11 2 12 3 13 4 14 5 15 6 16 7 17 8 18 9 9 10 8 11 7 12
REMARK SMILES IDX 6 13 5 14 4 15 3 16 2 17 1 18
REMARK H PARENT
REMARK Flexibility Score: inf
ROOT
ATOM      1  C   UNL     1       5.825 -55.523 -30.584  1.00  0.00     0.004 C 
ENDROOT
BRANCH   1   2
ATOM      2  C   UNL     1       6.859 -56.438 -29.913  1.00  0.00     0.000 C 
BRANCH   2   3
ATOM      3  C   UNL     1       7.654 -55.722 -28.809  1.00  0.00     0.000 C 
BRANCH   3   4
ATOM      4  C   UNL     1       9.138 -56.128 -28.790  1.00  0.00     0.000 C 
BRANCH   4   5
ATOM      5  C   UNL     1      10.093 -54.925 -28.894  1.00  0.00     0.006 C 
BRANCH   5   6
ATOM      6  C   UNL     1       9.627 -53.842 -29.883  1.00  0.00     0.053 C 
BRANCH   6   7
ATOM      7  C   UNL     1       9.606 -54.323 -31.301  1.00  0.00     0.041 C 
ATOM      8  O   UNL     1      10.564 -55.002 -31.757  1.00  0.00    -0.550 OA
ATOM      9  O   UNL     1       8.541 -53.995 -32.131  1.00  0.00    -0.550 OA
ENDBRANCH   6   7
ENDBRANCH   5   6
ENDBRANCH   4   5
ENDBRANCH   3   4
ENDBRANCH   2   3
ENDBRANCH   1   2
BRANCH   1  10
ATOM     10  C   UNL     1       4.546 -56.296 -30.924  1.00  0.00     0.027 C 
BRANCH  10  11
ATOM     11  C   UNL     1       3.669 -56.459 -29.713  1.00  0.00    -0.031 C 
ATOM     12  C   UNL     1       3.511 -55.467 -28.823  1.00  0.00    -0.031 C 
BRANCH  12  13
ATOM     13  C   UNL     1       2.640 -55.632 -27.606  1.00  0.00     0.027 C 
BRANCH  13  14
ATOM     14  C   UNL     1       3.455 -55.931 -26.339  1.00  0.00     0.004 C 
BRANCH  14  15
ATOM     15  C   UNL     1       4.915 -56.290 -26.662  1.00  0.00     0.000 C 
BRANCH  15  16
ATOM     16  C   UNL     1       5.289 -57.720 -26.229  1.00  0.00    -0.000 C 
BRANCH  16  17
ATOM     17  C   UNL     1       5.126 -58.005 -24.727  1.00  0.00    -0.003 C 
ATOM     18  C   UNL     1       6.450 -58.313 -24.028  1.00  0.00     0.004 C 
ENDBRANCH  16  17
ENDBRANCH  15  16
ENDBRANCH  14  15
ENDBRANCH  13  14
ENDBRANCH  12  13
ENDBRANCH  10  11
ENDBRANCH   1  10
TORSDOF 13
ENDMDL
MODEL 4
REMARK VINA RESULT:    -5.779      2.532      6.460
REMARK INTER + INTRA:         -11.598
REMARK INTER:                  -9.858
REMARK INTRA:                  -1.739
REMARK UNBOUND:                -1.427
REMARK SMILES CCCCCCC=CCCCCCCCC(=O)[O-]
REMARK SMILES IDX 10 1 11 2 12 3 13 4 14 5 15 6 16 7 17 8 18 9 9 10 8 11 7 12
REMARK SMILES IDX 6 13 5 14 4 15 3 16 2 17 1 18
REMARK H PARENT
REMARK Flexibility Score: inf
ROOT
ATOM      1  C   UNL     1       4.615 -55.363 -30.168  1.00  0.00     0.004 C 
ENDROOT
BRANCH   1   2
ATOM      2  C   UNL     1       5.188 -55.245 -31.588  1.00  0.00     0.000 C 
BRANCH   2   3
ATOM      3  C   UNL     1       6.703 -54.985 -31.594  1.00  0.00     0.000 C 
BRANCH   3   4
ATOM      4  C   UNL     1       7.496 -56.087 -30.870  1.00  0.00     0.000 C 
BRANCH   4   5
ATOM      5  C   UNL     1       8.950 -56.205 -31.362  1.00  0.00     0.006 C 
BRANCH   5   6
ATOM      6  C   UNL     1       9.756 -54.899 -31.245  1.00  0.00     0.053 C 
BRANCH   6   7
ATOM      7  C   UNL     1      10.039 -54.518 -29.824  1.00  0.00     0.041 C 
ATOM      8  O   UNL     1      10.732 -55.269 -29.090  1.00  0.00    -0.550 OA
ATOM      9  O   UNL     1       9.510 -53.344 -29.301  1.00  0.00    -0.550 OA
ENDBRANCH   6   7
ENDBRANCH   5   6
ENDBRANCH   4   5
ENDBRANCH   3   4
ENDBRANCH   2   3
ENDBRANCH   1   2
BRANCH   1  10
ATOM     10  C   UNL     1       3.961 -56.733 -29.952  1.00  0.00     0.027 C 
BRANCH  10  11
ATOM     11  C   UNL     1       4.297 -57.289 -28.596  1.00  0.00    -0.031 C 
ATOM     12  C   UNL     1       5.289 -56.776 -27.852  1.00  0.00    -0.031 C 
BRANCH  12  13
ATOM     13  C   UNL     1       5.631 -57.337 -26.498  1.00  0.00     0.027 C 
BRANCH  13  14
ATOM     14  C   UNL     1       4.386 -57.567 -25.628  1.00  0.00     0.004 C 
BRANCH  14  15
ATOM     15  C   UNL     1       3.803 -56.249 -25.092  1.00  0.00     0.000 C 
BRANCH  15  16
ATOM     16  C   UNL     1       2.276 -56.156 -25.265  1.00  0.00    -0.000 C 
BRANCH  16  17
ATOM     17  C   UNL     1       1.811 -55.370 -26.504  1.00  0.00    -0.003 C 
ATOM     18  C   UNL     1       2.799 -54.286 -26.931  1.00  0.00     0.004 C 
ENDBRANCH  16  17
ENDBRANCH  15  16
ENDBRANCH  14  15
ENDBRANCH  13  14
ENDBRANCH  12  13
ENDBRANCH  10  11
ENDBRANCH   1  10
TORSDOF 13
ENDMDL
MODEL 5
REMARK VINA RESULT:    -5.707      2.297      2.730
REMARK INTER + INTRA:         -11.471
REMARK INTER:                 -10.256
REMARK INTRA:                  -1.216
REMARK UNBOUND:                -1.427
REMARK SMILES CCCCCCC=CCCCCCCCC(=O)[O-]
REMARK SMILES IDX 10 1 11 2 12 3 13 4 14 5 15 6 16 7 17 8 18 9 9 10 8 11 7 12
REMARK SMILES IDX 6 13 5 14 4 15 3 16 2 17 1 18
REMARK H PARENT
REMARK Flexibility Score: inf
ROOT
ATOM      1  C   UNL     1       3.909 -56.744 -29.946  1.00  0.00     0.004 C 
ENDROOT
BRANCH   1   2
ATOM      2  C   UNL     1       3.604 -56.244 -28.527  1.00  0.00     0.000 C 
BRANCH   2   3
ATOM      3  C   UNL     1       3.176 -54.767 -28.500  1.00  0.00     0.000 C 
BRANCH   3   4
ATOM      4  C   UNL     1       2.627 -54.334 -27.130  1.00  0.00     0.000 C 
BRANCH   4   5
ATOM      5  C   UNL     1       3.446 -54.888 -25.950  1.00  0.00     0.006 C 
BRANCH   5   6
ATOM      6  C   UNL     1       2.587 -55.399 -24.780  1.00  0.00     0.053 C 
BRANCH   6   7
ATOM      7  C   UNL     1       2.611 -56.892 -24.652  1.00  0.00     0.041 C 
ATOM      8  O   UNL     1       3.638 -57.543 -24.980  1.00  0.00    -0.550 OA
ATOM      9  O   UNL     1       1.485 -57.569 -24.199  1.00  0.00    -0.550 OA
ENDBRANCH   6   7
ENDBRANCH   5   6
ENDBRANCH   4   5
ENDBRANCH   3   4
ENDBRANCH   2   3
ENDBRANCH   1   2
BRANCH   1  10
ATOM     10  C   UNL     1       4.892 -55.808 -30.659  1.00  0.00     0.027 C 
BRANCH  10  11
ATOM     11  C   UNL     1       6.317 -56.168 -30.339  1.00  0.00    -0.031 C 
ATOM     12  C   UNL     1       6.951 -55.649 -29.277  1.00  0.00    -0.031 C 
BRANCH  12  13
ATOM     13  C   UNL     1       8.379 -56.003 -28.960  1.00  0.00     0.027 C 
BRANCH  13  14
ATOM     14  C   UNL     1       9.287 -54.766 -28.889  1.00  0.00     0.004 C 
BRANCH  14  15
ATOM     15  C   UNL     1       9.362 -54.025 -30.235  1.00  0.00     0.000 C 
BRANCH  15  16
ATOM     16  C   UNL     1      10.041 -54.856 -31.339  1.00  0.00    -0.000 C 
BRANCH  16  17
ATOM     17  C   UNL     1       9.160 -55.145 -32.567  1.00  0.00    -0.003 C 
ATOM     18  C   UNL     1       9.643 -56.344 -33.382  1.00  0.00     0.004 C 
ENDBRANCH  16  17
ENDBRANCH  15  16
ENDBRANCH  14  15
ENDBRANCH  13  14
ENDBRANCH  12  13
ENDBRANCH  10  11
ENDBRANCH   1  10
TORSDOF 13
ENDMDL
MODEL 6
REMARK VINA RESULT:    -5.657      2.855      3.636
REMARK INTER + INTRA:         -11.384
REMARK INTER:                 -10.220
REMARK INTRA:                  -1.164
REMARK UNBOUND:                -1.427
REMARK SMILES CCCCCCC=CCCCCCCCC(=O)[O-]
REMARK SMILES IDX 10 1 11 2 12 3 13 4 14 5 15 6 16 7 17 8 18 9 9 10 8 11 7 12
REMARK SMILES IDX 6 13 5 14 4 15 3 16 2 17 1 18
REMARK H PARENT
REMARK Flexibility Score: inf
ROOT
ATOM      1  C   UNL     1       4.532 -56.337 -30.225  1.00  0.00     0.004 C 
ENDROOT
BRANCH   1   2
ATOM      2  C   UNL     1       3.316 -56.304 -29.289  1.00  0.00     0.000 C 
BRANCH   2   3
ATOM      3  C   UNL     1       3.350 -55.112 -28.318  1.00  0.00     0.000 C 
BRANCH   3   4
ATOM      4  C   UNL     1       2.693 -55.432 -26.964  1.00  0.00     0.000 C 
BRANCH   4   5
ATOM      5  C   UNL     1       3.716 -55.753 -25.859  1.00  0.00     0.006 C 
BRANCH   5   6
ATOM      6  C   UNL     1       3.226 -56.796 -24.839  1.00  0.00     0.053 C 
BRANCH   6   7
ATOM      7  C   UNL     1       1.939 -56.404 -24.182  1.00  0.00     0.041 C 
ATOM      8  O   UNL     1       0.892 -57.075 -24.381  1.00  0.00    -0.550 OA
ATOM      9  O   UNL     1       1.887 -55.277 -23.370  1.00  0.00    -0.550 OA
ENDBRANCH   6   7
ENDBRANCH   5   6
ENDBRANCH   4   5
ENDBRANCH   3   4
ENDBRANCH   2   3
ENDBRANCH   1   2
BRANCH   1  10
ATOM     10  C   UNL     1       5.828 -56.550 -29.434  1.00  0.00     0.027 C 
BRANCH  10  11
ATOM     11  C   UNL     1       6.986 -55.846 -30.085  1.00  0.00    -0.031 C 
ATOM     12  C   UNL     1       6.806 -54.997 -31.108  1.00  0.00    -0.031 C 
BRANCH  12  13
ATOM     13  C   UNL     1       7.965 -54.297 -31.766  1.00  0.00     0.027 C 
BRANCH  13  14
ATOM     14  C   UNL     1       9.170 -55.227 -31.971  1.00  0.00     0.004 C 
BRANCH  14  15
ATOM     15  C   UNL     1      10.273 -54.985 -30.927  1.00  0.00     0.000 C 
BRANCH  15  16
ATOM     16  C   UNL     1       9.917 -53.869 -29.927  1.00  0.00    -0.000 C 
BRANCH  16  17
ATOM     17  C   UNL     1      10.078 -54.252 -28.446  1.00  0.00    -0.003 C 
ATOM     18  C   UNL     1      10.199 -55.759 -28.226  1.00  0.00     0.004 C 
ENDBRANCH  16  17
ENDBRANCH  15  16
ENDBRANCH  14  15
ENDBRANCH  13  14
ENDBRANCH  12  13
ENDBRANCH  10  11
ENDBRANCH   1  10
TORSDOF 13
ENDMDL
MODEL 7
REMARK VINA RESULT:    -5.614      1.561      2.618
REMARK INTER + INTRA:         -11.308
REMARK INTER:                 -10.450
REMARK INTRA:                  -0.858
REMARK UNBOUND:                -1.427
REMARK SMILES CCCCCCC=CCCCCCCCC(=O)[O-]
REMARK SMILES IDX 10 1 11 2 12 3 13 4 14 5 15 6 16 7 17 8 18 9 9 10 8 11 7 12
REMARK SMILES IDX 6 13 5 14 4 15 3 16 2 17 1 18
REMARK H PARENT
REMARK Flexibility Score: inf
ROOT
ATOM      1  C   UNL     1       3.554 -55.716 -28.341  1.00  0.00     0.004 C 
ENDROOT
BRANCH   1   2
ATOM      2  C   UNL     1       4.367 -55.816 -27.043  1.00  0.00     0.000 C 
BRANCH   2   3
ATOM      3  C   UNL     1       4.436 -57.252 -26.498  1.00  0.00     0.000 C 
BRANCH   3   4
ATOM      4  C   UNL     1       5.829 -57.613 -25.953  1.00  0.00     0.000 C 
BRANCH   4   5
ATOM      5  C   UNL     1       5.800 -58.079 -24.486  1.00  0.00     0.006 C 
BRANCH   5   6
ATOM      6  C   UNL     1       7.131 -58.675 -23.995  1.00  0.00     0.053 C 
BRANCH   6   7
ATOM      7  C   UNL     1       7.748 -57.880 -22.885  1.00  0.00     0.041 C 
ATOM      8  O   UNL     1       7.192 -57.826 -21.756  1.00  0.00    -0.550 OA
ATOM      9  O   UNL     1       8.924 -57.173 -23.106  1.00  0.00    -0.550 OA
ENDBRANCH   6   7
ENDBRANCH   5   6
ENDBRANCH   4   5
ENDBRANCH   3   4
ENDBRANCH   2   3
ENDBRANCH   1   2
BRANCH   1  10
ATOM     10  C   UNL     1       3.802 -56.934 -29.239  1.00  0.00     0.027 C 
BRANCH  10  11
ATOM     11  C   UNL     1       4.460 -56.534 -30.530  1.00  0.00    -0.031 C 
ATOM     12  C   UNL     1       5.179 -55.405 -30.632  1.00  0.00    -0.031 C 
BRANCH  12  13
ATOM     13  C   UNL     1       5.832 -54.999 -31.926  1.00  0.00     0.027 C 
BRANCH  13  14
ATOM     14  C   UNL     1       7.359 -54.892 -31.802  1.00  0.00     0.004 C 
BRANCH  14  15
ATOM     15  C   UNL     1       7.852 -55.254 -30.391  1.00  0.00     0.000 C 
BRANCH  15  16
ATOM     16  C   UNL     1       9.067 -54.418 -29.948  1.00  0.00    -0.000 C 
BRANCH  16  17
ATOM     17  C   UNL     1      10.305 -55.238 -29.546  1.00  0.00    -0.003 C 
ATOM     18  C   UNL     1      10.178 -55.875 -28.163  1.00  0.00     0.004 C 
ENDBRANCH  16  17
ENDBRANCH  15  16
ENDBRANCH  14  15
ENDBRANCH  13  14
ENDBRANCH  12  13
ENDBRANCH  10  11
ENDBRANCH   1  10
TORSDOF 13
ENDMDL
MODEL 8
REMARK VINA RESULT:    -5.582      3.451      7.400
REMARK INTER + INTRA:         -11.251
REMARK INTER:                 -10.278
REMARK INTRA:                  -0.972
REMARK UNBOUND:                -1.427
REMARK SMILES CCCCCCC=CCCCCCCCC(=O)[O-]
REMARK SMILES IDX 10 1 11 2 12 3 13 4 14 5 15 6 16 7 17 8 18 9 9 10 8 11 7 12
REMARK SMILES IDX 6 13 5 14 4 15 3 16 2 17 1 18
REMARK H PARENT
REMARK Flexibility Score: inf
ROOT
ATOM      1  C   UNL     1       6.610 -56.457 -30.002  1.00  0.00     0.004 C 
ENDROOT
BRANCH   1   2
ATOM      2  C   UNL     1       7.348 -55.738 -28.863  1.00  0.00     0.000 C 
BRANCH   2   3
ATOM      3  C   UNL     1       8.873 -55.744 -29.051  1.00  0.00     0.000 C 
BRANCH   3   4
ATOM      4  C   UNL     1       9.419 -54.381 -29.511  1.00  0.00     0.000 C 
BRANCH   4   5
ATOM      5  C   UNL     1       8.998 -54.017 -30.946  1.00  0.00     0.006 C 
BRANCH   5   6
ATOM      6  C   UNL     1       9.910 -54.613 -32.034  1.00  0.00     0.053 C 
BRANCH   6   7
ATOM      7  C   UNL     1       9.201 -55.606 -32.903  1.00  0.00     0.041 C 
ATOM      8  O   UNL     1       9.679 -56.759 -33.073  1.00  0.00    -0.550 OA
ATOM      9  O   UNL     1       8.026 -55.248 -33.553  1.00  0.00    -0.550 OA
ENDBRANCH   6   7
ENDBRANCH   5   6
ENDBRANCH   4   5
ENDBRANCH   3   4
ENDBRANCH   2   3
ENDBRANCH   1   2
BRANCH   1  10
ATOM     10  C   UNL     1       5.200 -55.884 -30.190  1.00  0.00     0.027 C 
BRANCH  10  11
ATOM     11  C   UNL     1       4.485 -55.753 -28.874  1.00  0.00    -0.031 C 
ATOM     12  C   UNL     1       3.392 -54.986 -28.742  1.00  0.00    -0.031 C 
BRANCH  12  13
ATOM     13  C   UNL     1       2.680 -54.848 -27.423  1.00  0.00     0.027 C 
BRANCH  13  14
ATOM     14  C   UNL     1       3.597 -55.148 -26.228  1.00  0.00     0.004 C 
BRANCH  14  15
ATOM     15  C   UNL     1       3.141 -54.422 -24.951  1.00  0.00     0.000 C 
BRANCH  15  16
ATOM     16  C   UNL     1       2.406 -53.101 -25.244  1.00  0.00    -0.000 C 
BRANCH  16  17
ATOM     17  C   UNL     1       3.322 -51.884 -25.456  1.00  0.00    -0.003 C 
ATOM     18  C   UNL     1       3.680 -51.169 -24.154  1.00  0.00     0.004 C 
ENDBRANCH  16  17
ENDBRANCH  15  16
ENDBRANCH  14  15
ENDBRANCH  13  14
ENDBRANCH  12  13
ENDBRANCH  10  11
ENDBRANCH   1  10
TORSDOF 13
ENDMDL
MODEL 9
REMARK VINA RESULT:    -5.523      1.634      3.228
REMARK INTER + INTRA:         -11.147
REMARK INTER:                 -10.072
REMARK INTRA:                  -1.075
REMARK UNBOUND:                -1.427
REMARK SMILES CCCCCCC=CCCCCCCCC(=O)[O-]
REMARK SMILES IDX 10 1 11 2 12 3 13 4 14 5 15 6 16 7 17 8 18 9 9 10 8 11 7 12
REMARK SMILES IDX 6 13 5 14 4 15 3 16 2 17 1 18
REMARK H PARENT
REMARK Flexibility Score: inf
ROOT
ATOM      1  C   UNL     1       3.073 -54.940 -25.917  1.00  0.00     0.004 C 
ENDROOT
BRANCH   1   2
ATOM      2  C   UNL     1       2.925 -56.398 -25.459  1.00  0.00     0.000 C 
BRANCH   2   3
ATOM      3  C   UNL     1       4.197 -56.938 -24.785  1.00  0.00     0.000 C 
BRANCH   3   4
ATOM      4  C   UNL     1       5.107 -57.701 -25.763  1.00  0.00     0.000 C 
BRANCH   4   5
ATOM      5  C   UNL     1       6.498 -58.006 -25.178  1.00  0.00     0.006 C 
BRANCH   5   6
ATOM      6  C   UNL     1       6.459 -58.658 -23.785  1.00  0.00     0.053 C 
BRANCH   6   7
ATOM      7  C   UNL     1       7.429 -58.037 -22.827  1.00  0.00     0.041 C 
ATOM      8  O   UNL     1       8.542 -57.613 -23.233  1.00  0.00    -0.550 OA
ATOM      9  O   UNL     1       7.114 -57.953 -21.475  1.00  0.00    -0.550 OA
ENDBRANCH   6   7
ENDBRANCH   5   6
ENDBRANCH   4   5
ENDBRANCH   3   4
ENDBRANCH   2   3
ENDBRANCH   1   2
BRANCH   1  10
ATOM     10  C   UNL     1       2.444 -54.732 -27.300  1.00  0.00     0.027 C 
BRANCH  10  11
ATOM     11  C   UNL     1       3.426 -55.039 -28.396  1.00  0.00    -0.031 C 
ATOM     12  C   UNL     1       3.527 -56.268 -28.924  1.00  0.00    -0.031 C 
BRANCH  12  13
ATOM     13  C   UNL     1       4.515 -56.578 -30.017  1.00  0.00     0.027 C 
BRANCH  13  14
ATOM     14  C   UNL     1       5.944 -56.144 -29.655  1.00  0.00     0.004 C 
BRANCH  14  15
ATOM     15  C   UNL     1       6.706 -55.590 -30.871  1.00  0.00     0.000 C 
BRANCH  15  16
ATOM     16  C   UNL     1       7.971 -54.806 -30.478  1.00  0.00    -0.000 C 
BRANCH  16  17
ATOM     17  C   UNL     1       8.702 -55.339 -29.233  1.00  0.00    -0.003 C 
ATOM     18  C   UNL     1       9.927 -54.506 -28.856  1.00  0.00     0.004 C 
ENDBRANCH  16  17
ENDBRANCH  15  16
ENDBRANCH  14  15
ENDBRANCH  13  14
ENDBRANCH  12  13
ENDBRANCH  10  11
ENDBRANCH   1  10
TORSDOF 13
ENDMDL
