MODEL 1
REMARK VINA RESULT:    -7.936      0.000      0.000
REMARK INTER + INTRA:          -8.655
REMARK INTER:                  -8.400
REMARK INTRA:                  -0.254
REMARK UNBOUND:                -0.254
REMARK SMILES O=c1cc(-c2ccccc2)oc2ccccc12
REMARK SMILES IDX 4 1 3 2 2 3 1 4 17 5 16 6 15 7 14 8 13 9 12 10 11 11 5 12
REMARK SMILES IDX 8 13 7 14 9 15 6 16 10 17
REMARK H PARENT
REMARK Flexibility Score: inf
ROOT
ATOM      1  C   UNL     1      49.613  57.752   6.002  1.00  0.00     0.138 A 
ATOM      2  C   UNL     1      49.334  57.670   7.384  1.00  0.00     0.100 A 
ATOM      3  C   UNL     1      50.360  57.885   8.306  1.00  0.00     0.193 A 
ATOM      4  O   UNL     1      50.111  57.814   9.540  1.00  0.00    -0.289 OA
ATOM      5  C   UNL     1      51.652  58.180   7.846  1.00  0.00     0.065 A 
ATOM      6  C   UNL     1      52.729  58.407   8.723  1.00  0.00     0.016 A 
ATOM      7  C   UNL     1      53.997  58.697   8.210  1.00  0.00     0.001 A 
ATOM      8  C   UNL     1      54.201  58.761   6.829  1.00  0.00     0.004 A 
ATOM      9  C   UNL     1      53.136  58.536   5.952  1.00  0.00     0.048 A 
ATOM     10  C   UNL     1      51.862  58.246   6.453  1.00  0.00     0.138 A 
ATOM     11  O   UNL     1      50.856  58.033   5.611  1.00  0.00    -0.456 OA
ENDROOT
BRANCH   1  12
ATOM     12  C   UNL     1      48.574  57.535   4.948  1.00  0.00     0.017 A 
ATOM     13  C   UNL     1      46.546  57.162   3.019  1.00  0.00     0.000 A 
ATOM     14  C   UNL     1      47.860  56.791   2.732  1.00  0.00     0.001 A 
ATOM     15  C   UNL     1      46.236  57.719   4.261  1.00  0.00     0.001 A 
ATOM     16  C   UNL     1      48.868  56.974   3.684  1.00  0.00     0.012 A 
ATOM     17  C   UNL     1      47.238  57.903   5.217  1.00  0.00     0.012 A 
ENDBRANCH   1  12
TORSDOF 1
ENDMDL
MODEL 2
REMARK VINA RESULT:    -7.927      7.511      9.534
REMARK INTER + INTRA:          -8.645
REMARK INTER:                  -8.398
REMARK INTRA:                  -0.247
REMARK UNBOUND:                -0.254
REMARK SMILES O=c1cc(-c2ccccc2)oc2ccccc12
REMARK SMILES IDX 4 1 3 2 2 3 1 4 17 5 16 6 15 7 14 8 13 9 12 10 11 11 5 12
REMARK SMILES IDX 8 13 7 14 9 15 6 16 10 17
REMARK H PARENT
REMARK Flexibility Score: inf
ROOT
ATOM      1  C   UNL     1      53.201  63.037   0.557  1.00  0.00     0.138 A 
ATOM      2  C   UNL     1      53.406  63.290  -0.817  1.00  0.00     0.100 A 
ATOM      3  C   UNL     1      53.606  62.219  -1.691  1.00  0.00     0.193 A 
ATOM      4  O   UNL     1      53.788  62.445  -2.918  1.00  0.00    -0.289 OA
ATOM      5  C   UNL     1      53.600  60.909  -1.191  1.00  0.00     0.065 A 
ATOM      6  C   UNL     1      53.795  59.787  -2.017  1.00  0.00     0.016 A 
ATOM      7  C   UNL     1      53.780  58.502  -1.466  1.00  0.00     0.001 A 
ATOM      8  C   UNL     1      53.572  58.326  -0.095  1.00  0.00     0.004 A 
ATOM      9  C   UNL     1      53.378  59.436   0.732  1.00  0.00     0.048 A 
ATOM     10  C   UNL     1      53.390  60.727   0.192  1.00  0.00     0.138 A 
ATOM     11  O   UNL     1      53.205  61.775   0.987  1.00  0.00    -0.456 OA
ENDROOT
BRANCH   1  12
ATOM     12  C   UNL     1      52.980  64.124   1.560  1.00  0.00     0.017 A 
ATOM     13  C   UNL     1      52.505  66.221   3.390  1.00  0.00     0.000 A 
ATOM     14  C   UNL     1      53.341  65.161   3.744  1.00  0.00     0.001 A 
ATOM     15  C   UNL     1      51.903  66.242   2.132  1.00  0.00     0.001 A 
ATOM     16  C   UNL     1      53.580  64.120   2.841  1.00  0.00     0.012 A 
ATOM     17  C   UNL     1      52.138  65.205   1.224  1.00  0.00     0.012 A 
ENDBRANCH   1  12
TORSDOF 1
ENDMDL
MODEL 3
REMARK VINA RESULT:    -7.562      9.190     10.917
REMARK INTER + INTRA:          -8.259
REMARK INTER:                  -7.994
REMARK INTRA:                  -0.264
REMARK UNBOUND:                -0.254
REMARK SMILES O=c1cc(-c2ccccc2)oc2ccccc12
REMARK SMILES IDX 4 1 3 2 2 3 1 4 17 5 16 6 15 7 14 8 13 9 12 10 11 11 5 12
REMARK SMILES IDX 8 13 7 14 9 15 6 16 10 17
REMARK H PARENT
REMARK Flexibility Score: inf
ROOT
ATOM      1  C   UNL     1      47.775  66.048   2.733  1.00  0.00     0.138 A 
ATOM      2  C   UNL     1      46.944  64.908   2.710  1.00  0.00     0.100 A 
ATOM      3  C   UNL     1      45.617  65.014   3.130  1.00  0.00     0.193 A 
ATOM      4  O   UNL     1      44.875  63.995   3.108  1.00  0.00    -0.289 OA
ATOM      5  C   UNL     1      45.129  66.253   3.570  1.00  0.00     0.065 A 
ATOM      6  C   UNL     1      43.803  66.428   4.006  1.00  0.00     0.016 A 
ATOM      7  C   UNL     1      43.369  67.686   4.434  1.00  0.00     0.001 A 
ATOM      8  C   UNL     1      44.248  68.773   4.432  1.00  0.00     0.004 A 
ATOM      9  C   UNL     1      45.567  68.607   4.000  1.00  0.00     0.048 A 
ATOM     10  C   UNL     1      46.013  67.353   3.569  1.00  0.00     0.138 A 
ATOM     11  O   UNL     1      47.268  67.206   3.160  1.00  0.00    -0.456 OA
ENDROOT
BRANCH   1  12
ATOM     12  C   UNL     1      49.207  66.022   2.301  1.00  0.00     0.017 A 
ATOM     13  C   UNL     1      51.895  65.883   1.448  1.00  0.00     0.000 A 
ATOM     14  C   UNL     1      51.433  67.014   2.122  1.00  0.00     0.001 A 
ATOM     15  C   UNL     1      51.025  64.822   1.195  1.00  0.00     0.001 A 
ATOM     16  C   UNL     1      50.103  67.088   2.547  1.00  0.00     0.012 A 
ATOM     17  C   UNL     1      49.695  64.888   1.617  1.00  0.00     0.012 A 
ENDBRANCH   1  12
TORSDOF 1
ENDMDL
MODEL 4
REMARK VINA RESULT:    -7.412      8.938      9.865
REMARK INTER + INTRA:          -8.100
REMARK INTER:                  -7.835
REMARK INTRA:                  -0.265
REMARK UNBOUND:                -0.254
REMARK SMILES O=c1cc(-c2ccccc2)oc2ccccc12
REMARK SMILES IDX 4 1 3 2 2 3 1 4 17 5 16 6 15 7 14 8 13 9 12 10 11 11 5 12
REMARK SMILES IDX 8 13 7 14 9 15 6 16 10 17
REMARK H PARENT
REMARK Flexibility Score: inf
ROOT
ATOM      1  C   UNL     1      47.571  66.135   2.738  1.00  0.00     0.138 A 
ATOM      2  C   UNL     1      47.338  64.849   2.206  1.00  0.00     0.100 A 
ATOM      3  C   UNL     1      48.398  64.133   1.647  1.00  0.00     0.193 A 
ATOM      4  O   UNL     1      48.189  62.983   1.173  1.00  0.00    -0.289 OA
ATOM      5  C   UNL     1      49.679  64.702   1.622  1.00  0.00     0.065 A 
ATOM      6  C   UNL     1      50.789  64.034   1.073  1.00  0.00     0.016 A 
ATOM      7  C   UNL     1      52.045  64.648   1.074  1.00  0.00     0.001 A 
ATOM      8  C   UNL     1      52.203  65.926   1.618  1.00  0.00     0.004 A 
ATOM      9  C   UNL     1      51.105  66.597   2.164  1.00  0.00     0.048 A 
ATOM     10  C   UNL     1      49.844  65.992   2.170  1.00  0.00     0.138 A 
ATOM     11  O   UNL     1      48.806  66.637   2.691  1.00  0.00    -0.456 OA
ENDROOT
BRANCH   1  12
ATOM     12  C   UNL     1      46.493  66.969   3.354  1.00  0.00     0.017 A 
ATOM     13  C   UNL     1      44.394  68.477   4.489  1.00  0.00     0.000 A 
ATOM     14  C   UNL     1      45.706  68.945   4.558  1.00  0.00     0.001 A 
ATOM     15  C   UNL     1      44.121  67.262   3.860  1.00  0.00     0.001 A 
ATOM     16  C   UNL     1      46.750  68.202   3.997  1.00  0.00     0.012 A 
ATOM     17  C   UNL     1      45.159  66.515   3.296  1.00  0.00     0.012 A 
ENDBRANCH   1  12
TORSDOF 1
ENDMDL
MODEL 5
REMARK VINA RESULT:    -7.382      1.078      5.864
REMARK INTER + INTRA:          -8.068
REMARK INTER:                  -7.802
REMARK INTRA:                  -0.265
REMARK UNBOUND:                -0.254
REMARK SMILES O=c1cc(-c2ccccc2)oc2ccccc12
REMARK SMILES IDX 4 1 3 2 2 3 1 4 17 5 16 6 15 7 14 8 13 9 12 10 11 11 5 12
REMARK SMILES IDX 8 13 7 14 9 15 6 16 10 17
REMARK H PARENT
REMARK Flexibility Score: inf
ROOT
ATOM      1  C   UNL     1      50.706  58.130   6.603  1.00  0.00     0.138 A 
ATOM      2  C   UNL     1      49.649  58.393   7.501  1.00  0.00     0.100 A 
ATOM      3  C   UNL     1      48.329  58.276   7.062  1.00  0.00     0.193 A 
ATOM      4  O   UNL     1      47.384  58.510   7.865  1.00  0.00    -0.289 OA
ATOM      5  C   UNL     1      48.072  57.900   5.737  1.00  0.00     0.065 A 
ATOM      6  C   UNL     1      46.765  57.764   5.232  1.00  0.00     0.016 A 
ATOM      7  C   UNL     1      46.567  57.386   3.901  1.00  0.00     0.001 A 
ATOM      8  C   UNL     1      47.661  57.142   3.067  1.00  0.00     0.004 A 
ATOM      9  C   UNL     1      48.962  57.275   3.560  1.00  0.00     0.048 A 
ATOM     10  C   UNL     1      49.174  57.652   4.891  1.00  0.00     0.138 A 
ATOM     11  O   UNL     1      50.414  57.776   5.351  1.00  0.00    -0.456 OA
ENDROOT
BRANCH   1  12
ATOM     12  C   UNL     1      52.147  58.232   6.990  1.00  0.00     0.017 A 
ATOM     13  C   UNL     1      54.892  58.408   7.628  1.00  0.00     0.000 A 
ATOM     14  C   UNL     1      53.931  58.548   8.630  1.00  0.00     0.001 A 
ATOM     15  C   UNL     1      54.493  58.182   6.310  1.00  0.00     0.001 A 
ATOM     16  C   UNL     1      52.570  58.461   8.320  1.00  0.00     0.012 A 
ATOM     17  C   UNL     1      53.135  58.093   5.993  1.00  0.00     0.012 A 
ENDBRANCH   1  12
TORSDOF 1
ENDMDL
MODEL 6
REMARK VINA RESULT:    -7.344      9.067     10.120
REMARK INTER + INTRA:          -8.027
REMARK INTER:                  -7.762
REMARK INTRA:                  -0.265
REMARK UNBOUND:                -0.254
REMARK SMILES O=c1cc(-c2ccccc2)oc2ccccc12
REMARK SMILES IDX 4 1 3 2 2 3 1 4 17 5 16 6 15 7 14 8 13 9 12 10 11 11 5 12
REMARK SMILES IDX 8 13 7 14 9 15 6 16 10 17
REMARK H PARENT
REMARK Flexibility Score: inf
ROOT
ATOM      1  C   UNL     1      47.791  66.593   2.810  1.00  0.00     0.138 A 
ATOM      2  C   UNL     1      49.051  67.229   2.788  1.00  0.00     0.100 A 
ATOM      3  C   UNL     1      50.140  66.577   2.205  1.00  0.00     0.193 A 
ATOM      4  O   UNL     1      51.266  67.146   2.184  1.00  0.00    -0.289 OA
ATOM      5  C   UNL     1      49.966  65.301   1.652  1.00  0.00     0.065 A 
ATOM      6  C   UNL     1      51.021  64.590   1.051  1.00  0.00     0.016 A 
ATOM      7  C   UNL     1      50.792  63.319   0.515  1.00  0.00     0.001 A 
ATOM      8  C   UNL     1      49.517  62.750   0.573  1.00  0.00     0.004 A 
ATOM      9  C   UNL     1      48.463  63.449   1.169  1.00  0.00     0.048 A 
ATOM     10  C   UNL     1      48.680  64.722   1.709  1.00  0.00     0.138 A 
ATOM     11  O   UNL     1      47.673  65.378   2.273  1.00  0.00    -0.456 OA
ENDROOT
BRANCH   1  12
ATOM     12  C   UNL     1      46.574  67.220   3.413  1.00  0.00     0.017 A 
ATOM     13  C   UNL     1      44.224  68.329   4.516  1.00  0.00     0.000 A 
ATOM     14  C   UNL     1      45.448  68.975   4.688  1.00  0.00     0.001 A 
ATOM     15  C   UNL     1      44.163  67.134   3.799  1.00  0.00     0.001 A 
ATOM     16  C   UNL     1      46.616  68.430   4.144  1.00  0.00     0.012 A 
ATOM     17  C   UNL     1      45.325  66.584   3.251  1.00  0.00     0.012 A 
ENDBRANCH   1  12
TORSDOF 1
ENDMDL
MODEL 7
REMARK VINA RESULT:    -7.321      7.791      9.024
REMARK INTER + INTRA:          -8.003
REMARK INTER:                  -7.738
REMARK INTRA:                  -0.264
REMARK UNBOUND:                -0.254
REMARK SMILES O=c1cc(-c2ccccc2)oc2ccccc12
REMARK SMILES IDX 4 1 3 2 2 3 1 4 17 5 16 6 15 7 14 8 13 9 12 10 11 11 5 12
REMARK SMILES IDX 8 13 7 14 9 15 6 16 10 17
REMARK H PARENT
REMARK Flexibility Score: inf
ROOT
ATOM      1  C   UNL     1      53.226  61.938  -0.150  1.00  0.00     0.138 A 
ATOM      2  C   UNL     1      52.528  62.808  -1.015  1.00  0.00     0.100 A 
ATOM      3  C   UNL     1      52.142  64.070  -0.557  1.00  0.00     0.193 A 
ATOM      4  O   UNL     1      51.520  64.848  -1.331  1.00  0.00    -0.289 OA
ATOM      5  C   UNL     1      52.453  64.454   0.755  1.00  0.00     0.065 A 
ATOM      6  C   UNL     1      52.094  65.710   1.278  1.00  0.00     0.016 A 
ATOM      7  C   UNL     1      52.429  66.041   2.594  1.00  0.00     0.001 A 
ATOM      8  C   UNL     1      53.121  65.128   3.395  1.00  0.00     0.004 A 
ATOM      9  C   UNL     1      53.482  63.878   2.883  1.00  0.00     0.048 A 
ATOM     10  C   UNL     1      53.152  63.536   1.568  1.00  0.00     0.138 A 
ATOM     11  O   UNL     1      53.499  62.345   1.091  1.00  0.00    -0.456 OA
ENDROOT
BRANCH   1  12
ATOM     12  C   UNL     1      53.675  60.571  -0.559  1.00  0.00     0.017 A 
ATOM     13  C   UNL     1      54.543  57.972  -1.238  1.00  0.00     0.000 A 
ATOM     14  C   UNL     1      54.103  58.844  -2.234  1.00  0.00     0.001 A 
ATOM     15  C   UNL     1      54.552  58.386   0.094  1.00  0.00     0.001 A 
ATOM     16  C   UNL     1      53.672  60.133  -1.903  1.00  0.00     0.012 A 
ATOM     17  C   UNL     1      54.124  59.673   0.432  1.00  0.00     0.012 A 
ENDBRANCH   1  12
TORSDOF 1
ENDMDL
MODEL 8
REMARK VINA RESULT:    -7.161      1.770      2.855
REMARK INTER + INTRA:          -7.833
REMARK INTER:                  -7.579
REMARK INTRA:                  -0.255
REMARK UNBOUND:                -0.254
REMARK SMILES O=c1cc(-c2ccccc2)oc2ccccc12
REMARK SMILES IDX 4 1 3 2 2 3 1 4 17 5 16 6 15 7 14 8 13 9 12 10 11 11 5 12
REMARK SMILES IDX 8 13 7 14 9 15 6 16 10 17
REMARK H PARENT
REMARK Flexibility Score: inf
ROOT
ATOM      1  C   UNL     1      50.790  58.500   6.559  1.00  0.00     0.138 A 
ATOM      2  C   UNL     1      51.940  57.728   6.291  1.00  0.00     0.100 A 
ATOM      3  C   UNL     1      53.156  58.076   6.884  1.00  0.00     0.193 A 
ATOM      4  O   UNL     1      54.183  57.385   6.645  1.00  0.00    -0.289 OA
ATOM      5  C   UNL     1      53.215  59.188   7.736  1.00  0.00     0.065 A 
ATOM      6  C   UNL     1      54.408  59.592   8.364  1.00  0.00     0.016 A 
ATOM      7  C   UNL     1      54.411  60.709   9.205  1.00  0.00     0.001 A 
ATOM      8  C   UNL     1      53.233  61.428   9.425  1.00  0.00     0.004 A 
ATOM      9  C   UNL     1      52.044  61.033   8.804  1.00  0.00     0.048 A 
ATOM     10  C   UNL     1      52.029  59.917   7.961  1.00  0.00     0.138 A 
ATOM     11  O   UNL     1      50.894  59.550   7.376  1.00  0.00    -0.456 OA
ENDROOT
BRANCH   1  12
ATOM     12  C   UNL     1      49.450  58.198   5.967  1.00  0.00     0.017 A 
ATOM     13  C   UNL     1      46.966  57.592   4.770  1.00  0.00     0.000 A 
ATOM     14  C   UNL     1      47.007  58.180   6.034  1.00  0.00     0.001 A 
ATOM     15  C   UNL     1      48.154  57.303   4.099  1.00  0.00     0.001 A 
ATOM     16  C   UNL     1      48.235  58.482   6.632  1.00  0.00     0.012 A 
ATOM     17  C   UNL     1      49.385  57.603   4.689  1.00  0.00     0.012 A 
ENDBRANCH   1  12
TORSDOF 1
ENDMDL
MODEL 9
REMARK VINA RESULT:    -7.090      1.139      2.615
REMARK INTER + INTRA:          -7.758
REMARK INTER:                  -7.511
REMARK INTRA:                  -0.247
REMARK UNBOUND:                -0.254
REMARK SMILES O=c1cc(-c2ccccc2)oc2ccccc12
REMARK SMILES IDX 4 1 3 2 2 3 1 4 17 5 16 6 15 7 14 8 13 9 12 10 11 11 5 12
REMARK SMILES IDX 8 13 7 14 9 15 6 16 10 17
REMARK H PARENT
REMARK Flexibility Score: inf
ROOT
ATOM      1  C   UNL     1      49.750  58.159   5.335  1.00  0.00     0.138 A 
ATOM      2  C   UNL     1      50.852  58.648   4.601  1.00  0.00     0.100 A 
ATOM      3  C   UNL     1      52.060  58.895   5.255  1.00  0.00     0.193 A 
ATOM      4  O   UNL     1      53.045  59.331   4.598  1.00  0.00    -0.289 OA
ATOM      5  C   UNL     1      52.161  58.655   6.633  1.00  0.00     0.065 A 
ATOM      6  C   UNL     1      53.349  58.884   7.352  1.00  0.00     0.016 A 
ATOM      7  C   UNL     1      53.394  58.627   8.726  1.00  0.00     0.001 A 
ATOM      8  C   UNL     1      52.263  58.144   9.390  1.00  0.00     0.004 A 
ATOM      9  C   UNL     1      51.080  57.915   8.682  1.00  0.00     0.048 A 
ATOM     10  C   UNL     1      51.022  58.167   7.308  1.00  0.00     0.138 A 
ATOM     11  O   UNL     1      49.892  57.946   6.644  1.00  0.00    -0.456 OA
ENDROOT
BRANCH   1  12
ATOM     12  C   UNL     1      48.422  57.867   4.713  1.00  0.00     0.017 A 
ATOM     13  C   UNL     1      45.960  57.277   3.463  1.00  0.00     0.000 A 
ATOM     14  C   UNL     1      45.978  57.907   4.707  1.00  0.00     0.001 A 
ATOM     15  C   UNL     1      47.160  56.939   2.838  1.00  0.00     0.001 A 
ATOM     16  C   UNL     1      47.195  58.201   5.331  1.00  0.00     0.012 A 
ATOM     17  C   UNL     1      48.380  57.231   3.454  1.00  0.00     0.012 A 
ENDBRANCH   1  12
TORSDOF 1
ENDMDL
