MODEL 1
REMARK VINA RESULT:    -2.887      0.000      0.000
REMARK INTER + INTRA:         -10.308
REMARK INTER:                  -6.262
REMARK INTRA:                  -4.046
REMARK UNBOUND:                -4.046
REMARK SMILES CCCCCCCCCCCCCCCCCCCCCC(=O)[O-]
REMARK SMILES IDX 12 1 11 2 10 3 9 4 8 5 7 6 6 7 5 8 4 9 3 10 2 11 1 12 13 13
REMARK SMILES IDX 14 14 15 15 16 16 17 17 18 18 19 19 20 20 21 21 22 22 23 23
REMARK SMILES IDX 24 24
REMARK H PARENT
REMARK Flexibility Score: inf
ROOT
ATOM      1  C   UNL     1      58.909  29.268  53.767  1.00  0.00     0.000 C 
ENDROOT
BRANCH   1   2
ATOM      2  C   UNL     1      58.483  27.899  54.318  1.00  0.00     0.000 C 
BRANCH   2   3
ATOM      3  C   UNL     1      57.842  26.997  53.248  1.00  0.00     0.000 C 
BRANCH   3   4
ATOM      4  C   UNL     1      56.503  26.351  53.658  1.00  0.00    -0.000 C 
BRANCH   4   5
ATOM      5  C   UNL     1      55.609  25.900  52.486  1.00  0.00    -0.000 C 
BRANCH   5   6
ATOM      6  C   UNL     1      56.101  26.333  51.090  1.00  0.00    -0.000 C 
BRANCH   6   7
ATOM      7  C   UNL     1      54.991  26.792  50.124  1.00  0.00    -0.000 C 
BRANCH   7   8
ATOM      8  C   UNL     1      54.051  27.878  50.684  1.00  0.00    -0.000 C 
BRANCH   8   9
ATOM      9  C   UNL     1      54.632  29.306  50.687  1.00  0.00    -0.000 C 
BRANCH   9  10
ATOM     10  C   UNL     1      54.400  30.099  51.986  1.00  0.00    -0.000 C 
BRANCH  10  11
ATOM     11  C   UNL     1      54.023  29.202  53.174  1.00  0.00    -0.003 C 
ATOM     12  C   UNL     1      54.812  29.584  54.423  1.00  0.00     0.004 C 
ENDBRANCH  10  11
ENDBRANCH   9  10
ENDBRANCH   8   9
ENDBRANCH   7   8
ENDBRANCH   6   7
ENDBRANCH   5   6
ENDBRANCH   4   5
ENDBRANCH   3   4
ENDBRANCH   2   3
ENDBRANCH   1   2
BRANCH   1  13
ATOM     13  C   UNL     1      57.991  29.704  52.615  1.00  0.00     0.000 C 
BRANCH  13  14
ATOM     14  C   UNL     1      58.767  30.038  51.329  1.00  0.00     0.000 C 
BRANCH  14  15
ATOM     15  C   UNL     1      58.207  29.310  50.096  1.00  0.00     0.000 C 
BRANCH  15  16
ATOM     16  C   UNL     1      59.283  28.510  49.343  1.00  0.00     0.000 C 
BRANCH  16  17
ATOM     17  C   UNL     1      59.566  27.142  49.990  1.00  0.00     0.000 C 
BRANCH  17  18
ATOM     18  C   UNL     1      61.013  27.020  50.499  1.00  0.00     0.000 C 
BRANCH  18  19
ATOM     19  C   UNL     1      61.947  28.072  49.878  1.00  0.00     0.000 C 
BRANCH  19  20
ATOM     20  C   UNL     1      62.880  28.725  50.915  1.00  0.00     0.006 C 
BRANCH  20  21
ATOM     21  C   UNL     1      62.319  30.004  51.557  1.00  0.00     0.053 C 
BRANCH  21  22
ATOM     22  C   UNL     1      62.641  31.225  50.750  1.00  0.00     0.041 C 
ATOM     23  O   UNL     1      61.758  31.759  50.029  1.00  0.00    -0.550 OA
ATOM     24  O   UNL     1      63.924  31.753  50.772  1.00  0.00    -0.550 OA
ENDBRANCH  21  22
ENDBRANCH  20  21
ENDBRANCH  19  20
ENDBRANCH  18  19
ENDBRANCH  17  18
ENDBRANCH  16  17
ENDBRANCH  15  16
ENDBRANCH  14  15
ENDBRANCH  13  14
ENDBRANCH   1  13
TORSDOF 20
ENDMDL
MODEL 2
REMARK VINA RESULT:    -2.793      3.144      4.062
REMARK INTER + INTRA:         -10.104
REMARK INTER:                  -6.797
REMARK INTRA:                  -3.307
REMARK UNBOUND:                -4.046
REMARK SMILES CCCCCCCCCCCCCCCCCCCCCC(=O)[O-]
REMARK SMILES IDX 12 1 11 2 10 3 9 4 8 5 7 6 6 7 5 8 4 9 3 10 2 11 1 12 13 13
REMARK SMILES IDX 14 14 15 15 16 16 17 17 18 18 19 19 20 20 21 21 22 22 23 23
REMARK SMILES IDX 24 24
REMARK H PARENT
REMARK Flexibility Score: inf
ROOT
ATOM      1  C   UNL     1      57.281  26.213  51.829  1.00  0.00     0.000 C 
ENDROOT
BRANCH   1   2
ATOM      2  C   UNL     1      56.643  27.067  52.935  1.00  0.00     0.000 C 
BRANCH   2   3
ATOM      3  C   UNL     1      55.463  26.363  53.628  1.00  0.00     0.000 C 
BRANCH   3   4
ATOM      4  C   UNL     1      54.876  25.164  52.858  1.00  0.00    -0.000 C 
BRANCH   4   5
ATOM      5  C   UNL     1      53.615  25.474  52.028  1.00  0.00    -0.000 C 
BRANCH   5   6
ATOM      6  C   UNL     1      53.853  25.615  50.511  1.00  0.00    -0.000 C 
BRANCH   6   7
ATOM      7  C   UNL     1      53.585  27.022  49.940  1.00  0.00    -0.000 C 
BRANCH   7   8
ATOM      8  C   UNL     1      53.448  28.137  50.995  1.00  0.00    -0.000 C 
BRANCH   8   9
ATOM      9  C   UNL     1      53.487  29.574  50.437  1.00  0.00    -0.000 C 
BRANCH   9  10
ATOM     10  C   UNL     1      53.826  30.664  51.469  1.00  0.00    -0.000 C 
BRANCH  10  11
ATOM     11  C   UNL     1      54.546  30.109  52.707  1.00  0.00    -0.003 C 
ATOM     12  C   UNL     1      55.456  31.163  53.331  1.00  0.00     0.004 C 
ENDBRANCH  10  11
ENDBRANCH   9  10
ENDBRANCH   8   9
ENDBRANCH   7   8
ENDBRANCH   6   7
ENDBRANCH   5   6
ENDBRANCH   4   5
ENDBRANCH   3   4
ENDBRANCH   2   3
ENDBRANCH   1   2
BRANCH   1  13
ATOM     13  C   UNL     1      57.336  26.987  50.503  1.00  0.00     0.000 C 
BRANCH  13  14
ATOM     14  C   UNL     1      57.062  28.490  50.680  1.00  0.00     0.000 C 
BRANCH  14  15
ATOM     15  C   UNL     1      58.102  29.368  49.963  1.00  0.00     0.000 C 
BRANCH  15  16
ATOM     16  C   UNL     1      59.305  28.559  49.450  1.00  0.00     0.000 C 
BRANCH  16  17
ATOM     17  C   UNL     1      60.487  28.567  50.435  1.00  0.00     0.000 C 
BRANCH  17  18
ATOM     18  C   UNL     1      61.659  27.693  49.956  1.00  0.00     0.000 C 
BRANCH  18  19
ATOM     19  C   UNL     1      61.787  26.386  50.759  1.00  0.00     0.000 C 
BRANCH  19  20
ATOM     20  C   UNL     1      60.691  25.362  50.406  1.00  0.00     0.006 C 
BRANCH  20  21
ATOM     21  C   UNL     1      61.142  23.896  50.492  1.00  0.00     0.053 C 
BRANCH  21  22
ATOM     22  C   UNL     1      60.254  23.087  51.387  1.00  0.00     0.041 C 
ATOM     23  O   UNL     1      60.022  21.877  51.126  1.00  0.00    -0.550 OA
ATOM     24  O   UNL     1      59.658  23.679  52.493  1.00  0.00    -0.550 OA
ENDBRANCH  21  22
ENDBRANCH  20  21
ENDBRANCH  19  20
ENDBRANCH  18  19
ENDBRANCH  17  18
ENDBRANCH  16  17
ENDBRANCH  15  16
ENDBRANCH  14  15
ENDBRANCH  13  14
ENDBRANCH   1  13
TORSDOF 20
ENDMDL
MODEL 3
REMARK VINA RESULT:    -2.784      1.432      3.591
REMARK INTER + INTRA:         -10.086
REMARK INTER:                  -6.301
REMARK INTRA:                  -3.785
REMARK UNBOUND:                -4.046
REMARK SMILES CCCCCCCCCCCCCCCCCCCCCC(=O)[O-]
REMARK SMILES IDX 12 1 11 2 10 3 9 4 8 5 7 6 6 7 5 8 4 9 3 10 2 11 1 12 13 13
REMARK SMILES IDX 14 14 15 15 16 16 17 17 18 18 19 19 20 20 21 21 22 22 23 23
REMARK SMILES IDX 24 24
REMARK H PARENT
REMARK Flexibility Score: inf
ROOT
ATOM      1  C   UNL     1      59.938  28.302  49.613  1.00  0.00     0.000 C 
ENDROOT
BRANCH   1   2
ATOM      2  C   UNL     1      58.880  29.411  49.720  1.00  0.00     0.000 C 
BRANCH   2   3
ATOM      3  C   UNL     1      57.555  28.918  50.328  1.00  0.00     0.000 C 
BRANCH   3   4
ATOM      4  C   UNL     1      57.061  29.718  51.550  1.00  0.00    -0.000 C 
BRANCH   4   5
ATOM      5  C   UNL     1      55.566  29.549  51.881  1.00  0.00    -0.000 C 
BRANCH   5   6
ATOM      6  C   UNL     1      54.628  29.518  50.658  1.00  0.00    -0.000 C 
BRANCH   6   7
ATOM      7  C   UNL     1      53.816  28.218  50.495  1.00  0.00    -0.000 C 
BRANCH   7   8
ATOM      8  C   UNL     1      54.659  26.950  50.258  1.00  0.00    -0.000 C 
BRANCH   8   9
ATOM      9  C   UNL     1      54.869  26.063  51.503  1.00  0.00    -0.000 C 
BRANCH   9  10
ATOM     10  C   UNL     1      56.338  25.866  51.920  1.00  0.00    -0.000 C 
BRANCH  10  11
ATOM     11  C   UNL     1      56.635  26.406  53.327  1.00  0.00    -0.003 C 
ATOM     12  C   UNL     1      57.786  25.642  53.975  1.00  0.00     0.004 C 
ENDBRANCH  10  11
ENDBRANCH   9  10
ENDBRANCH   8   9
ENDBRANCH   7   8
ENDBRANCH   6   7
ENDBRANCH   5   6
ENDBRANCH   4   5
ENDBRANCH   3   4
ENDBRANCH   2   3
ENDBRANCH   1   2
BRANCH   1  13
ATOM     13  C   UNL     1      59.312  26.923  49.875  1.00  0.00     0.000 C 
BRANCH  13  14
ATOM     14  C   UNL     1      59.941  26.204  51.081  1.00  0.00     0.000 C 
BRANCH  14  15
ATOM     15  C   UNL     1      61.172  26.942  51.632  1.00  0.00     0.000 C 
BRANCH  15  16
ATOM     16  C   UNL     1      61.141  27.082  53.163  1.00  0.00     0.000 C 
BRANCH  16  17
ATOM     17  C   UNL     1      61.403  28.525  53.631  1.00  0.00     0.000 C 
BRANCH  17  18
ATOM     18  C   UNL     1      60.251  29.479  53.269  1.00  0.00     0.000 C 
BRANCH  18  19
ATOM     19  C   UNL     1      60.743  30.758  52.570  1.00  0.00     0.000 C 
BRANCH  19  20
ATOM     20  C   UNL     1      62.072  30.551  51.819  1.00  0.00     0.006 C 
BRANCH  20  21
ATOM     21  C   UNL     1      62.136  31.230  50.442  1.00  0.00     0.053 C 
BRANCH  21  22
ATOM     22  C   UNL     1      63.546  31.397  49.963  1.00  0.00     0.041 C 
ATOM     23  O   UNL     1      63.903  30.908  48.859  1.00  0.00    -0.550 OA
ATOM     24  O   UNL     1      64.472  32.066  50.752  1.00  0.00    -0.550 OA
ENDBRANCH  21  22
ENDBRANCH  20  21
ENDBRANCH  19  20
ENDBRANCH  18  19
ENDBRANCH  17  18
ENDBRANCH  16  17
ENDBRANCH  15  16
ENDBRANCH  14  15
ENDBRANCH  13  14
ENDBRANCH   1  13
TORSDOF 20
ENDMDL
MODEL 4
REMARK VINA RESULT:    -2.782      2.630      3.076
REMARK INTER + INTRA:         -10.081
REMARK INTER:                  -6.245
REMARK INTRA:                  -3.837
REMARK UNBOUND:                -4.046
REMARK SMILES CCCCCCCCCCCCCCCCCCCCCC(=O)[O-]
REMARK SMILES IDX 12 1 11 2 10 3 9 4 8 5 7 6 6 7 5 8 4 9 3 10 2 11 1 12 13 13
REMARK SMILES IDX 14 14 15 15 16 16 17 17 18 18 19 19 20 20 21 21 22 22 23 23
REMARK SMILES IDX 24 24
REMARK H PARENT
REMARK Flexibility Score: inf
ROOT
ATOM      1  C   UNL     1      59.268  28.856  53.844  1.00  0.00     0.000 C 
ENDROOT
BRANCH   1   2
ATOM      2  C   UNL     1      58.826  27.429  54.202  1.00  0.00     0.000 C 
BRANCH   2   3
ATOM      3  C   UNL     1      57.975  26.772  53.102  1.00  0.00     0.000 C 
BRANCH   3   4
ATOM      4  C   UNL     1      56.589  26.274  53.561  1.00  0.00    -0.000 C 
BRANCH   4   5
ATOM      5  C   UNL     1      55.645  25.833  52.425  1.00  0.00    -0.000 C 
BRANCH   5   6
ATOM      6  C   UNL     1      56.097  26.238  51.008  1.00  0.00    -0.000 C 
BRANCH   6   7
ATOM      7  C   UNL     1      54.951  26.537  50.022  1.00  0.00    -0.000 C 
BRANCH   7   8
ATOM      8  C   UNL     1      53.896  27.537  50.534  1.00  0.00    -0.000 C 
BRANCH   8   9
ATOM      9  C   UNL     1      54.317  29.019  50.475  1.00  0.00    -0.000 C 
BRANCH   9  10
ATOM     10  C   UNL     1      53.924  29.856  51.705  1.00  0.00    -0.000 C 
BRANCH  10  11
ATOM     11  C   UNL     1      53.628  28.996  52.942  1.00  0.00    -0.003 C 
ATOM     12  C   UNL     1      54.613  29.298  54.068  1.00  0.00     0.004 C 
ENDBRANCH  10  11
ENDBRANCH   9  10
ENDBRANCH   8   9
ENDBRANCH   7   8
ENDBRANCH   6   7
ENDBRANCH   5   6
ENDBRANCH   4   5
ENDBRANCH   3   4
ENDBRANCH   2   3
ENDBRANCH   1   2
BRANCH   1  13
ATOM     13  C   UNL     1      58.107  29.647  53.221  1.00  0.00     0.000 C 
BRANCH  13  14
ATOM     14  C   UNL     1      58.477  30.281  51.869  1.00  0.00     0.000 C 
BRANCH  14  15
ATOM     15  C   UNL     1      57.812  29.567  50.681  1.00  0.00     0.000 C 
BRANCH  15  16
ATOM     16  C   UNL     1      58.818  29.183  49.583  1.00  0.00     0.000 C 
BRANCH  16  17
ATOM     17  C   UNL     1      59.400  27.771  49.781  1.00  0.00     0.000 C 
BRANCH  17  18
ATOM     18  C   UNL     1      60.936  27.777  49.888  1.00  0.00     0.000 C 
BRANCH  18  19
ATOM     19  C   UNL     1      61.428  27.511  51.321  1.00  0.00     0.000 C 
BRANCH  19  20
ATOM     20  C   UNL     1      62.384  26.306  51.407  1.00  0.00     0.006 C 
BRANCH  20  21
ATOM     21  C   UNL     1      61.875  25.041  50.698  1.00  0.00     0.053 C 
BRANCH  21  22
ATOM     22  C   UNL     1      60.778  24.370  51.467  1.00  0.00     0.041 C 
ATOM     23  O   UNL     1      59.595  24.396  51.038  1.00  0.00    -0.550 OA
ATOM     24  O   UNL     1      61.059  23.742  52.673  1.00  0.00    -0.550 OA
ENDBRANCH  21  22
ENDBRANCH  20  21
ENDBRANCH  19  20
ENDBRANCH  18  19
ENDBRANCH  17  18
ENDBRANCH  16  17
ENDBRANCH  15  16
ENDBRANCH  14  15
ENDBRANCH  13  14
ENDBRANCH   1  13
TORSDOF 20
ENDMDL
MODEL 5
REMARK VINA RESULT:    -2.774      2.071      3.133
REMARK INTER + INTRA:         -10.063
REMARK INTER:                  -5.954
REMARK INTRA:                  -4.109
REMARK UNBOUND:                -4.046
REMARK SMILES CCCCCCCCCCCCCCCCCCCCCC(=O)[O-]
REMARK SMILES IDX 12 1 11 2 10 3 9 4 8 5 7 6 6 7 5 8 4 9 3 10 2 11 1 12 13 13
REMARK SMILES IDX 14 14 15 15 16 16 17 17 18 18 19 19 20 20 21 21 22 22 23 23
REMARK SMILES IDX 24 24
REMARK H PARENT
REMARK Flexibility Score: inf
ROOT
ATOM      1  C   UNL     1      58.331  27.226  54.187  1.00  0.00     0.000 C 
ENDROOT
BRANCH   1   2
ATOM      2  C   UNL     1      56.864  27.059  53.762  1.00  0.00     0.000 C 
BRANCH   2   3
ATOM      3  C   UNL     1      56.550  25.647  53.238  1.00  0.00     0.000 C 
BRANCH   3   4
ATOM      4  C   UNL     1      55.151  25.112  53.604  1.00  0.00    -0.000 C 
BRANCH   4   5
ATOM      5  C   UNL     1      54.008  26.141  53.491  1.00  0.00    -0.000 C 
BRANCH   5   6
ATOM      6  C   UNL     1      52.877  25.753  52.519  1.00  0.00    -0.000 C 
BRANCH   6   7
ATOM      7  C   UNL     1      53.348  25.129  51.191  1.00  0.00    -0.000 C 
BRANCH   7   8
ATOM      8  C   UNL     1      53.743  26.144  50.100  1.00  0.00    -0.000 C 
BRANCH   8   9
ATOM      9  C   UNL     1      55.239  26.515  50.064  1.00  0.00    -0.000 C 
BRANCH   9  10
ATOM     10  C   UNL     1      55.566  27.946  50.530  1.00  0.00    -0.000 C 
BRANCH  10  11
ATOM     11  C   UNL     1      54.318  28.833  50.651  1.00  0.00    -0.003 C 
ATOM     12  C   UNL     1      54.253  29.506  52.018  1.00  0.00     0.004 C 
ENDBRANCH  10  11
ENDBRANCH   9  10
ENDBRANCH   8   9
ENDBRANCH   7   8
ENDBRANCH   6   7
ENDBRANCH   5   6
ENDBRANCH   4   5
ENDBRANCH   3   4
ENDBRANCH   2   3
ENDBRANCH   1   2
BRANCH   1  13
ATOM     13  C   UNL     1      58.871  28.599  53.759  1.00  0.00     0.000 C 
BRANCH  13  14
ATOM     14  C   UNL     1      57.779  29.513  53.178  1.00  0.00     0.000 C 
BRANCH  14  15
ATOM     15  C   UNL     1      58.342  30.557  52.198  1.00  0.00     0.000 C 
BRANCH  15  16
ATOM     16  C   UNL     1      59.380  29.961  51.233  1.00  0.00     0.000 C 
BRANCH  16  17
ATOM     17  C   UNL     1      58.735  29.334  49.984  1.00  0.00     0.000 C 
BRANCH  17  18
ATOM     18  C   UNL     1      59.439  28.037  49.546  1.00  0.00     0.000 C 
BRANCH  18  19
ATOM     19  C   UNL     1      59.108  26.848  50.465  1.00  0.00     0.000 C 
BRANCH  19  20
ATOM     20  C   UNL     1      60.158  25.724  50.384  1.00  0.00     0.006 C 
BRANCH  20  21
ATOM     21  C   UNL     1      61.580  26.155  50.775  1.00  0.00     0.053 C 
BRANCH  21  22
ATOM     22  C   UNL     1      61.643  26.676  52.178  1.00  0.00     0.041 C 
ATOM     23  O   UNL     1      62.006  27.861  52.400  1.00  0.00    -0.550 OA
ATOM     24  O   UNL     1      61.330  25.841  53.243  1.00  0.00    -0.550 OA
ENDBRANCH  21  22
ENDBRANCH  20  21
ENDBRANCH  19  20
ENDBRANCH  18  19
ENDBRANCH  17  18
ENDBRANCH  16  17
ENDBRANCH  15  16
ENDBRANCH  14  15
ENDBRANCH  13  14
ENDBRANCH   1  13
TORSDOF 20
ENDMDL
MODEL 6
REMARK VINA RESULT:    -2.755      3.664      5.395
REMARK INTER + INTRA:         -10.022
REMARK INTER:                  -5.829
REMARK INTRA:                  -4.193
REMARK UNBOUND:                -4.046
REMARK SMILES CCCCCCCCCCCCCCCCCCCCCC(=O)[O-]
REMARK SMILES IDX 12 1 11 2 10 3 9 4 8 5 7 6 6 7 5 8 4 9 3 10 2 11 1 12 13 13
REMARK SMILES IDX 14 14 15 15 16 16 17 17 18 18 19 19 20 20 21 21 22 22 23 23
REMARK SMILES IDX 24 24
REMARK H PARENT
REMARK Flexibility Score: inf
ROOT
ATOM      1  C   UNL     1      58.369  28.180  54.239  1.00  0.00     0.000 C 
ENDROOT
BRANCH   1   2
ATOM      2  C   UNL     1      56.938  28.714  54.070  1.00  0.00     0.000 C 
BRANCH   2   3
ATOM      3  C   UNL     1      56.788  29.648  52.857  1.00  0.00     0.000 C 
BRANCH   3   4
ATOM      4  C   UNL     1      55.491  29.457  52.044  1.00  0.00    -0.000 C 
BRANCH   4   5
ATOM      5  C   UNL     1      55.650  28.648  50.742  1.00  0.00    -0.000 C 
BRANCH   5   6
ATOM      6  C   UNL     1      55.407  27.132  50.885  1.00  0.00    -0.000 C 
BRANCH   6   7
ATOM      7  C   UNL     1      56.657  26.306  51.246  1.00  0.00    -0.000 C 
BRANCH   7   8
ATOM      8  C   UNL     1      57.819  26.410  50.237  1.00  0.00    -0.000 C 
BRANCH   8   9
ATOM      9  C   UNL     1      58.905  27.444  50.596  1.00  0.00    -0.000 C 
BRANCH   9  10
ATOM     10  C   UNL     1      59.212  28.474  49.495  1.00  0.00    -0.000 C 
BRANCH  10  11
ATOM     11  C   UNL     1      59.379  29.900  50.041  1.00  0.00    -0.003 C 
ATOM     12  C   UNL     1      60.116  29.892  51.377  1.00  0.00     0.004 C 
ENDBRANCH  10  11
ENDBRANCH   9  10
ENDBRANCH   8   9
ENDBRANCH   7   8
ENDBRANCH   6   7
ENDBRANCH   5   6
ENDBRANCH   4   5
ENDBRANCH   3   4
ENDBRANCH   2   3
ENDBRANCH   1   2
BRANCH   1  13
ATOM     13  C   UNL     1      58.378  26.644  54.269  1.00  0.00     0.000 C 
BRANCH  13  14
ATOM     14  C   UNL     1      59.772  26.053  53.998  1.00  0.00     0.000 C 
BRANCH  14  15
ATOM     15  C   UNL     1      60.820  27.133  53.679  1.00  0.00     0.000 C 
BRANCH  15  16
ATOM     16  C   UNL     1      62.140  26.541  53.159  1.00  0.00     0.000 C 
BRANCH  16  17
ATOM     17  C   UNL     1      62.657  27.262  51.901  1.00  0.00     0.000 C 
BRANCH  17  18
ATOM     18  C   UNL     1      62.422  26.447  50.617  1.00  0.00     0.000 C 
BRANCH  18  19
ATOM     19  C   UNL     1      62.218  24.948  50.899  1.00  0.00     0.000 C 
BRANCH  19  20
ATOM     20  C   UNL     1      60.912  24.402  50.291  1.00  0.00     0.006 C 
BRANCH  20  21
ATOM     21  C   UNL     1      60.254  23.279  51.108  1.00  0.00     0.053 C 
BRANCH  21  22
ATOM     22  C   UNL     1      60.463  21.933  50.483  1.00  0.00     0.041 C 
ATOM     23  O   UNL     1      60.385  21.795  49.234  1.00  0.00    -0.550 OA
ATOM     24  O   UNL     1      60.714  20.828  51.285  1.00  0.00    -0.550 OA
ENDBRANCH  21  22
ENDBRANCH  20  21
ENDBRANCH  19  20
ENDBRANCH  18  19
ENDBRANCH  17  18
ENDBRANCH  16  17
ENDBRANCH  15  16
ENDBRANCH  14  15
ENDBRANCH  13  14
ENDBRANCH   1  13
TORSDOF 20
ENDMDL
MODEL 7
REMARK VINA RESULT:    -2.750      2.659      6.635
REMARK INTER + INTRA:         -10.011
REMARK INTER:                  -6.274
REMARK INTRA:                  -3.737
REMARK UNBOUND:                -4.046
REMARK SMILES CCCCCCCCCCCCCCCCCCCCCC(=O)[O-]
REMARK SMILES IDX 12 1 11 2 10 3 9 4 8 5 7 6 6 7 5 8 4 9 3 10 2 11 1 12 13 13
REMARK SMILES IDX 14 14 15 15 16 16 17 17 18 18 19 19 20 20 21 21 22 22 23 23
REMARK SMILES IDX 24 24
REMARK H PARENT
REMARK Flexibility Score: inf
ROOT
ATOM      1  C   UNL     1      58.284  29.650  50.037  1.00  0.00     0.000 C 
ENDROOT
BRANCH   1   2
ATOM      2  C   UNL     1      59.275  28.759  49.273  1.00  0.00     0.000 C 
BRANCH   2   3
ATOM      3  C   UNL     1      59.556  27.426  49.989  1.00  0.00     0.000 C 
BRANCH   3   4
ATOM      4  C   UNL     1      61.033  27.187  50.363  1.00  0.00    -0.000 C 
BRANCH   4   5
ATOM      5  C   UNL     1      62.042  28.132  49.680  1.00  0.00    -0.000 C 
BRANCH   5   6
ATOM      6  C   UNL     1      62.761  29.111  50.629  1.00  0.00    -0.000 C 
BRANCH   6   7
ATOM      7  C   UNL     1      62.493  30.603  50.346  1.00  0.00    -0.000 C 
BRANCH   7   8
ATOM      8  C   UNL     1      62.090  31.436  51.579  1.00  0.00    -0.000 C 
BRANCH   8   9
ATOM      9  C   UNL     1      60.673  31.159  52.121  1.00  0.00    -0.000 C 
BRANCH   9  10
ATOM     10  C   UNL     1      60.626  30.435  53.478  1.00  0.00    -0.000 C 
BRANCH  10  11
ATOM     11  C   UNL     1      60.102  28.996  53.369  1.00  0.00    -0.003 C 
ATOM     12  C   UNL     1      61.077  28.007  54.000  1.00  0.00     0.004 C 
ENDBRANCH  10  11
ENDBRANCH   9  10
ENDBRANCH   8   9
ENDBRANCH   7   8
ENDBRANCH   6   7
ENDBRANCH   5   6
ENDBRANCH   4   5
ENDBRANCH   3   4
ENDBRANCH   2   3
ENDBRANCH   1   2
BRANCH   1  13
ATOM     13  C   UNL     1      57.168  28.807  50.673  1.00  0.00     0.000 C 
BRANCH  13  14
ATOM     14  C   UNL     1      56.728  29.340  52.047  1.00  0.00     0.000 C 
BRANCH  14  15
ATOM     15  C   UNL     1      55.234  29.704  52.088  1.00  0.00     0.000 C 
BRANCH  15  16
ATOM     16  C   UNL     1      54.573  29.644  50.701  1.00  0.00     0.000 C 
BRANCH  16  17
ATOM     17  C   UNL     1      53.337  28.725  50.675  1.00  0.00     0.000 C 
BRANCH  17  18
ATOM     18  C   UNL     1      53.616  27.382  49.977  1.00  0.00     0.000 C 
BRANCH  18  19
ATOM     19  C   UNL     1      53.801  26.227  50.977  1.00  0.00     0.000 C 
BRANCH  19  20
ATOM     20  C   UNL     1      55.284  25.912  51.252  1.00  0.00     0.006 C 
BRANCH  20  21
ATOM     21  C   UNL     1      55.641  25.794  52.742  1.00  0.00     0.053 C 
BRANCH  21  22
ATOM     22  C   UNL     1      57.123  25.792  52.966  1.00  0.00     0.041 C 
ATOM     23  O   UNL     1      57.883  25.171  52.176  1.00  0.00    -0.550 OA
ATOM     24  O   UNL     1      57.660  26.450  54.064  1.00  0.00    -0.550 OA
ENDBRANCH  21  22
ENDBRANCH  20  21
ENDBRANCH  19  20
ENDBRANCH  18  19
ENDBRANCH  17  18
ENDBRANCH  16  17
ENDBRANCH  15  16
ENDBRANCH  14  15
ENDBRANCH  13  14
ENDBRANCH   1  13
TORSDOF 20
ENDMDL
MODEL 8
REMARK VINA RESULT:    -2.738      9.265     11.690
REMARK INTER + INTRA:          -9.985
REMARK INTER:                  -6.828
REMARK INTRA:                  -3.157
REMARK UNBOUND:                -4.046
REMARK SMILES CCCCCCCCCCCCCCCCCCCCCC(=O)[O-]
REMARK SMILES IDX 12 1 11 2 10 3 9 4 8 5 7 6 6 7 5 8 4 9 3 10 2 11 1 12 13 13
REMARK SMILES IDX 14 14 15 15 16 16 17 17 18 18 19 19 20 20 21 21 22 22 23 23
REMARK SMILES IDX 24 24
REMARK H PARENT
REMARK Flexibility Score: inf
ROOT
ATOM      1  C   UNL     1      62.650  29.281  61.626  1.00  0.00     0.000 C 
ENDROOT
BRANCH   1   2
ATOM      2  C   UNL     1      61.119  29.263  61.491  1.00  0.00     0.000 C 
BRANCH   2   3
ATOM      3  C   UNL     1      60.649  29.091  60.036  1.00  0.00     0.000 C 
BRANCH   3   4
ATOM      4  C   UNL     1      60.016  30.347  59.404  1.00  0.00    -0.000 C 
BRANCH   4   5
ATOM      5  C   UNL     1      60.925  31.116  58.425  1.00  0.00    -0.000 C 
BRANCH   5   6
ATOM      6  C   UNL     1      61.031  32.631  58.689  1.00  0.00    -0.000 C 
BRANCH   6   7
ATOM      7  C   UNL     1      62.122  33.357  57.877  1.00  0.00    -0.000 C 
BRANCH   7   8
ATOM      8  C   UNL     1      63.126  34.169  58.719  1.00  0.00    -0.000 C 
BRANCH   8   9
ATOM      9  C   UNL     1      62.656  34.511  60.147  1.00  0.00    -0.000 C 
BRANCH   9  10
ATOM     10  C   UNL     1      63.694  34.253  61.253  1.00  0.00    -0.000 C 
BRANCH  10  11
ATOM     11  C   UNL     1      64.273  35.548  61.841  1.00  0.00    -0.003 C 
ATOM     12  C   UNL     1      63.356  36.121  62.918  1.00  0.00     0.004 C 
ENDBRANCH  10  11
ENDBRANCH   9  10
ENDBRANCH   8   9
ENDBRANCH   7   8
ENDBRANCH   6   7
ENDBRANCH   5   6
ENDBRANCH   4   5
ENDBRANCH   3   4
ENDBRANCH   2   3
ENDBRANCH   1   2
BRANCH   1  13
ATOM     13  C   UNL     1      63.234  30.581  61.051  1.00  0.00     0.000 C 
BRANCH  13  14
ATOM     14  C   UNL     1      64.376  30.329  60.052  1.00  0.00     0.000 C 
BRANCH  14  15
ATOM     15  C   UNL     1      64.519  28.844  59.681  1.00  0.00     0.000 C 
BRANCH  15  16
ATOM     16  C   UNL     1      63.900  28.514  58.312  1.00  0.00     0.000 C 
BRANCH  16  17
ATOM     17  C   UNL     1      63.171  27.159  58.303  1.00  0.00     0.000 C 
BRANCH  17  18
ATOM     18  C   UNL     1      63.394  26.361  59.600  1.00  0.00     0.000 C 
BRANCH  18  19
ATOM     19  C   UNL     1      62.091  25.761  60.155  1.00  0.00     0.000 C 
BRANCH  19  20
ATOM     20  C   UNL     1      62.215  25.330  61.629  1.00  0.00     0.006 C 
BRANCH  20  21
ATOM     21  C   UNL     1      61.095  25.857  62.540  1.00  0.00     0.053 C 
BRANCH  21  22
ATOM     22  C   UNL     1      60.596  24.803  63.482  1.00  0.00     0.041 C 
ATOM     23  O   UNL     1      61.404  24.008  64.030  1.00  0.00    -0.550 OA
ATOM     24  O   UNL     1      59.235  24.682  63.729  1.00  0.00    -0.550 OA
ENDBRANCH  21  22
ENDBRANCH  20  21
ENDBRANCH  19  20
ENDBRANCH  18  19
ENDBRANCH  17  18
ENDBRANCH  16  17
ENDBRANCH  15  16
ENDBRANCH  14  15
ENDBRANCH  13  14
ENDBRANCH   1  13
TORSDOF 20
ENDMDL
MODEL 9
REMARK VINA RESULT:    -2.737      1.909      4.232
REMARK INTER + INTRA:          -9.983
REMARK INTER:                  -5.975
REMARK INTRA:                  -4.007
REMARK UNBOUND:                -4.046
REMARK SMILES CCCCCCCCCCCCCCCCCCCCCC(=O)[O-]
REMARK SMILES IDX 12 1 11 2 10 3 9 4 8 5 7 6 6 7 5 8 4 9 3 10 2 11 1 12 13 13
REMARK SMILES IDX 14 14 15 15 16 16 17 17 18 18 19 19 20 20 21 21 22 22 23 23
REMARK SMILES IDX 24 24
REMARK H PARENT
REMARK Flexibility Score: inf
ROOT
ATOM      1  C   UNL     1      59.941  26.021  50.959  1.00  0.00     0.000 C 
ENDROOT
BRANCH   1   2
ATOM      2  C   UNL     1      59.052  26.828  50.001  1.00  0.00     0.000 C 
BRANCH   2   3
ATOM      3  C   UNL     1      59.725  28.121  49.506  1.00  0.00     0.000 C 
BRANCH   3   4
ATOM      4  C   UNL     1      58.834  29.378  49.556  1.00  0.00    -0.000 C 
BRANCH   4   5
ATOM      5  C   UNL     1      57.611  29.277  50.490  1.00  0.00    -0.000 C 
BRANCH   5   6
ATOM      6  C   UNL     1      57.810  29.890  51.890  1.00  0.00    -0.000 C 
BRANCH   6   7
ATOM      7  C   UNL     1      57.953  28.866  53.033  1.00  0.00    -0.000 C 
BRANCH   7   8
ATOM      8  C   UNL     1      56.693  28.021  53.309  1.00  0.00    -0.000 C 
BRANCH   8   9
ATOM      9  C   UNL     1      56.750  26.572  52.782  1.00  0.00    -0.000 C 
BRANCH   9  10
ATOM     10  C   UNL     1      55.454  26.071  52.119  1.00  0.00    -0.000 C 
BRANCH  10  11
ATOM     11  C   UNL     1      55.368  26.433  50.629  1.00  0.00    -0.003 C 
ATOM     12  C   UNL     1      54.346  27.541  50.393  1.00  0.00     0.004 C 
ENDBRANCH  10  11
ENDBRANCH   9  10
ENDBRANCH   8   9
ENDBRANCH   7   8
ENDBRANCH   6   7
ENDBRANCH   5   6
ENDBRANCH   4   5
ENDBRANCH   3   4
ENDBRANCH   2   3
ENDBRANCH   1   2
BRANCH   1  13
ATOM     13  C   UNL     1      60.688  26.952  51.927  1.00  0.00     0.000 C 
BRANCH  13  14
ATOM     14  C   UNL     1      62.197  26.664  51.985  1.00  0.00     0.000 C 
BRANCH  14  15
ATOM     15  C   UNL     1      62.773  26.256  50.618  1.00  0.00     0.000 C 
BRANCH  15  16
ATOM     16  C   UNL     1      63.947  27.148  50.182  1.00  0.00     0.000 C 
BRANCH  16  17
ATOM     17  C   UNL     1      63.493  28.356  49.342  1.00  0.00     0.000 C 
BRANCH  17  18
ATOM     18  C   UNL     1      63.638  29.687  50.100  1.00  0.00     0.000 C 
BRANCH  18  19
ATOM     19  C   UNL     1      62.285  30.380  50.338  1.00  0.00     0.000 C 
BRANCH  19  20
ATOM     20  C   UNL     1      61.918  30.469  51.832  1.00  0.00     0.006 C 
BRANCH  20  21
ATOM     21  C   UNL     1      61.067  31.692  52.205  1.00  0.00     0.053 C 
BRANCH  21  22
ATOM     22  C   UNL     1      60.948  31.862  53.689  1.00  0.00     0.041 C 
ATOM     23  O   UNL     1      61.393  32.899  54.247  1.00  0.00    -0.550 OA
ATOM     24  O   UNL     1      60.372  30.859  54.458  1.00  0.00    -0.550 OA
ENDBRANCH  21  22
ENDBRANCH  20  21
ENDBRANCH  19  20
ENDBRANCH  18  19
ENDBRANCH  17  18
ENDBRANCH  16  17
ENDBRANCH  15  16
ENDBRANCH  14  15
ENDBRANCH  13  14
ENDBRANCH   1  13
TORSDOF 20
ENDMDL
