MODEL 1
REMARK VINA RESULT:    -4.809      0.000      0.000
REMARK INTER + INTRA:          -8.404
REMARK INTER:                  -7.339
REMARK INTRA:                  -1.065
REMARK UNBOUND:                -1.065
REMARK SMILES CCCCCCCCCCC(=O)[O-]
REMARK SMILES IDX 7 1 8 2 9 3 10 4 11 5 12 6 13 7 6 8 5 9 4 10 3 11 2 12 1 13
REMARK H PARENT
REMARK Flexibility Score: inf
ROOT
ATOM      1  C   UNL     1       4.088   6.779  11.307  1.00  0.00     0.000 C 
ENDROOT
BRANCH   1   2
ATOM      2  C   UNL     1       3.767   7.757  12.449  1.00  0.00     0.000 C 
BRANCH   2   3
ATOM      3  C   UNL     1       4.822   7.726  13.568  1.00  0.00     0.006 C 
BRANCH   3   4
ATOM      4  C   UNL     1       5.644   6.430  13.552  1.00  0.00     0.053 C 
BRANCH   4   5
ATOM      5  C   UNL     1       6.493   6.293  14.779  1.00  0.00     0.041 C 
ATOM      6  O   UNL     1       5.976   6.400  15.923  1.00  0.00    -0.550 OA
ATOM      7  O   UNL     1       7.850   6.018  14.660  1.00  0.00    -0.550 OA
ENDBRANCH   4   5
ENDBRANCH   3   4
ENDBRANCH   2   3
ENDBRANCH   1   2
BRANCH   1   8
ATOM      8  C   UNL     1       4.597   7.492  10.043  1.00  0.00     0.000 C 
BRANCH   8   9
ATOM      9  C   UNL     1       6.113   7.328   9.832  1.00  0.00    -0.000 C 
BRANCH   9  10
ATOM     10  C   UNL     1       6.981   8.460  10.411  1.00  0.00    -0.000 C 
BRANCH  10  11
ATOM     11  C   UNL     1       8.245   7.947  11.118  1.00  0.00    -0.000 C 
BRANCH  11  12
ATOM     12  C   UNL     1       8.299   6.415  11.101  1.00  0.00    -0.003 C 
ATOM     13  C   UNL     1       9.423   5.913  10.199  1.00  0.00     0.004 C 
ENDBRANCH  11  12
ENDBRANCH  10  11
ENDBRANCH   9  10
ENDBRANCH   8   9
ENDBRANCH   1   8
TORSDOF 9
ENDMDL
MODEL 2
REMARK VINA RESULT:    -4.634      1.351      1.676
REMARK INTER + INTRA:          -8.137
REMARK INTER:                  -7.192
REMARK INTRA:                  -0.945
REMARK UNBOUND:                -1.065
REMARK SMILES CCCCCCCCCCC(=O)[O-]
REMARK SMILES IDX 7 1 8 2 9 3 10 4 11 5 12 6 13 7 6 8 5 9 4 10 3 11 2 12 1 13
REMARK H PARENT
REMARK Flexibility Score: inf
ROOT
ATOM      1  C   UNL     1       4.727   7.519  12.171  1.00  0.00     0.000 C 
ENDROOT
BRANCH   1   2
ATOM      2  C   UNL     1       5.325   6.492  13.146  1.00  0.00     0.000 C 
BRANCH   2   3
ATOM      3  C   UNL     1       6.380   7.108  14.081  1.00  0.00     0.006 C 
BRANCH   3   4
ATOM      4  C   UNL     1       6.488   6.351  15.411  1.00  0.00     0.053 C 
BRANCH   4   5
ATOM      5  C   UNL     1       5.216   6.424  16.199  1.00  0.00     0.041 C 
ATOM      6  O   UNL     1       4.784   7.537  16.603  1.00  0.00    -0.550 OA
ATOM      7  O   UNL     1       4.491   5.269  16.463  1.00  0.00    -0.550 OA
ENDBRANCH   4   5
ENDBRANCH   3   4
ENDBRANCH   2   3
ENDBRANCH   1   2
BRANCH   1   8
ATOM      8  C   UNL     1       4.630   6.981  10.733  1.00  0.00     0.000 C 
BRANCH   8   9
ATOM      9  C   UNL     1       5.934   7.163   9.936  1.00  0.00    -0.000 C 
BRANCH   9  10
ATOM     10  C   UNL     1       6.822   8.336  10.392  1.00  0.00    -0.000 C 
BRANCH  10  11
ATOM     11  C   UNL     1       8.274   7.919  10.667  1.00  0.00    -0.000 C 
BRANCH  11  12
ATOM     12  C   UNL     1       8.354   6.444  11.075  1.00  0.00    -0.003 C 
ATOM     13  C   UNL     1       9.355   5.685  10.208  1.00  0.00     0.004 C 
ENDBRANCH  11  12
ENDBRANCH  10  11
ENDBRANCH   9  10
ENDBRANCH   8   9
ENDBRANCH   1   8
TORSDOF 9
ENDMDL
MODEL 3
REMARK VINA RESULT:    -4.564      2.664      4.003
REMARK INTER + INTRA:          -8.030
REMARK INTER:                  -7.090
REMARK INTRA:                  -0.940
REMARK UNBOUND:                -1.065
REMARK SMILES CCCCCCCCCCC(=O)[O-]
REMARK SMILES IDX 7 1 8 2 9 3 10 4 11 5 12 6 13 7 6 8 5 9 4 10 3 11 2 12 1 13
REMARK H PARENT
REMARK Flexibility Score: inf
ROOT
ATOM      1  C   UNL     1       4.605   7.336  12.943  1.00  0.00     0.000 C 
ENDROOT
BRANCH   1   2
ATOM      2  C   UNL     1       4.378   6.633  11.594  1.00  0.00     0.000 C 
BRANCH   2   3
ATOM      3  C   UNL     1       4.090   7.622  10.452  1.00  0.00     0.006 C 
BRANCH   3   4
ATOM      4  C   UNL     1       5.334   7.898   9.598  1.00  0.00     0.053 C 
BRANCH   4   5
ATOM      5  C   UNL     1       5.905   9.258   9.866  1.00  0.00     0.041 C 
ATOM      6  O   UNL     1       6.808   9.723   9.122  1.00  0.00    -0.550 OA
ATOM      7  O   UNL     1       5.418  10.023  10.918  1.00  0.00    -0.550 OA
ENDBRANCH   4   5
ENDBRANCH   3   4
ENDBRANCH   2   3
ENDBRANCH   1   2
BRANCH   1   8
ATOM      8  C   UNL     1       5.434   6.486  13.919  1.00  0.00     0.000 C 
BRANCH   8   9
ATOM      9  C   UNL     1       6.850   7.046  14.148  1.00  0.00    -0.000 C 
BRANCH   9  10
ATOM     10  C   UNL     1       7.579   7.521  12.878  1.00  0.00    -0.000 C 
BRANCH  10  11
ATOM     11  C   UNL     1       8.251   6.375  12.107  1.00  0.00    -0.000 C 
BRANCH  11  12
ATOM     12  C   UNL     1       8.627   6.815  10.688  1.00  0.00    -0.003 C 
ATOM     13  C   UNL     1       9.366   5.706   9.944  1.00  0.00     0.004 C 
ENDBRANCH  11  12
ENDBRANCH  10  11
ENDBRANCH   9  10
ENDBRANCH   8   9
ENDBRANCH   1   8
TORSDOF 9
ENDMDL
MODEL 4
REMARK VINA RESULT:    -4.490      3.214      6.014
REMARK INTER + INTRA:          -7.917
REMARK INTER:                  -7.365
REMARK INTRA:                  -0.551
REMARK UNBOUND:                -1.065
REMARK SMILES CCCCCCCCCCC(=O)[O-]
REMARK SMILES IDX 7 1 8 2 9 3 10 4 11 5 12 6 13 7 6 8 5 9 4 10 3 11 2 12 1 13
REMARK H PARENT
REMARK Flexibility Score: inf
ROOT
ATOM      1  C   UNL     1       7.457   5.998  14.054  1.00  0.00     0.000 C 
ENDROOT
BRANCH   1   2
ATOM      2  C   UNL     1       7.516   7.327  13.283  1.00  0.00     0.000 C 
BRANCH   2   3
ATOM      3  C   UNL     1       7.907   7.138  11.807  1.00  0.00     0.006 C 
BRANCH   3   4
ATOM      4  C   UNL     1       7.735   8.428  10.994  1.00  0.00     0.053 C 
BRANCH   4   5
ATOM      5  C   UNL     1       6.624   8.313   9.994  1.00  0.00     0.041 C 
ATOM      6  O   UNL     1       6.276   9.316   9.316  1.00  0.00    -0.550 OA
ATOM      7  O   UNL     1       5.994   7.092   9.789  1.00  0.00    -0.550 OA
ENDBRANCH   4   5
ENDBRANCH   3   4
ENDBRANCH   2   3
ENDBRANCH   1   2
BRANCH   1   8
ATOM      8  C   UNL     1       6.033   5.646  14.515  1.00  0.00     0.000 C 
BRANCH   8   9
ATOM      9  C   UNL     1       5.118   6.879  14.631  1.00  0.00    -0.000 C 
BRANCH   9  10
ATOM     10  C   UNL     1       4.311   6.974  15.938  1.00  0.00    -0.000 C 
BRANCH  10  11
ATOM     11  C   UNL     1       4.804   6.003  17.021  1.00  0.00    -0.000 C 
BRANCH  11  12
ATOM     12  C   UNL     1       3.738   4.948  17.338  1.00  0.00    -0.003 C 
ATOM     13  C   UNL     1       2.332   5.505  17.129  1.00  0.00     0.004 C 
ENDBRANCH  11  12
ENDBRANCH  10  11
ENDBRANCH   9  10
ENDBRANCH   8   9
ENDBRANCH   1   8
TORSDOF 9
ENDMDL
MODEL 5
REMARK VINA RESULT:    -4.470      1.558      3.562
REMARK INTER + INTRA:          -7.887
REMARK INTER:                  -7.036
REMARK INTRA:                  -0.851
REMARK UNBOUND:                -1.065
REMARK SMILES CCCCCCCCCCC(=O)[O-]
REMARK SMILES IDX 7 1 8 2 9 3 10 4 11 5 12 6 13 7 6 8 5 9 4 10 3 11 2 12 1 13
REMARK H PARENT
REMARK Flexibility Score: inf
ROOT
ATOM      1  C   UNL     1       7.718   7.386  12.784  1.00  0.00     0.000 C 
ENDROOT
BRANCH   1   2
ATOM      2  C   UNL     1       7.472   6.368  13.909  1.00  0.00     0.000 C 
BRANCH   2   3
ATOM      3  C   UNL     1       5.985   6.006  14.066  1.00  0.00     0.006 C 
BRANCH   3   4
ATOM      4  C   UNL     1       5.196   7.105  14.790  1.00  0.00     0.053 C 
BRANCH   4   5
ATOM      5  C   UNL     1       4.325   6.545  15.873  1.00  0.00     0.041 C 
ATOM      6  O   UNL     1       3.366   7.222  16.329  1.00  0.00    -0.550 OA
ATOM      7  O   UNL     1       4.554   5.263  16.359  1.00  0.00    -0.550 OA
ENDBRANCH   4   5
ENDBRANCH   3   4
ENDBRANCH   2   3
ENDBRANCH   1   2
BRANCH   1   8
ATOM      8  C   UNL     1       8.283   6.734  11.511  1.00  0.00     0.000 C 
BRANCH   8   9
ATOM      9  C   UNL     1       7.282   6.734  10.341  1.00  0.00    -0.000 C 
BRANCH   9  10
ATOM     10  C   UNL     1       6.291   7.913  10.329  1.00  0.00    -0.000 C 
BRANCH  10  11
ATOM     11  C   UNL     1       4.879   7.506   9.882  1.00  0.00    -0.000 C 
BRANCH  11  12
ATOM     12  C   UNL     1       4.131   6.789  11.011  1.00  0.00    -0.003 C 
ATOM     13  C   UNL     1       2.632   6.734  10.732  1.00  0.00     0.004 C 
ENDBRANCH  11  12
ENDBRANCH  10  11
ENDBRANCH   9  10
ENDBRANCH   8   9
ENDBRANCH   1   8
TORSDOF 9
ENDMDL
MODEL 6
REMARK VINA RESULT:    -4.451      2.028      3.803
REMARK INTER + INTRA:          -7.858
REMARK INTER:                  -6.745
REMARK INTRA:                  -1.113
REMARK UNBOUND:                -1.065
REMARK SMILES CCCCCCCCCCC(=O)[O-]
REMARK SMILES IDX 7 1 8 2 9 3 10 4 11 5 12 6 13 7 6 8 5 9 4 10 3 11 2 12 1 13
REMARK H PARENT
REMARK Flexibility Score: inf
ROOT
ATOM      1  C   UNL     1       3.969   6.814  10.747  1.00  0.00     0.000 C 
ENDROOT
BRANCH   1   2
ATOM      2  C   UNL     1       4.558   7.770   9.697  1.00  0.00     0.000 C 
BRANCH   2   3
ATOM      3  C   UNL     1       6.053   8.053   9.929  1.00  0.00     0.006 C 
BRANCH   3   4
ATOM      4  C   UNL     1       6.847   6.772  10.217  1.00  0.00     0.053 C 
BRANCH   4   5
ATOM      5  C   UNL     1       8.146   7.064  10.903  1.00  0.00     0.041 C 
ATOM      6  O   UNL     1       8.334   8.180  11.456  1.00  0.00    -0.550 OA
ATOM      7  O   UNL     1       9.138   6.093  10.959  1.00  0.00    -0.550 OA
ENDBRANCH   4   5
ENDBRANCH   3   4
ENDBRANCH   2   3
ENDBRANCH   1   2
BRANCH   1   8
ATOM      8  C   UNL     1       3.013   7.524  11.721  1.00  0.00     0.000 C 
BRANCH   8   9
ATOM      9  C   UNL     1       3.751   8.378  12.769  1.00  0.00    -0.000 C 
BRANCH   9  10
ATOM     10  C   UNL     1       4.267   7.605  13.996  1.00  0.00    -0.000 C 
BRANCH  10  11
ATOM     11  C   UNL     1       5.796   7.459  14.014  1.00  0.00    -0.000 C 
BRANCH  11  12
ATOM     12  C   UNL     1       6.206   5.982  13.994  1.00  0.00    -0.003 C 
ATOM     13  C   UNL     1       7.678   5.813  14.360  1.00  0.00     0.004 C 
ENDBRANCH  11  12
ENDBRANCH  10  11
ENDBRANCH   9  10
ENDBRANCH   8   9
ENDBRANCH   1   8
TORSDOF 9
ENDMDL
MODEL 7
REMARK VINA RESULT:    -4.343      2.872      5.484
REMARK INTER + INTRA:          -7.693
REMARK INTER:                  -7.013
REMARK INTRA:                  -0.680
REMARK UNBOUND:                -1.065
REMARK SMILES CCCCCCCCCCC(=O)[O-]
REMARK SMILES IDX 7 1 8 2 9 3 10 4 11 5 12 6 13 7 6 8 5 9 4 10 3 11 2 12 1 13
REMARK H PARENT
REMARK Flexibility Score: inf
ROOT
ATOM      1  C   UNL     1       7.785   6.733  12.236  1.00  0.00     0.000 C 
ENDROOT
BRANCH   1   2
ATOM      2  C   UNL     1       8.116   8.131  11.689  1.00  0.00     0.000 C 
BRANCH   2   3
ATOM      3  C   UNL     1       7.328   8.469  10.412  1.00  0.00     0.006 C 
BRANCH   3   4
ATOM      4  C   UNL     1       6.242   7.428  10.110  1.00  0.00     0.053 C 
BRANCH   4   5
ATOM      5  C   UNL     1       4.865   7.979  10.324  1.00  0.00     0.041 C 
ATOM      6  O   UNL     1       3.888   7.511   9.681  1.00  0.00    -0.550 OA
ATOM      7  O   UNL     1       4.656   8.988  11.255  1.00  0.00    -0.550 OA
ENDBRANCH   4   5
ENDBRANCH   3   4
ENDBRANCH   2   3
ENDBRANCH   1   2
BRANCH   1   8
ATOM      8  C   UNL     1       7.493   6.743  13.745  1.00  0.00     0.000 C 
BRANCH   8   9
ATOM      9  C   UNL     1       6.155   6.070  14.102  1.00  0.00    -0.000 C 
BRANCH   9  10
ATOM     10  C   UNL     1       4.975   7.035  14.321  1.00  0.00    -0.000 C 
BRANCH  10  11
ATOM     11  C   UNL     1       4.448   7.021  15.764  1.00  0.00    -0.000 C 
BRANCH  11  12
ATOM     12  C   UNL     1       4.722   5.671  16.435  1.00  0.00    -0.003 C 
ATOM     13  C   UNL     1       3.467   5.125  17.109  1.00  0.00     0.004 C 
ENDBRANCH  11  12
ENDBRANCH  10  11
ENDBRANCH   9  10
ENDBRANCH   8   9
ENDBRANCH   1   8
TORSDOF 9
ENDMDL
MODEL 8
REMARK VINA RESULT:    -4.327      1.981      4.486
REMARK INTER + INTRA:          -7.668
REMARK INTER:                  -6.858
REMARK INTRA:                  -0.809
REMARK UNBOUND:                -1.065
REMARK SMILES CCCCCCCCCCC(=O)[O-]
REMARK SMILES IDX 7 1 8 2 9 3 10 4 11 5 12 6 13 7 6 8 5 9 4 10 3 11 2 12 1 13
REMARK H PARENT
REMARK Flexibility Score: inf
ROOT
ATOM      1  C   UNL     1       4.127   6.781  11.179  1.00  0.00     0.000 C 
ENDROOT
BRANCH   1   2
ATOM      2  C   UNL     1       4.490   7.551   9.899  1.00  0.00     0.000 C 
BRANCH   2   3
ATOM      3  C   UNL     1       5.975   7.951   9.850  1.00  0.00     0.006 C 
BRANCH   3   4
ATOM      4  C   UNL     1       6.905   6.740   9.995  1.00  0.00     0.053 C 
BRANCH   4   5
ATOM      5  C   UNL     1       8.136   7.073  10.781  1.00  0.00     0.041 C 
ATOM      6  O   UNL     1       8.212   8.162  11.409  1.00  0.00    -0.550 OA
ATOM      7  O   UNL     1       9.188   6.168  10.846  1.00  0.00    -0.550 OA
ENDBRANCH   4   5
ENDBRANCH   3   4
ENDBRANCH   2   3
ENDBRANCH   1   2
BRANCH   1   8
ATOM      8  C   UNL     1       3.688   7.711  12.323  1.00  0.00     0.000 C 
BRANCH   8   9
ATOM      9  C   UNL     1       4.506   7.503  13.611  1.00  0.00    -0.000 C 
BRANCH   9  10
ATOM     10  C   UNL     1       5.628   6.453  13.511  1.00  0.00    -0.000 C 
BRANCH  10  11
ATOM     11  C   UNL     1       6.148   5.998  14.883  1.00  0.00    -0.000 C 
BRANCH  11  12
ATOM     12  C   UNL     1       5.250   6.520  16.011  1.00  0.00    -0.003 C 
ATOM     13  C   UNL     1       4.498   5.378  16.689  1.00  0.00     0.004 C 
ENDBRANCH  11  12
ENDBRANCH  10  11
ENDBRANCH   9  10
ENDBRANCH   8   9
ENDBRANCH   1   8
TORSDOF 9
ENDMDL
MODEL 9
REMARK VINA RESULT:    -4.318      2.789      3.759
REMARK INTER + INTRA:          -7.655
REMARK INTER:                  -6.840
REMARK INTRA:                  -0.815
REMARK UNBOUND:                -1.065
REMARK SMILES CCCCCCCCCCC(=O)[O-]
REMARK SMILES IDX 7 1 8 2 9 3 10 4 11 5 12 6 13 7 6 8 5 9 4 10 3 11 2 12 1 13
REMARK H PARENT
REMARK Flexibility Score: inf
ROOT
ATOM      1  C   UNL     1       5.401   7.281  14.733  1.00  0.00     0.000 C 
ENDROOT
BRANCH   1   2
ATOM      2  C   UNL     1       4.426   8.255  14.051  1.00  0.00     0.000 C 
BRANCH   2   3
ATOM      3  C   UNL     1       3.863   7.701  12.731  1.00  0.00     0.006 C 
BRANCH   3   4
ATOM      4  C   UNL     1       4.178   8.614  11.539  1.00  0.00     0.053 C 
BRANCH   4   5
ATOM      5  C   UNL     1       4.001   7.905  10.231  1.00  0.00     0.041 C 
ATOM      6  O   UNL     1       2.950   7.249  10.003  1.00  0.00    -0.550 OA
ATOM      7  O   UNL     1       4.983   7.993   9.252  1.00  0.00    -0.550 OA
ENDBRANCH   4   5
ENDBRANCH   3   4
ENDBRANCH   2   3
ENDBRANCH   1   2
BRANCH   1   8
ATOM      8  C   UNL     1       6.057   6.310  13.738  1.00  0.00     0.000 C 
BRANCH   8   9
ATOM      9  C   UNL     1       7.510   6.691  13.396  1.00  0.00    -0.000 C 
BRANCH   9  10
ATOM     10  C   UNL     1       7.664   7.776  12.315  1.00  0.00    -0.000 C 
BRANCH  10  11
ATOM     11  C   UNL     1       8.070   7.208  10.947  1.00  0.00    -0.000 C 
BRANCH  11  12
ATOM     12  C   UNL     1       8.998   5.999  11.109  1.00  0.00    -0.003 C 
ATOM     13  C   UNL     1       9.616   5.595   9.774  1.00  0.00     0.004 C 
ENDBRANCH  11  12
ENDBRANCH  10  11
ENDBRANCH   9  10
ENDBRANCH   8   9
ENDBRANCH   1   8
TORSDOF 9
ENDMDL
