MODEL 1
REMARK VINA RESULT:    -4.403      0.000      0.000
REMARK INTER + INTRA:          -6.926
REMARK INTER:                  -6.720
REMARK INTRA:                  -0.206
REMARK UNBOUND:                -0.206
REMARK SMILES CC1=CCC[C@@H](C)C(=O)C[C@@H](C(C)C)C(=O)C1
REMARK SMILES IDX 8 1 9 2 6 3 7 4 5 5 4 6 3 7 2 8 1 9 10 11 11 12 15 13 16 14
REMARK SMILES IDX 17 15 12 17 13 18 14 19
REMARK H PARENT
REMARK Flexibility Score: 70.00
ROOT
ATOM      1  C   UNL     1      38.425   9.928  28.255  1.00  0.00     0.136 C 
ATOM      2  O   UNL     1      38.184   9.231  29.230  1.00  0.00    -0.299 OA
ENDROOT
BRANCH   1   3
ATOM      3  C   UNL     1      39.835   9.978  27.711  1.00  0.00     0.053 C 
ATOM      4  C   UNL     1      39.946  11.012  26.583  1.00  0.00     0.016 C 
BRANCH   3   5
ATOM      5  C   UNL     1      40.250   8.562  27.227  1.00  0.00     0.015 C 
BRANCH   5   6
ATOM      6  C   UNL     1      39.725   8.177  25.834  1.00  0.00     0.028 C 
BRANCH   6   7
ATOM      7  C   UNL     1      38.582   7.184  25.813  1.00  0.00    -0.028 C 
ATOM      8  C   UNL     1      37.285   7.451  25.530  1.00  0.00    -0.070 CG0
ATOM      9  C   UNL     1      36.345   6.277  25.413  1.00  0.00     0.039 C 
ATOM     10  G   UNL     1      36.742   8.850  25.289  1.00  0.00     0.000 G0
ENDBRANCH   6   7
ENDBRANCH   5   6
ENDBRANCH   3   5
ENDBRANCH   1   3
BRANCH   1  11
ATOM     11  C   UNL     1      37.299  10.718  27.626  1.00  0.00     0.087 C 
BRANCH  11  12
ATOM     12  C   UNL     1      35.923   9.988  27.597  1.00  0.00     0.066 C 
BRANCH  12  13
ATOM     13  C   UNL     1      35.654   9.285  26.266  1.00  0.00     0.140 C 
ATOM     14  O   UNL     1      34.495   9.046  25.956  1.00  0.00    -0.299 OA
BRANCH  13  15
ATOM     15  C   UNL     1      36.745   8.838  25.303  1.00  0.00     0.106 CG0
ATOM     16  G   UNL     1      37.290   7.439  25.539  1.00  0.00     0.000 G0
ENDBRANCH  13  15
ENDBRANCH  12  13
BRANCH  12  17
ATOM     17  C   UNL     1      34.771  10.967  28.002  1.00  0.00    -0.006 C 
ATOM     18  C   UNL     1      33.679  10.333  28.885  1.00  0.00     0.008 C 
ATOM     19  C   UNL     1      35.314  12.225  28.691  1.00  0.00     0.008 C 
ENDBRANCH  12  17
ENDBRANCH  11  12
ENDBRANCH   1  11
TORSDOF 1
ENDMDL
MODEL 2
REMARK VINA RESULT:    -4.378      1.631      3.997
REMARK INTER + INTRA:          -6.886
REMARK INTER:                  -6.595
REMARK INTRA:                  -0.292
REMARK UNBOUND:                -0.206
REMARK SMILES CC1=CCC[C@@H](C)C(=O)C[C@@H](C(C)C)C(=O)C1
REMARK SMILES IDX 8 1 9 2 6 3 7 4 5 5 4 6 3 7 2 8 1 9 10 11 11 12 15 13 16 14
REMARK SMILES IDX 17 15 12 17 13 18 14 19
REMARK H PARENT
REMARK Flexibility Score: 70.00
ROOT
ATOM      1  C   UNL     1      36.988  11.090  28.288  1.00  0.00     0.136 C 
ATOM      2  O   UNL     1      37.555  12.074  28.742  1.00  0.00    -0.299 OA
ENDROOT
BRANCH   1   3
ATOM      3  C   UNL     1      35.499  11.146  28.030  1.00  0.00     0.053 C 
ATOM      4  C   UNL     1      34.794  11.993  29.097  1.00  0.00     0.016 C 
BRANCH   3   5
ATOM      5  C   UNL     1      34.930   9.702  27.983  1.00  0.00     0.015 C 
BRANCH   5   6
ATOM      6  C   UNL     1      34.361   9.278  26.619  1.00  0.00     0.028 C 
BRANCH   6   7
ATOM      7  C   UNL     1      34.695   7.870  26.175  1.00  0.00    -0.028 C 
ATOM      8  C   UNL     1      35.800   7.477  25.496  1.00  0.00    -0.070 CG0
ATOM      9  C   UNL     1      36.001   5.996  25.296  1.00  0.00     0.039 C 
ATOM     10  G   UNL     1      36.851   8.437  24.965  1.00  0.00     0.000 G0
ENDBRANCH   6   7
ENDBRANCH   5   6
ENDBRANCH   3   5
ENDBRANCH   1   3
BRANCH   1  11
ATOM     11  C   UNL     1      37.800   9.846  28.002  1.00  0.00     0.087 C 
BRANCH  11  12
ATOM     12  C   UNL     1      38.488   9.820  26.605  1.00  0.00     0.066 C 
BRANCH  12  13
ATOM     13  C   UNL     1      38.127   8.577  25.790  1.00  0.00     0.140 C 
ATOM     14  O   UNL     1      38.906   7.633  25.789  1.00  0.00    -0.299 OA
BRANCH  13  15
ATOM     15  C   UNL     1      36.861   8.444  24.955  1.00  0.00     0.106 CG0
ATOM     16  G   UNL     1      35.815   7.488  25.505  1.00  0.00     0.000 G0
ENDBRANCH  13  15
ENDBRANCH  12  13
BRANCH  12  17
ATOM     17  C   UNL     1      40.034  10.015  26.748  1.00  0.00    -0.006 C 
ATOM     18  C   UNL     1      40.551  11.380  26.256  1.00  0.00     0.008 C 
ATOM     19  C   UNL     1      40.502   9.783  28.190  1.00  0.00     0.008 C 
ENDBRANCH  12  17
ENDBRANCH  11  12
ENDBRANCH   1  11
TORSDOF 1
ENDMDL
MODEL 3
REMARK VINA RESULT:    -4.218      1.823      3.768
REMARK INTER + INTRA:          -6.643
REMARK INTER:                  -6.619
REMARK INTRA:                  -0.024
REMARK UNBOUND:                -0.206
REMARK SMILES CC1=CCC[C@@H](C)C(=O)C[C@@H](C(C)C)C(=O)C1
REMARK SMILES IDX 8 1 9 2 6 3 7 4 5 5 4 6 3 7 2 8 1 9 10 11 11 12 15 13 16 14
REMARK SMILES IDX 17 15 12 17 13 18 14 19
REMARK H PARENT
REMARK Flexibility Score: 70.00
ROOT
ATOM      1  C   UNL     1      35.563   8.588  26.283  1.00  0.00     0.136 C 
ATOM      2  O   UNL     1      35.213   7.427  26.127  1.00  0.00    -0.299 OA
ENDROOT
BRANCH   1   3
ATOM      3  C   UNL     1      36.275   9.305  25.159  1.00  0.00     0.053 C 
ATOM      4  C   UNL     1      35.543   9.093  23.828  1.00  0.00     0.016 C 
BRANCH   3   5
ATOM      5  C   UNL     1      37.746   8.811  25.084  1.00  0.00     0.015 C 
BRANCH   5   6
ATOM      6  C   UNL     1      38.805   9.922  25.173  1.00  0.00     0.028 C 
BRANCH   6   7
ATOM      7  C   UNL     1      39.950   9.665  26.129  1.00  0.00    -0.028 C 
ATOM      8  C   UNL     1      39.987   9.972  27.448  1.00  0.00    -0.070 CG0
ATOM      9  C   UNL     1      41.172   9.480  28.242  1.00  0.00     0.039 C 
ATOM     10  G   UNL     1      38.894  10.744  28.167  1.00  0.00     0.000 G0
ENDBRANCH   6   7
ENDBRANCH   5   6
ENDBRANCH   3   5
ENDBRANCH   1   3
BRANCH   1  11
ATOM     11  C   UNL     1      35.270   9.267  27.603  1.00  0.00     0.087 C 
BRANCH  11  12
ATOM     12  C   UNL     1      36.222  10.448  27.959  1.00  0.00     0.066 C 
BRANCH  12  13
ATOM     13  C   UNL     1      37.599   9.977  28.430  1.00  0.00     0.140 C 
ATOM     14  O   UNL     1      37.673   8.931  29.061  1.00  0.00    -0.299 OA
BRANCH  13  15
ATOM     15  C   UNL     1      38.891  10.742  28.185  1.00  0.00     0.106 CG0
ATOM     16  G   UNL     1      39.975   9.971  27.448  1.00  0.00     0.000 G0
ENDBRANCH  13  15
ENDBRANCH  12  13
BRANCH  12  17
ATOM     17  C   UNL     1      35.539  11.420  28.977  1.00  0.00    -0.006 C 
ATOM     18  C   UNL     1      35.850  12.910  28.740  1.00  0.00     0.008 C 
ATOM     19  C   UNL     1      34.019  11.218  29.019  1.00  0.00     0.008 C 
ENDBRANCH  12  17
ENDBRANCH  11  12
ENDBRANCH   1  11
TORSDOF 1
ENDMDL
MODEL 4
REMARK VINA RESULT:    -4.089      1.787      3.845
REMARK INTER + INTRA:          -6.446
REMARK INTER:                  -6.160
REMARK INTRA:                  -0.286
REMARK UNBOUND:                -0.206
REMARK SMILES CC1=CCC[C@@H](C)C(=O)C[C@@H](C(C)C)C(=O)C1
REMARK SMILES IDX 8 1 9 2 6 3 7 4 5 5 4 6 3 7 2 8 1 9 10 11 11 12 15 13 16 14
REMARK SMILES IDX 17 15 12 17 13 18 14 19
REMARK H PARENT
REMARK Flexibility Score: 70.00
ROOT
ATOM      1  C   UNL     1      34.869   9.708  27.051  1.00  0.00     0.136 C 
ATOM      2  O   UNL     1      33.703   9.968  26.787  1.00  0.00    -0.299 OA
ENDROOT
BRANCH   1   3
ATOM      3  C   UNL     1      35.684   8.890  26.076  1.00  0.00     0.053 C 
ATOM      4  C   UNL     1      34.913   8.674  24.768  1.00  0.00     0.016 C 
BRANCH   3   5
ATOM      5  C   UNL     1      36.072   7.539  26.737  1.00  0.00     0.015 C 
BRANCH   5   6
ATOM      6  C   UNL     1      37.539   7.439  27.187  1.00  0.00     0.028 C 
BRANCH   6   7
ATOM      7  C   UNL     1      38.489   8.438  26.562  1.00  0.00    -0.028 C 
ATOM      8  C   UNL     1      38.934   9.590  27.120  1.00  0.00    -0.070 CG0
ATOM      9  C   UNL     1      40.001  10.354  26.377  1.00  0.00     0.039 C 
ATOM     10  G   UNL     1      38.446  10.126  28.456  1.00  0.00     0.000 G0
ENDBRANCH   6   7
ENDBRANCH   5   6
ENDBRANCH   3   5
ENDBRANCH   1   3
BRANCH   1  11
ATOM     11  C   UNL     1      35.454  10.218  28.349  1.00  0.00     0.087 C 
BRANCH  11  12
ATOM     12  C   UNL     1      36.196  11.584  28.242  1.00  0.00     0.066 C 
BRANCH  12  13
ATOM     13  C   UNL     1      37.708  11.451  28.433  1.00  0.00     0.140 C 
ATOM     14  O   UNL     1      38.373  12.472  28.546  1.00  0.00    -0.299 OA
BRANCH  13  15
ATOM     15  C   UNL     1      38.450  10.122  28.469  1.00  0.00     0.106 CG0
ATOM     16  G   UNL     1      38.933   9.610  27.122  1.00  0.00     0.000 G0
ENDBRANCH  13  15
ENDBRANCH  12  13
BRANCH  12  17
ATOM     17  C   UNL     1      35.559  12.635  29.210  1.00  0.00    -0.006 C 
ATOM     18  C   UNL     1      35.139  13.953  28.530  1.00  0.00     0.008 C 
ATOM     19  C   UNL     1      34.362  12.052  29.970  1.00  0.00     0.008 C 
ENDBRANCH  12  17
ENDBRANCH  11  12
ENDBRANCH   1  11
TORSDOF 1
ENDMDL
MODEL 5
REMARK VINA RESULT:    -4.049      1.877      4.302
REMARK INTER + INTRA:          -6.386
REMARK INTER:                  -6.232
REMARK INTRA:                  -0.154
REMARK UNBOUND:                -0.206
REMARK SMILES CC1=CCC[C@@H](C)C(=O)C[C@@H](C(C)C)C(=O)C1
REMARK SMILES IDX 8 1 9 2 6 3 7 4 5 5 4 6 3 7 2 8 1 9 10 11 11 12 15 13 16 14
REMARK SMILES IDX 17 15 12 17 13 18 14 19
REMARK H PARENT
REMARK Flexibility Score: 70.00
ROOT
ATOM      1  C   UNL     1      37.107  11.597  28.535  1.00  0.00     0.136 C 
ATOM      2  O   UNL     1      37.887  12.532  28.655  1.00  0.00    -0.299 OA
ENDROOT
BRANCH   1   3
ATOM      3  C   UNL     1      35.644  11.881  28.283  1.00  0.00     0.053 C 
ATOM      4  C   UNL     1      35.276  13.296  28.748  1.00  0.00     0.016 C 
BRANCH   3   5
ATOM      5  C   UNL     1      34.781  10.805  28.997  1.00  0.00     0.015 C 
BRANCH   5   6
ATOM      6  C   UNL     1      33.693  10.165  28.119  1.00  0.00     0.028 C 
BRANCH   6   7
ATOM      7  C   UNL     1      34.087   9.878  26.686  1.00  0.00    -0.028 C 
ATOM      8  C   UNL     1      34.930   8.908  26.257  1.00  0.00    -0.070 CG0
ATOM      9  C   UNL     1      35.054   8.705  24.768  1.00  0.00     0.039 C 
ATOM     10  G   UNL     1      35.717   8.001  27.188  1.00  0.00     0.000 G0
ENDBRANCH   6   7
ENDBRANCH   5   6
ENDBRANCH   3   5
ENDBRANCH   1   3
BRANCH   1  11
ATOM     11  C   UNL     1      37.639  10.185  28.644  1.00  0.00     0.087 C 
BRANCH  11  12
ATOM     12  C   UNL     1      37.970   9.502  27.284  1.00  0.00     0.066 C 
BRANCH  12  13
ATOM     13  C   UNL     1      37.250   8.165  27.103  1.00  0.00     0.140 C 
ATOM     14  O   UNL     1      37.919   7.170  26.860  1.00  0.00    -0.299 OA
BRANCH  13  15
ATOM     15  C   UNL     1      35.740   7.992  27.182  1.00  0.00     0.106 CG0
ATOM     16  G   UNL     1      34.932   8.898  26.267  1.00  0.00     0.000 G0
ENDBRANCH  13  15
ENDBRANCH  12  13
BRANCH  12  17
ATOM     17  C   UNL     1      39.517   9.381  27.089  1.00  0.00    -0.006 C 
ATOM     18  C   UNL     1      40.205  10.683  26.633  1.00  0.00     0.008 C 
ATOM     19  C   UNL     1      40.207   8.860  28.356  1.00  0.00     0.008 C 
ENDBRANCH  12  17
ENDBRANCH  11  12
ENDBRANCH   1  11
TORSDOF 1
ENDMDL
MODEL 6
REMARK VINA RESULT:    -3.992      1.694      3.952
REMARK INTER + INTRA:          -6.299
REMARK INTER:                  -6.556
REMARK INTRA:                   0.258
REMARK UNBOUND:                -0.206
REMARK SMILES CC1=CCC[C@@H](C)C(=O)C[C@@H](C(C)C)C(=O)C1
REMARK SMILES IDX 8 1 9 2 6 3 7 4 5 5 4 6 3 7 2 8 1 9 10 11 11 12 15 13 16 14
REMARK SMILES IDX 17 15 12 17 13 18 14 19
REMARK H PARENT
REMARK Flexibility Score: 70.00
ROOT
ATOM      1  C   UNL     1      33.988   9.979  27.742  1.00  0.00     0.136 C 
ATOM      2  O   UNL     1      33.072  10.395  28.438  1.00  0.00    -0.299 OA
ENDROOT
BRANCH   1   3
ATOM      3  C   UNL     1      33.718   9.624  26.298  1.00  0.00     0.053 C 
ATOM      4  C   UNL     1      32.240   9.269  26.092  1.00  0.00     0.016 C 
BRANCH   3   5
ATOM      5  C   UNL     1      34.648   8.455  25.874  1.00  0.00     0.015 C 
BRANCH   5   6
ATOM      6  C   UNL     1      35.809   8.857  24.949  1.00  0.00     0.028 C 
BRANCH   6   7
ATOM      7  C   UNL     1      37.123   8.148  25.195  1.00  0.00    -0.028 C 
ATOM      8  C   UNL     1      38.212   8.658  25.819  1.00  0.00    -0.070 CG0
ATOM      9  C   UNL     1      39.359   7.718  26.094  1.00  0.00     0.039 C 
ATOM     10  G   UNL     1      38.322  10.101  26.284  1.00  0.00     0.000 G0
ENDBRANCH   6   7
ENDBRANCH   5   6
ENDBRANCH   3   5
ENDBRANCH   1   3
BRANCH   1  11
ATOM     11  C   UNL     1      35.363   9.834  28.356  1.00  0.00     0.087 C 
BRANCH  11  12
ATOM     12  C   UNL     1      36.383  10.939  27.947  1.00  0.00     0.066 C 
BRANCH  12  13
ATOM     13  C   UNL     1      37.782  10.382  27.677  1.00  0.00     0.140 C 
ATOM     14  O   UNL     1      38.518  10.167  28.630  1.00  0.00    -0.299 OA
BRANCH  13  15
ATOM     15  C   UNL     1      38.332  10.098  26.286  1.00  0.00     0.106 CG0
ATOM     16  G   UNL     1      38.229   8.652  25.829  1.00  0.00     0.000 G0
ENDBRANCH  13  15
ENDBRANCH  12  13
BRANCH  12  17
ATOM     17  C   UNL     1      36.392  12.098  28.998  1.00  0.00    -0.006 C 
ATOM     18  C   UNL     1      37.543  13.107  28.824  1.00  0.00     0.008 C 
ATOM     19  C   UNL     1      35.056  12.852  29.019  1.00  0.00     0.008 C 
ENDBRANCH  12  17
ENDBRANCH  11  12
ENDBRANCH   1  11
TORSDOF 1
ENDMDL
MODEL 7
REMARK VINA RESULT:    -3.955      1.821      4.887
REMARK INTER + INTRA:          -6.241
REMARK INTER:                  -6.345
REMARK INTRA:                   0.103
REMARK UNBOUND:                -0.206
REMARK SMILES CC1=CCC[C@@H](C)C(=O)C[C@@H](C(C)C)C(=O)C1
REMARK SMILES IDX 8 1 9 2 6 3 7 4 5 5 4 6 3 7 2 8 1 9 10 11 11 12 15 13 16 14
REMARK SMILES IDX 17 15 12 17 13 18 14 19
REMARK H PARENT
REMARK Flexibility Score: 70.00
ROOT
ATOM      1  C   UNL     1      34.800   9.223  26.853  1.00  0.00     0.136 C 
ATOM      2  O   UNL     1      33.714   8.880  26.405  1.00  0.00    -0.299 OA
ENDROOT
BRANCH   1   3
ATOM      3  C   UNL     1      34.851  10.073  28.102  1.00  0.00     0.053 C 
ATOM      4  C   UNL     1      33.459  10.618  28.446  1.00  0.00     0.016 C 
BRANCH   3   5
ATOM      5  C   UNL     1      35.877  11.220  27.901  1.00  0.00     0.015 C 
BRANCH   5   6
ATOM      6  C   UNL     1      37.179  11.069  28.705  1.00  0.00     0.028 C 
BRANCH   6   7
ATOM      7  C   UNL     1      38.452  11.438  27.973  1.00  0.00    -0.028 C 
ATOM      8  C   UNL     1      39.387  10.583  27.495  1.00  0.00    -0.070 CG0
ATOM      9  C   UNL     1      40.498  11.167  26.658  1.00  0.00     0.039 C 
ATOM     10  G   UNL     1      39.354   9.081  27.723  1.00  0.00     0.000 G0
ENDBRANCH   6   7
ENDBRANCH   5   6
ENDBRANCH   3   5
ENDBRANCH   1   3
BRANCH   1  11
ATOM     11  C   UNL     1      36.057   8.783  26.135  1.00  0.00     0.087 C 
BRANCH  11  12
ATOM     12  C   UNL     1      37.032   7.920  26.991  1.00  0.00     0.066 C 
BRANCH  12  13
ATOM     13  C   UNL     1      38.501   8.267  26.745  1.00  0.00     0.140 C 
ATOM     14  O   UNL     1      39.032   7.865  25.719  1.00  0.00    -0.299 OA
BRANCH  13  15
ATOM     15  C   UNL     1      39.360   9.069  27.713  1.00  0.00     0.106 CG0
ATOM     16  G   UNL     1      39.381  10.570  27.477  1.00  0.00     0.000 G0
ENDBRANCH  13  15
ENDBRANCH  12  13
BRANCH  12  17
ATOM     17  C   UNL     1      36.735   6.396  26.796  1.00  0.00    -0.006 C 
ATOM     18  C   UNL     1      36.253   6.018  25.382  1.00  0.00     0.008 C 
ATOM     19  C   UNL     1      37.948   5.533  27.166  1.00  0.00     0.008 C 
ENDBRANCH  12  17
ENDBRANCH  11  12
ENDBRANCH   1  11
TORSDOF 1
ENDMDL
MODEL 8
REMARK VINA RESULT:    -3.903      1.915      3.632
REMARK INTER + INTRA:          -6.162
REMARK INTER:                  -5.987
REMARK INTRA:                  -0.176
REMARK UNBOUND:                -0.206
REMARK SMILES CC1=CCC[C@@H](C)C(=O)C[C@@H](C(C)C)C(=O)C1
REMARK SMILES IDX 8 1 9 2 6 3 7 4 5 5 4 6 3 7 2 8 1 9 10 11 11 12 15 13 16 14
REMARK SMILES IDX 17 15 12 17 13 18 14 19
REMARK H PARENT
REMARK Flexibility Score: 70.00
ROOT
ATOM      1  C   UNL     1      36.289   7.384  26.499  1.00  0.00     0.136 C 
ATOM      2  O   UNL     1      35.545   7.103  25.569  1.00  0.00    -0.299 OA
ENDROOT
BRANCH   1   3
ATOM      3  C   UNL     1      37.685   6.804  26.531  1.00  0.00     0.053 C 
ATOM      4  C   UNL     1      37.721   5.435  25.841  1.00  0.00     0.016 C 
BRANCH   3   5
ATOM      5  C   UNL     1      38.170   6.713  28.003  1.00  0.00     0.015 C 
BRANCH   5   6
ATOM      6  C   UNL     1      39.434   7.529  28.318  1.00  0.00     0.028 C 
BRANCH   6   7
ATOM      7  C   UNL     1      39.662   8.750  27.453  1.00  0.00    -0.028 C 
ATOM      8  C   UNL     1      39.062   9.957  27.584  1.00  0.00    -0.070 CG0
ATOM      9  C   UNL     1      39.560  11.078  26.706  1.00  0.00     0.039 C 
ATOM     10  G   UNL     1      37.954  10.247  28.582  1.00  0.00     0.000 G0
ENDBRANCH   6   7
ENDBRANCH   5   6
ENDBRANCH   3   5
ENDBRANCH   1   3
BRANCH   1  11
ATOM     11  C   UNL     1      35.782   8.304  27.588  1.00  0.00     0.087 C 
BRANCH  11  12
ATOM     12  C   UNL     1      35.681   9.805  27.183  1.00  0.00     0.066 C 
BRANCH  12  13
ATOM     13  C   UNL     1      36.617  10.701  27.995  1.00  0.00     0.140 C 
ATOM     14  O   UNL     1      36.306  11.872  28.160  1.00  0.00    -0.299 OA
BRANCH  13  15
ATOM     15  C   UNL     1      37.935  10.233  28.596  1.00  0.00     0.106 CG0
ATOM     16  G   UNL     1      39.046   9.958  27.597  1.00  0.00     0.000 G0
ENDBRANCH  13  15
ENDBRANCH  12  13
BRANCH  12  17
ATOM     17  C   UNL     1      34.194  10.290  27.233  1.00  0.00    -0.006 C 
ATOM     18  C   UNL     1      33.261   9.587  26.228  1.00  0.00     0.008 C 
ATOM     19  C   UNL     1      33.606  10.166  28.644  1.00  0.00     0.008 C 
ENDBRANCH  12  17
ENDBRANCH  11  12
ENDBRANCH   1  11
TORSDOF 1
ENDMDL
MODEL 9
REMARK VINA RESULT:    -3.808      2.288      4.894
REMARK INTER + INTRA:          -6.018
REMARK INTER:                  -5.565
REMARK INTRA:                  -0.452
REMARK UNBOUND:                -0.206
REMARK SMILES CC1=CCC[C@@H](C)C(=O)C[C@@H](C(C)C)C(=O)C1
REMARK SMILES IDX 8 1 9 2 6 3 7 4 5 5 4 6 3 7 2 8 1 9 10 11 11 12 15 13 16 14
REMARK SMILES IDX 17 15 12 17 13 18 14 19
REMARK H PARENT
REMARK Flexibility Score: 70.00
ROOT
ATOM      1  C   UNL     1      37.868   9.882  25.817  1.00  0.00     0.136 C 
ATOM      2  O   UNL     1      37.846   9.878  24.594  1.00  0.00    -0.299 OA
ENDROOT
BRANCH   1   3
ATOM      3  C   UNL     1      36.570   9.752  26.581  1.00  0.00     0.053 C 
ATOM      4  C   UNL     1      36.781  10.062  28.068  1.00  0.00     0.016 C 
BRANCH   3   5
ATOM      5  C   UNL     1      35.991   8.326  26.374  1.00  0.00     0.015 C 
BRANCH   5   6
ATOM      6  C   UNL     1      36.363   7.314  27.470  1.00  0.00     0.028 C 
BRANCH   6   7
ATOM      7  C   UNL     1      37.312   6.211  27.053  1.00  0.00    -0.028 C 
ATOM      8  C   UNL     1      38.643   6.153  27.300  1.00  0.00    -0.070 CG0
ATOM      9  C   UNL     1      39.363   4.881  26.927  1.00  0.00     0.039 C 
ATOM     10  G   UNL     1      39.430   7.274  27.958  1.00  0.00     0.000 G0
ENDBRANCH   6   7
ENDBRANCH   5   6
ENDBRANCH   3   5
ENDBRANCH   1   3
BRANCH   1  11
ATOM     11  C   UNL     1      39.199  10.017  26.523  1.00  0.00     0.087 C 
BRANCH  11  12
ATOM     12  C   UNL     1      40.289   9.000  26.067  1.00  0.00     0.066 C 
BRANCH  12  13
ATOM     13  C   UNL     1      40.540   7.900  27.099  1.00  0.00     0.140 C 
ATOM     14  O   UNL     1      41.680   7.479  27.238  1.00  0.00    -0.299 OA
BRANCH  13  15
ATOM     15  C   UNL     1      39.451   7.272  27.957  1.00  0.00     0.106 CG0
ATOM     16  G   UNL     1      38.647   6.171  27.286  1.00  0.00     0.000 G0
ENDBRANCH  13  15
ENDBRANCH  12  13
BRANCH  12  17
ATOM     17  C   UNL     1      41.600   9.746  25.654  1.00  0.00    -0.006 C 
ATOM     18  C   UNL     1      42.088   9.432  24.227  1.00  0.00     0.008 C 
ATOM     19  C   UNL     1      41.463  11.265  25.821  1.00  0.00     0.008 C 
ENDBRANCH  12  17
ENDBRANCH  11  12
ENDBRANCH   1  11
TORSDOF 1
ENDMDL
