MODEL 1
REMARK VINA RESULT:    -3.049      0.000      0.000
REMARK INTER + INTRA:          -3.909
REMARK INTER:                  -3.762
REMARK INTRA:                  -0.148
REMARK UNBOUND:                -0.148
REMARK SMILES CCCCCC(=O)[O-]
REMARK SMILES IDX 4 1 5 2 6 3 7 4 8 5 3 6 2 7 1 8
REMARK H PARENT
REMARK Flexibility Score: inf
ROOT
ATOM      1  C   UNL     1     -24.350   2.921 -32.793  1.00  0.00     0.006 C 
ENDROOT
BRANCH   1   2
ATOM      2  C   UNL     1     -23.274   3.283 -33.827  1.00  0.00     0.053 C 
BRANCH   2   3
ATOM      3  C   UNL     1     -22.774   2.074 -34.557  1.00  0.00     0.041 C 
ATOM      4  O   UNL     1     -22.395   1.060 -33.915  1.00  0.00    -0.550 OA
ATOM      5  O   UNL     1     -22.695   2.081 -35.943  1.00  0.00    -0.550 OA
ENDBRANCH   2   3
ENDBRANCH   1   2
BRANCH   1   6
ATOM      6  C   UNL     1     -25.682   2.537 -33.452  1.00  0.00     0.000 C 
BRANCH   6   7
ATOM      7  C   UNL     1     -26.283   3.725 -34.211  1.00  0.00    -0.003 C 
ATOM      8  C   UNL     1     -27.796   3.792 -34.024  1.00  0.00     0.004 C 
ENDBRANCH   6   7
ENDBRANCH   1   6
TORSDOF 4
ENDMDL
MODEL 2
REMARK VINA RESULT:    -3.037      1.741      2.057
REMARK INTER + INTRA:          -3.895
REMARK INTER:                  -3.649
REMARK INTRA:                  -0.245
REMARK UNBOUND:                -0.148
REMARK SMILES CCCCCC(=O)[O-]
REMARK SMILES IDX 4 1 5 2 6 3 7 4 8 5 3 6 2 7 1 8
REMARK H PARENT
REMARK Flexibility Score: inf
ROOT
ATOM      1  C   UNL     1     -25.307   2.604 -33.460  1.00  0.00     0.006 C 
ENDROOT
BRANCH   1   2
ATOM      2  C   UNL     1     -24.364   2.584 -34.671  1.00  0.00     0.053 C 
BRANCH   2   3
ATOM      3  C   UNL     1     -23.173   3.468 -34.464  1.00  0.00     0.041 C 
ATOM      4  O   UNL     1     -22.160   3.033 -33.856  1.00  0.00    -0.550 OA
ATOM      5  O   UNL     1     -23.193   4.782 -34.914  1.00  0.00    -0.550 OA
ENDBRANCH   2   3
ENDBRANCH   1   2
BRANCH   1   6
ATOM      6  C   UNL     1     -26.551   3.469 -33.706  1.00  0.00     0.000 C 
BRANCH   6   7
ATOM      7  C   UNL     1     -26.374   4.868 -33.103  1.00  0.00    -0.003 C 
ATOM      8  C   UNL     1     -25.480   4.827 -31.867  1.00  0.00     0.004 C 
ENDBRANCH   6   7
ENDBRANCH   1   6
TORSDOF 4
ENDMDL
MODEL 3
REMARK VINA RESULT:    -2.999      0.098      1.148
REMARK INTER + INTRA:          -3.848
REMARK INTER:                  -3.694
REMARK INTRA:                  -0.155
REMARK UNBOUND:                -0.148
REMARK SMILES CCCCCC(=O)[O-]
REMARK SMILES IDX 4 1 5 2 6 3 7 4 8 5 3 6 2 7 1 8
REMARK H PARENT
REMARK Flexibility Score: inf
ROOT
ATOM      1  C   UNL     1     -24.398   2.902 -32.818  1.00  0.00     0.006 C 
ENDROOT
BRANCH   1   2
ATOM      2  C   UNL     1     -23.375   3.353 -33.869  1.00  0.00     0.053 C 
BRANCH   2   3
ATOM      3  C   UNL     1     -22.796   2.191 -34.617  1.00  0.00     0.041 C 
ATOM      4  O   UNL     1     -22.707   2.227 -35.872  1.00  0.00    -0.550 OA
ATOM      5  O   UNL     1     -22.386   1.055 -33.930  1.00  0.00    -0.550 OA
ENDBRANCH   2   3
ENDBRANCH   1   2
BRANCH   1   6
ATOM      6  C   UNL     1     -25.745   2.515 -33.446  1.00  0.00     0.000 C 
BRANCH   6   7
ATOM      7  C   UNL     1     -26.334   3.684 -34.244  1.00  0.00    -0.003 C 
ATOM      8  C   UNL     1     -27.834   3.818 -33.999  1.00  0.00     0.004 C 
ENDBRANCH   6   7
ENDBRANCH   1   6
TORSDOF 4
ENDMDL
MODEL 4
REMARK VINA RESULT:    -2.985      2.912      4.255
REMARK INTER + INTRA:          -3.831
REMARK INTER:                  -3.712
REMARK INTRA:                  -0.119
REMARK UNBOUND:                -0.148
REMARK SMILES CCCCCC(=O)[O-]
REMARK SMILES IDX 4 1 5 2 6 3 7 4 8 5 3 6 2 7 1 8
REMARK H PARENT
REMARK Flexibility Score: inf
ROOT
ATOM      1  C   UNL     1     -24.499   2.735 -32.832  1.00  0.00     0.006 C 
ENDROOT
BRANCH   1   2
ATOM      2  C   UNL     1     -25.729   2.615 -33.742  1.00  0.00     0.053 C 
BRANCH   2   3
ATOM      3  C   UNL     1     -26.718   3.712 -33.490  1.00  0.00     0.041 C 
ATOM      4  O   UNL     1     -26.363   4.757 -32.885  1.00  0.00    -0.550 OA
ATOM      5  O   UNL     1     -28.039   3.566 -33.894  1.00  0.00    -0.550 OA
ENDBRANCH   2   3
ENDBRANCH   1   2
BRANCH   1   6
ATOM      6  C   UNL     1     -23.232   3.107 -33.614  1.00  0.00     0.000 C 
BRANCH   6   7
ATOM      7  C   UNL     1     -22.724   1.916 -34.436  1.00  0.00    -0.003 C 
ATOM      8  C   UNL     1     -22.801   2.205 -35.932  1.00  0.00     0.004 C 
ENDBRANCH   6   7
ENDBRANCH   1   6
TORSDOF 4
ENDMDL
MODEL 5
REMARK VINA RESULT:    -2.966      1.323      1.817
REMARK INTER + INTRA:          -3.807
REMARK INTER:                  -3.594
REMARK INTRA:                  -0.213
REMARK UNBOUND:                -0.148
REMARK SMILES CCCCCC(=O)[O-]
REMARK SMILES IDX 4 1 5 2 6 3 7 4 8 5 3 6 2 7 1 8
REMARK H PARENT
REMARK Flexibility Score: inf
ROOT
ATOM      1  C   UNL     1     -24.043   2.717 -33.096  1.00  0.00     0.006 C 
ENDROOT
BRANCH   1   2
ATOM      2  C   UNL     1     -22.926   2.213 -34.021  1.00  0.00     0.053 C 
BRANCH   2   3
ATOM      3  C   UNL     1     -22.846   3.013 -35.285  1.00  0.00     0.041 C 
ATOM      4  O   UNL     1     -22.821   2.432 -36.401  1.00  0.00    -0.550 OA
ATOM      5  O   UNL     1     -22.767   4.399 -35.228  1.00  0.00    -0.550 OA
ENDBRANCH   2   3
ENDBRANCH   1   2
BRANCH   1   6
ATOM      6  C   UNL     1     -25.430   2.606 -33.746  1.00  0.00     0.000 C 
BRANCH   6   7
ATOM      7  C   UNL     1     -26.320   3.788 -33.345  1.00  0.00    -0.003 C 
ATOM      8  C   UNL     1     -25.588   4.732 -32.395  1.00  0.00     0.004 C 
ENDBRANCH   6   7
ENDBRANCH   1   6
TORSDOF 4
ENDMDL
MODEL 6
REMARK VINA RESULT:    -2.861     20.453     21.372
REMARK INTER + INTRA:          -3.678
REMARK INTER:                  -3.621
REMARK INTRA:                  -0.057
REMARK UNBOUND:                -0.148
REMARK SMILES CCCCCC(=O)[O-]
REMARK SMILES IDX 4 1 5 2 6 3 7 4 8 5 3 6 2 7 1 8
REMARK H PARENT
REMARK Flexibility Score: inf
ROOT
ATOM      1  C   UNL     1     -20.516 -12.899 -19.178  1.00  0.00     0.006 C 
ENDROOT
BRANCH   1   2
ATOM      2  C   UNL     1     -20.304 -11.379 -19.152  1.00  0.00     0.053 C 
BRANCH   2   3
ATOM      3  C   UNL     1     -19.054 -10.979 -19.875  1.00  0.00     0.041 C 
ATOM      4  O   UNL     1     -18.281 -11.859 -20.337  1.00  0.00    -0.550 OA
ATOM      5  O   UNL     1     -18.726  -9.636 -20.009  1.00  0.00    -0.550 OA
ENDBRANCH   2   3
ENDBRANCH   1   2
BRANCH   1   6
ATOM      6  C   UNL     1     -22.004 -13.278 -19.212  1.00  0.00     0.000 C 
BRANCH   6   7
ATOM      7  C   UNL     1     -22.185 -14.760 -19.558  1.00  0.00    -0.003 C 
ATOM      8  C   UNL     1     -23.187 -14.943 -20.694  1.00  0.00     0.004 C 
ENDBRANCH   6   7
ENDBRANCH   1   6
TORSDOF 4
ENDMDL
MODEL 7
REMARK VINA RESULT:    -2.851      2.806      3.857
REMARK INTER + INTRA:          -3.665
REMARK INTER:                  -3.473
REMARK INTRA:                  -0.193
REMARK UNBOUND:                -0.148
REMARK SMILES CCCCCC(=O)[O-]
REMARK SMILES IDX 4 1 5 2 6 3 7 4 8 5 3 6 2 7 1 8
REMARK H PARENT
REMARK Flexibility Score: inf
ROOT
ATOM      1  C   UNL     1     -24.632   2.516 -34.607  1.00  0.00     0.006 C 
ENDROOT
BRANCH   1   2
ATOM      2  C   UNL     1     -24.792   2.581 -33.082  1.00  0.00     0.053 C 
BRANCH   2   3
ATOM      3  C   UNL     1     -25.084   3.973 -32.612  1.00  0.00     0.041 C 
ATOM      4  O   UNL     1     -24.972   4.265 -31.392  1.00  0.00    -0.550 OA
ATOM      5  O   UNL     1     -25.512   4.938 -33.514  1.00  0.00    -0.550 OA
ENDBRANCH   2   3
ENDBRANCH   1   2
BRANCH   1   6
ATOM      6  C   UNL     1     -23.178   2.257 -35.028  1.00  0.00     0.000 C 
BRANCH   6   7
ATOM      7  C   UNL     1     -22.772   3.173 -36.189  1.00  0.00    -0.003 C 
ATOM      8  C   UNL     1     -22.803   4.640 -35.771  1.00  0.00     0.004 C 
ENDBRANCH   6   7
ENDBRANCH   1   6
TORSDOF 4
ENDMDL
MODEL 8
REMARK VINA RESULT:    -2.725      2.012      2.664
REMARK INTER + INTRA:          -3.509
REMARK INTER:                  -3.396
REMARK INTRA:                  -0.113
REMARK UNBOUND:                -0.148
REMARK SMILES CCCCCC(=O)[O-]
REMARK SMILES IDX 4 1 5 2 6 3 7 4 8 5 3 6 2 7 1 8
REMARK H PARENT
REMARK Flexibility Score: inf
ROOT
ATOM      1  C   UNL     1     -24.002   2.365 -34.981  1.00  0.00     0.006 C 
ENDROOT
BRANCH   1   2
ATOM      2  C   UNL     1     -22.814   2.232 -35.943  1.00  0.00     0.053 C 
BRANCH   2   3
ATOM      3  C   UNL     1     -22.722   3.398 -36.879  1.00  0.00     0.041 C 
ATOM      4  O   UNL     1     -22.416   4.538 -36.442  1.00  0.00    -0.550 OA
ATOM      5  O   UNL     1     -23.006   3.232 -38.229  1.00  0.00    -0.550 OA
ENDBRANCH   2   3
ENDBRANCH   1   2
BRANCH   1   6
ATOM      6  C   UNL     1     -23.561   2.763 -33.565  1.00  0.00     0.000 C 
BRANCH   6   7
ATOM      7  C   UNL     1     -24.774   3.004 -32.659  1.00  0.00    -0.003 C 
ATOM      8  C   UNL     1     -26.044   3.206 -33.482  1.00  0.00     0.004 C 
ENDBRANCH   6   7
ENDBRANCH   1   6
TORSDOF 4
ENDMDL
MODEL 9
REMARK VINA RESULT:    -2.650      2.665      3.901
REMARK INTER + INTRA:          -3.417
REMARK INTER:                  -3.208
REMARK INTRA:                  -0.208
REMARK UNBOUND:                -0.148
REMARK SMILES CCCCCC(=O)[O-]
REMARK SMILES IDX 4 1 5 2 6 3 7 4 8 5 3 6 2 7 1 8
REMARK H PARENT
REMARK Flexibility Score: inf
ROOT
ATOM      1  C   UNL     1     -23.509   4.434 -34.592  1.00  0.00     0.006 C 
ENDROOT
BRANCH   1   2
ATOM      2  C   UNL     1     -24.867   4.929 -34.075  1.00  0.00     0.053 C 
BRANCH   2   3
ATOM      3  C   UNL     1     -25.442   4.003 -33.046  1.00  0.00     0.041 C 
ATOM      4  O   UNL     1     -24.937   3.945 -31.894  1.00  0.00    -0.550 OA
ATOM      5  O   UNL     1     -26.513   3.181 -33.371  1.00  0.00    -0.550 OA
ENDBRANCH   2   3
ENDBRANCH   1   2
BRANCH   1   6
ATOM      6  C   UNL     1     -23.639   3.642 -35.900  1.00  0.00     0.000 C 
BRANCH   6   7
ATOM      7  C   UNL     1     -23.157   2.198 -35.718  1.00  0.00    -0.003 C 
ATOM      8  C   UNL     1     -22.633   1.967 -34.303  1.00  0.00     0.004 C 
ENDBRANCH   6   7
ENDBRANCH   1   6
TORSDOF 4
ENDMDL
