MODEL 1
REMARK VINA RESULT:   119.506      0.000      0.000
REMARK INTER + INTRA:         130.308
REMARK INTER:                 129.985
REMARK INTRA:                   0.323
REMARK UNBOUND:                 0.323
REMARK SMILES CC1(C)CC[C@@]2(C(=O)[O-])CC[C@]3(C)C(=CC[C@@H]4[C@]5(C)CC[C@@H](O)C(C)(C)[C@@H]5CC[C@]43C)[C@@H]2C1
REMARK SMILES IDX 6 1 5 2 10 3 32 4 4 5 11 6 14 7 33 8 2 9 12 10 15 11 1 12
REMARK SMILES IDX 3 13 13 14 30 15 16 16 17 17 29 18 31 19 18 20 28 21 27 22
REMARK SMILES IDX 20 23 19 24 24 25 21 26 22 27 25 28 26 29 7 30 8 31 9 32
REMARK SMILES IDX 23 33
REMARK H PARENT 23 34
REMARK Flexibility Score: inf
ROOT
ATOM      1  C   UNL     1      53.186 138.012   0.671  1.00  0.00     0.017 C 
ATOM      2  C   UNL     1      52.708 136.631   0.140  1.00  0.00     0.014 C 
ATOM      3  C   UNL     1      54.633 138.287   0.121  1.00  0.00     0.014 C 
ATOM      4  C   UNL     1      52.188 139.105   0.169  1.00  0.00     0.028 C 
ATOM      5  C   UNL     1      51.269 136.298   0.566  1.00  0.00     0.007 C 
ATOM      6  C   UNL     1      54.857 139.688  -0.498  1.00  0.00     0.013 C 
ATOM      7  C   UNL     1      52.686 140.506   0.549  1.00  0.00    -0.064 C 
ATOM      8  C   UNL     1      50.716 138.787   0.557  1.00  0.00     0.015 C 
ATOM      9  C   UNL     1      50.245 137.372   0.120  1.00  0.00    -0.035 C 
ATOM     10  C   UNL     1      54.144 140.860   0.261  1.00  0.00    -0.006 C 
ATOM     11  C   UNL     1      51.846 141.499   0.943  1.00  0.00    -0.027 C 
ATOM     12  C   UNL     1      48.891 137.071   0.801  1.00  0.00     0.011 C 
ATOM     13  C   UNL     1      50.024 137.314  -1.412  1.00  0.00     0.011 C 
ATOM     14  C   UNL     1      54.870 140.995   1.644  1.00  0.00     0.017 C 
ATOM     15  C   UNL     1      54.128 142.222  -0.596  1.00  0.00    -0.020 C 
ATOM     16  C   UNL     1      52.232 142.968   1.009  1.00  0.00     0.032 C 
ATOM     17  C   UNL     1      53.596 143.366   0.339  1.00  0.00     0.006 C 
ATOM     18  C   UNL     1      55.552 142.601  -1.071  1.00  0.00     0.008 C 
ATOM     19  C   UNL     1      53.190 142.048  -1.850  1.00  0.00     0.012 C 
ATOM     20  C   UNL     1      53.712 144.877  -0.171  1.00  0.00    -0.025 C 
ATOM     21  C   UNL     1      55.643 144.003  -1.679  1.00  0.00     0.005 C 
ATOM     22  C   UNL     1      55.177 145.151  -0.731  1.00  0.00     0.003 C 
ATOM     23  C   UNL     1      52.653 145.242  -1.258  1.00  0.00     0.010 C 
ATOM     24  C   UNL     1      53.449 145.760   1.094  1.00  0.00     0.012 C 
ATOM     25  C   UNL     1      55.379 146.584  -1.420  1.00  0.00    -0.006 C 
ATOM     26  C   UNL     1      52.823 146.649  -1.850  1.00  0.00     0.033 C 
ATOM     27  C   UNL     1      54.228 146.853  -2.443  1.00  0.00     0.120 C 
ATOM     28  C   UNL     1      55.473 147.720  -0.354  1.00  0.00     0.014 C 
ATOM     29  C   UNL     1      56.727 146.648  -2.200  1.00  0.00     0.014 C 
ENDROOT
BRANCH   1  30
ATOM     30  C   UNL     1      53.253 137.941   2.198  1.00  0.00     0.048 C 
ATOM     31  O   UNL     1      54.066 137.183   2.790  1.00  0.00    -0.550 OA
ATOM     32  O   UNL     1      52.368 138.695   2.960  1.00  0.00    -0.550 OA
ENDBRANCH   1  30
BRANCH  27  33
ATOM     33  O   UNL     1      54.338 148.125  -3.038  1.00  0.00    -0.393 OA
ATOM     34  H   UNL     1      54.563 148.781  -2.330  1.00  0.00     0.210 HD
ENDBRANCH  27  33
TORSDOF 2
ENDMDL
MODEL 2
REMARK VINA RESULT:   121.514      1.795      8.300
REMARK INTER + INTRA:         132.492
REMARK INTER:                 132.162
REMARK INTRA:                   0.330
REMARK UNBOUND:                 0.323
REMARK SMILES CC1(C)CC[C@@]2(C(=O)[O-])CC[C@]3(C)C(=CC[C@@H]4[C@]5(C)CC[C@@H](O)C(C)(C)[C@@H]5CC[C@]43C)[C@@H]2C1
REMARK SMILES IDX 6 1 5 2 10 3 32 4 4 5 11 6 14 7 33 8 2 9 12 10 15 11 1 12
REMARK SMILES IDX 3 13 13 14 30 15 16 16 17 17 29 18 31 19 18 20 28 21 27 22
REMARK SMILES IDX 20 23 19 24 24 25 21 26 22 27 25 28 26 29 7 30 8 31 9 32
REMARK SMILES IDX 23 33
REMARK H PARENT 23 34
REMARK Flexibility Score: inf
ROOT
ATOM      1  C   UNL     1      53.725 146.556  -0.601  1.00  0.00     0.017 C 
ATOM      2  C   UNL     1      53.152 147.740  -1.430  1.00  0.00     0.014 C 
ATOM      3  C   UNL     1      52.699 146.196   0.533  1.00  0.00     0.014 C 
ATOM      4  C   UNL     1      53.936 145.340  -1.561  1.00  0.00     0.028 C 
ATOM      5  C   UNL     1      54.053 148.125  -2.615  1.00  0.00     0.007 C 
ATOM      6  C   UNL     1      52.367 144.691   0.680  1.00  0.00     0.013 C 
ATOM      7  C   UNL     1      54.372 144.098  -0.771  1.00  0.00    -0.064 C 
ATOM      8  C   UNL     1      54.821 145.700  -2.788  1.00  0.00     0.015 C 
ATOM      9  C   UNL     1      54.320 146.941  -3.578  1.00  0.00    -0.035 C 
ATOM     10  C   UNL     1      53.590 143.729   0.488  1.00  0.00    -0.006 C 
ATOM     11  C   UNL     1      55.286 143.213  -1.247  1.00  0.00    -0.027 C 
ATOM     12  C   UNL     1      55.417 147.363  -4.581  1.00  0.00     0.011 C 
ATOM     13  C   UNL     1      53.047 146.600  -4.391  1.00  0.00     0.011 C 
ATOM     14  C   UNL     1      54.539 143.974   1.712  1.00  0.00     0.017 C 
ATOM     15  C   UNL     1      53.138 142.194   0.317  1.00  0.00    -0.020 C 
ATOM     16  C   UNL     1      55.506 141.822  -0.673  1.00  0.00     0.032 C 
ATOM     17  C   UNL     1      54.436 141.310   0.356  1.00  0.00     0.006 C 
ATOM     18  C   UNL     1      52.211 141.751   1.475  1.00  0.00     0.008 C 
ATOM     19  C   UNL     1      52.382 142.013  -1.053  1.00  0.00     0.012 C 
ATOM     20  C   UNL     1      54.268 139.723   0.462  1.00  0.00    -0.025 C 
ATOM     21  C   UNL     1      51.944 140.245   1.506  1.00  0.00     0.005 C 
ATOM     22  C   UNL     1      53.225 139.361   1.610  1.00  0.00     0.003 C 
ATOM     23  C   UNL     1      53.828 139.059  -0.881  1.00  0.00     0.010 C 
ATOM     24  C   UNL     1      55.687 139.184   0.840  1.00  0.00     0.012 C 
ATOM     25  C   UNL     1      52.847 137.808   1.713  1.00  0.00    -0.006 C 
ATOM     26  C   UNL     1      53.543 137.555  -0.771  1.00  0.00     0.033 C 
ATOM     27  C   UNL     1      52.481 137.251   0.299  1.00  0.00     0.120 C 
ATOM     28  C   UNL     1      53.998 136.984   2.371  1.00  0.00     0.014 C 
ATOM     29  C   UNL     1      51.613 137.589   2.639  1.00  0.00     0.014 C 
ENDROOT
BRANCH   1  30
ATOM     30  C   UNL     1      55.030 147.015   0.052  1.00  0.00     0.048 C 
ATOM     31  O   UNL     1      55.035 147.700   1.110  1.00  0.00    -0.550 OA
ATOM     32  O   UNL     1      56.245 146.713  -0.553  1.00  0.00    -0.550 OA
ENDBRANCH   1  30
BRANCH  27  33
ATOM     33  O   UNL     1      52.189 135.873   0.334  1.00  0.00    -0.393 OA
ATOM     34  H   UNL     1      53.008 135.375   0.087  1.00  0.00     0.210 HD
ENDBRANCH  27  33
TORSDOF 2
ENDMDL
