MODEL 1
REMARK VINA RESULT:    -5.145      0.000      0.000
REMARK INTER + INTRA:          -6.188
REMARK INTER:                  -5.896
REMARK INTRA:                  -0.292
REMARK UNBOUND:                -0.292
REMARK SMILES COc1ccc(C(C)=O)c(O)c1
REMARK SMILES IDX 6 1 10 2 12 3 3 4 4 5 5 6 7 7 8 8 9 9 11 10 2 12 1 13
REMARK H PARENT 11 11
REMARK Flexibility Score: inf
ROOT
ATOM      1  C   UNL     1      53.376  58.362   8.296  1.00  0.00     0.059 A 
ATOM      2  C   UNL     1      52.700  58.133   7.075  1.00  0.00     0.130 A 
ATOM      3  C   UNL     1      51.325  57.854   7.079  1.00  0.00     0.093 A 
ATOM      4  C   UNL     1      50.609  57.782   8.277  1.00  0.00     0.122 A 
ATOM      5  C   UNL     1      51.283  57.991   9.491  1.00  0.00     0.047 A 
ATOM      6  C   UNL     1      52.651  58.275   9.498  1.00  0.00     0.019 A 
ENDROOT
BRANCH   1   7
ATOM      7  C   UNL     1      54.829  58.681   8.358  1.00  0.00     0.163 C 
ATOM      8  C   UNL     1      55.342  60.022   8.784  1.00  0.00     0.093 C 
ATOM      9  O   UNL     1      55.669  57.794   8.042  1.00  0.00    -0.294 OA
ENDBRANCH   1   7
BRANCH   2  10
ATOM     10  O   UNL     1      53.386  58.157   5.862  1.00  0.00    -0.507 OA
ATOM     11  H   UNL     1      52.934  58.436   4.999  1.00  0.00     0.293 HD
ENDBRANCH   2  10
BRANCH   4  12
ATOM     12  O   UNL     1      49.236  57.497   8.218  1.00  0.00    -0.497 OA
ATOM     13  C   UNL     1      48.214  58.483   8.122  1.00  0.00     0.278 C 
ENDBRANCH   4  12
TORSDOF 3
ENDMDL
MODEL 2
REMARK VINA RESULT:    -5.110      9.579     11.174
REMARK INTER + INTRA:          -6.149
REMARK INTER:                  -5.868
REMARK INTRA:                  -0.281
REMARK UNBOUND:                -0.292
REMARK SMILES COc1ccc(C(C)=O)c(O)c1
REMARK SMILES IDX 6 1 10 2 12 3 3 4 4 5 5 6 7 7 8 8 9 9 11 10 2 12 1 13
REMARK H PARENT 11 11
REMARK Flexibility Score: inf
ROOT
ATOM      1  C   UNL     1      46.662  66.869   3.597  1.00  0.00     0.059 A 
ATOM      2  C   UNL     1      47.870  66.589   2.918  1.00  0.00     0.130 A 
ATOM      3  C   UNL     1      48.094  65.310   2.387  1.00  0.00     0.093 A 
ATOM      4  C   UNL     1      47.145  64.294   2.534  1.00  0.00     0.122 A 
ATOM      5  C   UNL     1      45.952  64.566   3.225  1.00  0.00     0.047 A 
ATOM      6  C   UNL     1      45.718  65.838   3.752  1.00  0.00     0.019 A 
ENDROOT
BRANCH   1   7
ATOM      7  C   UNL     1      46.357  68.210   4.166  1.00  0.00     0.163 C 
ATOM      8  C   UNL     1      44.956  68.681   4.412  1.00  0.00     0.093 C 
ATOM      9  O   UNL     1      47.306  68.988   4.456  1.00  0.00    -0.294 OA
ENDBRANCH   1   7
BRANCH   2  10
ATOM     10  O   UNL     1      48.859  67.563   2.785  1.00  0.00    -0.507 OA
ATOM     11  H   UNL     1      49.109  67.950   1.882  1.00  0.00     0.293 HD
ENDBRANCH   2  10
BRANCH   4  12
ATOM     12  O   UNL     1      47.425  63.034   1.984  1.00  0.00    -0.497 OA
ATOM     13  C   UNL     1      47.617  61.848   2.747  1.00  0.00     0.278 C 
ENDBRANCH   4  12
TORSDOF 3
ENDMDL
MODEL 3
REMARK VINA RESULT:    -5.090      8.417      9.369
REMARK INTER + INTRA:          -6.126
REMARK INTER:                  -5.794
REMARK INTRA:                  -0.331
REMARK UNBOUND:                -0.292
REMARK SMILES COc1ccc(C(C)=O)c(O)c1
REMARK SMILES IDX 6 1 10 2 12 3 3 4 4 5 5 6 7 7 8 8 9 9 11 10 2 12 1 13
REMARK H PARENT 11 11
REMARK Flexibility Score: inf
ROOT
ATOM      1  C   UNL     1      53.297  59.201  -0.952  1.00  0.00     0.059 A 
ATOM      2  C   UNL     1      52.185  59.216  -0.078  1.00  0.00     0.130 A 
ATOM      3  C   UNL     1      51.461  60.402   0.114  1.00  0.00     0.093 A 
ATOM      4  C   UNL     1      51.831  61.583  -0.536  1.00  0.00     0.122 A 
ATOM      5  C   UNL     1      52.946  61.575  -1.390  1.00  0.00     0.047 A 
ATOM      6  C   UNL     1      53.670  60.397  -1.591  1.00  0.00     0.019 A 
ENDROOT
BRANCH   1   7
ATOM      7  C   UNL     1      54.094  57.972  -1.211  1.00  0.00     0.163 C 
ATOM      8  C   UNL     1      55.565  57.894  -0.939  1.00  0.00     0.093 C 
ATOM      9  O   UNL     1      53.519  56.951  -1.677  1.00  0.00    -0.294 OA
ENDBRANCH   1   7
BRANCH   2  10
ATOM     10  O   UNL     1      51.808  58.069   0.619  1.00  0.00    -0.507 OA
ATOM     11  H   UNL     1      50.845  57.756   0.650  1.00  0.00     0.293 HD
ENDBRANCH   2  10
BRANCH   4  12
ATOM     12  O   UNL     1      51.069  62.739  -0.303  1.00  0.00    -0.497 OA
ATOM     13  C   UNL     1      49.959  62.806   0.586  1.00  0.00     0.278 C 
ENDBRANCH   4  12
TORSDOF 3
ENDMDL
MODEL 4
REMARK VINA RESULT:    -5.084      1.585      1.721
REMARK INTER + INTRA:          -6.119
REMARK INTER:                  -5.809
REMARK INTRA:                  -0.311
REMARK UNBOUND:                -0.292
REMARK SMILES COc1ccc(C(C)=O)c(O)c1
REMARK SMILES IDX 6 1 10 2 12 3 3 4 4 5 5 6 7 7 8 8 9 9 11 10 2 12 1 13
REMARK H PARENT 11 11
REMARK Flexibility Score: inf
ROOT
ATOM      1  C   UNL     1      53.410  58.965   8.021  1.00  0.00     0.059 A 
ATOM      2  C   UNL     1      52.903  59.908   7.096  1.00  0.00     0.130 A 
ATOM      3  C   UNL     1      51.518  60.085   6.966  1.00  0.00     0.093 A 
ATOM      4  C   UNL     1      50.622  59.329   7.726  1.00  0.00     0.122 A 
ATOM      5  C   UNL     1      51.123  58.379   8.631  1.00  0.00     0.047 A 
ATOM      6  C   UNL     1      52.501  58.199   8.772  1.00  0.00     0.019 A 
ENDROOT
BRANCH   1   7
ATOM      7  C   UNL     1      54.869  58.743   8.219  1.00  0.00     0.163 C 
ATOM      8  C   UNL     1      55.534  57.438   7.907  1.00  0.00     0.093 C 
ATOM      9  O   UNL     1      55.580  59.683   8.666  1.00  0.00    -0.294 OA
ENDBRANCH   1   7
BRANCH   2  10
ATOM     10  O   UNL     1      53.763  60.653   6.291  1.00  0.00    -0.507 OA
ATOM     11  H   UNL     1      54.085  60.311   5.393  1.00  0.00     0.293 HD
ENDBRANCH   2  10
BRANCH   4  12
ATOM     12  O   UNL     1      49.247  59.549   7.551  1.00  0.00    -0.497 OA
ATOM     13  C   UNL     1      48.227  58.652   7.981  1.00  0.00     0.278 C 
ENDBRANCH   4  12
TORSDOF 3
ENDMDL
MODEL 5
REMARK VINA RESULT:    -5.080      9.663     11.849
REMARK INTER + INTRA:          -6.115
REMARK INTER:                  -5.775
REMARK INTRA:                  -0.340
REMARK UNBOUND:                -0.292
REMARK SMILES COc1ccc(C(C)=O)c(O)c1
REMARK SMILES IDX 6 1 10 2 12 3 3 4 4 5 5 6 7 7 8 8 9 9 11 10 2 12 1 13
REMARK H PARENT 11 11
REMARK Flexibility Score: inf
ROOT
ATOM      1  C   UNL     1      45.362  66.923   3.822  1.00  0.00     0.059 A 
ATOM      2  C   UNL     1      45.268  65.516   3.920  1.00  0.00     0.130 A 
ATOM      3  C   UNL     1      46.425  64.729   3.833  1.00  0.00     0.093 A 
ATOM      4  C   UNL     1      47.679  65.314   3.632  1.00  0.00     0.122 A 
ATOM      5  C   UNL     1      47.772  66.710   3.516  1.00  0.00     0.047 A 
ATOM      6  C   UNL     1      46.625  67.503   3.607  1.00  0.00     0.019 A 
ENDROOT
BRANCH   1   7
ATOM      7  C   UNL     1      44.174  67.814   3.925  1.00  0.00     0.163 C 
ATOM      8  C   UNL     1      44.151  69.027   4.803  1.00  0.00     0.093 C 
ATOM      9  O   UNL     1      43.142  67.546   3.251  1.00  0.00    -0.294 OA
ENDBRANCH   1   7
BRANCH   2  10
ATOM     10  O   UNL     1      44.031  64.891   4.080  1.00  0.00    -0.507 OA
ATOM     11  H   UNL     1      43.462  65.037   4.906  1.00  0.00     0.293 HD
ENDBRANCH   2  10
BRANCH   4  12
ATOM     12  O   UNL     1      48.801  64.475   3.551  1.00  0.00    -0.497 OA
ATOM     13  C   UNL     1      49.026  63.348   4.391  1.00  0.00     0.278 C 
ENDBRANCH   4  12
TORSDOF 3
ENDMDL
MODEL 6
REMARK VINA RESULT:    -4.994     10.010     11.271
REMARK INTER + INTRA:          -6.016
REMARK INTER:                  -5.695
REMARK INTRA:                  -0.320
REMARK UNBOUND:                -0.292
REMARK SMILES COc1ccc(C(C)=O)c(O)c1
REMARK SMILES IDX 6 1 10 2 12 3 3 4 4 5 5 6 7 7 8 8 9 9 11 10 2 12 1 13
REMARK H PARENT 11 11
REMARK Flexibility Score: inf
ROOT
ATOM      1  C   UNL     1      45.333  66.095   3.663  1.00  0.00     0.059 A 
ATOM      2  C   UNL     1      46.057  64.881   3.712  1.00  0.00     0.130 A 
ATOM      3  C   UNL     1      45.391  63.661   3.522  1.00  0.00     0.093 A 
ATOM      4  C   UNL     1      44.012  63.622   3.301  1.00  0.00     0.122 A 
ATOM      5  C   UNL     1      43.288  64.826   3.270  1.00  0.00     0.047 A 
ATOM      6  C   UNL     1      43.943  66.046   3.453  1.00  0.00     0.019 A 
ENDROOT
BRANCH   1   7
ATOM      7  C   UNL     1      45.984  67.422   3.839  1.00  0.00     0.163 C 
ATOM      8  C   UNL     1      45.289  68.580   4.487  1.00  0.00     0.093 C 
ATOM      9  O   UNL     1      47.165  67.589   3.430  1.00  0.00    -0.294 OA
ENDBRANCH   1   7
BRANCH   2  10
ATOM     10  O   UNL     1      47.427  64.875   3.971  1.00  0.00    -0.507 OA
ATOM     11  H   UNL     1      48.082  64.395   3.365  1.00  0.00     0.293 HD
ENDBRANCH   2  10
BRANCH   4  12
ATOM     12  O   UNL     1      43.400  62.372   3.120  1.00  0.00    -0.497 OA
ATOM     13  C   UNL     1      43.605  61.246   3.967  1.00  0.00     0.278 C 
ENDBRANCH   4  12
TORSDOF 3
ENDMDL
MODEL 7
REMARK VINA RESULT:    -4.960      2.869      3.360
REMARK INTER + INTRA:          -5.977
REMARK INTER:                  -5.645
REMARK INTRA:                  -0.332
REMARK UNBOUND:                -0.292
REMARK SMILES COc1ccc(C(C)=O)c(O)c1
REMARK SMILES IDX 6 1 10 2 12 3 3 4 4 5 5 6 7 7 8 8 9 9 11 10 2 12 1 13
REMARK H PARENT 11 11
REMARK Flexibility Score: inf
ROOT
ATOM      1  C   UNL     1      53.599  59.980   7.879  1.00  0.00     0.059 A 
ATOM      2  C   UNL     1      52.893  60.812   8.779  1.00  0.00     0.130 A 
ATOM      3  C   UNL     1      51.673  61.385   8.393  1.00  0.00     0.093 A 
ATOM      4  C   UNL     1      51.145  61.162   7.118  1.00  0.00     0.122 A 
ATOM      5  C   UNL     1      51.853  60.351   6.216  1.00  0.00     0.047 A 
ATOM      6  C   UNL     1      53.067  59.771   6.594  1.00  0.00     0.019 A 
ENDROOT
BRANCH   1   7
ATOM      7  C   UNL     1      54.888  59.328   8.236  1.00  0.00     0.163 C 
ATOM      8  C   UNL     1      55.194  57.905   7.886  1.00  0.00     0.093 C 
ATOM      9  O   UNL     1      55.764  59.991   8.856  1.00  0.00    -0.294 OA
ENDBRANCH   1   7
BRANCH   2  10
ATOM     10  O   UNL     1      53.405  61.092  10.046  1.00  0.00    -0.507 OA
ATOM     11  H   UNL     1      54.346  61.446  10.175  1.00  0.00     0.293 HD
ENDBRANCH   2  10
BRANCH   4  12
ATOM     12  O   UNL     1      49.921  61.764   6.787  1.00  0.00    -0.497 OA
ATOM     13  C   UNL     1      48.734  61.048   6.464  1.00  0.00     0.278 C 
ENDBRANCH   4  12
TORSDOF 3
ENDMDL
MODEL 8
REMARK VINA RESULT:    -4.934      8.379      9.292
REMARK INTER + INTRA:          -5.947
REMARK INTER:                  -5.615
REMARK INTRA:                  -0.332
REMARK UNBOUND:                -0.292
REMARK SMILES COc1ccc(C(C)=O)c(O)c1
REMARK SMILES IDX 6 1 10 2 12 3 3 4 4 5 5 6 7 7 8 8 9 9 11 10 2 12 1 13
REMARK H PARENT 11 11
REMARK Flexibility Score: inf
ROOT
ATOM      1  C   UNL     1      52.628  58.716  -0.926  1.00  0.00     0.059 A 
ATOM      2  C   UNL     1      51.591  59.092  -1.811  1.00  0.00     0.130 A 
ATOM      3  C   UNL     1      50.644  60.048  -1.413  1.00  0.00     0.093 A 
ATOM      4  C   UNL     1      50.697  60.627  -0.142  1.00  0.00     0.122 A 
ATOM      5  C   UNL     1      51.716  60.240   0.745  1.00  0.00     0.047 A 
ATOM      6  C   UNL     1      52.667  59.293   0.355  1.00  0.00     0.019 A 
ENDROOT
BRANCH   1   7
ATOM      7  C   UNL     1      53.673  57.722  -1.296  1.00  0.00     0.163 C 
ATOM      8  C   UNL     1      55.122  57.919  -0.972  1.00  0.00     0.093 C 
ATOM      9  O   UNL     1      53.336  56.671  -1.905  1.00  0.00    -0.294 OA
ENDBRANCH   1   7
BRANCH   2  10
ATOM     10  O   UNL     1      51.479  58.509  -3.073  1.00  0.00    -0.507 OA
ATOM     11  H   UNL     1      52.291  58.328  -3.650  1.00  0.00     0.293 HD
ENDBRANCH   2  10
BRANCH   4  12
ATOM     12  O   UNL     1      49.721  61.575   0.201  1.00  0.00    -0.497 OA
ATOM     13  C   UNL     1      49.996  62.939   0.505  1.00  0.00     0.278 C 
ENDBRANCH   4  12
TORSDOF 3
ENDMDL
MODEL 9
REMARK VINA RESULT:    -4.932      9.734     11.107
REMARK INTER + INTRA:          -5.945
REMARK INTER:                  -5.615
REMARK INTRA:                  -0.330
REMARK UNBOUND:                -0.292
REMARK SMILES COc1ccc(C(C)=O)c(O)c1
REMARK SMILES IDX 6 1 10 2 12 3 3 4 4 5 5 6 7 7 8 8 9 9 11 10 2 12 1 13
REMARK H PARENT 11 11
REMARK Flexibility Score: inf
ROOT
ATOM      1  C   UNL     1      47.469  65.705   3.300  1.00  0.00     0.059 A 
ATOM      2  C   UNL     1      47.624  67.111   3.285  1.00  0.00     0.130 A 
ATOM      3  C   UNL     1      46.552  67.937   3.653  1.00  0.00     0.093 A 
ATOM      4  C   UNL     1      45.318  67.394   4.021  1.00  0.00     0.122 A 
ATOM      5  C   UNL     1      45.156  65.998   4.018  1.00  0.00     0.047 A 
ATOM      6  C   UNL     1      46.220  65.167   3.659  1.00  0.00     0.019 A 
ENDROOT
BRANCH   1   7
ATOM      7  C   UNL     1      48.572  64.774   2.939  1.00  0.00     0.163 C 
ATOM      8  C   UNL     1      49.110  63.753   3.894  1.00  0.00     0.093 C 
ATOM      9  O   UNL     1      49.082  64.839   1.787  1.00  0.00    -0.294 OA
ENDBRANCH   1   7
BRANCH   2  10
ATOM     10  O   UNL     1      48.826  67.693   2.886  1.00  0.00    -0.507 OA
ATOM     11  H   UNL     1      49.626  67.134   2.613  1.00  0.00     0.293 HD
ENDBRANCH   2  10
BRANCH   4  12
ATOM     12  O   UNL     1      44.282  68.271   4.376  1.00  0.00    -0.497 OA
ATOM     13  C   UNL     1      42.983  67.857   4.787  1.00  0.00     0.278 C 
ENDBRANCH   4  12
TORSDOF 3
ENDMDL
