MODEL 1
REMARK VINA RESULT:    -6.096      0.000      0.000
REMARK INTER + INTRA:          -7.882
REMARK INTER:                  -7.343
REMARK INTRA:                  -0.539
REMARK UNBOUND:                -0.539
REMARK SMILES O=c1ccn([C@H]2O[C@@H](CO)[C@H](O)[C@@H]2O)c(=O)[nH]1
REMARK SMILES IDX 6 1 13 2 11 3 8 4 7 5 5 6 3 7 4 8 2 9 17 10 1 11 15 12 16 14
REMARK SMILES IDX 14 15 12 17 9 19 10 20
REMARK H PARENT 17 13 14 16 12 18 10 21
REMARK Flexibility Score: inf
ROOT
ATOM      1  C   UNL     1      16.235  14.367  11.637  1.00  0.00     0.255 C 
ATOM      2  C   UNL     1      15.474  15.541  10.997  1.00  0.00     0.196 C 
ATOM      3  C   UNL     1      15.648  15.314   9.506  1.00  0.00     0.179 C 
ATOM      4  C   UNL     1      16.824  14.346   9.449  1.00  0.00     0.178 C 
ATOM      5  O   UNL     1      16.791  13.561  10.618  1.00  0.00    -0.347 OA
ENDROOT
BRANCH   1   6
ATOM      6  N   UNL     1      15.343  13.562  12.498  1.00  0.00    -0.271 N 
ATOM      7  C   UNL     1      13.186  12.579  12.866  1.00  0.00     0.090 A 
ATOM      8  C   UNL     1      14.054  13.347  12.095  1.00  0.00     0.099 A 
ATOM      9  C   UNL     1      13.659  12.025  14.049  1.00  0.00     0.253 A 
ATOM     10  N   UNL     1      14.946  12.235  14.427  1.00  0.00    -0.274 N 
ATOM     11  O   UNL     1      12.895  11.326  14.767  1.00  0.00    -0.269 OA
ATOM     12  C   UNL     1      15.790  12.987  13.666  1.00  0.00     0.330 A 
ATOM     13  H   UNL     1      15.298  11.807  15.315  1.00  0.00     0.175 HD
ATOM     14  O   UNL     1      16.983  13.141  14.044  1.00  0.00    -0.248 OA
ENDBRANCH   1   6
BRANCH   2  15
ATOM     15  O   UNL     1      15.993  16.782  11.421  1.00  0.00    -0.386 OA
ATOM     16  H   UNL     1      16.976  16.766  11.289  1.00  0.00     0.211 HD
ENDBRANCH   2  15
BRANCH   3  17
ATOM     17  O   UNL     1      15.936  16.497   8.806  1.00  0.00    -0.387 OA
ATOM     18  H   UNL     1      15.937  17.226   9.480  1.00  0.00     0.211 HD
ENDBRANCH   3  17
BRANCH   4  19
ATOM     19  C   UNL     1      16.776  13.433   8.217  1.00  0.00     0.191 C 
BRANCH  19  20
ATOM     20  O   UNL     1      15.708  13.785   7.379  1.00  0.00    -0.394 OA
ATOM     21  H   UNL     1      15.303  12.938   7.059  1.00  0.00     0.210 HD
ENDBRANCH  19  20
ENDBRANCH   4  19
TORSDOF 5
ENDMDL
MODEL 2
REMARK VINA RESULT:    -5.924      1.743      1.898
REMARK INTER + INTRA:          -7.674
REMARK INTER:                  -7.140
REMARK INTRA:                  -0.535
REMARK UNBOUND:                -0.539
REMARK SMILES O=c1ccn([C@H]2O[C@@H](CO)[C@H](O)[C@@H]2O)c(=O)[nH]1
REMARK SMILES IDX 6 1 13 2 11 3 8 4 7 5 5 6 3 7 4 8 2 9 17 10 1 11 15 12 16 14
REMARK SMILES IDX 14 15 12 17 9 19 10 20
REMARK H PARENT 17 13 14 16 12 18 10 21
REMARK Flexibility Score: inf
ROOT
ATOM      1  C   UNL     1      16.501  14.379  12.836  1.00  0.00     0.255 C 
ATOM      2  C   UNL     1      15.353  14.863  11.933  1.00  0.00     0.196 C 
ATOM      3  C   UNL     1      15.679  14.256  10.579  1.00  0.00     0.179 C 
ATOM      4  C   UNL     1      17.152  13.892  10.721  1.00  0.00     0.178 C 
ATOM      5  O   UNL     1      17.391  13.589  12.075  1.00  0.00    -0.347 OA
ENDROOT
BRANCH   1   6
ATOM      6  N   UNL     1      15.983  13.608  13.986  1.00  0.00    -0.271 N 
ATOM      7  C   UNL     1      14.506  11.913  14.820  1.00  0.00     0.090 A 
ATOM      8  C   UNL     1      15.007  12.675  13.769  1.00  0.00     0.099 A 
ATOM      9  C   UNL     1      15.024  12.111  16.094  1.00  0.00     0.253 A 
ATOM     10  N   UNL     1      16.004  13.031  16.290  1.00  0.00    -0.274 N 
ATOM     11  O   UNL     1      14.588  11.436  17.064  1.00  0.00    -0.269 OA
ATOM     12  C   UNL     1      16.491  13.771  15.254  1.00  0.00     0.330 A 
ATOM     13  H   UNL     1      16.396  13.168  17.250  1.00  0.00     0.175 HD
ATOM     14  O   UNL     1      17.414  14.602  15.477  1.00  0.00    -0.248 OA
ENDBRANCH   1   6
BRANCH   2  15
ATOM     15  O   UNL     1      15.287  16.271  11.894  1.00  0.00    -0.386 OA
ATOM     16  H   UNL     1      14.508  16.528  11.334  1.00  0.00     0.211 HD
ENDBRANCH   2  15
BRANCH   3  17
ATOM     17  O   UNL     1      15.483  15.156   9.520  1.00  0.00    -0.387 OA
ATOM     18  H   UNL     1      16.327  15.162   8.998  1.00  0.00     0.211 HD
ENDBRANCH   3  17
BRANCH   4  19
ATOM     19  C   UNL     1      17.549  12.694   9.850  1.00  0.00     0.191 C 
BRANCH  19  20
ATOM     20  O   UNL     1      17.148  12.892   8.521  1.00  0.00    -0.394 OA
ATOM     21  H   UNL     1      16.250  13.314   8.551  1.00  0.00     0.210 HD
ENDBRANCH  19  20
ENDBRANCH   4  19
TORSDOF 5
ENDMDL
MODEL 3
REMARK VINA RESULT:    -5.754      4.341      6.370
REMARK INTER + INTRA:          -7.470
REMARK INTER:                  -7.107
REMARK INTRA:                  -0.363
REMARK UNBOUND:                -0.539
REMARK SMILES O=c1ccn([C@H]2O[C@@H](CO)[C@H](O)[C@@H]2O)c(=O)[nH]1
REMARK SMILES IDX 6 1 13 2 11 3 8 4 7 5 5 6 3 7 4 8 2 9 17 10 1 11 15 12 16 14
REMARK SMILES IDX 14 15 12 17 9 19 10 20
REMARK H PARENT 17 13 14 16 12 18 10 21
REMARK Flexibility Score: inf
ROOT
ATOM      1  C   UNL     1      14.381  17.190   6.489  1.00  0.00     0.255 C 
ATOM      2  C   UNL     1      13.733  18.148   7.504  1.00  0.00     0.196 C 
ATOM      3  C   UNL     1      12.250  18.055   7.190  1.00  0.00     0.179 C 
ATOM      4  C   UNL     1      12.240  17.446   5.793  1.00  0.00     0.178 C 
ATOM      5  O   UNL     1      13.375  16.620   5.677  1.00  0.00    -0.347 OA
ENDROOT
BRANCH   1   6
ATOM      6  N   UNL     1      15.150  16.130   7.175  1.00  0.00    -0.271 N 
ATOM      7  C   UNL     1      15.521  14.815   9.147  1.00  0.00     0.090 A 
ATOM      8  C   UNL     1      14.836  15.820   8.470  1.00  0.00     0.099 A 
ATOM      9  C   UNL     1      16.524  14.125   8.477  1.00  0.00     0.253 A 
ATOM     10  N   UNL     1      16.812  14.434   7.187  1.00  0.00    -0.274 N 
ATOM     11  O   UNL     1      17.161  13.211   9.066  1.00  0.00    -0.269 OA
ATOM     12  C   UNL     1      16.135  15.418   6.531  1.00  0.00     0.330 A 
ATOM     13  H   UNL     1      17.563  13.904   6.686  1.00  0.00     0.175 HD
ATOM     14  O   UNL     1      16.423  15.661   5.327  1.00  0.00    -0.248 OA
ENDBRANCH   1   6
BRANCH   2  15
ATOM     15  O   UNL     1      14.235  19.458   7.369  1.00  0.00    -0.386 OA
ATOM     16  H   UNL     1      15.150  19.479   7.754  1.00  0.00     0.211 HD
ENDBRANCH   2  15
BRANCH   3  17
ATOM     17  O   UNL     1      11.615  19.308   7.196  1.00  0.00    -0.387 OA
ATOM     18  H   UNL     1      10.931  19.278   6.478  1.00  0.00     0.211 HD
ENDBRANCH   3  17
BRANCH   4  19
ATOM     19  C   UNL     1      10.976  16.620   5.520  1.00  0.00     0.191 C 
BRANCH  19  20
ATOM     20  O   UNL     1      10.563  15.948   6.679  1.00  0.00    -0.394 OA
ATOM     21  H   UNL     1      10.079  15.134   6.382  1.00  0.00     0.210 HD
ENDBRANCH  19  20
ENDBRANCH   4  19
TORSDOF 5
ENDMDL
MODEL 4
REMARK VINA RESULT:    -5.717      2.096      5.448
REMARK INTER + INTRA:          -7.426
REMARK INTER:                  -6.932
REMARK INTRA:                  -0.494
REMARK UNBOUND:                -0.539
REMARK SMILES O=c1ccn([C@H]2O[C@@H](CO)[C@H](O)[C@@H]2O)c(=O)[nH]1
REMARK SMILES IDX 6 1 13 2 11 3 8 4 7 5 5 6 3 7 4 8 2 9 17 10 1 11 15 12 16 14
REMARK SMILES IDX 14 15 12 17 9 19 10 20
REMARK H PARENT 17 13 14 16 12 18 10 21
REMARK Flexibility Score: inf
ROOT
ATOM      1  C   UNL     1      15.749  14.232  12.466  1.00  0.00     0.255 C 
ATOM      2  C   UNL     1      17.009  14.129  13.343  1.00  0.00     0.196 C 
ATOM      3  C   UNL     1      16.695  12.986  14.292  1.00  0.00     0.179 C 
ATOM      4  C   UNL     1      15.180  12.862  14.179  1.00  0.00     0.178 C 
ATOM      5  O   UNL     1      14.813  13.257  12.878  1.00  0.00    -0.347 OA
ENDROOT
BRANCH   1   6
ATOM      6  N   UNL     1      16.080  14.054  11.036  1.00  0.00    -0.271 N 
ATOM      7  C   UNL     1      17.592  13.223   9.370  1.00  0.00     0.090 A 
ATOM      8  C   UNL     1      17.250  13.429  10.703  1.00  0.00     0.099 A 
ATOM      9  C   UNL     1      16.716  13.655   8.382  1.00  0.00     0.253 A 
ATOM     10  N   UNL     1      15.551  14.261   8.730  1.00  0.00    -0.274 N 
ATOM     11  O   UNL     1      17.000  13.483   7.167  1.00  0.00    -0.269 OA
ATOM     12  C   UNL     1      15.223  14.457  10.038  1.00  0.00     0.330 A 
ATOM     13  H   UNL     1      14.892  14.576   7.982  1.00  0.00     0.175 HD
ATOM     14  O   UNL     1      14.123  15.006  10.318  1.00  0.00    -0.248 OA
ENDBRANCH   1   6
BRANCH   2  15
ATOM     15  O   UNL     1      17.265  15.340  14.018  1.00  0.00    -0.386 OA
ATOM     16  H   UNL     1      16.579  16.001  13.738  1.00  0.00     0.211 HD
ENDBRANCH   2  15
BRANCH   3  17
ATOM     17  O   UNL     1      17.080  13.258  15.615  1.00  0.00    -0.387 OA
ATOM     18  H   UNL     1      16.624  14.101  15.871  1.00  0.00     0.211 HD
ENDBRANCH   3  17
BRANCH   4  19
ATOM     19  C   UNL     1      14.685  11.434  14.440  1.00  0.00     0.191 C 
BRANCH  19  20
ATOM     20  O   UNL     1      15.763  10.572  14.684  1.00  0.00    -0.394 OA
ATOM     21  H   UNL     1      16.557  10.972  14.243  1.00  0.00     0.210 HD
ENDBRANCH  19  20
ENDBRANCH   4  19
TORSDOF 5
ENDMDL
MODEL 5
REMARK VINA RESULT:    -5.676      2.833      5.585
REMARK INTER + INTRA:          -7.376
REMARK INTER:                  -6.926
REMARK INTRA:                  -0.451
REMARK UNBOUND:                -0.539
REMARK SMILES O=c1ccn([C@H]2O[C@@H](CO)[C@H](O)[C@@H]2O)c(=O)[nH]1
REMARK SMILES IDX 6 1 13 2 11 3 8 4 7 5 5 6 3 7 4 8 2 9 17 10 1 11 15 12 16 14
REMARK SMILES IDX 14 15 12 17 9 19 10 20
REMARK H PARENT 17 13 14 16 12 18 10 21
REMARK Flexibility Score: inf
ROOT
ATOM      1  C   UNL     1      15.799  13.938  10.665  1.00  0.00     0.255 C 
ATOM      2  C   UNL     1      15.727  15.182  11.566  1.00  0.00     0.196 C 
ATOM      3  C   UNL     1      16.912  15.018  12.502  1.00  0.00     0.179 C 
ATOM      4  C   UNL     1      17.251  13.539  12.358  1.00  0.00     0.178 C 
ATOM      5  O   UNL     1      16.902  13.144  11.052  1.00  0.00    -0.347 OA
ENDROOT
BRANCH   1   6
ATOM      6  N   UNL     1      15.915  14.319   9.241  1.00  0.00    -0.271 N 
ATOM      7  C   UNL     1      17.161  14.244   7.193  1.00  0.00     0.090 A 
ATOM      8  C   UNL     1      17.021  13.924   8.541  1.00  0.00     0.099 A 
ATOM      9  C   UNL     1      16.149  14.964   6.570  1.00  0.00     0.253 A 
ATOM     10  N   UNL     1      15.050  15.335   7.276  1.00  0.00    -0.274 N 
ATOM     11  O   UNL     1      16.250  15.268   5.352  1.00  0.00    -0.269 OA
ATOM     12  C   UNL     1      14.920  15.015   8.595  1.00  0.00     0.330 A 
ATOM     13  H   UNL     1      14.288  15.869   6.799  1.00  0.00     0.175 HD
ATOM     14  O   UNL     1      13.875  15.363   9.209  1.00  0.00    -0.248 OA
ENDBRANCH   1   6
BRANCH   2  15
ATOM     15  O   UNL     1      14.498  15.249  12.254  1.00  0.00    -0.386 OA
ATOM     16  H   UNL     1      14.421  16.151  12.661  1.00  0.00     0.211 HD
ENDBRANCH   2  15
BRANCH   3  17
ATOM     17  O   UNL     1      16.600  15.335  13.834  1.00  0.00    -0.387 OA
ATOM     18  H   UNL     1      15.630  15.545  13.851  1.00  0.00     0.211 HD
ENDBRANCH   3  17
BRANCH   4  19
ATOM     19  C   UNL     1      18.738  13.250  12.600  1.00  0.00     0.191 C 
BRANCH  19  20
ATOM     20  O   UNL     1      19.180  13.875  13.775  1.00  0.00    -0.394 OA
ATOM     21  H   UNL     1      18.441  14.461  14.084  1.00  0.00     0.210 HD
ENDBRANCH  19  20
ENDBRANCH   4  19
TORSDOF 5
ENDMDL
MODEL 6
REMARK VINA RESULT:    -5.526      2.664      3.441
REMARK INTER + INTRA:          -7.195
REMARK INTER:                  -6.926
REMARK INTRA:                  -0.269
REMARK UNBOUND:                -0.539
REMARK SMILES O=c1ccn([C@H]2O[C@@H](CO)[C@H](O)[C@@H]2O)c(=O)[nH]1
REMARK SMILES IDX 6 1 13 2 11 3 8 4 7 5 5 6 3 7 4 8 2 9 17 10 1 11 15 12 16 14
REMARK SMILES IDX 14 15 12 17 9 19 10 20
REMARK H PARENT 17 13 14 16 12 18 10 21
REMARK Flexibility Score: inf
ROOT
ATOM      1  C   UNL     1      15.993  13.765  10.095  1.00  0.00     0.255 C 
ATOM      2  C   UNL     1      17.107  13.814   9.034  1.00  0.00     0.196 C 
ATOM      3  C   UNL     1      16.652  14.908   8.084  1.00  0.00     0.179 C 
ATOM      4  C   UNL     1      15.172  15.048   8.417  1.00  0.00     0.178 C 
ATOM      5  O   UNL     1      15.005  14.724   9.777  1.00  0.00    -0.347 OA
ENDROOT
BRANCH   1   6
ATOM      6  N   UNL     1      16.536  14.015  11.447  1.00  0.00    -0.271 N 
ATOM      7  C   UNL     1      16.401  15.210  13.522  1.00  0.00     0.090 A 
ATOM      8  C   UNL     1      15.935  14.957  12.235  1.00  0.00     0.099 A 
ATOM      9  C   UNL     1      17.483  14.477  13.995  1.00  0.00     0.253 A 
ATOM     10  N   UNL     1      18.058  13.534  13.205  1.00  0.00    -0.274 N 
ATOM     11  O   UNL     1      17.926  14.686  15.156  1.00  0.00    -0.269 OA
ATOM     12  C   UNL     1      17.594  13.292  11.947  1.00  0.00     0.330 A 
ATOM     13  H   UNL     1      18.866  12.980  13.571  1.00  0.00     0.175 HD
ATOM     14  O   UNL     1      18.145  12.394  11.253  1.00  0.00    -0.248 OA
ENDBRANCH   1   6
BRANCH   2  15
ATOM     15  O   UNL     1      17.260  12.568   8.392  1.00  0.00    -0.386 OA
ATOM     16  H   UNL     1      16.363  12.259   8.100  1.00  0.00     0.211 HD
ENDBRANCH   2  15
BRANCH   3  17
ATOM     17  O   UNL     1      16.834  14.566   6.735  1.00  0.00    -0.387 OA
ATOM     18  H   UNL     1      16.555  15.357   6.205  1.00  0.00     0.211 HD
ENDBRANCH   3  17
BRANCH   4  19
ATOM     19  C   UNL     1      14.641  16.464   8.159  1.00  0.00     0.191 C 
BRANCH  19  20
ATOM     20  O   UNL     1      15.646  17.280   7.619  1.00  0.00    -0.394 OA
ATOM     21  H   UNL     1      16.434  16.698   7.460  1.00  0.00     0.210 HD
ENDBRANCH  19  20
ENDBRANCH   4  19
TORSDOF 5
ENDMDL
MODEL 7
REMARK VINA RESULT:    -5.468      2.308      6.057
REMARK INTER + INTRA:          -7.125
REMARK INTER:                  -6.785
REMARK INTRA:                  -0.340
REMARK UNBOUND:                -0.539
REMARK SMILES O=c1ccn([C@H]2O[C@@H](CO)[C@H](O)[C@@H]2O)c(=O)[nH]1
REMARK SMILES IDX 6 1 13 2 11 3 8 4 7 5 5 6 3 7 4 8 2 9 17 10 1 11 15 12 16 14
REMARK SMILES IDX 14 15 12 17 9 19 10 20
REMARK H PARENT 17 13 14 16 12 18 10 21
REMARK Flexibility Score: inf
ROOT
ATOM      1  C   UNL     1      16.349  12.550  14.162  1.00  0.00     0.255 C 
ATOM      2  C   UNL     1      15.243  11.651  14.740  1.00  0.00     0.196 C 
ATOM      3  C   UNL     1      15.029  12.197  16.141  1.00  0.00     0.179 C 
ATOM      4  C   UNL     1      16.294  13.012  16.380  1.00  0.00     0.178 C 
ATOM      5  O   UNL     1      16.731  13.502  15.134  1.00  0.00    -0.347 OA
ENDROOT
BRANCH   1   6
ATOM      6  N   UNL     1      15.893  13.228  12.930  1.00  0.00    -0.271 N 
ATOM      7  C   UNL     1      14.087  14.131  11.635  1.00  0.00     0.090 A 
ATOM      8  C   UNL     1      14.558  13.477  12.770  1.00  0.00     0.099 A 
ATOM      9  C   UNL     1      15.003  14.536  10.671  1.00  0.00     0.253 A 
ATOM     10  N   UNL     1      16.327  14.295  10.853  1.00  0.00    -0.274 N 
ATOM     11  O   UNL     1      14.605  15.129   9.633  1.00  0.00    -0.269 OA
ATOM     12  C   UNL     1      16.780  13.656  11.969  1.00  0.00     0.330 A 
ATOM     13  H   UNL     1      17.012  14.611  10.128  1.00  0.00     0.175 HD
ATOM     14  O   UNL     1      18.019  13.469  12.107  1.00  0.00    -0.248 OA
ENDBRANCH   1   6
BRANCH   2  15
ATOM     15  O   UNL     1      15.630  10.295  14.741  1.00  0.00    -0.386 OA
ATOM     16  H   UNL     1      14.831   9.746  14.957  1.00  0.00     0.211 HD
ENDBRANCH   2  15
BRANCH   3  17
ATOM     17  O   UNL     1      14.894  11.184  17.104  1.00  0.00    -0.387 OA
ATOM     18  H   UNL     1      14.515  10.398  16.631  1.00  0.00     0.211 HD
ENDBRANCH   3  17
BRANCH   4  19
ATOM     19  C   UNL     1      16.066  14.186  17.341  1.00  0.00     0.191 C 
BRANCH  19  20
ATOM     20  O   UNL     1      16.565  13.887  18.616  1.00  0.00    -0.394 OA
ATOM     21  H   UNL     1      17.054  13.027  18.540  1.00  0.00     0.210 HD
ENDBRANCH  19  20
ENDBRANCH   4  19
TORSDOF 5
ENDMDL
MODEL 8
REMARK VINA RESULT:    -5.337      3.236      5.202
REMARK INTER + INTRA:          -6.968
REMARK INTER:                  -6.426
REMARK INTRA:                  -0.542
REMARK UNBOUND:                -0.539
REMARK SMILES O=c1ccn([C@H]2O[C@@H](CO)[C@H](O)[C@@H]2O)c(=O)[nH]1
REMARK SMILES IDX 6 1 13 2 11 3 8 4 7 5 5 6 3 7 4 8 2 9 17 10 1 11 15 12 16 14
REMARK SMILES IDX 14 15 12 17 9 19 10 20
REMARK H PARENT 17 13 14 16 12 18 10 21
REMARK Flexibility Score: inf
ROOT
ATOM      1  C   UNL     1      15.354  16.708   7.509  1.00  0.00     0.255 C 
ATOM      2  C   UNL     1      15.643  18.193   7.790  1.00  0.00     0.196 C 
ATOM      3  C   UNL     1      14.293  18.864   7.604  1.00  0.00     0.179 C 
ATOM      4  C   UNL     1      13.507  17.823   6.817  1.00  0.00     0.178 C 
ATOM      5  O   UNL     1      13.987  16.552   7.187  1.00  0.00    -0.347 OA
ENDROOT
BRANCH   1   6
ATOM      6  N   UNL     1      15.707  15.868   8.673  1.00  0.00    -0.271 N 
ATOM      7  C   UNL     1      15.913  15.643  11.052  1.00  0.00     0.090 A 
ATOM      8  C   UNL     1      15.610  16.405   9.927  1.00  0.00     0.099 A 
ATOM      9  C   UNL     1      16.307  14.322  10.876  1.00  0.00     0.253 A 
ATOM     10  N   UNL     1      16.384  13.801   9.625  1.00  0.00    -0.274 N 
ATOM     11  O   UNL     1      16.589  13.610  11.877  1.00  0.00    -0.269 OA
ATOM     12  C   UNL     1      16.083  14.553   8.529  1.00  0.00     0.330 A 
ATOM     13  H   UNL     1      16.672  12.803   9.501  1.00  0.00     0.175 HD
ATOM     14  O   UNL     1      16.149  14.023   7.386  1.00  0.00    -0.248 OA
ENDBRANCH   1   6
BRANCH   2  15
ATOM     15  O   UNL     1      16.626  18.701   6.916  1.00  0.00    -0.386 OA
ATOM     16  H   UNL     1      17.486  18.251   7.126  1.00  0.00     0.211 HD
ENDBRANCH   2  15
BRANCH   3  17
ATOM     17  O   UNL     1      14.382  20.072   6.892  1.00  0.00    -0.387 OA
ATOM     18  H   UNL     1      13.514  20.536   7.020  1.00  0.00     0.211 HD
ENDBRANCH   3  17
BRANCH   4  19
ATOM     19  C   UNL     1      11.998  17.898   7.085  1.00  0.00     0.191 C 
BRANCH  19  20
ATOM     20  O   UNL     1      11.562  19.231   7.095  1.00  0.00    -0.394 OA
ATOM     21  H   UNL     1      12.363  19.794   7.254  1.00  0.00     0.210 HD
ENDBRANCH  19  20
ENDBRANCH   4  19
TORSDOF 5
ENDMDL
MODEL 9
REMARK VINA RESULT:    -5.331      2.468      5.573
REMARK INTER + INTRA:          -6.961
REMARK INTER:                  -6.418
REMARK INTRA:                  -0.543
REMARK UNBOUND:                -0.539
REMARK SMILES O=c1ccn([C@H]2O[C@@H](CO)[C@H](O)[C@@H]2O)c(=O)[nH]1
REMARK SMILES IDX 6 1 13 2 11 3 8 4 7 5 5 6 3 7 4 8 2 9 17 10 1 11 15 12 16 14
REMARK SMILES IDX 14 15 12 17 9 19 10 20
REMARK H PARENT 17 13 14 16 12 18 10 21
REMARK Flexibility Score: inf
ROOT
ATOM      1  C   UNL     1      16.041  13.971  10.841  1.00  0.00     0.255 C 
ATOM      2  C   UNL     1      15.583  14.159  12.297  1.00  0.00     0.196 C 
ATOM      3  C   UNL     1      16.803  13.767  13.113  1.00  0.00     0.179 C 
ATOM      4  C   UNL     1      17.641  12.987  12.108  1.00  0.00     0.178 C 
ATOM      5  O   UNL     1      17.378  13.513  10.828  1.00  0.00    -0.347 OA
ENDROOT
BRANCH   1   6
ATOM      6  N   UNL     1      15.924  15.233  10.080  1.00  0.00    -0.271 N 
ATOM      7  C   UNL     1      15.968  17.631  10.067  1.00  0.00     0.090 A 
ATOM      8  C   UNL     1      16.052  16.420  10.747  1.00  0.00     0.099 A 
ATOM      9  C   UNL     1      15.763  17.611   8.693  1.00  0.00     0.253 A 
ATOM     10  N   UNL     1      15.654  16.424   8.043  1.00  0.00    -0.274 N 
ATOM     11  O   UNL     1      15.682  18.693   8.051  1.00  0.00    -0.269 OA
ATOM     12  C   UNL     1      15.739  15.242   8.717  1.00  0.00     0.330 A 
ATOM     13  H   UNL     1      15.508  16.416   7.007  1.00  0.00     0.175 HD
ATOM     14  O   UNL     1      15.650  14.162   8.072  1.00  0.00    -0.248 OA
ENDBRANCH   1   6
BRANCH   2  15
ATOM     15  O   UNL     1      14.457  13.362  12.589  1.00  0.00    -0.386 OA
ATOM     16  H   UNL     1      14.229  13.488  13.547  1.00  0.00     0.211 HD
ENDBRANCH   2  15
BRANCH   3  17
ATOM     17  O   UNL     1      16.480  12.972  14.224  1.00  0.00    -0.387 OA
ATOM     18  H   UNL     1      15.643  13.348  14.603  1.00  0.00     0.211 HD
ENDBRANCH   3  17
BRANCH   4  19
ATOM     19  C   UNL     1      19.145  13.077  12.399  1.00  0.00     0.191 C 
BRANCH  19  20
ATOM     20  O   UNL     1      19.375  13.722  13.623  1.00  0.00    -0.394 OA
ATOM     21  H   UNL     1      20.184  14.284  13.504  1.00  0.00     0.210 HD
ENDBRANCH  19  20
ENDBRANCH   4  19
TORSDOF 5
ENDMDL
