MODEL 1
REMARK VINA RESULT:    -4.572      0.000      0.000
REMARK INTER + INTRA:          -5.786
REMARK INTER:                  -5.508
REMARK INTRA:                  -0.278
REMARK UNBOUND:                -0.278
REMARK SMILES O=c1c(O)c(-c2ccc(O)c(O)c2)oc2cc(O)cc(O)c12
REMARK SMILES IDX 5 1 3 2 2 3 1 4 22 5 20 6 19 7 17 8 16 9 15 10 14 11 6 12
REMARK SMILES IDX 7 13 8 14 9 15 13 16 11 17 10 18 12 20 4 22 21 24 18 26
REMARK H PARENT 10 19 12 21 4 23 21 25 18 27
REMARK Flexibility Score: inf
ROOT
ATOM      1  C   UNL     1      23.615  13.004  86.604  1.00  0.00     0.180 A 
ATOM      2  C   UNL     1      24.114  14.093  87.340  1.00  0.00     0.208 A 
ATOM      3  C   UNL     1      25.491  14.366  87.305  1.00  0.00     0.238 A 
ATOM      4  O   UNL     1      25.939  15.307  88.010  1.00  0.00    -0.285 OA
ATOM      5  C   UNL     1      26.349  13.557  86.522  1.00  0.00     0.111 A 
ATOM      6  C   UNL     1      27.754  13.766  86.381  1.00  0.00     0.134 A 
ATOM      7  C   UNL     1      28.526  12.827  85.686  1.00  0.00     0.093 A 
ATOM      8  C   UNL     1      27.933  11.721  85.071  1.00  0.00     0.123 A 
ATOM      9  C   UNL     1      26.555  11.540  85.152  1.00  0.00     0.094 A 
ATOM     10  C   UNL     1      25.763  12.441  85.870  1.00  0.00     0.146 A 
ATOM     11  O   UNL     1      24.454  12.226  85.931  1.00  0.00    -0.452 OA
ENDROOT
BRANCH   1  12
ATOM     12  C   UNL     1      22.173  12.670  86.571  1.00  0.00     0.025 A 
ATOM     13  C   UNL     1      21.301  13.450  85.798  1.00  0.00     0.016 A 
ATOM     14  C   UNL     1      19.935  13.164  85.769  1.00  0.00     0.051 A 
ATOM     15  C   UNL     1      19.410  12.107  86.521  1.00  0.00     0.157 A 
ATOM     16  C   UNL     1      21.646  11.622  87.346  1.00  0.00     0.062 A 
ATOM     17  C   UNL     1      20.276  11.330  87.326  1.00  0.00     0.158 A 
BRANCH  15  18
ATOM     18  O   UNL     1      18.036  11.870  86.443  1.00  0.00    -0.504 OA
ATOM     19  H   UNL     1      17.455  11.650  87.239  1.00  0.00     0.293 HD
ENDBRANCH  15  18
BRANCH  17  20
ATOM     20  O   UNL     1      19.824  10.274  88.119  1.00  0.00    -0.504 OA
ATOM     21  H   UNL     1      19.914   9.300  87.866  1.00  0.00     0.293 HD
ENDBRANCH  17  20
ENDBRANCH   1  12
BRANCH   2  22
ATOM     22  O   UNL     1      23.252  14.865  88.125  1.00  0.00    -0.502 OA
ATOM     23  H   UNL     1      23.351  15.868  88.215  1.00  0.00     0.293 HD
ENDBRANCH   2  22
BRANCH   6  24
ATOM     24  O   UNL     1      28.430  14.884  86.877  1.00  0.00    -0.507 OA
ATOM     25  H   UNL     1      28.210  15.352  87.743  1.00  0.00     0.293 HD
ENDBRANCH   6  24
BRANCH   8  26
ATOM     26  O   UNL     1      28.706  10.800  84.368  1.00  0.00    -0.508 OA
ATOM     27  H   UNL     1      29.081  11.014  83.451  1.00  0.00     0.293 HD
ENDBRANCH   8  26
TORSDOF 6
ENDMDL
MODEL 2
REMARK VINA RESULT:    -4.418      3.751      6.188
REMARK INTER + INTRA:          -5.600
REMARK INTER:                  -5.265
REMARK INTRA:                  -0.335
REMARK UNBOUND:                -0.278
REMARK SMILES O=c1c(O)c(-c2ccc(O)c(O)c2)oc2cc(O)cc(O)c12
REMARK SMILES IDX 5 1 3 2 2 3 1 4 22 5 20 6 19 7 17 8 16 9 15 10 14 11 6 12
REMARK SMILES IDX 7 13 8 14 9 15 13 16 11 17 10 18 12 20 4 22 21 24 18 26
REMARK H PARENT 10 19 12 21 4 23 21 25 18 27
REMARK Flexibility Score: inf
ROOT
ATOM      1  C   UNL     1      21.192  12.739  85.537  1.00  0.00     0.180 A 
ATOM      2  C   UNL     1      20.769  12.006  86.661  1.00  0.00     0.208 A 
ATOM      3  C   UNL     1      20.664  10.610  86.562  1.00  0.00     0.238 A 
ATOM      4  O   UNL     1      20.233   9.965  87.554  1.00  0.00    -0.285 OA
ATOM      5  C   UNL     1      20.996   9.962  85.348  1.00  0.00     0.111 A 
ATOM      6  C   UNL     1      20.964   8.550  85.149  1.00  0.00     0.134 A 
ATOM      7  C   UNL     1      21.188   8.027  83.869  1.00  0.00     0.093 A 
ATOM      8  C   UNL     1      21.507   8.864  82.795  1.00  0.00     0.123 A 
ATOM      9  C   UNL     1      21.599  10.239  82.994  1.00  0.00     0.094 A 
ATOM     10  C   UNL     1      21.346  10.792  84.252  1.00  0.00     0.146 A 
ATOM     11  O   UNL     1      21.434  12.109  84.395  1.00  0.00    -0.452 OA
ENDROOT
BRANCH   1  12
ATOM     12  C   UNL     1      21.352  14.211  85.572  1.00  0.00     0.025 A 
ATOM     13  C   UNL     1      20.288  15.030  85.170  1.00  0.00     0.016 A 
ATOM     14  C   UNL     1      20.424  16.420  85.176  1.00  0.00     0.051 A 
ATOM     15  C   UNL     1      21.627  17.018  85.568  1.00  0.00     0.157 A 
ATOM     16  C   UNL     1      22.569  14.807  85.944  1.00  0.00     0.062 A 
ATOM     17  C   UNL     1      22.716  16.200  85.950  1.00  0.00     0.158 A 
BRANCH  15  18
ATOM     18  O   UNL     1      21.696  18.412  85.558  1.00  0.00    -0.504 OA
ATOM     19  H   UNL     1      20.891  19.016  85.467  1.00  0.00     0.293 HD
ENDBRANCH  15  18
BRANCH  17  20
ATOM     20  O   UNL     1      23.953  16.723  86.333  1.00  0.00    -0.504 OA
ATOM     21  H   UNL     1      24.475  17.395  85.789  1.00  0.00     0.293 HD
ENDBRANCH  17  20
ENDBRANCH   1  12
BRANCH   2  22
ATOM     22  O   UNL     1      20.424  12.668  87.842  1.00  0.00    -0.502 OA
ATOM     23  H   UNL     1      21.062  12.753  88.624  1.00  0.00     0.293 HD
ENDBRANCH   2  22
BRANCH   6  24
ATOM     24  O   UNL     1      20.748   7.622  86.171  1.00  0.00    -0.507 OA
ATOM     25  H   UNL     1      19.842   7.283  86.457  1.00  0.00     0.293 HD
ENDBRANCH   6  24
BRANCH   8  26
ATOM     26  O   UNL     1      21.743   8.335  81.529  1.00  0.00    -0.508 OA
ATOM     27  H   UNL     1      22.463   7.640  81.371  1.00  0.00     0.293 HD
ENDBRANCH   8  26
TORSDOF 6
ENDMDL
MODEL 3
REMARK VINA RESULT:    -4.410      3.386      5.693
REMARK INTER + INTRA:          -5.591
REMARK INTER:                  -5.393
REMARK INTRA:                  -0.198
REMARK UNBOUND:                -0.278
REMARK SMILES O=c1c(O)c(-c2ccc(O)c(O)c2)oc2cc(O)cc(O)c12
REMARK SMILES IDX 5 1 3 2 2 3 1 4 22 5 20 6 19 7 17 8 16 9 15 10 14 11 6 12
REMARK SMILES IDX 7 13 8 14 9 15 13 16 11 17 10 18 12 20 4 22 21 24 18 26
REMARK H PARENT 10 19 12 21 4 23 21 25 18 27
REMARK Flexibility Score: inf
ROOT
ATOM      1  C   UNL     1      18.864  12.390  86.053  1.00  0.00     0.180 A 
ATOM      2  C   UNL     1      19.852  11.727  86.802  1.00  0.00     0.208 A 
ATOM      3  C   UNL     1      21.136  12.287  86.882  1.00  0.00     0.238 A 
ATOM      4  O   UNL     1      22.031  11.661  87.508  1.00  0.00    -0.285 OA
ATOM      5  C   UNL     1      21.414  13.510  86.225  1.00  0.00     0.111 A 
ATOM      6  C   UNL     1      22.669  14.188  86.272  1.00  0.00     0.134 A 
ATOM      7  C   UNL     1      22.870  15.324  85.478  1.00  0.00     0.093 A 
ATOM      8  C   UNL     1      21.839  15.844  84.690  1.00  0.00     0.123 A 
ATOM      9  C   UNL     1      20.593  15.224  84.684  1.00  0.00     0.094 A 
ATOM     10  C   UNL     1      20.373  14.067  85.438  1.00  0.00     0.146 A 
ATOM     11  O   UNL     1      19.172  13.502  85.395  1.00  0.00    -0.452 OA
ENDROOT
BRANCH   1  12
ATOM     12  C   UNL     1      17.480  11.875  85.943  1.00  0.00     0.025 A 
ATOM     13  C   UNL     1      16.657  11.859  87.078  1.00  0.00     0.016 A 
ATOM     14  C   UNL     1      15.356  11.359  87.002  1.00  0.00     0.051 A 
ATOM     15  C   UNL     1      14.856  10.852  85.797  1.00  0.00     0.157 A 
ATOM     16  C   UNL     1      16.989  11.344  84.737  1.00  0.00     0.062 A 
ATOM     17  C   UNL     1      15.686  10.838  84.652  1.00  0.00     0.158 A 
BRANCH  15  18
ATOM     18  O   UNL     1      13.544  10.373  85.786  1.00  0.00    -0.504 OA
ATOM     19  H   UNL     1      13.170   9.735  86.474  1.00  0.00     0.293 HD
ENDBRANCH  15  18
BRANCH  17  20
ATOM     20  O   UNL     1      15.265  10.329  83.421  1.00  0.00    -0.504 OA
ATOM     21  H   UNL     1      15.366  10.819  82.544  1.00  0.00     0.293 HD
ENDBRANCH  17  20
ENDBRANCH   1  12
BRANCH   2  22
ATOM     22  O   UNL     1      19.563  10.509  87.424  1.00  0.00    -0.502 OA
ATOM     23  H   UNL     1      18.976   9.805  86.994  1.00  0.00     0.293 HD
ENDBRANCH   2  22
BRANCH   6  24
ATOM     24  O   UNL     1      23.732  13.806  87.095  1.00  0.00    -0.507 OA
ATOM     25  H   UNL     1      23.884  14.146  88.032  1.00  0.00     0.293 HD
ENDBRANCH   6  24
BRANCH   8  26
ATOM     26  O   UNL     1      22.043  16.984  83.916  1.00  0.00    -0.508 OA
ATOM     27  H   UNL     1      22.974  17.325  83.710  1.00  0.00     0.293 HD
ENDBRANCH   8  26
TORSDOF 6
ENDMDL
MODEL 4
REMARK VINA RESULT:    -4.380      3.496      9.545
REMARK INTER + INTRA:          -5.555
REMARK INTER:                  -5.220
REMARK INTRA:                  -0.334
REMARK UNBOUND:                -0.278
REMARK SMILES O=c1c(O)c(-c2ccc(O)c(O)c2)oc2cc(O)cc(O)c12
REMARK SMILES IDX 5 1 3 2 2 3 1 4 22 5 20 6 19 7 17 8 16 9 15 10 14 11 6 12
REMARK SMILES IDX 7 13 8 14 9 15 13 16 11 17 10 18 12 20 4 22 21 24 18 26
REMARK H PARENT 10 19 12 21 4 23 21 25 18 27
REMARK Flexibility Score: inf
ROOT
ATOM      1  C   UNL     1      18.411  11.806  85.638  1.00  0.00     0.180 A 
ATOM      2  C   UNL     1      18.111  11.332  84.348  1.00  0.00     0.208 A 
ATOM      3  C   UNL     1      16.777  11.048  84.020  1.00  0.00     0.238 A 
ATOM      4  O   UNL     1      16.521  10.572  82.882  1.00  0.00    -0.285 OA
ATOM      5  C   UNL     1      15.756  11.255  84.979  1.00  0.00     0.111 A 
ATOM      6  C   UNL     1      14.365  11.039  84.742  1.00  0.00     0.134 A 
ATOM      7  C   UNL     1      13.458  11.152  85.802  1.00  0.00     0.093 A 
ATOM      8  C   UNL     1      13.883  11.538  87.077  1.00  0.00     0.123 A 
ATOM      9  C   UNL     1      15.230  11.809  87.303  1.00  0.00     0.094 A 
ATOM     10  C   UNL     1      16.165  11.670  86.273  1.00  0.00     0.146 A 
ATOM     11  O   UNL     1      17.440  11.928  86.535  1.00  0.00    -0.452 OA
ENDROOT
BRANCH   1  12
ATOM     12  C   UNL     1      19.791  12.151  86.049  1.00  0.00     0.025 A 
ATOM     13  C   UNL     1      20.572  11.196  86.715  1.00  0.00     0.016 A 
ATOM     14  C   UNL     1      21.868  11.507  87.129  1.00  0.00     0.051 A 
ATOM     15  C   UNL     1      22.405  12.779  86.901  1.00  0.00     0.157 A 
ATOM     16  C   UNL     1      20.318  13.437  85.840  1.00  0.00     0.062 A 
ATOM     17  C   UNL     1      21.616  13.759  86.254  1.00  0.00     0.158 A 
BRANCH  15  18
ATOM     18  O   UNL     1      23.710  13.024  87.334  1.00  0.00    -0.504 OA
ATOM     19  H   UNL     1      24.099  12.653  88.189  1.00  0.00     0.293 HD
ENDBRANCH  15  18
BRANCH  17  20
ATOM     20  O   UNL     1      22.075  15.056  86.011  1.00  0.00    -0.504 OA
ATOM     21  H   UNL     1      22.430  15.672  86.728  1.00  0.00     0.293 HD
ENDBRANCH  17  20
ENDBRANCH   1  12
BRANCH   2  22
ATOM     22  O   UNL     1      19.137  11.112  83.424  1.00  0.00    -0.502 OA
ATOM     23  H   UNL     1      19.275  10.220  82.967  1.00  0.00     0.293 HD
ENDBRANCH   2  22
BRANCH   6  24
ATOM     24  O   UNL     1      13.825  10.741  83.488  1.00  0.00    -0.507 OA
ATOM     25  H   UNL     1      12.900  10.371  83.334  1.00  0.00     0.293 HD
ENDBRANCH   6  24
BRANCH   8  26
ATOM     26  O   UNL     1      12.972  11.663  88.122  1.00  0.00    -0.508 OA
ATOM     27  H   UNL     1      12.082  11.180  88.110  1.00  0.00     0.293 HD
ENDBRANCH   8  26
TORSDOF 6
ENDMDL
MODEL 5
REMARK VINA RESULT:    -4.333      1.464      3.298
REMARK INTER + INTRA:          -5.498
REMARK INTER:                  -5.175
REMARK INTRA:                  -0.323
REMARK UNBOUND:                -0.278
REMARK SMILES O=c1c(O)c(-c2ccc(O)c(O)c2)oc2cc(O)cc(O)c12
REMARK SMILES IDX 5 1 3 2 2 3 1 4 22 5 20 6 19 7 17 8 16 9 15 10 14 11 6 12
REMARK SMILES IDX 7 13 8 14 9 15 13 16 11 17 10 18 12 20 4 22 21 24 18 26
REMARK H PARENT 10 19 12 21 4 23 21 25 18 27
REMARK Flexibility Score: inf
ROOT
ATOM      1  C   UNL     1      22.823  12.453  86.344  1.00  0.00     0.180 A 
ATOM      2  C   UNL     1      23.592  11.623  85.509  1.00  0.00     0.208 A 
ATOM      3  C   UNL     1      24.968  11.870  85.384  1.00  0.00     0.238 A 
ATOM      4  O   UNL     1      25.641  11.158  84.593  1.00  0.00    -0.285 OA
ATOM      5  C   UNL     1      25.562  12.932  86.108  1.00  0.00     0.111 A 
ATOM      6  C   UNL     1      26.953  13.247  86.088  1.00  0.00     0.134 A 
ATOM      7  C   UNL     1      27.410  14.400  86.740  1.00  0.00     0.093 A 
ATOM      8  C   UNL     1      26.534  15.212  87.465  1.00  0.00     0.123 A 
ATOM      9  C   UNL     1      25.184  14.879  87.540  1.00  0.00     0.094 A 
ATOM     10  C   UNL     1      24.692  13.755  86.870  1.00  0.00     0.146 A 
ATOM     11  O   UNL     1      23.397  13.480  86.959  1.00  0.00    -0.452 OA
ENDROOT
BRANCH   1  12
ATOM     12  C   UNL     1      21.372  12.240  86.545  1.00  0.00     0.025 A 
ATOM     13  C   UNL     1      20.935  11.374  87.558  1.00  0.00     0.016 A 
ATOM     14  C   UNL     1      19.572  11.143  87.752  1.00  0.00     0.051 A 
ATOM     15  C   UNL     1      18.620  11.758  86.932  1.00  0.00     0.157 A 
ATOM     16  C   UNL     1      20.419  12.841  85.704  1.00  0.00     0.062 A 
ATOM     17  C   UNL     1      19.049  12.613  85.890  1.00  0.00     0.158 A 
BRANCH  15  18
ATOM     18  O   UNL     1      17.272  11.491  87.183  1.00  0.00    -0.504 OA
ATOM     19  H   UNL     1      16.509  11.916  86.677  1.00  0.00     0.293 HD
ENDBRANCH  15  18
BRANCH  17  20
ATOM     20  O   UNL     1      18.160  13.246  85.018  1.00  0.00    -0.504 OA
ATOM     21  H   UNL     1      17.411  13.853  85.320  1.00  0.00     0.293 HD
ENDBRANCH  17  20
ENDBRANCH   1  12
BRANCH   2  22
ATOM     22  O   UNL     1      22.982  10.595  84.786  1.00  0.00    -0.502 OA
ATOM     23  H   UNL     1      22.091  10.712  84.319  1.00  0.00     0.293 HD
ENDBRANCH   2  22
BRANCH   6  24
ATOM     24  O   UNL     1      27.925  12.453  85.472  1.00  0.00    -0.507 OA
ATOM     25  H   UNL     1      28.055  12.375  84.475  1.00  0.00     0.293 HD
ENDBRANCH   6  24
BRANCH   8  26
ATOM     26  O   UNL     1      26.998  16.348  88.124  1.00  0.00    -0.508 OA
ATOM     27  H   UNL     1      26.564  17.253  87.989  1.00  0.00     0.293 HD
ENDBRANCH   8  26
TORSDOF 6
ENDMDL
MODEL 6
REMARK VINA RESULT:    -4.311      2.899      5.980
REMARK INTER + INTRA:          -5.471
REMARK INTER:                  -5.137
REMARK INTRA:                  -0.335
REMARK UNBOUND:                -0.278
REMARK SMILES O=c1c(O)c(-c2ccc(O)c(O)c2)oc2cc(O)cc(O)c12
REMARK SMILES IDX 5 1 3 2 2 3 1 4 22 5 20 6 19 7 17 8 16 9 15 10 14 11 6 12
REMARK SMILES IDX 7 13 8 14 9 15 13 16 11 17 10 18 12 20 4 22 21 24 18 26
REMARK H PARENT 10 19 12 21 4 23 21 25 18 27
REMARK Flexibility Score: inf
ROOT
ATOM      1  C   UNL     1      23.041  12.192  85.916  1.00  0.00     0.180 A 
ATOM      2  C   UNL     1      21.844  11.883  86.586  1.00  0.00     0.208 A 
ATOM      3  C   UNL     1      21.312  10.589  86.468  1.00  0.00     0.238 A 
ATOM      4  O   UNL     1      20.212  10.334  87.025  1.00  0.00    -0.285 OA
ATOM      5  C   UNL     1      21.990   9.617  85.694  1.00  0.00     0.111 A 
ATOM      6  C   UNL     1      21.563   8.264  85.538  1.00  0.00     0.134 A 
ATOM      7  C   UNL     1      22.241   7.425  84.645  1.00  0.00     0.093 A 
ATOM      8  C   UNL     1      23.370   7.871  83.952  1.00  0.00     0.123 A 
ATOM      9  C   UNL     1      23.829   9.172  84.144  1.00  0.00     0.094 A 
ATOM     10  C   UNL     1      23.153  10.044  85.001  1.00  0.00     0.146 A 
ATOM     11  O   UNL     1      23.619  11.278  85.147  1.00  0.00    -0.452 OA
ENDROOT
BRANCH   1  12
ATOM     12  C   UNL     1      23.676  13.526  86.014  1.00  0.00     0.025 A 
ATOM     13  C   UNL     1      23.388  14.500  85.048  1.00  0.00     0.016 A 
ATOM     14  C   UNL     1      23.991  15.758  85.110  1.00  0.00     0.051 A 
ATOM     15  C   UNL     1      24.903  16.063  86.127  1.00  0.00     0.157 A 
ATOM     16  C   UNL     1      24.609  13.821  87.024  1.00  0.00     0.062 A 
ATOM     17  C   UNL     1      25.221  15.079  87.092  1.00  0.00     0.158 A 
BRANCH  15  18
ATOM     18  O   UNL     1      25.466  17.341  86.137  1.00  0.00    -0.504 OA
ATOM     19  H   UNL     1      26.127  17.661  86.830  1.00  0.00     0.293 HD
ENDBRANCH  15  18
BRANCH  17  20
ATOM     20  O   UNL     1      26.137  15.302  88.124  1.00  0.00    -0.504 OA
ATOM     21  H   UNL     1      26.978  14.759  88.258  1.00  0.00     0.293 HD
ENDBRANCH  17  20
ENDBRANCH   1  12
BRANCH   2  22
ATOM     22  O   UNL     1      21.179  12.864  87.326  1.00  0.00    -0.502 OA
ATOM     23  H   UNL     1      20.581  12.641  88.112  1.00  0.00     0.293 HD
ENDBRANCH   2  22
BRANCH   6  24
ATOM     24  O   UNL     1      20.506   7.692  86.251  1.00  0.00    -0.507 OA
ATOM     25  H   UNL     1      20.024   6.847  85.985  1.00  0.00     0.293 HD
ENDBRANCH   6  24
BRANCH   8  26
ATOM     26  O   UNL     1      24.047   7.025  83.077  1.00  0.00    -0.508 OA
ATOM     27  H   UNL     1      24.410   7.359  82.192  1.00  0.00     0.293 HD
ENDBRANCH   8  26
TORSDOF 6
ENDMDL
MODEL 7
REMARK VINA RESULT:    -4.227      3.655      5.400
REMARK INTER + INTRA:          -5.370
REMARK INTER:                  -5.132
REMARK INTRA:                  -0.237
REMARK UNBOUND:                -0.278
REMARK SMILES O=c1c(O)c(-c2ccc(O)c(O)c2)oc2cc(O)cc(O)c12
REMARK SMILES IDX 5 1 3 2 2 3 1 4 22 5 20 6 19 7 17 8 16 9 15 10 14 11 6 12
REMARK SMILES IDX 7 13 8 14 9 15 13 16 11 17 10 18 12 20 4 22 21 24 18 26
REMARK H PARENT 10 19 12 21 4 23 21 25 18 27
REMARK Flexibility Score: inf
ROOT
ATOM      1  C   UNL     1      19.397  11.735  85.676  1.00  0.00     0.180 A 
ATOM      2  C   UNL     1      20.474  12.640  85.682  1.00  0.00     0.208 A 
ATOM      3  C   UNL     1      21.778  12.148  85.525  1.00  0.00     0.238 A 
ATOM      4  O   UNL     1      22.742  12.956  85.587  1.00  0.00    -0.285 OA
ATOM      5  C   UNL     1      21.991  10.759  85.348  1.00  0.00     0.111 A 
ATOM      6  C   UNL     1      23.266  10.155  85.139  1.00  0.00     0.134 A 
ATOM      7  C   UNL     1      23.372   8.759  85.105  1.00  0.00     0.093 A 
ATOM      8  C   UNL     1      22.239   7.947  85.207  1.00  0.00     0.123 A 
ATOM      9  C   UNL     1      20.982   8.530  85.350  1.00  0.00     0.094 A 
ATOM     10  C   UNL     1      20.849   9.920  85.424  1.00  0.00     0.146 A 
ATOM     11  O   UNL     1      19.634  10.433  85.572  1.00  0.00    -0.452 OA
ENDROOT
BRANCH   1  12
ATOM     12  C   UNL     1      17.992  12.182  85.810  1.00  0.00     0.025 A 
ATOM     13  C   UNL     1      17.263  11.831  86.955  1.00  0.00     0.016 A 
ATOM     14  C   UNL     1      15.930  12.224  87.093  1.00  0.00     0.051 A 
ATOM     15  C   UNL     1      15.296  12.962  86.087  1.00  0.00     0.157 A 
ATOM     16  C   UNL     1      17.351  12.902  84.787  1.00  0.00     0.062 A 
ATOM     17  C   UNL     1      16.014  13.300  84.916  1.00  0.00     0.158 A 
BRANCH  15  18
ATOM     18  O   UNL     1      13.964  13.331  86.290  1.00  0.00    -0.504 OA
ATOM     19  H   UNL     1      13.400  13.808  85.602  1.00  0.00     0.293 HD
ENDBRANCH  15  18
BRANCH  17  20
ATOM     20  O   UNL     1      15.443  14.015  83.861  1.00  0.00    -0.504 OA
ATOM     21  H   UNL     1      15.235  15.003  83.897  1.00  0.00     0.293 HD
ENDBRANCH  17  20
ENDBRANCH   1  12
BRANCH   2  22
ATOM     22  O   UNL     1      20.243  14.004  85.882  1.00  0.00    -0.502 OA
ATOM     23  H   UNL     1      20.439  14.698  85.172  1.00  0.00     0.293 HD
ENDBRANCH   2  22
BRANCH   6  24
ATOM     24  O   UNL     1      24.446  10.875  84.933  1.00  0.00    -0.507 OA
ATOM     25  H   UNL     1      24.607  11.508  84.165  1.00  0.00     0.293 HD
ENDBRANCH   6  24
BRANCH   8  26
ATOM     26  O   UNL     1      22.351   6.560  85.156  1.00  0.00    -0.508 OA
ATOM     27  H   UNL     1      22.720   6.088  84.340  1.00  0.00     0.293 HD
ENDBRANCH   8  26
TORSDOF 6
ENDMDL
MODEL 8
REMARK VINA RESULT:    -4.209      2.167      2.434
REMARK INTER + INTRA:          -5.349
REMARK INTER:                  -5.040
REMARK INTRA:                  -0.308
REMARK UNBOUND:                -0.278
REMARK SMILES O=c1c(O)c(-c2ccc(O)c(O)c2)oc2cc(O)cc(O)c12
REMARK SMILES IDX 5 1 3 2 2 3 1 4 22 5 20 6 19 7 17 8 16 9 15 10 14 11 6 12
REMARK SMILES IDX 7 13 8 14 9 15 13 16 11 17 10 18 12 20 4 22 21 24 18 26
REMARK H PARENT 10 19 12 21 4 23 21 25 18 27
REMARK Flexibility Score: inf
ROOT
ATOM      1  C   UNL     1      23.255  12.031  85.850  1.00  0.00     0.180 A 
ATOM      2  C   UNL     1      22.901  13.036  86.769  1.00  0.00     0.208 A 
ATOM      3  C   UNL     1      23.899  13.890  87.261  1.00  0.00     0.238 A 
ATOM      4  O   UNL     1      23.586  14.751  88.125  1.00  0.00    -0.285 OA
ATOM      5  C   UNL     1      25.236  13.741  86.819  1.00  0.00     0.111 A 
ATOM      6  C   UNL     1      26.320  14.576  87.222  1.00  0.00     0.134 A 
ATOM      7  C   UNL     1      27.624  14.257  86.822  1.00  0.00     0.093 A 
ATOM      8  C   UNL     1      27.873  13.169  85.980  1.00  0.00     0.123 A 
ATOM      9  C   UNL     1      26.813  12.383  85.534  1.00  0.00     0.094 A 
ATOM     10  C   UNL     1      25.506  12.656  85.945  1.00  0.00     0.146 A 
ATOM     11  O   UNL     1      24.527  11.876  85.504  1.00  0.00    -0.452 OA
ENDROOT
BRANCH   1  12
ATOM     12  C   UNL     1      22.254  11.109  85.267  1.00  0.00     0.025 A 
ATOM     13  C   UNL     1      21.479  11.531  84.178  1.00  0.00     0.016 A 
ATOM     14  C   UNL     1      20.515  10.685  83.626  1.00  0.00     0.051 A 
ATOM     15  C   UNL     1      20.296   9.409  84.158  1.00  0.00     0.157 A 
ATOM     16  C   UNL     1      22.019   9.838  85.820  1.00  0.00     0.062 A 
ATOM     17  C   UNL     1      21.053   8.983  85.274  1.00  0.00     0.158 A 
BRANCH  15  18
ATOM     18  O   UNL     1      19.322   8.610  83.555  1.00  0.00    -0.504 OA
ATOM     19  H   UNL     1      19.446   7.628  83.350  1.00  0.00     0.293 HD
ENDBRANCH  15  18
BRANCH  17  20
ATOM     20  O   UNL     1      20.876   7.734  85.873  1.00  0.00    -0.504 OA
ATOM     21  H   UNL     1      21.568   6.998  85.857  1.00  0.00     0.293 HD
ENDBRANCH  17  20
ENDBRANCH   1  12
BRANCH   2  22
ATOM     22  O   UNL     1      21.579  13.151  87.210  1.00  0.00    -0.502 OA
ATOM     23  H   UNL     1      20.791  13.139  86.574  1.00  0.00     0.293 HD
ENDBRANCH   2  22
BRANCH   6  24
ATOM     24  O   UNL     1      26.169  15.738  87.984  1.00  0.00    -0.507 OA
ATOM     25  H   UNL     1      26.929  16.321  88.299  1.00  0.00     0.293 HD
ENDBRANCH   6  24
BRANCH   8  26
ATOM     26  O   UNL     1      29.170  12.867  85.575  1.00  0.00    -0.508 OA
ATOM     27  H   UNL     1      29.973  13.346  85.966  1.00  0.00     0.293 HD
ENDBRANCH   8  26
TORSDOF 6
ENDMDL
MODEL 9
REMARK VINA RESULT:    -4.143      3.095      5.244
REMARK INTER + INTRA:          -5.269
REMARK INTER:                  -5.005
REMARK INTRA:                  -0.264
REMARK UNBOUND:                -0.278
REMARK SMILES O=c1c(O)c(-c2ccc(O)c(O)c2)oc2cc(O)cc(O)c12
REMARK SMILES IDX 5 1 3 2 2 3 1 4 22 5 20 6 19 7 17 8 16 9 15 10 14 11 6 12
REMARK SMILES IDX 7 13 8 14 9 15 13 16 11 17 10 18 12 20 4 22 21 24 18 26
REMARK H PARENT 10 19 12 21 4 23 21 25 18 27
REMARK Flexibility Score: inf
ROOT
ATOM      1  C   UNL     1      22.152  13.739  85.895  1.00  0.00     0.180 A 
ATOM      2  C   UNL     1      23.459  14.172  86.178  1.00  0.00     0.208 A 
ATOM      3  C   UNL     1      23.748  15.545  86.129  1.00  0.00     0.238 A 
ATOM      4  O   UNL     1      24.933  15.921  86.329  1.00  0.00    -0.285 OA
ATOM      5  C   UNL     1      22.724  16.469  85.812  1.00  0.00     0.111 A 
ATOM      6  C   UNL     1      22.894  17.885  85.773  1.00  0.00     0.134 A 
ATOM      7  C   UNL     1      21.845  18.696  85.322  1.00  0.00     0.093 A 
ATOM      8  C   UNL     1      20.609  18.145  84.970  1.00  0.00     0.123 A 
ATOM      9  C   UNL     1      20.414  16.769  85.062  1.00  0.00     0.094 A 
ATOM     10  C   UNL     1      21.455  15.931  85.475  1.00  0.00     0.146 A 
ATOM     11  O   UNL     1      21.229  14.625  85.539  1.00  0.00    -0.452 OA
ENDROOT
BRANCH   1  12
ATOM     12  C   UNL     1      21.765  12.311  85.952  1.00  0.00     0.025 A 
ATOM     13  C   UNL     1      22.127  11.456  84.902  1.00  0.00     0.016 A 
ATOM     14  C   UNL     1      21.756  10.110  84.926  1.00  0.00     0.051 A 
ATOM     15  C   UNL     1      21.004   9.596  85.989  1.00  0.00     0.157 A 
ATOM     16  C   UNL     1      20.990  11.803  87.009  1.00  0.00     0.062 A 
ATOM     17  C   UNL     1      20.610  10.456  87.040  1.00  0.00     0.158 A 
BRANCH  15  18
ATOM     18  O   UNL     1      20.671   8.240  85.956  1.00  0.00    -0.504 OA
ATOM     19  H   UNL     1      19.928   7.828  86.502  1.00  0.00     0.293 HD
ENDBRANCH  15  18
BRANCH  17  20
ATOM     20  O   UNL     1      19.842  10.020  88.123  1.00  0.00    -0.504 OA
ATOM     21  H   UNL     1      20.165  10.021  89.080  1.00  0.00     0.293 HD
ENDBRANCH  17  20
ENDBRANCH   1  12
BRANCH   2  22
ATOM     22  O   UNL     1      24.461  13.241  86.466  1.00  0.00    -0.502 OA
ATOM     23  H   UNL     1      24.933  13.209  87.361  1.00  0.00     0.293 HD
ENDBRANCH   2  22
BRANCH   6  24
ATOM     24  O   UNL     1      24.055  18.543  86.190  1.00  0.00    -0.507 OA
ATOM     25  H   UNL     1      24.484  19.315  85.703  1.00  0.00     0.293 HD
ENDBRANCH   6  24
BRANCH   8  26
ATOM     26  O   UNL     1      19.566  18.959  84.537  1.00  0.00    -0.508 OA
ATOM     27  H   UNL     1      19.164  19.669  85.137  1.00  0.00     0.293 HD
ENDBRANCH   8  26
TORSDOF 6
ENDMDL
