MODEL 1
REMARK VINA RESULT:    -3.256      0.000      0.000
REMARK INTER + INTRA:          -3.794
REMARK INTER:                  -3.542
REMARK INTRA:                  -0.253
REMARK UNBOUND:                -0.253
REMARK SMILES O=C([O-])c1ccccc1O
REMARK SMILES IDX 4 1 9 2 5 3 8 4 6 5 7 6 2 7 1 8 3 9 10 10
REMARK H PARENT 10 11
REMARK Flexibility Score: inf
ROOT
ATOM      1  C   UNL     1     133.706 124.522  95.447  1.00  0.00     0.039 A 
ATOM      2  C   UNL     1     135.054 124.423  95.879  1.00  0.00     0.124 A 
ATOM      3  C   UNL     1     132.727 124.948  96.365  1.00  0.00     0.014 A 
ATOM      4  C   UNL     1     135.394 124.807  97.183  1.00  0.00     0.047 A 
ATOM      5  C   UNL     1     133.081 125.307  97.667  1.00  0.00     0.001 A 
ATOM      6  C   UNL     1     134.413 125.246  98.073  1.00  0.00     0.004 A 
ENDROOT
BRANCH   1   7
ATOM      7  C   UNL     1     133.284 124.230  94.059  1.00  0.00     0.075 C 
ATOM      8  O   UNL     1     132.237 123.571  93.827  1.00  0.00    -0.545 OA
ATOM      9  O   UNL     1     134.082 124.624  92.992  1.00  0.00    -0.545 OA
ENDBRANCH   1   7
BRANCH   2  10
ATOM     10  O   UNL     1     136.072 123.920  95.066  1.00  0.00    -0.507 OA
ATOM     11  H   UNL     1     135.947 123.145  94.429  1.00  0.00     0.293 HD
ENDBRANCH   2  10
TORSDOF 2
ENDMDL
MODEL 2
REMARK VINA RESULT:    -3.243     12.667     14.177
REMARK INTER + INTRA:          -3.780
REMARK INTER:                  -3.541
REMARK INTRA:                  -0.239
REMARK UNBOUND:                -0.253
REMARK SMILES O=C([O-])c1ccccc1O
REMARK SMILES IDX 4 1 9 2 5 3 8 4 6 5 7 6 2 7 1 8 3 9 10 10
REMARK H PARENT 10 11
REMARK Flexibility Score: inf
ROOT
ATOM      1  C   UNL     1     134.347 125.933 109.592  1.00  0.00     0.039 A 
ATOM      2  C   UNL     1     133.639 125.336 108.516  1.00  0.00     0.124 A 
ATOM      3  C   UNL     1     134.312 125.313 110.856  1.00  0.00     0.014 A 
ATOM      4  C   UNL     1     132.975 124.119 108.714  1.00  0.00     0.047 A 
ATOM      5  C   UNL     1     133.628 124.110 111.040  1.00  0.00     0.001 A 
ATOM      6  C   UNL     1     132.968 123.508 109.969  1.00  0.00     0.004 A 
ENDROOT
BRANCH   1   7
ATOM      7  C   UNL     1     135.152 127.165 109.439  1.00  0.00     0.075 C 
ATOM      8  O   UNL     1     135.618 127.497 108.317  1.00  0.00    -0.545 OA
ATOM      9  O   UNL     1     135.462 127.936 110.552  1.00  0.00    -0.545 OA
ENDBRANCH   1   7
BRANCH   2  10
ATOM     10  O   UNL     1     133.541 125.931 107.256  1.00  0.00    -0.507 OA
ATOM     11  H   UNL     1     133.931 125.529 106.416  1.00  0.00     0.293 HD
ENDBRANCH   2  10
TORSDOF 2
ENDMDL
MODEL 3
REMARK VINA RESULT:    -3.227      3.858      4.851
REMARK INTER + INTRA:          -3.763
REMARK INTER:                  -3.544
REMARK INTRA:                  -0.219
REMARK UNBOUND:                -0.253
REMARK SMILES O=C([O-])c1ccccc1O
REMARK SMILES IDX 4 1 9 2 5 3 8 4 6 5 7 6 2 7 1 8 3 9 10 10
REMARK H PARENT 10 11
REMARK Flexibility Score: inf
ROOT
ATOM      1  C   UNL     1     132.625 126.122  99.303  1.00  0.00     0.039 A 
ATOM      2  C   UNL     1     132.681 127.500  99.639  1.00  0.00     0.124 A 
ATOM      3  C   UNL     1     132.313 125.189 100.310  1.00  0.00     0.014 A 
ATOM      4  C   UNL     1     132.365 127.909 100.941  1.00  0.00     0.047 A 
ATOM      5  C   UNL     1     132.021 125.613 101.608  1.00  0.00     0.001 A 
ATOM      6  C   UNL     1     132.037 126.971 101.921  1.00  0.00     0.004 A 
ENDROOT
BRANCH   1   7
ATOM      7  C   UNL     1     132.849 125.621  97.928  1.00  0.00     0.075 C 
ATOM      8  O   UNL     1     132.172 126.060  96.962  1.00  0.00    -0.545 OA
ATOM      9  O   UNL     1     133.768 124.604  97.701  1.00  0.00    -0.545 OA
ENDBRANCH   1   7
BRANCH   2  10
ATOM     10  O   UNL     1     133.075 128.483  98.728  1.00  0.00    -0.507 OA
ATOM     11  H   UNL     1     133.049 129.473  98.927  1.00  0.00     0.293 HD
ENDBRANCH   2  10
TORSDOF 2
ENDMDL
MODEL 4
REMARK VINA RESULT:    -3.220     15.380     15.727
REMARK INTER + INTRA:          -3.755
REMARK INTER:                  -3.531
REMARK INTRA:                  -0.223
REMARK UNBOUND:                -0.253
REMARK SMILES O=C([O-])c1ccccc1O
REMARK SMILES IDX 4 1 9 2 5 3 8 4 6 5 7 6 2 7 1 8 3 9 10 10
REMARK H PARENT 10 11
REMARK Flexibility Score: inf
ROOT
ATOM      1  C   UNL     1     118.930 125.433  99.631  1.00  0.00     0.039 A 
ATOM      2  C   UNL     1     118.899 124.044  99.924  1.00  0.00     0.124 A 
ATOM      3  C   UNL     1     119.252 126.338 100.660  1.00  0.00     0.014 A 
ATOM      4  C   UNL     1     119.247 123.599 101.206  1.00  0.00     0.047 A 
ATOM      5  C   UNL     1     119.576 125.877 101.938  1.00  0.00     0.001 A 
ATOM      6  C   UNL     1     119.583 124.510 102.209  1.00  0.00     0.004 A 
ENDROOT
BRANCH   1   7
ATOM      7  C   UNL     1     118.671 125.973  98.278  1.00  0.00     0.075 C 
ATOM      8  O   UNL     1     119.318 125.558  97.281  1.00  0.00    -0.545 OA
ATOM      9  O   UNL     1     117.753 127.002  98.105  1.00  0.00    -0.545 OA
ENDBRANCH   1   7
BRANCH   2  10
ATOM     10  O   UNL     1     118.498 123.085  98.991  1.00  0.00    -0.507 OA
ATOM     11  H   UNL     1     119.012 122.878  98.147  1.00  0.00     0.293 HD
ENDBRANCH   2  10
TORSDOF 2
ENDMDL
MODEL 5
REMARK VINA RESULT:    -3.208      3.064      3.804
REMARK INTER + INTRA:          -3.742
REMARK INTER:                  -3.516
REMARK INTRA:                  -0.226
REMARK UNBOUND:                -0.253
REMARK SMILES O=C([O-])c1ccccc1O
REMARK SMILES IDX 4 1 9 2 5 3 8 4 6 5 7 6 2 7 1 8 3 9 10 10
REMARK H PARENT 10 11
REMARK Flexibility Score: inf
ROOT
ATOM      1  C   UNL     1     133.881 124.873  98.740  1.00  0.00     0.039 A 
ATOM      2  C   UNL     1     135.179 124.866  98.165  1.00  0.00     0.124 A 
ATOM      3  C   UNL     1     133.554 123.887  99.690  1.00  0.00     0.014 A 
ATOM      4  C   UNL     1     136.123 123.924  98.595  1.00  0.00     0.047 A 
ATOM      5  C   UNL     1     134.501 122.943 100.093  1.00  0.00     0.001 A 
ATOM      6  C   UNL     1     135.786 122.967  99.553  1.00  0.00     0.004 A 
ENDROOT
BRANCH   1   7
ATOM      7  C   UNL     1     132.862 125.894  98.410  1.00  0.00     0.075 C 
ATOM      8  O   UNL     1     131.725 125.559  97.986  1.00  0.00    -0.545 OA
ATOM      9  O   UNL     1     133.176 127.244  98.502  1.00  0.00    -0.545 OA
ENDBRANCH   1   7
BRANCH   2  10
ATOM     10  O   UNL     1     135.557 125.745  97.148  1.00  0.00    -0.507 OA
ATOM     11  H   UNL     1     136.081 125.463  96.331  1.00  0.00     0.293 HD
ENDBRANCH   2  10
TORSDOF 2
ENDMDL
MODEL 6
REMARK VINA RESULT:    -3.183      5.338      6.304
REMARK INTER + INTRA:          -3.715
REMARK INTER:                  -3.480
REMARK INTRA:                  -0.234
REMARK UNBOUND:                -0.253
REMARK SMILES O=C([O-])c1ccccc1O
REMARK SMILES IDX 4 1 9 2 5 3 8 4 6 5 7 6 2 7 1 8 3 9 10 10
REMARK H PARENT 10 11
REMARK Flexibility Score: inf
ROOT
ATOM      1  C   UNL     1     132.068 127.055 100.358  1.00  0.00     0.039 A 
ATOM      2  C   UNL     1     132.766 127.500  99.205  1.00  0.00     0.124 A 
ATOM      3  C   UNL     1     132.042 125.677 100.647  1.00  0.00     0.014 A 
ATOM      4  C   UNL     1     133.463 126.575  98.417  1.00  0.00     0.047 A 
ATOM      5  C   UNL     1     132.726 124.767  99.839  1.00  0.00     0.001 A 
ATOM      6  C   UNL     1     133.443 125.216  98.730  1.00  0.00     0.004 A 
ENDROOT
BRANCH   1   7
ATOM      7  C   UNL     1     131.390 127.979 101.293  1.00  0.00     0.075 C 
ATOM      8  O   UNL     1     131.169 127.645 102.486  1.00  0.00    -0.545 OA
ATOM      9  O   UNL     1     130.927 129.209 100.842  1.00  0.00    -0.545 OA
ENDBRANCH   1   7
BRANCH   2  10
ATOM     10  O   UNL     1     132.763 128.834  98.790  1.00  0.00    -0.507 OA
ATOM     11  H   UNL     1     132.103 129.211  98.125  1.00  0.00     0.293 HD
ENDBRANCH   2  10
TORSDOF 2
ENDMDL
MODEL 7
REMARK VINA RESULT:    -3.152     15.084     16.543
REMARK INTER + INTRA:          -3.681
REMARK INTER:                  -3.432
REMARK INTRA:                  -0.250
REMARK UNBOUND:                -0.253
REMARK SMILES O=C([O-])c1ccccc1O
REMARK SMILES IDX 4 1 9 2 5 3 8 4 6 5 7 6 2 7 1 8 3 9 10 10
REMARK H PARENT 10 11
REMARK Flexibility Score: inf
ROOT
ATOM      1  C   UNL     1     118.099 126.760  95.904  1.00  0.00     0.039 A 
ATOM      2  C   UNL     1     116.720 127.020  96.122  1.00  0.00     0.124 A 
ATOM      3  C   UNL     1     118.899 126.376  96.998  1.00  0.00     0.014 A 
ATOM      4  C   UNL     1     116.173 126.831  97.398  1.00  0.00     0.047 A 
ATOM      5  C   UNL     1     118.341 126.213  98.267  1.00  0.00     0.001 A 
ATOM      6  C   UNL     1     116.978 126.431  98.465  1.00  0.00     0.004 A 
ENDROOT
BRANCH   1   7
ATOM      7  C   UNL     1     118.730 126.841  94.569  1.00  0.00     0.075 C 
ATOM      8  O   UNL     1     118.104 126.485  93.536  1.00  0.00    -0.545 OA
ATOM      9  O   UNL     1     120.053 127.249  94.449  1.00  0.00    -0.545 OA
ENDBRANCH   1   7
BRANCH   2  10
ATOM     10  O   UNL     1     115.875 127.496  95.118  1.00  0.00    -0.507 OA
ATOM     11  H   UNL     1     116.116 127.495  94.137  1.00  0.00     0.293 HD
ENDBRANCH   2  10
TORSDOF 2
ENDMDL
MODEL 8
REMARK VINA RESULT:    -3.144     15.401     16.013
REMARK INTER + INTRA:          -3.673
REMARK INTER:                  -3.423
REMARK INTRA:                  -0.250
REMARK UNBOUND:                -0.253
REMARK SMILES O=C([O-])c1ccccc1O
REMARK SMILES IDX 4 1 9 2 5 3 8 4 6 5 7 6 2 7 1 8 3 9 10 10
REMARK H PARENT 10 11
REMARK Flexibility Score: inf
ROOT
ATOM      1  C   UNL     1     119.272 124.871 100.747  1.00  0.00     0.039 A 
ATOM      2  C   UNL     1     118.761 124.268  99.567  1.00  0.00     0.124 A 
ATOM      3  C   UNL     1     119.229 126.273 100.866  1.00  0.00     0.014 A 
ATOM      4  C   UNL     1     118.171 125.068  98.580  1.00  0.00     0.047 A 
ATOM      5  C   UNL     1     118.657 127.057  99.863  1.00  0.00     0.001 A 
ATOM      6  C   UNL     1     118.120 126.455  98.725  1.00  0.00     0.004 A 
ENDROOT
BRANCH   1   7
ATOM      7  C   UNL     1     119.819 124.087 101.876  1.00  0.00     0.075 C 
ATOM      8  O   UNL     1     119.664 124.472 103.065  1.00  0.00    -0.545 OA
ATOM      9  O   UNL     1     120.574 122.947 101.630  1.00  0.00    -0.545 OA
ENDBRANCH   1   7
BRANCH   2  10
ATOM     10  O   UNL     1     118.849 122.896  99.323  1.00  0.00    -0.507 OA
ATOM     11  H   UNL     1     119.476 122.488  98.644  1.00  0.00     0.293 HD
ENDBRANCH   2  10
TORSDOF 2
ENDMDL
MODEL 9
REMARK VINA RESULT:    -3.135      2.983      3.848
REMARK INTER + INTRA:          -3.663
REMARK INTER:                  -3.410
REMARK INTRA:                  -0.253
REMARK UNBOUND:                -0.253
REMARK SMILES O=C([O-])c1ccccc1O
REMARK SMILES IDX 4 1 9 2 5 3 8 4 6 5 7 6 2 7 1 8 3 9 10 10
REMARK H PARENT 10 11
REMARK Flexibility Score: inf
ROOT
ATOM      1  C   UNL     1     134.607 123.936  98.658  1.00  0.00     0.039 A 
ATOM      2  C   UNL     1     134.582 125.200  98.012  1.00  0.00     0.124 A 
ATOM      3  C   UNL     1     133.673 123.677  99.680  1.00  0.00     0.014 A 
ATOM      4  C   UNL     1     133.598 126.136  98.356  1.00  0.00     0.047 A 
ATOM      5  C   UNL     1     132.712 124.630 100.024  1.00  0.00     0.001 A 
ATOM      6  C   UNL     1     132.668 125.854  99.358  1.00  0.00     0.004 A 
ENDROOT
BRANCH   1   7
ATOM      7  C   UNL     1     135.551 122.861  98.282  1.00  0.00     0.075 C 
ATOM      8  O   UNL     1     136.125 122.168  99.163  1.00  0.00    -0.545 OA
ATOM      9  O   UNL     1     135.866 122.648  96.946  1.00  0.00    -0.545 OA
ENDBRANCH   1   7
BRANCH   2  10
ATOM     10  O   UNL     1     135.529 125.577  97.056  1.00  0.00    -0.507 OA
ATOM     11  H   UNL     1     135.621 125.131  96.155  1.00  0.00     0.293 HD
ENDBRANCH   2  10
TORSDOF 2
ENDMDL
