MODEL 1
REMARK VINA RESULT:    -3.861      0.000      0.000
REMARK INTER + INTRA:          -4.654
REMARK INTER:                  -4.651
REMARK INTRA:                  -0.003
REMARK UNBOUND:                -0.003
REMARK SMILES OCC(O)CO
REMARK SMILES IDX 3 1 5 2 6 3 2 5 1 6 4 8
REMARK H PARENT 6 4 1 7 4 9
REMARK Flexibility Score: inf
ROOT
ATOM      1  C   UNL     1     110.264 120.190 116.716  1.00  0.00     0.165 C 
ENDROOT
BRANCH   1   2
ATOM      2  C   UNL     1     111.140 118.976 116.365  1.00  0.00     0.190 C 
BRANCH   2   3
ATOM      3  O   UNL     1     110.580 117.790 116.864  1.00  0.00    -0.394 OA
ATOM      4  H   UNL     1     109.958 118.054 117.591  1.00  0.00     0.210 HD
ENDBRANCH   2   3
ENDBRANCH   1   2
BRANCH   1   5
ATOM      5  C   UNL     1     110.841 121.480 116.117  1.00  0.00     0.190 C 
BRANCH   5   6
ATOM      6  O   UNL     1     109.934 122.539 116.267  1.00  0.00    -0.394 OA
ATOM      7  H   UNL     1     109.024 122.138 116.250  1.00  0.00     0.210 HD
ENDBRANCH   5   6
ENDBRANCH   1   5
BRANCH   1   8
ATOM      8  O   UNL     1     108.967 119.992 116.218  1.00  0.00    -0.388 OA
ATOM      9  H   UNL     1     109.037 119.980 115.227  1.00  0.00     0.211 HD
ENDBRANCH   1   8
TORSDOF 5
ENDMDL
MODEL 2
REMARK VINA RESULT:    -3.846      0.568      3.195
REMARK INTER + INTRA:          -4.635
REMARK INTER:                  -4.633
REMARK INTRA:                  -0.003
REMARK UNBOUND:                -0.003
REMARK SMILES OCC(O)CO
REMARK SMILES IDX 3 1 5 2 6 3 2 5 1 6 4 8
REMARK H PARENT 6 4 1 7 4 9
REMARK Flexibility Score: inf
ROOT
ATOM      1  C   UNL     1     110.413 120.153 116.415  1.00  0.00     0.165 C 
ENDROOT
BRANCH   1   2
ATOM      2  C   UNL     1     110.751 121.552 116.960  1.00  0.00     0.190 C 
BRANCH   2   3
ATOM      3  O   UNL     1     109.983 122.538 116.322  1.00  0.00    -0.394 OA
ATOM      4  H   UNL     1     109.102 122.552 116.779  1.00  0.00     0.210 HD
ENDBRANCH   2   3
ENDBRANCH   1   2
BRANCH   1   5
ATOM      5  C   UNL     1     110.896 119.056 117.374  1.00  0.00     0.190 C 
BRANCH   5   6
ATOM      6  O   UNL     1     110.558 117.788 116.878  1.00  0.00    -0.394 OA
ATOM      7  H   UNL     1     109.643 117.588 117.212  1.00  0.00     0.210 HD
ENDBRANCH   5   6
ENDBRANCH   1   5
BRANCH   1   8
ATOM      8  O   UNL     1     109.024 120.037 116.248  1.00  0.00    -0.388 OA
ATOM      9  H   UNL     1     108.628 120.910 116.509  1.00  0.00     0.211 HD
ENDBRANCH   1   8
TORSDOF 5
ENDMDL
MODEL 3
REMARK VINA RESULT:    -3.785      1.417      3.268
REMARK INTER + INTRA:          -4.562
REMARK INTER:                  -4.341
REMARK INTRA:                  -0.220
REMARK UNBOUND:                -0.003
REMARK SMILES OCC(O)CO
REMARK SMILES IDX 3 1 5 2 6 3 2 5 1 6 4 8
REMARK H PARENT 6 4 1 7 4 9
REMARK Flexibility Score: inf
ROOT
ATOM      1  C   UNL     1     110.872 121.275 116.996  1.00  0.00     0.165 C 
ENDROOT
BRANCH   1   2
ATOM      2  C   UNL     1     110.723 122.651 116.325  1.00  0.00     0.190 C 
BRANCH   2   3
ATOM      3  O   UNL     1     109.682 122.642 115.385  1.00  0.00    -0.394 OA
ATOM      4  H   UNL     1     109.787 123.463 114.836  1.00  0.00     0.210 HD
ENDBRANCH   2   3
ENDBRANCH   1   2
BRANCH   1   5
ATOM      5  C   UNL     1     110.359 120.155 116.081  1.00  0.00     0.190 C 
BRANCH   5   6
ATOM      6  O   UNL     1     108.974 119.994 116.231  1.00  0.00    -0.394 OA
ATOM      7  H   UNL     1     108.771 120.167 117.188  1.00  0.00     0.210 HD
ENDBRANCH   5   6
ENDBRANCH   1   5
BRANCH   1   8
ATOM      8  O   UNL     1     112.223 121.042 117.294  1.00  0.00    -0.388 OA
ATOM      9  H   UNL     1     112.390 120.075 117.137  1.00  0.00     0.211 HD
ENDBRANCH   1   8
TORSDOF 5
ENDMDL
MODEL 4
REMARK VINA RESULT:    -3.704      1.465      2.142
REMARK INTER + INTRA:          -4.465
REMARK INTER:                  -4.245
REMARK INTRA:                  -0.219
REMARK UNBOUND:                -0.003
REMARK SMILES OCC(O)CO
REMARK SMILES IDX 3 1 5 2 6 3 2 5 1 6 4 8
REMARK H PARENT 6 4 1 7 4 9
REMARK Flexibility Score: inf
ROOT
ATOM      1  C   UNL     1     111.271 120.971 116.540  1.00  0.00     0.165 C 
ENDROOT
BRANCH   1   2
ATOM      2  C   UNL     1     110.127 120.059 117.016  1.00  0.00     0.190 C 
BRANCH   2   3
ATOM      3  O   UNL     1     109.070 120.056 116.094  1.00  0.00    -0.394 OA
ATOM      4  H   UNL     1     108.462 120.795 116.357  1.00  0.00     0.210 HD
ENDBRANCH   2   3
ENDBRANCH   1   2
BRANCH   1   5
ATOM      5  C   UNL     1     110.880 122.452 116.652  1.00  0.00     0.190 C 
BRANCH   5   6
ATOM      6  O   UNL     1     109.890 122.769 115.711  1.00  0.00    -0.394 OA
ATOM      7  H   UNL     1     109.363 121.940 115.563  1.00  0.00     0.210 HD
ENDBRANCH   5   6
ENDBRANCH   1   5
BRANCH   1   8
ATOM      8  O   UNL     1     112.413 120.738 117.321  1.00  0.00    -0.388 OA
ATOM      9  H   UNL     1     113.193 121.055 116.794  1.00  0.00     0.211 HD
ENDBRANCH   1   8
TORSDOF 5
ENDMDL
MODEL 5
REMARK VINA RESULT:    -3.696      1.420      2.097
REMARK INTER + INTRA:          -4.455
REMARK INTER:                  -4.244
REMARK INTRA:                  -0.211
REMARK UNBOUND:                -0.003
REMARK SMILES OCC(O)CO
REMARK SMILES IDX 3 1 5 2 6 3 2 5 1 6 4 8
REMARK H PARENT 6 4 1 7 4 9
REMARK Flexibility Score: inf
ROOT
ATOM      1  C   UNL     1     111.351 119.446 116.233  1.00  0.00     0.165 C 
ENDROOT
BRANCH   1   2
ATOM      2  C   UNL     1     111.593 118.082 116.901  1.00  0.00     0.190 C 
BRANCH   2   3
ATOM      3  O   UNL     1     110.427 117.612 117.523  1.00  0.00    -0.394 OA
ATOM      4  H   UNL     1     110.714 117.140 118.347  1.00  0.00     0.210 HD
ENDBRANCH   2   3
ENDBRANCH   1   2
BRANCH   1   5
ATOM      5  C   UNL     1     110.221 120.213 116.935  1.00  0.00     0.190 C 
BRANCH   5   6
ATOM      6  O   UNL     1     109.004 120.012 116.268  1.00  0.00    -0.394 OA
ATOM      7  H   UNL     1     108.778 120.873 115.825  1.00  0.00     0.210 HD
ENDBRANCH   5   6
ENDBRANCH   1   5
BRANCH   1   8
ATOM      8  O   UNL     1     112.526 120.211 116.286  1.00  0.00    -0.388 OA
ATOM      9  H   UNL     1     112.374 121.013 115.722  1.00  0.00     0.211 HD
ENDBRANCH   1   8
TORSDOF 5
ENDMDL
MODEL 6
REMARK VINA RESULT:    -3.674      1.430      3.249
REMARK INTER + INTRA:          -4.429
REMARK INTER:                  -4.208
REMARK INTRA:                  -0.221
REMARK UNBOUND:                -0.003
REMARK SMILES OCC(O)CO
REMARK SMILES IDX 3 1 5 2 6 3 2 5 1 6 4 8
REMARK H PARENT 6 4 1 7 4 9
REMARK Flexibility Score: inf
ROOT
ATOM      1  C   UNL     1     111.640 119.543 116.911  1.00  0.00     0.165 C 
ENDROOT
BRANCH   1   2
ATOM      2  C   UNL     1     110.427 120.463 117.130  1.00  0.00     0.190 C 
BRANCH   2   3
ATOM      3  O   UNL     1     109.302 119.983 116.444  1.00  0.00    -0.394 OA
ATOM      4  H   UNL     1     109.145 119.058 116.768  1.00  0.00     0.210 HD
ENDBRANCH   2   3
ENDBRANCH   1   2
BRANCH   1   5
ATOM      5  C   UNL     1     111.195 118.114 116.568  1.00  0.00     0.190 C 
BRANCH   5   6
ATOM      6  O   UNL     1     110.523 117.535 117.654  1.00  0.00    -0.394 OA
ATOM      7  H   UNL     1     109.974 116.793 117.286  1.00  0.00     0.210 HD
ENDBRANCH   5   6
ENDBRANCH   1   5
BRANCH   1   8
ATOM      8  O   UNL     1     112.426 120.043 115.861  1.00  0.00    -0.388 OA
ATOM      9  H   UNL     1     113.374 119.959 116.145  1.00  0.00     0.211 HD
ENDBRANCH   1   8
TORSDOF 5
ENDMDL
MODEL 7
REMARK VINA RESULT:    -3.610      1.592      2.484
REMARK INTER + INTRA:          -4.352
REMARK INTER:                  -4.350
REMARK INTRA:                  -0.002
REMARK UNBOUND:                -0.003
REMARK SMILES OCC(O)CO
REMARK SMILES IDX 3 1 5 2 6 3 2 5 1 6 4 8
REMARK H PARENT 6 4 1 7 4 9
REMARK Flexibility Score: inf
ROOT
ATOM      1  C   UNL     1     110.916 122.050 116.705  1.00  0.00     0.165 C 
ENDROOT
BRANCH   1   2
ATOM      2  C   UNL     1     110.540 120.593 117.022  1.00  0.00     0.190 C 
BRANCH   2   3
ATOM      3  O   UNL     1     109.325 120.244 116.415  1.00  0.00    -0.394 OA
ATOM      4  H   UNL     1     109.472 120.297 115.434  1.00  0.00     0.210 HD
ENDBRANCH   2   3
ENDBRANCH   1   2
BRANCH   1   5
ATOM      5  C   UNL     1     112.160 122.117 115.808  1.00  0.00     0.190 C 
BRANCH   5   6
ATOM      6  O   UNL     1     113.319 122.240 116.588  1.00  0.00    -0.394 OA
ATOM      7  H   UNL     1     114.061 121.844 116.058  1.00  0.00     0.210 HD
ENDBRANCH   5   6
ENDBRANCH   1   5
BRANCH   1   8
ATOM      8  O   UNL     1     109.845 122.679 116.051  1.00  0.00    -0.388 OA
ATOM      9  H   UNL     1     110.207 123.066 115.211  1.00  0.00     0.211 HD
ENDBRANCH   1   8
TORSDOF 5
ENDMDL
MODEL 8
REMARK VINA RESULT:    -3.502      1.512      2.710
REMARK INTER + INTRA:          -4.221
REMARK INTER:                  -4.000
REMARK INTRA:                  -0.221
REMARK UNBOUND:                -0.003
REMARK SMILES OCC(O)CO
REMARK SMILES IDX 3 1 5 2 6 3 2 5 1 6 4 8
REMARK H PARENT 6 4 1 7 4 9
REMARK Flexibility Score: inf
ROOT
ATOM      1  C   UNL     1     110.637 121.699 115.557  1.00  0.00     0.165 C 
ENDROOT
BRANCH   1   2
ATOM      2  C   UNL     1     111.231 122.059 116.929  1.00  0.00     0.190 C 
BRANCH   2   3
ATOM      3  O   UNL     1     112.069 121.036 117.397  1.00  0.00    -0.394 OA
ATOM      4  H   UNL     1     112.949 121.165 116.956  1.00  0.00     0.210 HD
ENDBRANCH   2   3
ENDBRANCH   1   2
BRANCH   1   5
ATOM      5  C   UNL     1     110.041 120.285 115.566  1.00  0.00     0.190 C 
BRANCH   5   6
ATOM      6  O   UNL     1     109.316 120.066 116.746  1.00  0.00    -0.394 OA
ATOM      7  H   UNL     1     108.848 120.918 116.954  1.00  0.00     0.210 HD
ENDBRANCH   5   6
ENDBRANCH   1   5
BRANCH   1   8
ATOM      8  O   UNL     1     109.630 122.619 115.226  1.00  0.00    -0.388 OA
ATOM      9  H   UNL     1     108.766 122.133 115.281  1.00  0.00     0.211 HD
ENDBRANCH   1   8
TORSDOF 5
ENDMDL
MODEL 9
REMARK VINA RESULT:    -3.497      1.505      2.401
REMARK INTER + INTRA:          -4.215
REMARK INTER:                  -3.992
REMARK INTRA:                  -0.223
REMARK UNBOUND:                -0.003
REMARK SMILES OCC(O)CO
REMARK SMILES IDX 3 1 5 2 6 3 2 5 1 6 4 8
REMARK H PARENT 6 4 1 7 4 9
REMARK Flexibility Score: inf
ROOT
ATOM      1  C   UNL     1     111.186 118.891 117.422  1.00  0.00     0.165 C 
ENDROOT
BRANCH   1   2
ATOM      2  C   UNL     1     112.421 119.200 116.558  1.00  0.00     0.190 C 
BRANCH   2   3
ATOM      3  O   UNL     1     112.291 120.443 115.921  1.00  0.00    -0.394 OA
ATOM      4  H   UNL     1     112.842 120.399 115.097  1.00  0.00     0.210 HD
ENDBRANCH   2   3
ENDBRANCH   1   2
BRANCH   1   5
ATOM      5  C   UNL     1     110.190 120.059 117.399  1.00  0.00     0.190 C 
BRANCH   5   6
ATOM      6  O   UNL     1     109.388 119.997 116.251  1.00  0.00    -0.394 OA
ATOM      7  H   UNL     1     109.991 119.761 115.496  1.00  0.00     0.210 HD
ENDBRANCH   5   6
ENDBRANCH   1   5
BRANCH   1   8
ATOM      8  O   UNL     1     110.551 117.737 116.938  1.00  0.00    -0.388 OA
ATOM      9  H   UNL     1     109.898 117.455 117.631  1.00  0.00     0.211 HD
ENDBRANCH   1   8
TORSDOF 5
ENDMDL
