MODEL 1
REMARK VINA RESULT:    -4.169      0.000      0.000
REMARK INTER + INTRA:          -4.291
REMARK INTER:                  -4.291
REMARK INTRA:                   0.000
REMARK UNBOUND:                 0.000
REMARK SMILES Nc1ncnc2nc[nH]c12
REMARK SMILES IDX 8 1 7 2 6 3 5 4 4 5 3 6 2 7 10 8 9 9 1 11
REMARK H PARENT 9 10 1 12 1 13
REMARK Flexibility Score: inf
ROOT
ATOM      1  C   UNL     1      30.238  15.475  23.634  1.00  0.00     0.199 A 
ATOM      2  N   UNL     1      31.280  15.737  24.469  1.00  0.00    -0.217 NA
ATOM      3  C   UNL     1      31.326  14.628  25.225  1.00  0.00     0.182 A 
ATOM      4  N   UNL     1      32.198  14.371  26.229  1.00  0.00    -0.215 NA
ATOM      5  C   UNL     1      32.088  13.177  26.888  1.00  0.00     0.226 A 
ATOM      6  N   UNL     1      31.120  12.272  26.533  1.00  0.00    -0.217 NA
ATOM      7  C   UNL     1      30.240  12.530  25.520  1.00  0.00     0.152 A 
ATOM      8  C   UNL     1      30.364  13.749  24.860  1.00  0.00     0.127 A 
ATOM      9  N   UNL     1      29.658  14.267  23.847  1.00  0.00    -0.340 N 
ATOM     10  H   UNL     1      28.850  13.850  23.335  1.00  0.00     0.168 HD
ENDROOT
BRANCH   7  11
ATOM     11  N   UNL     1      29.240  11.573  25.168  1.00  0.00    -0.382 N 
ATOM     12  H   UNL     1      29.488  10.592  24.918  1.00  0.00     0.158 HD
ATOM     13  H   UNL     1      28.233  11.851  25.158  1.00  0.00     0.158 HD
ENDBRANCH   7  11
TORSDOF 1
ENDMDL
MODEL 2
REMARK VINA RESULT:    -4.153      8.721     10.567
REMARK INTER + INTRA:          -4.274
REMARK INTER:                  -4.274
REMARK INTRA:                   0.000
REMARK UNBOUND:                 0.000
REMARK SMILES Nc1ncnc2nc[nH]c12
REMARK SMILES IDX 8 1 7 2 6 3 5 4 4 5 3 6 2 7 10 8 9 9 1 11
REMARK H PARENT 9 10 1 12 1 13
REMARK Flexibility Score: inf
ROOT
ATOM      1  C   UNL     1      28.811  22.241  25.361  1.00  0.00     0.199 A 
ATOM      2  N   UNL     1      29.816  21.981  26.241  1.00  0.00    -0.217 NA
ATOM      3  C   UNL     1      30.574  23.086  26.143  1.00  0.00     0.182 A 
ATOM      4  N   UNL     1      31.718  23.343  26.821  1.00  0.00    -0.215 NA
ATOM      5  C   UNL     1      32.353  24.531  26.585  1.00  0.00     0.226 A 
ATOM      6  N   UNL     1      31.838  25.431  25.687  1.00  0.00    -0.217 NA
ATOM      7  C   UNL     1      30.684  25.172  25.002  1.00  0.00     0.152 A 
ATOM      8  C   UNL     1      30.049  23.959  25.252  1.00  0.00     0.127 A 
ATOM      9  N   UNL     1      28.925  23.442  24.741  1.00  0.00    -0.340 N 
ATOM     10  H   UNL     1      28.280  23.856  24.032  1.00  0.00     0.168 HD
ENDROOT
BRANCH   7  11
ATOM     11  N   UNL     1      30.166  26.123  24.070  1.00  0.00    -0.382 N 
ATOM     12  H   UNL     1      29.693  26.996  24.389  1.00  0.00     0.158 HD
ATOM     13  H   UNL     1      30.258  25.951  23.044  1.00  0.00     0.158 HD
ENDBRANCH   7  11
TORSDOF 1
ENDMDL
MODEL 3
REMARK VINA RESULT:    -4.145      1.151      2.968
REMARK INTER + INTRA:          -4.266
REMARK INTER:                  -4.266
REMARK INTRA:                   0.000
REMARK UNBOUND:                 0.000
REMARK SMILES Nc1ncnc2nc[nH]c12
REMARK SMILES IDX 8 1 7 2 6 3 5 4 4 5 3 6 2 7 10 8 9 9 1 11
REMARK H PARENT 9 10 1 12 1 13
REMARK Flexibility Score: inf
ROOT
ATOM      1  C   UNL     1      31.909  13.749  28.372  1.00  0.00     0.199 A 
ATOM      2  N   UNL     1      32.002  14.947  27.733  1.00  0.00    -0.217 NA
ATOM      3  C   UNL     1      31.389  14.696  26.565  1.00  0.00     0.182 A 
ATOM      4  N   UNL     1      31.205  15.569  25.546  1.00  0.00    -0.215 NA
ATOM      5  C   UNL     1      30.553  15.126  24.428  1.00  0.00     0.226 A 
ATOM      6  N   UNL     1      30.102  13.833  24.350  1.00  0.00    -0.217 NA
ATOM      7  C   UNL     1      30.288  12.951  25.377  1.00  0.00     0.152 A 
ATOM      8  C   UNL     1      30.953  13.416  26.508  1.00  0.00     0.127 A 
ATOM      9  N   UNL     1      31.273  12.793  27.650  1.00  0.00    -0.340 N 
ATOM     10  H   UNL     1      31.083  11.805  27.929  1.00  0.00     0.168 HD
ENDROOT
BRANCH   7  11
ATOM     11  N   UNL     1      29.811  11.608  25.275  1.00  0.00    -0.382 N 
ATOM     12  H   UNL     1      29.930  10.928  26.057  1.00  0.00     0.158 HD
ATOM     13  H   UNL     1      29.331  11.290  24.404  1.00  0.00     0.158 HD
ENDBRANCH   7  11
TORSDOF 1
ENDMDL
MODEL 4
REMARK VINA RESULT:    -4.059     12.339     13.577
REMARK INTER + INTRA:          -4.177
REMARK INTER:                  -4.177
REMARK INTRA:                   0.000
REMARK UNBOUND:                 0.000
REMARK SMILES Nc1ncnc2nc[nH]c12
REMARK SMILES IDX 8 1 7 2 6 3 5 4 4 5 3 6 2 7 10 8 9 9 1 11
REMARK H PARENT 9 10 1 12 1 13
REMARK Flexibility Score: inf
ROOT
ATOM      1  C   UNL     1      20.903  11.884  15.903  1.00  0.00     0.199 A 
ATOM      2  N   UNL     1      21.519  12.523  16.935  1.00  0.00    -0.217 NA
ATOM      3  C   UNL     1      20.555  12.552  17.869  1.00  0.00     0.182 A 
ATOM      4  N   UNL     1      20.647  13.087  19.110  1.00  0.00    -0.215 NA
ATOM      5  C   UNL     1      19.551  13.019  19.924  1.00  0.00     0.226 A 
ATOM      6  N   UNL     1      18.394  12.425  19.489  1.00  0.00    -0.217 NA
ATOM      7  C   UNL     1      18.299  11.885  18.237  1.00  0.00     0.152 A 
ATOM      8  C   UNL     1      19.423  11.961  17.419  1.00  0.00     0.127 A 
ATOM      9  N   UNL     1      19.621  11.527  16.168  1.00  0.00    -0.340 N 
ATOM     10  H   UNL     1      18.955  11.031  15.536  1.00  0.00     0.168 HD
ENDROOT
BRANCH   7  11
ATOM     11  N   UNL     1      17.085  11.271  17.803  1.00  0.00    -0.382 N 
ATOM     12  H   UNL     1      16.267  11.839  17.494  1.00  0.00     0.158 HD
ATOM     13  H   UNL     1      17.002  10.229  17.790  1.00  0.00     0.158 HD
ENDBRANCH   7  11
TORSDOF 1
ENDMDL
MODEL 5
REMARK VINA RESULT:    -4.043     16.359     17.976
REMARK INTER + INTRA:          -4.161
REMARK INTER:                  -4.161
REMARK INTRA:                   0.000
REMARK UNBOUND:                 0.000
REMARK SMILES Nc1ncnc2nc[nH]c12
REMARK SMILES IDX 8 1 7 2 6 3 5 4 4 5 3 6 2 7 10 8 9 9 1 11
REMARK H PARENT 9 10 1 12 1 13
REMARK Flexibility Score: inf
ROOT
ATOM      1  C   UNL     1      19.509  25.760  17.423  1.00  0.00     0.199 A 
ATOM      2  N   UNL     1      20.634  25.139  17.871  1.00  0.00    -0.217 NA
ATOM      3  C   UNL     1      21.419  25.150  16.782  1.00  0.00     0.182 A 
ATOM      4  N   UNL     1      22.673  24.647  16.685  1.00  0.00    -0.215 NA
ATOM      5  C   UNL     1      23.320  24.753  15.485  1.00  0.00     0.226 A 
ATOM      6  N   UNL     1      22.708  25.355  14.414  1.00  0.00    -0.217 NA
ATOM      7  C   UNL     1      21.443  25.863  14.510  1.00  0.00     0.152 A 
ATOM      8  C   UNL     1      20.798  25.747  15.738  1.00  0.00     0.127 A 
ATOM      9  N   UNL     1      19.578  26.144  16.123  1.00  0.00    -0.340 N 
ATOM     10  H   UNL     1      18.845  26.634  15.565  1.00  0.00     0.168 HD
ENDROOT
BRANCH   7  11
ATOM     11  N   UNL     1      20.824  26.485  13.383  1.00  0.00    -0.382 N 
ATOM     12  H   UNL     1      20.047  27.171  13.498  1.00  0.00     0.158 HD
ATOM     13  H   UNL     1      21.149  26.256  12.417  1.00  0.00     0.158 HD
ENDBRANCH   7  11
TORSDOF 1
ENDMDL
MODEL 6
REMARK VINA RESULT:    -4.042      9.091     10.766
REMARK INTER + INTRA:          -4.160
REMARK INTER:                  -4.160
REMARK INTRA:                   0.000
REMARK UNBOUND:                 0.000
REMARK SMILES Nc1ncnc2nc[nH]c12
REMARK SMILES IDX 8 1 7 2 6 3 5 4 4 5 3 6 2 7 10 8 9 9 1 11
REMARK H PARENT 9 10 1 12 1 13
REMARK Flexibility Score: inf
ROOT
ATOM      1  C   UNL     1      32.884  24.287  26.594  1.00  0.00     0.199 A 
ATOM      2  N   UNL     1      32.217  23.115  26.774  1.00  0.00    -0.217 NA
ATOM      3  C   UNL     1      31.137  23.278  25.992  1.00  0.00     0.182 A 
ATOM      4  N   UNL     1      30.132  22.389  25.807  1.00  0.00    -0.215 NA
ATOM      5  C   UNL     1      29.110  22.737  24.967  1.00  0.00     0.226 A 
ATOM      6  N   UNL     1      29.112  23.954  24.335  1.00  0.00    -0.217 NA
ATOM      7  C   UNL     1      30.124  24.852  24.521  1.00  0.00     0.152 A 
ATOM      8  C   UNL     1      31.157  24.484  25.379  1.00  0.00     0.127 A 
ATOM      9  N   UNL     1      32.262  25.146  25.747  1.00  0.00    -0.340 N 
ATOM     10  H   UNL     1      32.580  26.096  25.457  1.00  0.00     0.168 HD
ENDROOT
BRANCH   7  11
ATOM     11  N   UNL     1      30.106  26.114  23.853  1.00  0.00    -0.382 N 
ATOM     12  H   UNL     1      30.824  26.363  23.139  1.00  0.00     0.158 HD
ATOM     13  H   UNL     1      29.360  26.811  24.075  1.00  0.00     0.158 HD
ENDBRANCH   7  11
TORSDOF 1
ENDMDL
MODEL 7
REMARK VINA RESULT:    -3.918     15.803     17.774
REMARK INTER + INTRA:          -4.032
REMARK INTER:                  -4.032
REMARK INTRA:                   0.000
REMARK UNBOUND:                 0.000
REMARK SMILES Nc1ncnc2nc[nH]c12
REMARK SMILES IDX 8 1 7 2 6 3 5 4 4 5 3 6 2 7 10 8 9 9 1 11
REMARK H PARENT 9 10 1 12 1 13
REMARK Flexibility Score: inf
ROOT
ATOM      1  C   UNL     1      19.350  25.761  17.329  1.00  0.00     0.199 A 
ATOM      2  N   UNL     1      19.355  26.196  16.040  1.00  0.00    -0.217 NA
ATOM      3  C   UNL     1      20.594  25.872  15.635  1.00  0.00     0.182 A 
ATOM      4  N   UNL     1      21.125  26.090  14.408  1.00  0.00    -0.215 NA
ATOM      5  C   UNL     1      22.412  25.687  14.183  1.00  0.00     0.226 A 
ATOM      6  N   UNL     1      23.137  25.080  15.177  1.00  0.00    -0.217 NA
ATOM      7  C   UNL     1      22.602  24.860  16.415  1.00  0.00     0.152 A 
ATOM      8  C   UNL     1      21.291  25.275  16.629  1.00  0.00     0.127 A 
ATOM      9  N   UNL     1      20.519  25.193  17.720  1.00  0.00    -0.340 N 
ATOM     10  H   UNL     1      20.749  24.790  18.654  1.00  0.00     0.168 HD
ENDROOT
BRANCH   7  11
ATOM     11  N   UNL     1      23.375  24.226  17.435  1.00  0.00    -0.382 N 
ATOM     12  H   UNL     1      23.174  24.382  18.447  1.00  0.00     0.158 HD
ATOM     13  H   UNL     1      24.162  23.590  17.175  1.00  0.00     0.158 HD
ENDBRANCH   7  11
TORSDOF 1
ENDMDL
MODEL 8
REMARK VINA RESULT:    -3.872     11.684     13.082
REMARK INTER + INTRA:          -3.985
REMARK INTER:                  -3.985
REMARK INTRA:                   0.000
REMARK UNBOUND:                 0.000
REMARK SMILES Nc1ncnc2nc[nH]c12
REMARK SMILES IDX 8 1 7 2 6 3 5 4 4 5 3 6 2 7 10 8 9 9 1 11
REMARK H PARENT 9 10 1 12 1 13
REMARK Flexibility Score: inf
ROOT
ATOM      1  C   UNL     1      20.903  13.807  19.811  1.00  0.00     0.199 A 
ATOM      2  N   UNL     1      21.846  13.732  18.834  1.00  0.00    -0.217 NA
ATOM      3  C   UNL     1      21.237  12.975  17.907  1.00  0.00     0.182 A 
ATOM      4  N   UNL     1      21.750  12.591  16.713  1.00  0.00    -0.215 NA
ATOM      5  C   UNL     1      20.973  11.815  15.898  1.00  0.00     0.226 A 
ATOM      6  N   UNL     1      19.711  11.441  16.286  1.00  0.00    -0.217 NA
ATOM      7  C   UNL     1      19.193  11.827  17.490  1.00  0.00     0.152 A 
ATOM      8  C   UNL     1      19.996  12.617  18.309  1.00  0.00     0.127 A 
ATOM      9  N   UNL     1      19.760  13.136  19.521  1.00  0.00    -0.340 N 
ATOM     10  H   UNL     1      18.904  13.052  20.111  1.00  0.00     0.168 HD
ENDROOT
BRANCH   7  11
ATOM     11  N   UNL     1      17.877  11.426  17.874  1.00  0.00    -0.382 N 
ATOM     12  H   UNL     1      17.505  10.481  17.639  1.00  0.00     0.158 HD
ATOM     13  H   UNL     1      17.265  12.086  18.405  1.00  0.00     0.158 HD
ENDBRANCH   7  11
TORSDOF 1
ENDMDL
MODEL 9
REMARK VINA RESULT:    -3.867     12.012     13.563
REMARK INTER + INTRA:          -3.980
REMARK INTER:                  -3.980
REMARK INTRA:                   0.000
REMARK UNBOUND:                 0.000
REMARK SMILES Nc1ncnc2nc[nH]c12
REMARK SMILES IDX 8 1 7 2 6 3 5 4 4 5 3 6 2 7 10 8 9 9 1 11
REMARK H PARENT 9 10 1 12 1 13
REMARK Flexibility Score: inf
ROOT
ATOM      1  C   UNL     1      18.131  12.187  19.753  1.00  0.00     0.199 A 
ATOM      2  N   UNL     1      17.871  11.604  18.551  1.00  0.00    -0.217 NA
ATOM      3  C   UNL     1      18.997  11.856  17.863  1.00  0.00     0.182 A 
ATOM      4  N   UNL     1      19.264  11.486  16.587  1.00  0.00    -0.215 NA
ATOM      5  C   UNL     1      20.474  11.836  16.055  1.00  0.00     0.226 A 
ATOM      6  N   UNL     1      21.386  12.540  16.799  1.00  0.00    -0.217 NA
ATOM      7  C   UNL     1      21.118  12.914  18.086  1.00  0.00     0.152 A 
ATOM      8  C   UNL     1      19.882  12.551  18.614  1.00  0.00     0.127 A 
ATOM      9  N   UNL     1      19.352  12.774  19.823  1.00  0.00    -0.340 N 
ATOM     10  H   UNL     1      19.769  13.279  20.636  1.00  0.00     0.168 HD
ENDROOT
BRANCH   7  11
ATOM     11  N   UNL     1      22.081  13.648  18.843  1.00  0.00    -0.382 N 
ATOM     12  H   UNL     1      23.093  13.394  18.830  1.00  0.00     0.158 HD
ATOM     13  H   UNL     1      21.778  14.461  19.425  1.00  0.00     0.158 HD
ENDBRANCH   7  11
TORSDOF 1
ENDMDL
