MODEL 1
REMARK VINA RESULT:    -4.949      0.000      0.000
REMARK INTER + INTRA:          -8.121
REMARK INTER:                  -7.553
REMARK INTRA:                  -0.567
REMARK UNBOUND:                -0.567
REMARK SMILES CCCCCCCCCC=CC(=O)[O-]
REMARK SMILES IDX 7 1 8 2 9 3 10 4 11 5 12 6 13 7 14 8 6 9 5 10 4 11 3 12 2 13
REMARK SMILES IDX 1 14
REMARK H PARENT
REMARK Flexibility Score: inf
ROOT
ATOM      1  C   UNL     1      -8.039  37.235  17.001  1.00  0.00     0.000 C 
ENDROOT
BRANCH   1   2
ATOM      2  C   UNL     1      -8.691  35.913  16.578  1.00  0.00     0.004 C 
BRANCH   2   3
ATOM      3  C   UNL     1      -7.663  34.813  16.273  1.00  0.00     0.027 C 
BRANCH   3   4
ATOM      4  C   UNL     1      -8.050  33.994  15.069  1.00  0.00    -0.025 C 
ATOM      5  C   UNL     1      -7.595  34.130  13.812  1.00  0.00     0.020 C 
BRANCH   5   6
ATOM      6  C   UNL     1      -6.575  35.082  13.321  1.00  0.00     0.064 C 
ATOM      7  O   UNL     1      -5.574  34.631  12.705  1.00  0.00    -0.545 OA
ATOM      8  O   UNL     1      -6.668  36.451  13.525  1.00  0.00    -0.545 OA
ENDBRANCH   5   6
ENDBRANCH   3   4
ENDBRANCH   2   3
ENDBRANCH   1   2
BRANCH   1   9
ATOM      9  C   UNL     1      -6.530  37.058  17.227  1.00  0.00     0.000 C 
BRANCH   9  10
ATOM     10  C   UNL     1      -5.952  38.096  18.201  1.00  0.00     0.000 C 
BRANCH  10  11
ATOM     11  C   UNL     1      -4.516  38.509  17.844  1.00  0.00    -0.000 C 
BRANCH  11  12
ATOM     12  C   UNL     1      -4.147  39.843  18.511  1.00  0.00    -0.000 C 
BRANCH  12  13
ATOM     13  C   UNL     1      -3.006  40.570  17.786  1.00  0.00    -0.003 C 
ATOM     14  C   UNL     1      -2.378  39.729  16.675  1.00  0.00     0.004 C 
ENDBRANCH  12  13
ENDBRANCH  11  12
ENDBRANCH  10  11
ENDBRANCH   9  10
ENDBRANCH   1   9
TORSDOF 9
ENDMDL
MODEL 2
REMARK VINA RESULT:    -4.840     11.765     14.017
REMARK INTER + INTRA:          -7.954
REMARK INTER:                  -7.025
REMARK INTRA:                  -0.929
REMARK UNBOUND:                -0.567
REMARK SMILES CCCCCCCCCC=CC(=O)[O-]
REMARK SMILES IDX 7 1 8 2 9 3 10 4 11 5 12 6 13 7 14 8 6 9 5 10 4 11 3 12 2 13
REMARK SMILES IDX 1 14
REMARK H PARENT
REMARK Flexibility Score: inf
ROOT
ATOM      1  C   UNL     1       5.101  44.083  14.850  1.00  0.00     0.000 C 
ENDROOT
BRANCH   1   2
ATOM      2  C   UNL     1       6.445  43.743  15.504  1.00  0.00     0.004 C 
BRANCH   2   3
ATOM      3  C   UNL     1       6.634  44.425  16.867  1.00  0.00     0.027 C 
BRANCH   3   4
ATOM      4  C   UNL     1       5.478  44.160  17.797  1.00  0.00    -0.025 C 
ATOM      5  C   UNL     1       5.363  43.161  18.687  1.00  0.00     0.020 C 
BRANCH   5   6
ATOM      6  C   UNL     1       6.357  42.112  18.999  1.00  0.00     0.064 C 
ATOM      7  O   UNL     1       6.395  41.081  18.278  1.00  0.00    -0.545 OA
ATOM      8  O   UNL     1       7.240  42.210  20.064  1.00  0.00    -0.545 OA
ENDBRANCH   5   6
ENDBRANCH   3   4
ENDBRANCH   2   3
ENDBRANCH   1   2
BRANCH   1   9
ATOM      9  C   UNL     1       4.370  42.810  14.396  1.00  0.00     0.000 C 
BRANCH   9  10
ATOM     10  C   UNL     1       4.709  41.591  15.269  1.00  0.00     0.000 C 
BRANCH  10  11
ATOM     11  C   UNL     1       4.497  40.259  14.534  1.00  0.00    -0.000 C 
BRANCH  11  12
ATOM     12  C   UNL     1       4.571  40.454  13.012  1.00  0.00    -0.000 C 
BRANCH  12  13
ATOM     13  C   UNL     1       3.313  39.951  12.290  1.00  0.00    -0.003 C 
ATOM     14  C   UNL     1       3.591  39.503  10.855  1.00  0.00     0.004 C 
ENDBRANCH  12  13
ENDBRANCH  11  12
ENDBRANCH  10  11
ENDBRANCH   9  10
ENDBRANCH   1   9
TORSDOF 9
ENDMDL
MODEL 3
REMARK VINA RESULT:    -4.806      3.297      5.723
REMARK INTER + INTRA:          -7.902
REMARK INTER:                  -6.472
REMARK INTRA:                  -1.430
REMARK UNBOUND:                -0.567
REMARK SMILES CCCCCCCCCC=CC(=O)[O-]
REMARK SMILES IDX 7 1 8 2 9 3 10 4 11 5 12 6 13 7 14 8 6 9 5 10 4 11 3 12 2 13
REMARK SMILES IDX 1 14
REMARK H PARENT
REMARK Flexibility Score: inf
ROOT
ATOM      1  C   UNL     1     -10.102  35.935  15.708  1.00  0.00     0.000 C 
ENDROOT
BRANCH   1   2
ATOM      2  C   UNL     1      -9.191  36.388  16.855  1.00  0.00     0.004 C 
BRANCH   2   3
ATOM      3  C   UNL     1      -8.214  37.498  16.436  1.00  0.00     0.027 C 
BRANCH   3   4
ATOM      4  C   UNL     1      -6.778  37.106  16.674  1.00  0.00    -0.025 C 
ATOM      5  C   UNL     1      -5.978  37.516  17.673  1.00  0.00     0.020 C 
BRANCH   5   6
ATOM      6  C   UNL     1      -6.327  38.410  18.798  1.00  0.00     0.064 C 
ATOM      7  O   UNL     1      -6.988  37.940  19.761  1.00  0.00    -0.545 OA
ATOM      8  O   UNL     1      -5.968  39.749  18.829  1.00  0.00    -0.545 OA
ENDBRANCH   5   6
ENDBRANCH   3   4
ENDBRANCH   2   3
ENDBRANCH   1   2
BRANCH   1   9
ATOM      9  C   UNL     1      -9.757  34.506  15.262  1.00  0.00     0.000 C 
BRANCH   9  10
ATOM     10  C   UNL     1      -8.551  33.925  16.016  1.00  0.00     0.000 C 
BRANCH  10  11
ATOM     11  C   UNL     1      -7.350  33.656  15.097  1.00  0.00    -0.000 C 
BRANCH  11  12
ATOM     12  C   UNL     1      -7.552  34.315  13.724  1.00  0.00    -0.000 C 
BRANCH  12  13
ATOM     13  C   UNL     1      -6.386  35.235  13.333  1.00  0.00    -0.003 C 
ATOM     14  C   UNL     1      -6.839  36.654  12.994  1.00  0.00     0.004 C 
ENDBRANCH  12  13
ENDBRANCH  11  12
ENDBRANCH  10  11
ENDBRANCH   9  10
ENDBRANCH   1   9
TORSDOF 9
ENDMDL
MODEL 4
REMARK VINA RESULT:    -4.706     12.495     14.337
REMARK INTER + INTRA:          -7.750
REMARK INTER:                  -6.493
REMARK INTRA:                  -1.257
REMARK UNBOUND:                -0.567
REMARK SMILES CCCCCCCCCC=CC(=O)[O-]
REMARK SMILES IDX 7 1 8 2 9 3 10 4 11 5 12 6 13 7 14 8 6 9 5 10 4 11 3 12 2 13
REMARK SMILES IDX 1 14
REMARK H PARENT
REMARK Flexibility Score: inf
ROOT
ATOM      1  C   UNL     1       4.875  44.832  16.660  1.00  0.00     0.000 C 
ENDROOT
BRANCH   1   2
ATOM      2  C   UNL     1       4.310  43.567  17.317  1.00  0.00     0.004 C 
BRANCH   2   3
ATOM      3  C   UNL     1       5.109  43.132  18.555  1.00  0.00     0.027 C 
BRANCH   3   4
ATOM      4  C   UNL     1       5.923  41.891  18.295  1.00  0.00    -0.025 C 
ATOM      5  C   UNL     1       7.228  41.825  17.982  1.00  0.00     0.020 C 
BRANCH   5   6
ATOM      6  C   UNL     1       8.185  42.947  17.861  1.00  0.00     0.064 C 
ATOM      7  O   UNL     1       8.863  43.274  18.869  1.00  0.00    -0.545 OA
ATOM      8  O   UNL     1       8.353  43.664  16.686  1.00  0.00    -0.545 OA
ENDBRANCH   5   6
ENDBRANCH   3   4
ENDBRANCH   2   3
ENDBRANCH   1   2
BRANCH   1   9
ATOM      9  C   UNL     1       5.322  44.552  15.218  1.00  0.00     0.000 C 
BRANCH   9  10
ATOM     10  C   UNL     1       4.536  43.403  14.566  1.00  0.00     0.000 C 
BRANCH  10  11
ATOM     11  C   UNL     1       5.450  42.344  13.932  1.00  0.00    -0.000 C 
BRANCH  11  12
ATOM     12  C   UNL     1       5.461  41.056  14.769  1.00  0.00    -0.000 C 
BRANCH  12  13
ATOM     13  C   UNL     1       4.421  40.032  14.290  1.00  0.00    -0.003 C 
ATOM     14  C   UNL     1       4.086  40.177  12.805  1.00  0.00     0.004 C 
ENDBRANCH  12  13
ENDBRANCH  11  12
ENDBRANCH  10  11
ENDBRANCH   9  10
ENDBRANCH   1   9
TORSDOF 9
ENDMDL
MODEL 5
REMARK VINA RESULT:    -4.680      3.419      6.328
REMARK INTER + INTRA:          -7.710
REMARK INTER:                  -6.434
REMARK INTRA:                  -1.277
REMARK UNBOUND:                -0.567
REMARK SMILES CCCCCCCCCC=CC(=O)[O-]
REMARK SMILES IDX 7 1 8 2 9 3 10 4 11 5 12 6 13 7 14 8 6 9 5 10 4 11 3 12 2 13
REMARK SMILES IDX 1 14
REMARK H PARENT
REMARK Flexibility Score: inf
ROOT
ATOM      1  C   UNL     1      -6.739  37.043  14.554  1.00  0.00     0.000 C 
ENDROOT
BRANCH   1   2
ATOM      2  C   UNL     1      -8.116  37.409  15.120  1.00  0.00     0.004 C 
BRANCH   2   3
ATOM      3  C   UNL     1      -8.130  37.478  16.655  1.00  0.00     0.027 C 
BRANCH   3   4
ATOM      4  C   UNL     1      -6.820  37.031  17.252  1.00  0.00    -0.025 C 
ATOM      5  C   UNL     1      -6.132  37.626  18.242  1.00  0.00     0.020 C 
BRANCH   5   6
ATOM      6  C   UNL     1      -6.515  38.831  19.008  1.00  0.00     0.064 C 
ATOM      7  O   UNL     1      -7.474  38.752  19.819  1.00  0.00    -0.545 OA
ATOM      8  O   UNL     1      -5.870  40.050  18.859  1.00  0.00    -0.545 OA
ENDBRANCH   5   6
ENDBRANCH   3   4
ENDBRANCH   2   3
ENDBRANCH   1   2
BRANCH   1   9
ATOM      9  C   UNL     1      -6.869  36.363  13.183  1.00  0.00     0.000 C 
BRANCH   9  10
ATOM     10  C   UNL     1      -6.534  34.863  13.232  1.00  0.00     0.000 C 
BRANCH  10  11
ATOM     11  C   UNL     1      -7.693  34.014  13.775  1.00  0.00    -0.000 C 
BRANCH  11  12
ATOM     12  C   UNL     1      -7.494  33.703  15.266  1.00  0.00    -0.000 C 
BRANCH  12  13
ATOM     13  C   UNL     1      -8.789  33.852  16.078  1.00  0.00    -0.003 C 
ATOM     14  C   UNL     1     -10.006  34.154  15.204  1.00  0.00     0.004 C 
ENDBRANCH  12  13
ENDBRANCH  11  12
ENDBRANCH  10  11
ENDBRANCH   9  10
ENDBRANCH   1   9
TORSDOF 9
ENDMDL
MODEL 6
REMARK VINA RESULT:    -4.672     11.181     13.186
REMARK INTER + INTRA:          -7.697
REMARK INTER:                  -6.261
REMARK INTRA:                  -1.436
REMARK UNBOUND:                -0.567
REMARK SMILES CCCCCCCCCC=CC(=O)[O-]
REMARK SMILES IDX 7 1 8 2 9 3 10 4 11 5 12 6 13 7 14 8 6 9 5 10 4 11 3 12 2 13
REMARK SMILES IDX 1 14
REMARK H PARENT
REMARK Flexibility Score: inf
ROOT
ATOM      1  C   UNL     1       6.816  44.111  16.079  1.00  0.00     0.000 C 
ENDROOT
BRANCH   1   2
ATOM      2  C   UNL     1       5.620  44.915  15.554  1.00  0.00     0.004 C 
BRANCH   2   3
ATOM      3  C   UNL     1       4.776  44.131  14.538  1.00  0.00     0.027 C 
BRANCH   3   4
ATOM      4  C   UNL     1       4.172  42.889  15.143  1.00  0.00    -0.025 C 
ATOM      5  C   UNL     1       4.372  41.617  14.758  1.00  0.00     0.020 C 
BRANCH   5   6
ATOM      6  C   UNL     1       5.261  41.129  13.683  1.00  0.00     0.064 C 
ATOM      7  O   UNL     1       6.443  41.558  13.634  1.00  0.00    -0.545 OA
ATOM      8  O   UNL     1       4.841  40.230  12.714  1.00  0.00    -0.545 OA
ENDBRANCH   5   6
ENDBRANCH   3   4
ENDBRANCH   2   3
ENDBRANCH   1   2
BRANCH   1   9
ATOM      9  C   UNL     1       6.794  44.029  17.613  1.00  0.00     0.000 C 
BRANCH   9  10
ATOM     10  C   UNL     1       6.286  42.672  18.126  1.00  0.00     0.000 C 
BRANCH  10  11
ATOM     11  C   UNL     1       4.873  42.754  18.722  1.00  0.00    -0.000 C 
BRANCH  11  12
ATOM     12  C   UNL     1       4.466  44.214  18.968  1.00  0.00    -0.000 C 
BRANCH  12  13
ATOM     13  C   UNL     1       3.121  44.570  18.317  1.00  0.00    -0.003 C 
ATOM     14  C   UNL     1       2.138  43.400  18.310  1.00  0.00     0.004 C 
ENDBRANCH  12  13
ENDBRANCH  11  12
ENDBRANCH  10  11
ENDBRANCH   9  10
ENDBRANCH   1   9
TORSDOF 9
ENDMDL
MODEL 7
REMARK VINA RESULT:    -4.621      1.898      2.419
REMARK INTER + INTRA:          -7.620
REMARK INTER:                  -6.563
REMARK INTRA:                  -1.058
REMARK UNBOUND:                -0.567
REMARK SMILES CCCCCCCCCC=CC(=O)[O-]
REMARK SMILES IDX 7 1 8 2 9 3 10 4 11 5 12 6 13 7 14 8 6 9 5 10 4 11 3 12 2 13
REMARK SMILES IDX 1 14
REMARK H PARENT
REMARK Flexibility Score: inf
ROOT
ATOM      1  C   UNL     1      -8.591  37.235  16.721  1.00  0.00     0.000 C 
ENDROOT
BRANCH   1   2
ATOM      2  C   UNL     1      -8.221  37.426  15.245  1.00  0.00     0.004 C 
BRANCH   2   3
ATOM      3  C   UNL     1      -6.895  36.746  14.871  1.00  0.00     0.027 C 
BRANCH   3   4
ATOM      4  C   UNL     1      -7.094  35.616  13.895  1.00  0.00    -0.025 C 
ATOM      5  C   UNL     1      -7.445  34.350  14.177  1.00  0.00     0.020 C 
BRANCH   5   6
ATOM      6  C   UNL     1      -7.761  33.776  15.503  1.00  0.00     0.064 C 
ATOM      7  O   UNL     1      -8.966  33.707  15.860  1.00  0.00    -0.545 OA
ATOM      8  O   UNL     1      -6.783  33.325  16.376  1.00  0.00    -0.545 OA
ENDBRANCH   5   6
ENDBRANCH   3   4
ENDBRANCH   2   3
ENDBRANCH   1   2
BRANCH   1   9
ATOM      9  C   UNL     1      -7.346  36.922  17.565  1.00  0.00     0.000 C 
BRANCH   9  10
ATOM     10  C   UNL     1      -7.211  37.847  18.786  1.00  0.00     0.000 C 
BRANCH  10  11
ATOM     11  C   UNL     1      -5.997  38.784  18.688  1.00  0.00    -0.000 C 
BRANCH  11  12
ATOM     12  C   UNL     1      -4.882  38.149  17.844  1.00  0.00    -0.000 C 
BRANCH  12  13
ATOM     13  C   UNL     1      -3.719  39.117  17.578  1.00  0.00    -0.003 C 
ATOM     14  C   UNL     1      -3.854  40.431  18.347  1.00  0.00     0.004 C 
ENDBRANCH  12  13
ENDBRANCH  11  12
ENDBRANCH  10  11
ENDBRANCH   9  10
ENDBRANCH   1   9
TORSDOF 9
ENDMDL
MODEL 8
REMARK VINA RESULT:    -4.603     11.640     13.236
REMARK INTER + INTRA:          -7.593
REMARK INTER:                  -6.389
REMARK INTRA:                  -1.204
REMARK UNBOUND:                -0.567
REMARK SMILES CCCCCCCCCC=CC(=O)[O-]
REMARK SMILES IDX 7 1 8 2 9 3 10 4 11 5 12 6 13 7 14 8 6 9 5 10 4 11 3 12 2 13
REMARK SMILES IDX 1 14
REMARK H PARENT
REMARK Flexibility Score: inf
ROOT
ATOM      1  C   UNL     1       3.402  43.327  17.472  1.00  0.00     0.000 C 
ENDROOT
BRANCH   1   2
ATOM      2  C   UNL     1       4.321  42.590  16.491  1.00  0.00     0.004 C 
BRANCH   2   3
ATOM      3  C   UNL     1       4.098  43.016  15.032  1.00  0.00     0.027 C 
BRANCH   3   4
ATOM      4  C   UNL     1       5.324  42.794  14.184  1.00  0.00    -0.025 C 
ATOM      5  C   UNL     1       5.655  41.680  13.508  1.00  0.00     0.020 C 
BRANCH   5   6
ATOM      6  C   UNL     1       4.877  40.427  13.398  1.00  0.00     0.064 C 
ATOM      7  O   UNL     1       4.827  39.657  14.393  1.00  0.00    -0.545 OA
ATOM      8  O   UNL     1       4.212  40.058  12.238  1.00  0.00    -0.545 OA
ENDBRANCH   5   6
ENDBRANCH   3   4
ENDBRANCH   2   3
ENDBRANCH   1   2
BRANCH   1   9
ATOM      9  C   UNL     1       4.218  44.089  18.526  1.00  0.00     0.000 C 
BRANCH   9  10
ATOM     10  C   UNL     1       5.732  43.863  18.381  1.00  0.00     0.000 C 
BRANCH  10  11
ATOM     11  C   UNL     1       6.507  45.168  18.150  1.00  0.00    -0.000 C 
BRANCH  11  12
ATOM     12  C   UNL     1       7.225  45.147  16.792  1.00  0.00    -0.000 C 
BRANCH  12  13
ATOM     13  C   UNL     1       7.897  43.797  16.501  1.00  0.00    -0.003 C 
ATOM     14  C   UNL     1       9.110  43.925  15.580  1.00  0.00     0.004 C 
ENDBRANCH  12  13
ENDBRANCH  11  12
ENDBRANCH  10  11
ENDBRANCH   9  10
ENDBRANCH   1   9
TORSDOF 9
ENDMDL
MODEL 9
REMARK VINA RESULT:    -4.600      1.880      3.437
REMARK INTER + INTRA:          -7.587
REMARK INTER:                  -6.304
REMARK INTRA:                  -1.284
REMARK UNBOUND:                -0.567
REMARK SMILES CCCCCCCCCC=CC(=O)[O-]
REMARK SMILES IDX 7 1 8 2 9 3 10 4 11 5 12 6 13 7 14 8 6 9 5 10 4 11 3 12 2 13
REMARK SMILES IDX 1 14
REMARK H PARENT
REMARK Flexibility Score: inf
ROOT
ATOM      1  C   UNL     1      -8.128  37.356  16.528  1.00  0.00     0.000 C 
ENDROOT
BRANCH   1   2
ATOM      2  C   UNL     1      -8.931  36.057  16.391  1.00  0.00     0.004 C 
BRANCH   2   3
ATOM      3  C   UNL     1      -8.037  34.809  16.319  1.00  0.00     0.027 C 
BRANCH   3   4
ATOM      4  C   UNL     1      -8.390  33.928  15.148  1.00  0.00    -0.025 C 
ATOM      5  C   UNL     1      -7.933  34.028  13.888  1.00  0.00     0.020 C 
BRANCH   5   6
ATOM      6  C   UNL     1      -6.944  34.993  13.361  1.00  0.00     0.064 C 
ATOM      7  O   UNL     1      -7.276  36.203  13.259  1.00  0.00    -0.545 OA
ATOM      8  O   UNL     1      -5.671  34.617  12.960  1.00  0.00    -0.545 OA
ENDBRANCH   5   6
ENDBRANCH   3   4
ENDBRANCH   2   3
ENDBRANCH   1   2
BRANCH   1   9
ATOM      9  C   UNL     1      -6.628  37.063  16.682  1.00  0.00     0.000 C 
BRANCH   9  10
ATOM     10  C   UNL     1      -6.023  37.715  17.936  1.00  0.00     0.000 C 
BRANCH  10  11
ATOM     11  C   UNL     1      -7.050  37.901  19.062  1.00  0.00    -0.000 C 
BRANCH  11  12
ATOM     12  C   UNL     1      -7.229  36.601  19.860  1.00  0.00    -0.000 C 
BRANCH  12  13
ATOM     13  C   UNL     1      -8.625  36.484  20.492  1.00  0.00    -0.003 C 
ATOM     14  C   UNL     1      -9.604  37.531  19.964  1.00  0.00     0.004 C 
ENDBRANCH  12  13
ENDBRANCH  11  12
ENDBRANCH  10  11
ENDBRANCH   9  10
ENDBRANCH   1   9
TORSDOF 9
ENDMDL
