MODEL 1
REMARK VINA RESULT:    -4.899      0.000      0.000
REMARK INTER + INTRA:          -5.328
REMARK INTER:                  -5.328
REMARK INTRA:                   0.000
REMARK UNBOUND:                 0.000
REMARK SMILES Oc1cccc(O)c1O
REMARK SMILES IDX 4 1 5 2 6 3 8 4 2 5 3 6 7 7 1 9 9 11
REMARK H PARENT 7 8 1 10 9 12
REMARK Flexibility Score: inf
ROOT
ATOM      1  C   UNL     1      -1.539 -14.015 -38.117  1.00  0.00     0.008 A 
ATOM      2  C   UNL     1      -1.606 -13.104 -39.171  1.00  0.00     0.050 A 
ATOM      3  C   UNL     1      -0.460 -12.816 -39.925  1.00  0.00     0.161 A 
ATOM      4  C   UNL     1       0.760 -13.441 -39.624  1.00  0.00     0.200 A 
ATOM      5  C   UNL     1       0.824 -14.366 -38.552  1.00  0.00     0.161 A 
ATOM      6  C   UNL     1      -0.331 -14.642 -37.810  1.00  0.00     0.050 A 
ENDROOT
BRANCH   3   7
ATOM      7  O   UNL     1      -0.527 -11.906 -40.979  1.00  0.00    -0.504 OA
ATOM      8  H   UNL     1       0.153 -11.162 -41.083  1.00  0.00     0.293 HD
ENDBRANCH   3   7
BRANCH   5   9
ATOM      9  O   UNL     1       2.001 -15.026 -38.194  1.00  0.00    -0.504 OA
ATOM     10  H   UNL     1       2.367 -15.833 -38.680  1.00  0.00     0.293 HD
ENDBRANCH   5   9
BRANCH   4  11
ATOM     11  O   UNL     1       1.873 -13.120 -40.406  1.00  0.00    -0.502 OA
ATOM     12  H   UNL     1       1.842 -12.984 -41.405  1.00  0.00     0.293 HD
ENDBRANCH   4  11
TORSDOF 3
ENDMDL
MODEL 2
REMARK VINA RESULT:    -4.855      0.060      2.816
REMARK INTER + INTRA:          -5.281
REMARK INTER:                  -5.281
REMARK INTRA:                   0.000
REMARK UNBOUND:                 0.000
REMARK SMILES Oc1cccc(O)c1O
REMARK SMILES IDX 4 1 5 2 6 3 8 4 2 5 3 6 7 7 1 9 9 11
REMARK H PARENT 7 8 1 10 9 12
REMARK Flexibility Score: inf
ROOT
ATOM      1  C   UNL     1      -1.538 -13.994 -38.123  1.00  0.00     0.008 A 
ATOM      2  C   UNL     1      -0.341 -14.635 -37.806  1.00  0.00     0.050 A 
ATOM      3  C   UNL     1       0.817 -14.374 -38.553  1.00  0.00     0.161 A 
ATOM      4  C   UNL     1       0.776 -13.467 -39.623  1.00  0.00     0.200 A 
ATOM      5  C   UNL     1      -0.442 -12.818 -39.943  1.00  0.00     0.161 A 
ATOM      6  C   UNL     1      -1.587 -13.091 -39.185  1.00  0.00     0.050 A 
ENDROOT
BRANCH   3   7
ATOM      7  O   UNL     1       2.013 -15.014 -38.235  1.00  0.00    -0.504 OA
ATOM      8  H   UNL     1       2.820 -14.965 -38.847  1.00  0.00     0.293 HD
ENDBRANCH   3   7
BRANCH   5   9
ATOM      9  O   UNL     1      -0.558 -11.904 -40.993  1.00  0.00    -0.504 OA
ATOM     10  H   UNL     1       0.081 -11.138 -41.149  1.00  0.00     0.293 HD
ENDBRANCH   5   9
BRANCH   4  11
ATOM     11  O   UNL     1       1.957 -13.241 -40.337  1.00  0.00    -0.502 OA
ATOM     12  H   UNL     1       2.546 -12.431 -40.213  1.00  0.00     0.293 HD
ENDBRANCH   4  11
TORSDOF 3
ENDMDL
MODEL 3
REMARK VINA RESULT:    -4.764     12.310     13.226
REMARK INTER + INTRA:          -5.181
REMARK INTER:                  -5.181
REMARK INTRA:                   0.000
REMARK UNBOUND:                 0.000
REMARK SMILES Oc1cccc(O)c1O
REMARK SMILES IDX 4 1 5 2 6 3 8 4 2 5 3 6 7 7 1 9 9 11
REMARK H PARENT 7 8 1 10 9 12
REMARK Flexibility Score: inf
ROOT
ATOM      1  C   UNL     1      10.626  -3.637 -39.157  1.00  0.00     0.008 A 
ATOM      2  C   UNL     1       9.397  -2.985 -39.058  1.00  0.00     0.050 A 
ATOM      3  C   UNL     1       8.309  -3.416 -39.829  1.00  0.00     0.161 A 
ATOM      4  C   UNL     1       8.451  -4.503 -40.705  1.00  0.00     0.200 A 
ATOM      5  C   UNL     1       9.701  -5.162 -40.804  1.00  0.00     0.161 A 
ATOM      6  C   UNL     1      10.776  -4.718 -40.025  1.00  0.00     0.050 A 
ENDROOT
BRANCH   3   7
ATOM      7  O   UNL     1       7.080  -2.766 -39.729  1.00  0.00    -0.504 OA
ATOM      8  H   UNL     1       6.292  -3.189 -39.253  1.00  0.00     0.293 HD
ENDBRANCH   3   7
BRANCH   5   9
ATOM      9  O   UNL     1       9.918  -6.249 -41.653  1.00  0.00    -0.504 OA
ATOM     10  H   UNL     1      10.561  -7.003 -41.454  1.00  0.00     0.293 HD
ENDBRANCH   5   9
BRANCH   4  11
ATOM     11  O   UNL     1       7.336  -4.894 -41.453  1.00  0.00    -0.502 OA
ATOM     12  H   UNL     1       6.535  -5.369 -41.067  1.00  0.00     0.293 HD
ENDBRANCH   4  11
TORSDOF 3
ENDMDL
MODEL 4
REMARK VINA RESULT:    -4.754     12.301     13.396
REMARK INTER + INTRA:          -5.171
REMARK INTER:                  -5.171
REMARK INTRA:                   0.000
REMARK UNBOUND:                 0.000
REMARK SMILES Oc1cccc(O)c1O
REMARK SMILES IDX 4 1 5 2 6 3 8 4 2 5 3 6 7 7 1 9 9 11
REMARK H PARENT 7 8 1 10 9 12
REMARK Flexibility Score: inf
ROOT
ATOM      1  C   UNL     1      10.635  -3.600 -39.151  1.00  0.00     0.008 A 
ATOM      2  C   UNL     1      10.796  -4.697 -39.998  1.00  0.00     0.050 A 
ATOM      3  C   UNL     1       9.718  -5.156 -40.766  1.00  0.00     0.161 A 
ATOM      4  C   UNL     1       8.471  -4.516 -40.688  1.00  0.00     0.200 A 
ATOM      5  C   UNL     1       8.311  -3.402 -39.826  1.00  0.00     0.161 A 
ATOM      6  C   UNL     1       9.400  -2.957 -39.066  1.00  0.00     0.050 A 
ENDROOT
BRANCH   3   7
ATOM      7  O   UNL     1       9.878  -6.251 -41.614  1.00  0.00    -0.504 OA
ATOM      8  H   UNL     1      10.502  -7.015 -41.381  1.00  0.00     0.293 HD
ENDBRANCH   3   7
BRANCH   5   9
ATOM      9  O   UNL     1       7.103  -2.715 -39.695  1.00  0.00    -0.504 OA
ATOM     10  H   UNL     1       7.032  -1.729 -39.485  1.00  0.00     0.293 HD
ENDBRANCH   5   9
BRANCH   4  11
ATOM     11  O   UNL     1       7.427  -5.011 -41.474  1.00  0.00    -0.502 OA
ATOM     12  H   UNL     1       6.568  -4.514 -41.652  1.00  0.00     0.293 HD
ENDBRANCH   4  11
TORSDOF 3
ENDMDL
MODEL 5
REMARK VINA RESULT:    -4.498     12.885     13.749
REMARK INTER + INTRA:          -4.892
REMARK INTER:                  -4.892
REMARK INTRA:                   0.000
REMARK UNBOUND:                 0.000
REMARK SMILES Oc1cccc(O)c1O
REMARK SMILES IDX 4 1 5 2 6 3 8 4 2 5 3 6 7 7 1 9 9 11
REMARK H PARENT 7 8 1 10 9 12
REMARK Flexibility Score: inf
ROOT
ATOM      1  C   UNL     1      10.621  -4.045 -40.748  1.00  0.00     0.008 A 
ATOM      2  C   UNL     1      11.058  -4.765 -39.637  1.00  0.00     0.050 A 
ATOM      3  C   UNL     1      10.235  -4.884 -38.508  1.00  0.00     0.161 A 
ATOM      4  C   UNL     1       8.969  -4.279 -38.490  1.00  0.00     0.200 A 
ATOM      5  C   UNL     1       8.528  -3.547 -39.621  1.00  0.00     0.161 A 
ATOM      6  C   UNL     1       9.364  -3.440 -40.739  1.00  0.00     0.050 A 
ENDROOT
BRANCH   3   7
ATOM      7  O   UNL     1      10.671  -5.604 -37.397  1.00  0.00    -0.504 OA
ATOM      8  H   UNL     1      11.357  -5.226 -36.755  1.00  0.00     0.293 HD
ENDBRANCH   3   7
BRANCH   5   9
ATOM      9  O   UNL     1       7.283  -2.919 -39.675  1.00  0.00    -0.504 OA
ATOM     10  H   UNL     1       6.877  -2.541 -40.520  1.00  0.00     0.293 HD
ENDBRANCH   5   9
BRANCH   4  11
ATOM     11  O   UNL     1       8.187  -4.426 -37.341  1.00  0.00    -0.502 OA
ATOM     12  H   UNL     1       7.188  -4.291 -37.316  1.00  0.00     0.293 HD
ENDBRANCH   4  11
TORSDOF 3
ENDMDL
MODEL 6
REMARK VINA RESULT:    -4.462      2.618      3.376
REMARK INTER + INTRA:          -4.853
REMARK INTER:                  -4.853
REMARK INTRA:                   0.000
REMARK UNBOUND:                 0.000
REMARK SMILES Oc1cccc(O)c1O
REMARK SMILES IDX 4 1 5 2 6 3 8 4 2 5 3 6 7 7 1 9 9 11
REMARK H PARENT 7 8 1 10 9 12
REMARK Flexibility Score: inf
ROOT
ATOM      1  C   UNL     1       1.466 -10.697 -38.766  1.00  0.00     0.008 A 
ATOM      2  C   UNL     1       0.539 -10.748 -37.726  1.00  0.00     0.050 A 
ATOM      3  C   UNL     1       0.145 -11.984 -37.195  1.00  0.00     0.161 A 
ATOM      4  C   UNL     1       0.681 -13.176 -37.707  1.00  0.00     0.200 A 
ATOM      5  C   UNL     1       1.622 -13.120 -38.765  1.00  0.00     0.161 A 
ATOM      6  C   UNL     1       2.004 -11.876 -39.282  1.00  0.00     0.050 A 
ENDROOT
BRANCH   3   7
ATOM      7  O   UNL     1      -0.781 -12.036 -36.154  1.00  0.00    -0.504 OA
ATOM      8  H   UNL     1      -0.503 -11.903 -35.189  1.00  0.00     0.293 HD
ENDBRANCH   3   7
BRANCH   5   9
ATOM      9  O   UNL     1       2.197 -14.262 -39.325  1.00  0.00    -0.504 OA
ATOM     10  H   UNL     1       2.458 -14.345 -40.298  1.00  0.00     0.293 HD
ENDBRANCH   5   9
BRANCH   4  11
ATOM     11  O   UNL     1       0.256 -14.383 -37.144  1.00  0.00    -0.502 OA
ATOM     12  H   UNL     1      -0.615 -14.838 -37.374  1.00  0.00     0.293 HD
ENDBRANCH   4  11
TORSDOF 3
ENDMDL
MODEL 7
REMARK VINA RESULT:    -4.439      2.597      3.629
REMARK INTER + INTRA:          -4.828
REMARK INTER:                  -4.828
REMARK INTRA:                   0.000
REMARK UNBOUND:                 0.000
REMARK SMILES Oc1cccc(O)c1O
REMARK SMILES IDX 4 1 5 2 6 3 8 4 2 5 3 6 7 7 1 9 9 11
REMARK H PARENT 7 8 1 10 9 12
REMARK Flexibility Score: inf
ROOT
ATOM      1  C   UNL     1       1.415 -10.697 -38.783  1.00  0.00     0.008 A 
ATOM      2  C   UNL     1       1.971 -11.864 -39.306  1.00  0.00     0.050 A 
ATOM      3  C   UNL     1       1.612 -13.112 -38.778  1.00  0.00     0.161 A 
ATOM      4  C   UNL     1       0.692 -13.193 -37.721  1.00  0.00     0.200 A 
ATOM      5  C   UNL     1       0.129 -12.005 -37.192  1.00  0.00     0.161 A 
ATOM      6  C   UNL     1       0.500 -10.768 -37.733  1.00  0.00     0.050 A 
ENDROOT
BRANCH   3   7
ATOM      7  O   UNL     1       2.166 -14.279 -39.301  1.00  0.00    -0.504 OA
ATOM      8  H   UNL     1       1.833 -14.683 -40.168  1.00  0.00     0.293 HD
ENDBRANCH   3   7
BRANCH   5   9
ATOM      9  O   UNL     1      -0.791 -12.007 -36.142  1.00  0.00    -0.504 OA
ATOM     10  H   UNL     1      -1.761 -12.271 -36.241  1.00  0.00     0.293 HD
ENDBRANCH   5   9
BRANCH   4  11
ATOM     11  O   UNL     1       0.366 -14.460 -37.230  1.00  0.00    -0.502 OA
ATOM     12  H   UNL     1       0.983 -15.023 -36.663  1.00  0.00     0.293 HD
ENDBRANCH   4  11
TORSDOF 3
ENDMDL
MODEL 8
REMARK VINA RESULT:    -4.435      2.194      2.844
REMARK INTER + INTRA:          -4.824
REMARK INTER:                  -4.824
REMARK INTRA:                   0.000
REMARK UNBOUND:                 0.000
REMARK SMILES Oc1cccc(O)c1O
REMARK SMILES IDX 4 1 5 2 6 3 8 4 2 5 3 6 7 7 1 9 9 11
REMARK H PARENT 7 8 1 10 9 12
REMARK Flexibility Score: inf
ROOT
ATOM      1  C   UNL     1      -0.982 -14.684 -38.543  1.00  0.00     0.008 A 
ATOM      2  C   UNL     1      -1.088 -13.950 -37.361  1.00  0.00     0.050 A 
ATOM      3  C   UNL     1      -0.526 -12.669 -37.276  1.00  0.00     0.161 A 
ATOM      4  C   UNL     1       0.148 -12.119 -38.377  1.00  0.00     0.200 A 
ATOM      5  C   UNL     1       0.254 -12.867 -39.576  1.00  0.00     0.161 A 
ATOM      6  C   UNL     1      -0.315 -14.145 -39.643  1.00  0.00     0.050 A 
ENDROOT
BRANCH   3   7
ATOM      7  O   UNL     1      -0.632 -11.936 -36.096  1.00  0.00    -0.504 OA
ATOM      8  H   UNL     1      -0.074 -12.157 -35.280  1.00  0.00     0.293 HD
ENDBRANCH   3   7
BRANCH   5   9
ATOM      9  O   UNL     1       0.908 -12.386 -40.712  1.00  0.00    -0.504 OA
ATOM     10  H   UNL     1       1.852 -12.639 -40.971  1.00  0.00     0.293 HD
ENDBRANCH   5   9
BRANCH   4  11
ATOM     11  O   UNL     1       0.691 -10.838 -38.242  1.00  0.00    -0.502 OA
ATOM     12  H   UNL     1       0.238  -9.995 -38.560  1.00  0.00     0.293 HD
ENDBRANCH   4  11
TORSDOF 3
ENDMDL
MODEL 9
REMARK VINA RESULT:    -4.424      2.116      2.342
REMARK INTER + INTRA:          -4.812
REMARK INTER:                  -4.812
REMARK INTRA:                   0.000
REMARK UNBOUND:                 0.000
REMARK SMILES Oc1cccc(O)c1O
REMARK SMILES IDX 4 1 5 2 6 3 8 4 2 5 3 6 7 7 1 9 9 11
REMARK H PARENT 7 8 1 10 9 12
REMARK Flexibility Score: inf
ROOT
ATOM      1  C   UNL     1      -1.098 -14.608 -38.486  1.00  0.00     0.008 A 
ATOM      2  C   UNL     1      -0.283 -14.251 -39.560  1.00  0.00     0.050 A 
ATOM      3  C   UNL     1       0.484 -13.079 -39.501  1.00  0.00     0.161 A 
ATOM      4  C   UNL     1       0.435 -12.259 -38.363  1.00  0.00     0.200 A 
ATOM      5  C   UNL     1      -0.395 -12.625 -37.274  1.00  0.00     0.161 A 
ATOM      6  C   UNL     1      -1.153 -13.800 -37.351  1.00  0.00     0.050 A 
ENDROOT
BRANCH   3   7
ATOM      7  O   UNL     1       1.300 -12.723 -40.573  1.00  0.00    -0.504 OA
ATOM      8  H   UNL     1       1.459 -13.351 -41.352  1.00  0.00     0.293 HD
ENDBRANCH   3   7
BRANCH   5   9
ATOM      9  O   UNL     1      -0.495 -11.860 -36.110  1.00  0.00    -0.504 OA
ATOM     10  H   UNL     1      -0.649 -12.249 -35.190  1.00  0.00     0.293 HD
ENDBRANCH   5   9
BRANCH   4  11
ATOM     11  O   UNL     1       1.218 -11.102 -38.353  1.00  0.00    -0.502 OA
ATOM     12  H   UNL     1       2.183 -11.074 -38.058  1.00  0.00     0.293 HD
ENDBRANCH   4  11
TORSDOF 3
ENDMDL
