MODEL 1
REMARK VINA RESULT:    26.562      0.000      0.000
REMARK INTER + INTRA:          30.142
REMARK INTER:                  30.444
REMARK INTRA:                  -0.302
REMARK UNBOUND:                -0.302
REMARK SMILES O=C1C[C@@H](c2ccc(O)cc2)Oc2cc(O)cc(O)c21
REMARK SMILES IDX 3 1 4 2 12 3 13 4 14 5 15 6 17 7 18 8 20 9 2 10 1 11 5 12
REMARK SMILES IDX 6 13 11 14 7 15 10 16 8 17 9 18 19 20 16 22
REMARK H PARENT 9 19 19 21 16 23
REMARK Flexibility Score: inf
ROOT
ATOM      1  C   UNL     1       1.565  -0.869   2.155  1.00  0.00     0.131 C 
ATOM      2  C   UNL     1       2.418  -0.641   0.899  1.00  0.00     0.211 C 
ATOM      3  O   UNL     1       1.969  -1.475  -0.172  1.00  0.00    -0.484 OA
ATOM      4  C   UNL     1       0.612  -1.725  -0.418  1.00  0.00     0.138 A 
ATOM      5  C   UNL     1       0.240  -2.312  -1.629  1.00  0.00     0.093 A 
ATOM      6  C   UNL     1      -1.107  -2.560  -1.909  1.00  0.00     0.123 A 
ATOM      7  C   UNL     1      -2.081  -2.247  -0.960  1.00  0.00     0.093 A 
ATOM      8  C   UNL     1      -1.727  -1.695   0.278  1.00  0.00     0.133 A 
ATOM      9  C   UNL     1      -0.366  -1.397   0.547  1.00  0.00     0.102 A 
ATOM     10  C   UNL     1       0.115  -0.749   1.792  1.00  0.00     0.174 C 
ATOM     11  O   UNL     1      -0.648  -0.061   2.519  1.00  0.00    -0.294 OA
ENDROOT
BRANCH   2  12
ATOM     12  C   UNL     1       3.874  -0.909   1.188  1.00  0.00    -0.007 A 
ATOM     13  C   UNL     1       4.826  -0.885   0.152  1.00  0.00     0.011 A 
ATOM     14  C   UNL     1       4.289  -1.239   2.489  1.00  0.00     0.011 A 
ATOM     15  C   UNL     1       6.170  -1.164   0.420  1.00  0.00     0.046 A 
ATOM     16  C   UNL     1       5.634  -1.517   2.754  1.00  0.00     0.046 A 
ATOM     17  C   UNL     1       6.577  -1.479   1.723  1.00  0.00     0.115 A 
BRANCH  17  18
ATOM     18  O   UNL     1       7.913  -1.757   2.002  1.00  0.00    -0.508 OA
ATOM     19  H   UNL     1       8.652  -1.503   1.358  1.00  0.00     0.293 HD
ENDBRANCH  17  18
ENDBRANCH   2  12
BRANCH   8  20
ATOM     20  O   UNL     1      -2.750  -1.498   1.208  1.00  0.00    -0.507 OA
ATOM     21  H   UNL     1      -2.614  -1.512   2.208  1.00  0.00     0.293 HD
ENDBRANCH   8  20
BRANCH   6  22
ATOM     22  O   UNL     1      -1.487  -3.125  -3.125  1.00  0.00    -0.508 OA
ATOM     23  H   UNL     1      -0.926  -3.836  -3.578  1.00  0.00     0.293 HD
ENDBRANCH   6  22
TORSDOF 4
ENDMDL
