MODEL 1
REMARK VINA RESULT:    -3.856      0.000      0.000
REMARK INTER + INTRA:         -16.489
REMARK INTER:                 -10.167
REMARK INTRA:                  -6.323
REMARK UNBOUND:                -6.323
REMARK SMILES CCCCCCCCCCCCCCCCCCCCCCCCCCCCCC(=O)[O-]
REMARK SMILES IDX 16 1 17 2 18 3 19 4 20 5 21 6 22 7 23 8 24 9 25 10 26 11
REMARK SMILES IDX 27 12 28 13 29 14 30 15 31 16 32 17 15 18 14 19 13 20 12 21
REMARK SMILES IDX 11 22 10 23 9 24 8 25 7 26 6 27 5 28 4 29 3 30 2 31 1 32
REMARK H PARENT
REMARK Flexibility Score: inf
ROOT
ATOM      1  C   UNL     1      -5.096 -32.995 -31.730  1.00  0.00     0.000 C 
ENDROOT
BRANCH   1   2
ATOM      2  C   UNL     1      -4.741 -31.712 -30.964  1.00  0.00     0.000 C 
BRANCH   2   3
ATOM      3  C   UNL     1      -3.485 -31.015 -31.511  1.00  0.00     0.000 C 
BRANCH   3   4
ATOM      4  C   UNL     1      -3.796 -29.651 -32.150  1.00  0.00     0.000 C 
BRANCH   4   5
ATOM      5  C   UNL     1      -2.786 -28.557 -31.753  1.00  0.00     0.000 C 
BRANCH   5   6
ATOM      6  C   UNL     1      -1.319 -29.016 -31.647  1.00  0.00     0.000 C 
BRANCH   6   7
ATOM      7  C   UNL     1      -0.396 -28.318 -32.661  1.00  0.00     0.000 C 
BRANCH   7   8
ATOM      8  C   UNL     1       0.152 -29.278 -33.733  1.00  0.00     0.000 C 
BRANCH   8   9
ATOM      9  C   UNL     1      -0.910 -29.912 -34.649  1.00  0.00     0.000 C 
BRANCH   9  10
ATOM     10  C   UNL     1      -1.040 -31.433 -34.453  1.00  0.00     0.000 C 
BRANCH  10  11
ATOM     11  C   UNL     1       0.108 -32.020 -33.617  1.00  0.00     0.000 C 
BRANCH  11  12
ATOM     12  C   UNL     1      -0.374 -32.615 -32.286  1.00  0.00     0.000 C 
BRANCH  12  13
ATOM     13  C   UNL     1       0.552 -32.203 -31.132  1.00  0.00     0.006 C 
BRANCH  13  14
ATOM     14  C   UNL     1       1.978 -31.901 -31.611  1.00  0.00     0.053 C 
BRANCH  14  15
ATOM     15  C   UNL     1       2.993 -32.735 -30.892  1.00  0.00     0.041 C 
ATOM     16  O   UNL     1       3.135 -33.953 -31.181  1.00  0.00    -0.550 OA
ATOM     17  O   UNL     1       3.759 -32.174 -29.877  1.00  0.00    -0.550 OA
ENDBRANCH  14  15
ENDBRANCH  13  14
ENDBRANCH  12  13
ENDBRANCH  11  12
ENDBRANCH  10  11
ENDBRANCH   9  10
ENDBRANCH   8   9
ENDBRANCH   7   8
ENDBRANCH   6   7
ENDBRANCH   5   6
ENDBRANCH   4   5
ENDBRANCH   3   4
ENDBRANCH   2   3
ENDBRANCH   1   2
BRANCH   1  18
ATOM     18  C   UNL     1      -5.670 -32.664 -33.113  1.00  0.00     0.000 C 
BRANCH  18  19
ATOM     19  C   UNL     1      -4.809 -33.271 -34.231  1.00  0.00     0.000 C 
BRANCH  19  20
ATOM     20  C   UNL     1      -3.528 -33.932 -33.698  1.00  0.00     0.000 C 
BRANCH  20  21
ATOM     21  C   UNL     1      -3.347 -35.372 -34.210  1.00  0.00     0.000 C 
BRANCH  21  22
ATOM     22  C   UNL     1      -2.965 -36.353 -33.083  1.00  0.00     0.000 C 
BRANCH  22  23
ATOM     23  C   UNL     1      -2.381 -35.677 -31.827  1.00  0.00     0.000 C 
BRANCH  23  24
ATOM     24  C   UNL     1      -3.019 -36.148 -30.504  1.00  0.00    -0.000 C 
BRANCH  24  25
ATOM     25  C   UNL     1      -3.226 -34.992 -29.510  1.00  0.00    -0.000 C 
BRANCH  25  26
ATOM     26  C   UNL     1      -1.918 -34.262 -29.161  1.00  0.00    -0.000 C 
BRANCH  26  27
ATOM     27  C   UNL     1      -2.096 -32.982 -28.323  1.00  0.00    -0.000 C 
BRANCH  27  28
ATOM     28  C   UNL     1      -3.517 -32.837 -27.751  1.00  0.00    -0.000 C 
BRANCH  28  29
ATOM     29  C   UNL     1      -3.717 -31.521 -26.978  1.00  0.00    -0.000 C 
BRANCH  29  30
ATOM     30  C   UNL     1      -2.629 -30.454 -27.214  1.00  0.00    -0.000 C 
BRANCH  30  31
ATOM     31  C   UNL     1      -2.980 -29.390 -28.268  1.00  0.00    -0.003 C 
ATOM     32  C   UNL     1      -4.362 -28.772 -28.055  1.00  0.00     0.004 C 
ENDBRANCH  30  31
ENDBRANCH  29  30
ENDBRANCH  28  29
ENDBRANCH  27  28
ENDBRANCH  26  27
ENDBRANCH  25  26
ENDBRANCH  24  25
ENDBRANCH  23  24
ENDBRANCH  22  23
ENDBRANCH  21  22
ENDBRANCH  20  21
ENDBRANCH  19  20
ENDBRANCH  18  19
ENDBRANCH   1  18
TORSDOF 28
ENDMDL
MODEL 2
REMARK VINA RESULT:    -3.829      1.506      4.238
REMARK INTER + INTRA:         -16.419
REMARK INTER:                  -9.899
REMARK INTRA:                  -6.520
REMARK UNBOUND:                -6.323
REMARK SMILES CCCCCCCCCCCCCCCCCCCCCCCCCCCCCC(=O)[O-]
REMARK SMILES IDX 16 1 17 2 18 3 19 4 20 5 21 6 22 7 23 8 24 9 25 10 26 11
REMARK SMILES IDX 27 12 28 13 29 14 30 15 31 16 32 17 15 18 14 19 13 20 12 21
REMARK SMILES IDX 11 22 10 23 9 24 8 25 7 26 6 27 5 28 4 29 3 30 2 31 1 32
REMARK H PARENT
REMARK Flexibility Score: inf
ROOT
ATOM      1  C   UNL     1      -3.269 -35.831 -31.352  1.00  0.00     0.000 C 
ENDROOT
BRANCH   1   2
ATOM      2  C   UNL     1      -3.033 -36.792 -32.526  1.00  0.00     0.000 C 
BRANCH   2   3
ATOM      3  C   UNL     1      -2.728 -36.064 -33.845  1.00  0.00     0.000 C 
BRANCH   3   4
ATOM      4  C   UNL     1      -3.132 -34.580 -33.809  1.00  0.00     0.000 C 
BRANCH   4   5
ATOM      5  C   UNL     1      -1.943 -33.627 -34.036  1.00  0.00     0.000 C 
BRANCH   5   6
ATOM      6  C   UNL     1      -2.277 -32.314 -34.771  1.00  0.00     0.000 C 
BRANCH   6   7
ATOM      7  C   UNL     1      -3.567 -31.649 -34.258  1.00  0.00     0.000 C 
BRANCH   7   8
ATOM      8  C   UNL     1      -3.542 -30.115 -34.384  1.00  0.00     0.000 C 
BRANCH   8   9
ATOM      9  C   UNL     1      -2.192 -29.515 -34.819  1.00  0.00     0.000 C 
BRANCH   9  10
ATOM     10  C   UNL     1      -1.453 -28.806 -33.670  1.00  0.00     0.000 C 
BRANCH  10  11
ATOM     11  C   UNL     1       0.031 -29.198 -33.592  1.00  0.00     0.000 C 
BRANCH  11  12
ATOM     12  C   UNL     1       0.324 -30.178 -32.447  1.00  0.00     0.000 C 
BRANCH  12  13
ATOM     13  C   UNL     1       0.877 -31.505 -32.986  1.00  0.00     0.006 C 
BRANCH  13  14
ATOM     14  C   UNL     1       1.714 -32.254 -31.941  1.00  0.00     0.053 C 
BRANCH  14  15
ATOM     15  C   UNL     1       3.149 -31.825 -31.967  1.00  0.00     0.041 C 
ATOM     16  O   UNL     1       3.820 -31.788 -30.902  1.00  0.00    -0.550 OA
ATOM     17  O   UNL     1       3.735 -31.432 -33.164  1.00  0.00    -0.550 OA
ENDBRANCH  14  15
ENDBRANCH  13  14
ENDBRANCH  12  13
ENDBRANCH  11  12
ENDBRANCH  10  11
ENDBRANCH   9  10
ENDBRANCH   8   9
ENDBRANCH   7   8
ENDBRANCH   6   7
ENDBRANCH   5   6
ENDBRANCH   4   5
ENDBRANCH   3   4
ENDBRANCH   2   3
ENDBRANCH   1   2
BRANCH   1  18
ATOM     18  C   UNL     1      -2.114 -35.907 -30.344  1.00  0.00     0.000 C 
BRANCH  18  19
ATOM     19  C   UNL     1      -1.096 -34.781 -30.581  1.00  0.00     0.000 C 
BRANCH  19  20
ATOM     20  C   UNL     1      -1.064 -33.761 -29.431  1.00  0.00     0.000 C 
BRANCH  20  21
ATOM     21  C   UNL     1      -1.160 -32.307 -29.926  1.00  0.00     0.000 C 
BRANCH  21  22
ATOM     22  C   UNL     1      -2.426 -32.055 -30.769  1.00  0.00     0.000 C 
BRANCH  22  23
ATOM     23  C   UNL     1      -2.926 -30.597 -30.740  1.00  0.00     0.000 C 
BRANCH  23  24
ATOM     24  C   UNL     1      -2.648 -29.863 -29.412  1.00  0.00    -0.000 C 
BRANCH  24  25
ATOM     25  C   UNL     1      -3.941 -29.526 -28.649  1.00  0.00    -0.000 C 
BRANCH  25  26
ATOM     26  C   UNL     1      -4.038 -30.243 -27.291  1.00  0.00    -0.000 C 
BRANCH  26  27
ATOM     27  C   UNL     1      -2.914 -31.258 -27.013  1.00  0.00    -0.000 C 
BRANCH  27  28
ATOM     28  C   UNL     1      -3.435 -32.698 -26.864  1.00  0.00    -0.000 C 
BRANCH  28  29
ATOM     29  C   UNL     1      -4.803 -32.911 -27.536  1.00  0.00    -0.000 C 
BRANCH  29  30
ATOM     30  C   UNL     1      -4.759 -33.669 -28.879  1.00  0.00    -0.000 C 
BRANCH  30  31
ATOM     31  C   UNL     1      -5.814 -33.228 -29.909  1.00  0.00    -0.003 C 
ATOM     32  C   UNL     1      -6.600 -31.994 -29.466  1.00  0.00     0.004 C 
ENDBRANCH  30  31
ENDBRANCH  29  30
ENDBRANCH  28  29
ENDBRANCH  27  28
ENDBRANCH  26  27
ENDBRANCH  25  26
ENDBRANCH  24  25
ENDBRANCH  23  24
ENDBRANCH  22  23
ENDBRANCH  21  22
ENDBRANCH  20  21
ENDBRANCH  19  20
ENDBRANCH  18  19
ENDBRANCH   1  18
TORSDOF 28
ENDMDL
MODEL 3
REMARK VINA RESULT:    -3.778      1.396      4.990
REMARK INTER + INTRA:         -16.285
REMARK INTER:                 -10.006
REMARK INTRA:                  -6.280
REMARK UNBOUND:                -6.323
REMARK SMILES CCCCCCCCCCCCCCCCCCCCCCCCCCCCCC(=O)[O-]
REMARK SMILES IDX 16 1 17 2 18 3 19 4 20 5 21 6 22 7 23 8 24 9 25 10 26 11
REMARK SMILES IDX 27 12 28 13 29 14 30 15 31 16 32 17 15 18 14 19 13 20 12 21
REMARK SMILES IDX 11 22 10 23 9 24 8 25 7 26 6 27 5 28 4 29 3 30 2 31 1 32
REMARK H PARENT
REMARK Flexibility Score: inf
ROOT
ATOM      1  C   UNL     1      -1.968 -32.513 -27.982  1.00  0.00     0.000 C 
ENDROOT
BRANCH   1   2
ATOM      2  C   UNL     1      -3.028 -32.092 -26.953  1.00  0.00     0.000 C 
BRANCH   2   3
ATOM      3  C   UNL     1      -3.748 -30.789 -27.335  1.00  0.00     0.000 C 
BRANCH   3   4
ATOM      4  C   UNL     1      -2.779 -29.609 -27.520  1.00  0.00     0.000 C 
BRANCH   4   5
ATOM      5  C   UNL     1      -3.148 -28.709 -28.714  1.00  0.00     0.000 C 
BRANCH   5   6
ATOM      6  C   UNL     1      -4.070 -29.350 -29.768  1.00  0.00     0.000 C 
BRANCH   6   7
ATOM      7  C   UNL     1      -3.379 -29.556 -31.128  1.00  0.00     0.000 C 
BRANCH   7   8
ATOM      8  C   UNL     1      -1.843 -29.544 -31.028  1.00  0.00     0.000 C 
BRANCH   8   9
ATOM      9  C   UNL     1      -1.142 -28.433 -31.831  1.00  0.00     0.000 C 
BRANCH   9  10
ATOM     10  C   UNL     1      -1.743 -28.240 -33.235  1.00  0.00     0.000 C 
BRANCH  10  11
ATOM     11  C   UNL     1      -1.137 -29.196 -34.274  1.00  0.00     0.000 C 
BRANCH  11  12
ATOM     12  C   UNL     1       0.343 -29.503 -34.001  1.00  0.00     0.000 C 
BRANCH  12  13
ATOM     13  C   UNL     1       0.562 -31.008 -33.783  1.00  0.00     0.006 C 
BRANCH  13  14
ATOM     14  C   UNL     1       1.148 -31.315 -32.399  1.00  0.00     0.053 C 
BRANCH  14  15
ATOM     15  C   UNL     1       1.083 -32.777 -32.081  1.00  0.00     0.041 C 
ATOM     16  O   UNL     1       1.499 -33.627 -32.913  1.00  0.00    -0.550 OA
ATOM     17  O   UNL     1       0.530 -33.204 -30.880  1.00  0.00    -0.550 OA
ENDBRANCH  14  15
ENDBRANCH  13  14
ENDBRANCH  12  13
ENDBRANCH  11  12
ENDBRANCH  10  11
ENDBRANCH   9  10
ENDBRANCH   8   9
ENDBRANCH   7   8
ENDBRANCH   6   7
ENDBRANCH   5   6
ENDBRANCH   4   5
ENDBRANCH   3   4
ENDBRANCH   2   3
ENDBRANCH   1   2
BRANCH   1  18
ATOM     18  C   UNL     1      -2.614 -32.814 -29.340  1.00  0.00     0.000 C 
BRANCH  18  19
ATOM     19  C   UNL     1      -3.369 -34.152 -29.311  1.00  0.00     0.000 C 
BRANCH  19  20
ATOM     20  C   UNL     1      -4.882 -33.981 -29.516  1.00  0.00     0.000 C 
BRANCH  20  21
ATOM     21  C   UNL     1      -5.235 -32.693 -30.281  1.00  0.00     0.000 C 
BRANCH  21  22
ATOM     22  C   UNL     1      -6.653 -32.738 -30.885  1.00  0.00     0.000 C 
BRANCH  22  23
ATOM     23  C   UNL     1      -6.710 -32.415 -32.391  1.00  0.00     0.000 C 
BRANCH  23  24
ATOM     24  C   UNL     1      -5.476 -32.893 -33.184  1.00  0.00    -0.000 C 
BRANCH  24  25
ATOM     25  C   UNL     1      -4.755 -31.735 -33.896  1.00  0.00    -0.000 C 
BRANCH  25  26
ATOM     26  C   UNL     1      -3.232 -31.938 -33.975  1.00  0.00    -0.000 C 
BRANCH  26  27
ATOM     27  C   UNL     1      -2.664 -32.969 -32.983  1.00  0.00    -0.000 C 
BRANCH  27  28
ATOM     28  C   UNL     1      -1.980 -34.156 -33.682  1.00  0.00    -0.000 C 
BRANCH  28  29
ATOM     29  C   UNL     1      -2.904 -35.378 -33.826  1.00  0.00    -0.000 C 
BRANCH  29  30
ATOM     30  C   UNL     1      -3.495 -35.909 -32.505  1.00  0.00    -0.000 C 
BRANCH  30  31
ATOM     31  C   UNL     1      -3.082 -37.346 -32.140  1.00  0.00    -0.003 C 
ATOM     32  C   UNL     1      -2.656 -37.491 -30.679  1.00  0.00     0.004 C 
ENDBRANCH  30  31
ENDBRANCH  29  30
ENDBRANCH  28  29
ENDBRANCH  27  28
ENDBRANCH  26  27
ENDBRANCH  25  26
ENDBRANCH  24  25
ENDBRANCH  23  24
ENDBRANCH  22  23
ENDBRANCH  21  22
ENDBRANCH  20  21
ENDBRANCH  19  20
ENDBRANCH  18  19
ENDBRANCH   1  18
TORSDOF 28
ENDMDL
MODEL 4
REMARK VINA RESULT:    -3.769      2.398      5.499
REMARK INTER + INTRA:         -16.262
REMARK INTER:                  -9.880
REMARK INTRA:                  -6.382
REMARK UNBOUND:                -6.323
REMARK SMILES CCCCCCCCCCCCCCCCCCCCCCCCCCCCCC(=O)[O-]
REMARK SMILES IDX 16 1 17 2 18 3 19 4 20 5 21 6 22 7 23 8 24 9 25 10 26 11
REMARK SMILES IDX 27 12 28 13 29 14 30 15 31 16 32 17 15 18 14 19 13 20 12 21
REMARK SMILES IDX 11 22 10 23 9 24 8 25 7 26 6 27 5 28 4 29 3 30 2 31 1 32
REMARK H PARENT
REMARK Flexibility Score: inf
ROOT
ATOM      1  C   UNL     1      -2.564 -34.184 -28.271  1.00  0.00     0.000 C 
ENDROOT
BRANCH   1   2
ATOM      2  C   UNL     1      -2.010 -32.782 -27.979  1.00  0.00     0.000 C 
BRANCH   2   3
ATOM      3  C   UNL     1      -2.807 -32.036 -26.897  1.00  0.00     0.000 C 
BRANCH   3   4
ATOM      4  C   UNL     1      -2.943 -30.532 -27.193  1.00  0.00     0.000 C 
BRANCH   4   5
ATOM      5  C   UNL     1      -4.309 -30.159 -27.799  1.00  0.00     0.000 C 
BRANCH   5   6
ATOM      6  C   UNL     1      -4.274 -29.665 -29.258  1.00  0.00     0.000 C 
BRANCH   6   7
ATOM      7  C   UNL     1      -2.862 -29.699 -29.871  1.00  0.00     0.000 C 
BRANCH   7   8
ATOM      8  C   UNL     1      -2.799 -30.500 -31.185  1.00  0.00     0.000 C 
BRANCH   8   9
ATOM      9  C   UNL     1      -1.933 -31.772 -31.136  1.00  0.00     0.000 C 
BRANCH   9  10
ATOM     10  C   UNL     1      -0.432 -31.469 -30.984  1.00  0.00     0.000 C 
BRANCH  10  11
ATOM     11  C   UNL     1       0.424 -32.178 -32.046  1.00  0.00     0.000 C 
BRANCH  11  12
ATOM     12  C   UNL     1       1.251 -31.196 -32.889  1.00  0.00     0.000 C 
BRANCH  12  13
ATOM     13  C   UNL     1       0.395 -30.570 -34.000  1.00  0.00     0.006 C 
BRANCH  13  14
ATOM     14  C   UNL     1       0.024 -29.112 -33.696  1.00  0.00     0.053 C 
BRANCH  14  15
ATOM     15  C   UNL     1      -1.393 -28.809 -34.076  1.00  0.00     0.041 C 
ATOM     16  O   UNL     1      -1.933 -29.409 -35.044  1.00  0.00    -0.550 OA
ATOM     17  O   UNL     1      -2.106 -27.839 -33.383  1.00  0.00    -0.550 OA
ENDBRANCH  14  15
ENDBRANCH  13  14
ENDBRANCH  12  13
ENDBRANCH  11  12
ENDBRANCH  10  11
ENDBRANCH   9  10
ENDBRANCH   8   9
ENDBRANCH   7   8
ENDBRANCH   6   7
ENDBRANCH   5   6
ENDBRANCH   4   5
ENDBRANCH   3   4
ENDBRANCH   2   3
ENDBRANCH   1   2
BRANCH   1  18
ATOM     18  C   UNL     1      -4.098 -34.173 -28.287  1.00  0.00     0.000 C 
BRANCH  18  19
ATOM     19  C   UNL     1      -4.635 -33.662 -29.633  1.00  0.00     0.000 C 
BRANCH  19  20
ATOM     20  C   UNL     1      -5.987 -32.944 -29.497  1.00  0.00     0.000 C 
BRANCH  20  21
ATOM     21  C   UNL     1      -6.740 -32.839 -30.835  1.00  0.00     0.000 C 
BRANCH  21  22
ATOM     22  C   UNL     1      -5.968 -32.009 -31.880  1.00  0.00     0.000 C 
BRANCH  22  23
ATOM     23  C   UNL     1      -6.057 -32.562 -33.317  1.00  0.00     0.000 C 
BRANCH  23  24
ATOM     24  C   UNL     1      -4.781 -33.285 -33.793  1.00  0.00    -0.000 C 
BRANCH  24  25
ATOM     25  C   UNL     1      -3.733 -32.311 -34.358  1.00  0.00    -0.000 C 
BRANCH  25  26
ATOM     26  C   UNL     1      -2.348 -32.957 -34.533  1.00  0.00    -0.000 C 
BRANCH  26  27
ATOM     27  C   UNL     1      -2.324 -34.488 -34.372  1.00  0.00    -0.000 C 
BRANCH  27  28
ATOM     28  C   UNL     1      -1.073 -34.991 -33.631  1.00  0.00    -0.000 C 
BRANCH  28  29
ATOM     29  C   UNL     1      -1.393 -35.560 -32.237  1.00  0.00    -0.000 C 
BRANCH  29  30
ATOM     30  C   UNL     1      -2.889 -35.821 -31.966  1.00  0.00    -0.000 C 
BRANCH  30  31
ATOM     31  C   UNL     1      -3.197 -37.145 -31.243  1.00  0.00    -0.003 C 
ATOM     32  C   UNL     1      -2.299 -37.385 -30.031  1.00  0.00     0.004 C 
ENDBRANCH  30  31
ENDBRANCH  29  30
ENDBRANCH  28  29
ENDBRANCH  27  28
ENDBRANCH  26  27
ENDBRANCH  25  26
ENDBRANCH  24  25
ENDBRANCH  23  24
ENDBRANCH  22  23
ENDBRANCH  21  22
ENDBRANCH  20  21
ENDBRANCH  19  20
ENDBRANCH  18  19
ENDBRANCH   1  18
TORSDOF 28
ENDMDL
MODEL 5
REMARK VINA RESULT:    -3.738      1.493      5.071
REMARK INTER + INTRA:         -16.180
REMARK INTER:                  -9.580
REMARK INTRA:                  -6.601
REMARK UNBOUND:                -6.323
REMARK SMILES CCCCCCCCCCCCCCCCCCCCCCCCCCCCCC(=O)[O-]
REMARK SMILES IDX 16 1 17 2 18 3 19 4 20 5 21 6 22 7 23 8 24 9 25 10 26 11
REMARK SMILES IDX 27 12 28 13 29 14 30 15 31 16 32 17 15 18 14 19 13 20 12 21
REMARK SMILES IDX 11 22 10 23 9 24 8 25 7 26 6 27 5 28 4 29 3 30 2 31 1 32
REMARK H PARENT
REMARK Flexibility Score: inf
ROOT
ATOM      1  C   UNL     1      -0.714 -30.435 -33.590  1.00  0.00     0.000 C 
ENDROOT
BRANCH   1   2
ATOM      2  C   UNL     1      -1.463 -29.529 -34.579  1.00  0.00     0.000 C 
BRANCH   2   3
ATOM      3  C   UNL     1      -2.910 -29.981 -34.828  1.00  0.00     0.000 C 
BRANCH   3   4
ATOM      4  C   UNL     1      -3.412 -30.973 -33.764  1.00  0.00     0.000 C 
BRANCH   4   5
ATOM      5  C   UNL     1      -4.686 -31.724 -34.195  1.00  0.00     0.000 C 
BRANCH   5   6
ATOM      6  C   UNL     1      -4.659 -33.250 -33.986  1.00  0.00     0.000 C 
BRANCH   6   7
ATOM      7  C   UNL     1      -3.297 -33.764 -33.483  1.00  0.00     0.000 C 
BRANCH   7   8
ATOM      8  C   UNL     1      -3.416 -34.644 -32.224  1.00  0.00     0.000 C 
BRANCH   8   9
ATOM      9  C   UNL     1      -2.531 -34.214 -31.040  1.00  0.00     0.000 C 
BRANCH   9  10
ATOM     10  C   UNL     1      -2.218 -32.707 -31.042  1.00  0.00     0.000 C 
BRANCH  10  11
ATOM     11  C   UNL     1      -1.103 -32.334 -30.052  1.00  0.00     0.000 C 
BRANCH  11  12
ATOM     12  C   UNL     1      -0.183 -33.520 -29.725  1.00  0.00     0.000 C 
BRANCH  12  13
ATOM     13  C   UNL     1       1.262 -33.231 -30.158  1.00  0.00     0.006 C 
BRANCH  13  14
ATOM     14  C   UNL     1       1.358 -32.841 -31.639  1.00  0.00     0.053 C 
BRANCH  14  15
ATOM     15  C   UNL     1       2.628 -32.107 -31.939  1.00  0.00     0.041 C 
ATOM     16  O   UNL     1       3.397 -31.759 -31.004  1.00  0.00    -0.550 OA
ATOM     17  O   UNL     1       2.946 -31.776 -33.251  1.00  0.00    -0.550 OA
ENDBRANCH  14  15
ENDBRANCH  13  14
ENDBRANCH  12  13
ENDBRANCH  11  12
ENDBRANCH  10  11
ENDBRANCH   9  10
ENDBRANCH   8   9
ENDBRANCH   7   8
ENDBRANCH   6   7
ENDBRANCH   5   6
ENDBRANCH   4   5
ENDBRANCH   3   4
ENDBRANCH   2   3
ENDBRANCH   1   2
BRANCH   1  18
ATOM     18  C   UNL     1      -0.337 -29.663 -32.319  1.00  0.00     0.000 C 
BRANCH  18  19
ATOM     19  C   UNL     1      -0.534 -28.151 -32.510  1.00  0.00     0.000 C 
BRANCH  19  20
ATOM     20  C   UNL     1      -1.526 -27.552 -31.501  1.00  0.00     0.000 C 
BRANCH  20  21
ATOM     21  C   UNL     1      -2.818 -27.047 -32.168  1.00  0.00     0.000 C 
BRANCH  21  22
ATOM     22  C   UNL     1      -4.058 -27.855 -31.734  1.00  0.00     0.000 C 
BRANCH  22  23
ATOM     23  C   UNL     1      -3.742 -29.059 -30.825  1.00  0.00     0.000 C 
BRANCH  23  24
ATOM     24  C   UNL     1      -4.398 -28.985 -29.431  1.00  0.00    -0.000 C 
BRANCH  24  25
ATOM     25  C   UNL     1      -3.385 -28.639 -28.326  1.00  0.00    -0.000 C 
BRANCH  25  26
ATOM     26  C   UNL     1      -2.649 -29.875 -27.780  1.00  0.00    -0.000 C 
BRANCH  26  27
ATOM     27  C   UNL     1      -3.510 -30.808 -26.910  1.00  0.00    -0.000 C 
BRANCH  27  28
ATOM     28  C   UNL     1      -3.022 -32.267 -26.934  1.00  0.00    -0.000 C 
BRANCH  28  29
ATOM     29  C   UNL     1      -3.930 -33.186 -27.771  1.00  0.00    -0.000 C 
BRANCH  29  30
ATOM     30  C   UNL     1      -5.184 -32.506 -28.357  1.00  0.00    -0.000 C 
BRANCH  30  31
ATOM     31  C   UNL     1      -5.720 -33.139 -29.654  1.00  0.00    -0.003 C 
ATOM     32  C   UNL     1      -6.048 -32.105 -30.730  1.00  0.00     0.004 C 
ENDBRANCH  30  31
ENDBRANCH  29  30
ENDBRANCH  28  29
ENDBRANCH  27  28
ENDBRANCH  26  27
ENDBRANCH  25  26
ENDBRANCH  24  25
ENDBRANCH  23  24
ENDBRANCH  22  23
ENDBRANCH  21  22
ENDBRANCH  20  21
ENDBRANCH  19  20
ENDBRANCH  18  19
ENDBRANCH   1  18
TORSDOF 28
ENDMDL
MODEL 6
REMARK VINA RESULT:    -3.737      1.929      4.956
REMARK INTER + INTRA:         -16.178
REMARK INTER:                 -10.166
REMARK INTRA:                  -6.012
REMARK UNBOUND:                -6.323
REMARK SMILES CCCCCCCCCCCCCCCCCCCCCCCCCCCCCC(=O)[O-]
REMARK SMILES IDX 16 1 17 2 18 3 19 4 20 5 21 6 22 7 23 8 24 9 25 10 26 11
REMARK SMILES IDX 27 12 28 13 29 14 30 15 31 16 32 17 15 18 14 19 13 20 12 21
REMARK SMILES IDX 11 22 10 23 9 24 8 25 7 26 6 27 5 28 4 29 3 30 2 31 1 32
REMARK H PARENT
REMARK Flexibility Score: inf
ROOT
ATOM      1  C   UNL     1      -4.464 -33.321 -27.728  1.00  0.00     0.000 C 
ENDROOT
BRANCH   1   2
ATOM      2  C   UNL     1      -2.954 -33.055 -27.627  1.00  0.00     0.000 C 
BRANCH   2   3
ATOM      3  C   UNL     1      -2.625 -31.728 -26.924  1.00  0.00     0.000 C 
BRANCH   3   4
ATOM      4  C   UNL     1      -3.640 -30.619 -27.248  1.00  0.00     0.000 C 
BRANCH   4   5
ATOM      5  C   UNL     1      -2.974 -29.319 -27.739  1.00  0.00     0.000 C 
BRANCH   5   6
ATOM      6  C   UNL     1      -3.811 -28.475 -28.719  1.00  0.00     0.000 C 
BRANCH   6   7
ATOM      7  C   UNL     1      -2.951 -27.572 -29.622  1.00  0.00     0.000 C 
BRANCH   7   8
ATOM      8  C   UNL     1      -3.564 -27.362 -31.019  1.00  0.00     0.000 C 
BRANCH   8   9
ATOM      9  C   UNL     1      -2.549 -27.258 -32.171  1.00  0.00     0.000 C 
BRANCH   9  10
ATOM     10  C   UNL     1      -1.106 -27.561 -31.727  1.00  0.00     0.000 C 
BRANCH  10  11
ATOM     11  C   UNL     1      -0.334 -28.398 -32.759  1.00  0.00     0.000 C 
BRANCH  11  12
ATOM     12  C   UNL     1      -1.249 -28.994 -33.839  1.00  0.00     0.000 C 
BRANCH  12  13
ATOM     13  C   UNL     1      -0.469 -29.951 -34.753  1.00  0.00     0.006 C 
BRANCH  13  14
ATOM     14  C   UNL     1       1.042 -29.901 -34.492  1.00  0.00     0.053 C 
BRANCH  14  15
ATOM     15  C   UNL     1       1.649 -31.270 -34.478  1.00  0.00     0.041 C 
ATOM     16  O   UNL     1       2.879 -31.417 -34.246  1.00  0.00    -0.550 OA
ATOM     17  O   UNL     1       0.864 -32.381 -34.757  1.00  0.00    -0.550 OA
ENDBRANCH  14  15
ENDBRANCH  13  14
ENDBRANCH  12  13
ENDBRANCH  11  12
ENDBRANCH  10  11
ENDBRANCH   9  10
ENDBRANCH   8   9
ENDBRANCH   7   8
ENDBRANCH   6   7
ENDBRANCH   5   6
ENDBRANCH   4   5
ENDBRANCH   3   4
ENDBRANCH   2   3
ENDBRANCH   1   2
BRANCH   1  18
ATOM     18  C   UNL     1      -4.882 -33.540 -29.188  1.00  0.00     0.000 C 
BRANCH  18  19
ATOM     19  C   UNL     1      -5.849 -32.442 -29.659  1.00  0.00     0.000 C 
BRANCH  19  20
ATOM     20  C   UNL     1      -5.182 -31.437 -30.612  1.00  0.00     0.000 C 
BRANCH  20  21
ATOM     21  C   UNL     1      -3.878 -31.978 -31.225  1.00  0.00     0.000 C 
BRANCH  21  22
ATOM     22  C   UNL     1      -2.760 -30.917 -31.260  1.00  0.00     0.000 C 
BRANCH  22  23
ATOM     23  C   UNL     1      -1.528 -31.269 -30.404  1.00  0.00     0.000 C 
BRANCH  23  24
ATOM     24  C   UNL     1      -0.221 -31.414 -31.211  1.00  0.00    -0.000 C 
BRANCH  24  25
ATOM     25  C   UNL     1       0.271 -32.870 -31.270  1.00  0.00    -0.000 C 
BRANCH  25  26
ATOM     26  C   UNL     1      -0.707 -33.860 -30.615  1.00  0.00    -0.000 C 
BRANCH  26  27
ATOM     27  C   UNL     1      -1.074 -35.076 -31.485  1.00  0.00    -0.000 C 
BRANCH  27  28
ATOM     28  C   UNL     1      -2.589 -35.211 -31.714  1.00  0.00    -0.000 C 
BRANCH  28  29
ATOM     29  C   UNL     1      -3.081 -36.666 -31.619  1.00  0.00    -0.000 C 
BRANCH  29  30
ATOM     30  C   UNL     1      -2.351 -37.534 -30.574  1.00  0.00    -0.000 C 
BRANCH  30  31
ATOM     31  C   UNL     1      -2.922 -37.449 -29.147  1.00  0.00    -0.003 C 
ATOM     32  C   UNL     1      -2.087 -36.564 -28.222  1.00  0.00     0.004 C 
ENDBRANCH  30  31
ENDBRANCH  29  30
ENDBRANCH  28  29
ENDBRANCH  27  28
ENDBRANCH  26  27
ENDBRANCH  25  26
ENDBRANCH  24  25
ENDBRANCH  23  24
ENDBRANCH  22  23
ENDBRANCH  21  22
ENDBRANCH  20  21
ENDBRANCH  19  20
ENDBRANCH  18  19
ENDBRANCH   1  18
TORSDOF 28
ENDMDL
MODEL 7
REMARK VINA RESULT:    -3.725      2.105      6.287
REMARK INTER + INTRA:         -16.146
REMARK INTER:                 -10.027
REMARK INTRA:                  -6.119
REMARK UNBOUND:                -6.323
REMARK SMILES CCCCCCCCCCCCCCCCCCCCCCCCCCCCCC(=O)[O-]
REMARK SMILES IDX 16 1 17 2 18 3 19 4 20 5 21 6 22 7 23 8 24 9 25 10 26 11
REMARK SMILES IDX 27 12 28 13 29 14 30 15 31 16 32 17 15 18 14 19 13 20 12 21
REMARK SMILES IDX 11 22 10 23 9 24 8 25 7 26 6 27 5 28 4 29 3 30 2 31 1 32
REMARK H PARENT
REMARK Flexibility Score: inf
ROOT
ATOM      1  C   UNL     1      -2.416 -34.138 -28.854  1.00  0.00     0.000 C 
ENDROOT
BRANCH   1   2
ATOM      2  C   UNL     1      -3.950 -34.208 -28.889  1.00  0.00     0.000 C 
BRANCH   2   3
ATOM      3  C   UNL     1      -4.544 -33.693 -30.210  1.00  0.00     0.000 C 
BRANCH   3   4
ATOM      4  C   UNL     1      -5.363 -32.404 -30.029  1.00  0.00     0.000 C 
BRANCH   4   5
ATOM      5  C   UNL     1      -6.750 -32.473 -30.696  1.00  0.00     0.000 C 
BRANCH   5   6
ATOM      6  C   UNL     1      -6.749 -32.851 -32.189  1.00  0.00     0.000 C 
BRANCH   6   7
ATOM      7  C   UNL     1      -6.637 -31.629 -33.119  1.00  0.00     0.000 C 
BRANCH   7   8
ATOM      8  C   UNL     1      -5.460 -31.734 -34.107  1.00  0.00     0.000 C 
BRANCH   8   9
ATOM      9  C   UNL     1      -4.089 -32.015 -33.465  1.00  0.00     0.000 C 
BRANCH   9  10
ATOM     10  C   UNL     1      -3.260 -33.047 -34.251  1.00  0.00     0.000 C 
BRANCH  10  11
ATOM     11  C   UNL     1      -3.687 -34.494 -33.957  1.00  0.00     0.000 C 
BRANCH  11  12
ATOM     12  C   UNL     1      -2.670 -35.245 -33.085  1.00  0.00     0.000 C 
BRANCH  12  13
ATOM     13  C   UNL     1      -3.326 -36.441 -32.381  1.00  0.00     0.006 C 
BRANCH  13  14
ATOM     14  C   UNL     1      -2.319 -37.556 -32.069  1.00  0.00     0.053 C 
BRANCH  14  15
ATOM     15  C   UNL     1      -1.949 -37.579 -30.618  1.00  0.00     0.041 C 
ATOM     16  O   UNL     1      -0.737 -37.584 -30.271  1.00  0.00    -0.550 OA
ATOM     17  O   UNL     1      -2.942 -37.631 -29.647  1.00  0.00    -0.550 OA
ENDBRANCH  14  15
ENDBRANCH  13  14
ENDBRANCH  12  13
ENDBRANCH  11  12
ENDBRANCH  10  11
ENDBRANCH   9  10
ENDBRANCH   8   9
ENDBRANCH   7   8
ENDBRANCH   6   7
ENDBRANCH   5   6
ENDBRANCH   4   5
ENDBRANCH   3   4
ENDBRANCH   2   3
ENDBRANCH   1   2
BRANCH   1  18
ATOM     18  C   UNL     1      -1.943 -32.952 -28.005  1.00  0.00     0.000 C 
BRANCH  18  19
ATOM     19  C   UNL     1      -3.075 -32.424 -27.110  1.00  0.00     0.000 C 
BRANCH  19  20
ATOM     20  C   UNL     1      -3.225 -30.896 -27.187  1.00  0.00     0.000 C 
BRANCH  20  21
ATOM     21  C   UNL     1      -2.652 -30.309 -28.489  1.00  0.00     0.000 C 
BRANCH  21  22
ATOM     22  C   UNL     1      -3.030 -28.827 -28.682  1.00  0.00     0.000 C 
BRANCH  22  23
ATOM     23  C   UNL     1      -3.055 -28.367 -30.153  1.00  0.00     0.000 C 
BRANCH  23  24
ATOM     24  C   UNL     1      -3.962 -29.219 -31.064  1.00  0.00    -0.000 C 
BRANCH  24  25
ATOM     25  C   UNL     1      -4.435 -28.447 -32.307  1.00  0.00    -0.000 C 
BRANCH  25  26
ATOM     26  C   UNL     1      -3.272 -27.857 -33.124  1.00  0.00    -0.000 C 
BRANCH  26  27
ATOM     27  C   UNL     1      -2.840 -28.703 -34.336  1.00  0.00    -0.000 C 
BRANCH  27  28
ATOM     28  C   UNL     1      -1.392 -29.211 -34.224  1.00  0.00    -0.000 C 
BRANCH  28  29
ATOM     29  C   UNL     1      -0.673 -28.691 -32.967  1.00  0.00    -0.000 C 
BRANCH  29  30
ATOM     30  C   UNL     1       0.006 -29.777 -32.108  1.00  0.00    -0.000 C 
BRANCH  30  31
ATOM     31  C   UNL     1      -0.827 -31.054 -31.898  1.00  0.00    -0.003 C 
ATOM     32  C   UNL     1      -0.158 -32.053 -30.955  1.00  0.00     0.004 C 
ENDBRANCH  30  31
ENDBRANCH  29  30
ENDBRANCH  28  29
ENDBRANCH  27  28
ENDBRANCH  26  27
ENDBRANCH  25  26
ENDBRANCH  24  25
ENDBRANCH  23  24
ENDBRANCH  22  23
ENDBRANCH  21  22
ENDBRANCH  20  21
ENDBRANCH  19  20
ENDBRANCH  18  19
ENDBRANCH   1  18
TORSDOF 28
ENDMDL
MODEL 8
REMARK VINA RESULT:    -3.704      1.363      3.225
REMARK INTER + INTRA:         -16.091
REMARK INTER:                  -8.995
REMARK INTRA:                  -7.095
REMARK UNBOUND:                -6.323
REMARK SMILES CCCCCCCCCCCCCCCCCCCCCCCCCCCCCC(=O)[O-]
REMARK SMILES IDX 16 1 17 2 18 3 19 4 20 5 21 6 22 7 23 8 24 9 25 10 26 11
REMARK SMILES IDX 27 12 28 13 29 14 30 15 31 16 32 17 15 18 14 19 13 20 12 21
REMARK SMILES IDX 11 22 10 23 9 24 8 25 7 26 6 27 5 28 4 29 3 30 2 31 1 32
REMARK H PARENT
REMARK Flexibility Score: inf
ROOT
ATOM      1  C   UNL     1      -4.147 -30.466 -34.337  1.00  0.00     0.000 C 
ENDROOT
BRANCH   1   2
ATOM      2  C   UNL     1      -4.394 -29.036 -33.836  1.00  0.00     0.000 C 
BRANCH   2   3
ATOM      3  C   UNL     1      -4.162 -28.881 -32.325  1.00  0.00     0.000 C 
BRANCH   3   4
ATOM      4  C   UNL     1      -2.750 -29.317 -31.895  1.00  0.00     0.000 C 
BRANCH   4   5
ATOM      5  C   UNL     1      -1.744 -28.151 -31.863  1.00  0.00     0.000 C 
BRANCH   5   6
ATOM      6  C   UNL     1      -0.415 -28.402 -32.602  1.00  0.00     0.000 C 
BRANCH   6   7
ATOM      7  C   UNL     1      -0.605 -29.105 -33.959  1.00  0.00     0.000 C 
BRANCH   7   8
ATOM      8  C   UNL     1       0.673 -29.809 -34.453  1.00  0.00     0.000 C 
BRANCH   8   9
ATOM      9  C   UNL     1       0.478 -31.261 -34.927  1.00  0.00     0.000 C 
BRANCH   9  10
ATOM     10  C   UNL     1      -0.806 -31.905 -34.374  1.00  0.00     0.000 C 
BRANCH  10  11
ATOM     11  C   UNL     1      -0.523 -32.920 -33.256  1.00  0.00     0.000 C 
BRANCH  11  12
ATOM     12  C   UNL     1      -0.833 -32.362 -31.859  1.00  0.00     0.000 C 
BRANCH  12  13
ATOM     13  C   UNL     1       0.404 -31.689 -31.249  1.00  0.00     0.006 C 
BRANCH  13  14
ATOM     14  C   UNL     1       1.319 -32.693 -30.535  1.00  0.00     0.053 C 
BRANCH  14  15
ATOM     15  C   UNL     1       2.738 -32.579 -31.000  1.00  0.00     0.041 C 
ATOM     16  O   UNL     1       3.642 -33.270 -30.459  1.00  0.00    -0.550 OA
ATOM     17  O   UNL     1       3.069 -31.683 -32.009  1.00  0.00    -0.550 OA
ENDBRANCH  14  15
ENDBRANCH  13  14
ENDBRANCH  12  13
ENDBRANCH  11  12
ENDBRANCH  10  11
ENDBRANCH   9  10
ENDBRANCH   8   9
ENDBRANCH   7   8
ENDBRANCH   6   7
ENDBRANCH   5   6
ENDBRANCH   4   5
ENDBRANCH   3   4
ENDBRANCH   2   3
ENDBRANCH   1   2
BRANCH   1  18
ATOM     18  C   UNL     1      -5.164 -31.441 -33.730  1.00  0.00     0.000 C 
BRANCH  18  19
ATOM     19  C   UNL     1      -4.679 -32.894 -33.849  1.00  0.00     0.000 C 
BRANCH  19  20
ATOM     20  C   UNL     1      -4.156 -33.453 -32.517  1.00  0.00     0.000 C 
BRANCH  20  21
ATOM     21  C   UNL     1      -4.496 -32.548 -31.320  1.00  0.00     0.000 C 
BRANCH  21  22
ATOM     22  C   UNL     1      -5.432 -33.239 -30.308  1.00  0.00     0.000 C 
BRANCH  22  23
ATOM     23  C   UNL     1      -6.460 -32.296 -29.651  1.00  0.00     0.000 C 
BRANCH  23  24
ATOM     24  C   UNL     1      -6.422 -30.851 -30.188  1.00  0.00    -0.000 C 
BRANCH  24  25
ATOM     25  C   UNL     1      -5.992 -29.839 -29.112  1.00  0.00    -0.000 C 
BRANCH  25  26
ATOM     26  C   UNL     1      -5.771 -30.487 -27.734  1.00  0.00    -0.000 C 
BRANCH  26  27
ATOM     27  C   UNL     1      -4.322 -30.428 -27.218  1.00  0.00    -0.000 C 
BRANCH  27  28
ATOM     28  C   UNL     1      -3.321 -29.984 -28.298  1.00  0.00    -0.000 C 
BRANCH  28  29
ATOM     29  C   UNL     1      -2.340 -31.101 -28.698  1.00  0.00    -0.000 C 
BRANCH  29  30
ATOM     30  C   UNL     1      -2.562 -32.450 -27.985  1.00  0.00    -0.000 C 
BRANCH  30  31
ATOM     31  C   UNL     1      -1.557 -33.555 -28.358  1.00  0.00    -0.003 C 
ATOM     32  C   UNL     1      -2.171 -34.649 -29.229  1.00  0.00     0.004 C 
ENDBRANCH  30  31
ENDBRANCH  29  30
ENDBRANCH  28  29
ENDBRANCH  27  28
ENDBRANCH  26  27
ENDBRANCH  25  26
ENDBRANCH  24  25
ENDBRANCH  23  24
ENDBRANCH  22  23
ENDBRANCH  21  22
ENDBRANCH  20  21
ENDBRANCH  19  20
ENDBRANCH  18  19
ENDBRANCH   1  18
TORSDOF 28
ENDMDL
MODEL 9
REMARK VINA RESULT:    -3.684      1.491      4.251
REMARK INTER + INTRA:         -16.037
REMARK INTER:                  -9.554
REMARK INTRA:                  -6.483
REMARK UNBOUND:                -6.323
REMARK SMILES CCCCCCCCCCCCCCCCCCCCCCCCCCCCCC(=O)[O-]
REMARK SMILES IDX 16 1 17 2 18 3 19 4 20 5 21 6 22 7 23 8 24 9 25 10 26 11
REMARK SMILES IDX 27 12 28 13 29 14 30 15 31 16 32 17 15 18 14 19 13 20 12 21
REMARK SMILES IDX 11 22 10 23 9 24 8 25 7 26 6 27 5 28 4 29 3 30 2 31 1 32
REMARK H PARENT
REMARK Flexibility Score: inf
ROOT
ATOM      1  C   UNL     1      -2.841 -32.145 -28.974  1.00  0.00     0.000 C 
ENDROOT
BRANCH   1   2
ATOM      2  C   UNL     1      -2.593 -31.779 -27.502  1.00  0.00     0.000 C 
BRANCH   2   3
ATOM      3  C   UNL     1      -2.828 -30.289 -27.207  1.00  0.00     0.000 C 
BRANCH   3   4
ATOM      4  C   UNL     1      -4.102 -29.747 -27.877  1.00  0.00     0.000 C 
BRANCH   4   5
ATOM      5  C   UNL     1      -3.962 -28.285 -28.342  1.00  0.00     0.000 C 
BRANCH   5   6
ATOM      6  C   UNL     1      -2.953 -28.046 -29.482  1.00  0.00     0.000 C 
BRANCH   6   7
ATOM      7  C   UNL     1      -3.619 -27.556 -30.781  1.00  0.00     0.000 C 
BRANCH   7   8
ATOM      8  C   UNL     1      -2.600 -27.189 -31.876  1.00  0.00     0.000 C 
BRANCH   8   9
ATOM      9  C   UNL     1      -1.151 -27.628 -31.596  1.00  0.00     0.000 C 
BRANCH   9  10
ATOM     10  C   UNL     1      -0.515 -28.383 -32.776  1.00  0.00     0.000 C 
BRANCH  10  11
ATOM     11  C   UNL     1      -1.522 -28.682 -33.898  1.00  0.00     0.000 C 
BRANCH  11  12
ATOM     12  C   UNL     1      -1.151 -29.933 -34.708  1.00  0.00     0.000 C 
BRANCH  12  13
ATOM     13  C   UNL     1       0.297 -30.360 -34.427  1.00  0.00     0.006 C 
BRANCH  13  14
ATOM     14  C   UNL     1       0.389 -31.810 -33.932  1.00  0.00     0.053 C 
BRANCH  14  15
ATOM     15  C   UNL     1       1.452 -31.974 -32.890  1.00  0.00     0.041 C 
ATOM     16  O   UNL     1       1.384 -31.333 -31.807  1.00  0.00    -0.550 OA
ATOM     17  O   UNL     1       2.537 -32.809 -33.128  1.00  0.00    -0.550 OA
ENDBRANCH  14  15
ENDBRANCH  13  14
ENDBRANCH  12  13
ENDBRANCH  11  12
ENDBRANCH  10  11
ENDBRANCH   9  10
ENDBRANCH   8   9
ENDBRANCH   7   8
ENDBRANCH   6   7
ENDBRANCH   5   6
ENDBRANCH   4   5
ENDBRANCH   3   4
ENDBRANCH   2   3
ENDBRANCH   1   2
BRANCH   1  18
ATOM     18  C   UNL     1      -1.688 -31.653 -29.859  1.00  0.00     0.000 C 
BRANCH  18  19
ATOM     19  C   UNL     1      -2.186 -31.294 -31.268  1.00  0.00     0.000 C 
BRANCH  19  20
ATOM     20  C   UNL     1      -3.717 -31.180 -31.343  1.00  0.00     0.000 C 
BRANCH  20  21
ATOM     21  C   UNL     1      -4.216 -30.818 -32.753  1.00  0.00     0.000 C 
BRANCH  21  22
ATOM     22  C   UNL     1      -4.630 -32.061 -33.567  1.00  0.00     0.000 C 
BRANCH  22  23
ATOM     23  C   UNL     1      -3.478 -32.711 -34.358  1.00  0.00     0.000 C 
BRANCH  23  24
ATOM     24  C   UNL     1      -3.331 -34.228 -34.125  1.00  0.00    -0.000 C 
BRANCH  24  25
ATOM     25  C   UNL     1      -3.858 -34.661 -32.746  1.00  0.00    -0.000 C 
BRANCH  25  26
ATOM     26  C   UNL     1      -2.731 -35.007 -31.756  1.00  0.00    -0.000 C 
BRANCH  26  27
ATOM     27  C   UNL     1      -3.209 -35.414 -30.350  1.00  0.00    -0.000 C 
BRANCH  27  28
ATOM     28  C   UNL     1      -2.624 -36.758 -29.886  1.00  0.00    -0.000 C 
BRANCH  28  29
ATOM     29  C   UNL     1      -1.310 -36.598 -29.101  1.00  0.00    -0.000 C 
BRANCH  29  30
ATOM     30  C   UNL     1      -1.092 -35.208 -28.470  1.00  0.00    -0.000 C 
BRANCH  30  31
ATOM     31  C   UNL     1       0.355 -34.687 -28.528  1.00  0.00    -0.003 C 
ATOM     32  C   UNL     1       0.805 -34.335 -29.945  1.00  0.00     0.004 C 
ENDBRANCH  30  31
ENDBRANCH  29  30
ENDBRANCH  28  29
ENDBRANCH  27  28
ENDBRANCH  26  27
ENDBRANCH  25  26
ENDBRANCH  24  25
ENDBRANCH  23  24
ENDBRANCH  22  23
ENDBRANCH  21  22
ENDBRANCH  20  21
ENDBRANCH  19  20
ENDBRANCH  18  19
ENDBRANCH   1  18
TORSDOF 28
ENDMDL
