MODEL 1
REMARK VINA RESULT:    -3.424      0.000      0.000
REMARK INTER + INTRA:          -5.007
REMARK INTER:                  -4.425
REMARK INTRA:                  -0.583
REMARK UNBOUND:                -0.583
REMARK SMILES C=CC(=O)CCCCC
REMARK SMILES IDX 6 1 7 2 8 3 9 4 5 5 3 6 4 7 2 8 1 9
REMARK H PARENT
REMARK Flexibility Score: inf
ROOT
ATOM      1  C   UNL     1     -29.637 -11.882  24.871  1.00  0.00     0.008 C 
ENDROOT
BRANCH   1   2
ATOM      2  C   UNL     1     -28.847 -13.005  25.561  1.00  0.00     0.000 C 
BRANCH   2   3
ATOM      3  C   UNL     1     -27.456 -12.518  25.981  1.00  0.00    -0.003 C 
ATOM      4  C   UNL     1     -26.359 -13.362  25.340  1.00  0.00     0.004 C 
ENDBRANCH   2   3
ENDBRANCH   1   2
BRANCH   1   5
ATOM      5  C   UNL     1     -29.947 -12.207  23.403  1.00  0.00     0.080 C 
BRANCH   5   6
ATOM      6  C   UNL     1     -28.694 -12.386  22.584  1.00  0.00     0.155 C 
ATOM      7  O   UNL     1     -27.921 -11.400  22.441  1.00  0.00    -0.295 OA
BRANCH   6   8
ATOM      8  C   UNL     1     -28.337 -13.656  21.915  1.00  0.00     0.039 C 
ATOM      9  C   UNL     1     -28.883 -14.835  22.213  1.00  0.00     0.012 C 
ENDBRANCH   6   8
ENDBRANCH   5   6
ENDBRANCH   1   5
TORSDOF 5
ENDMDL
MODEL 2
REMARK VINA RESULT:    -3.389      1.659      3.755
REMARK INTER + INTRA:          -4.962
REMARK INTER:                  -4.361
REMARK INTRA:                  -0.601
REMARK UNBOUND:                -0.583
REMARK SMILES C=CC(=O)CCCCC
REMARK SMILES IDX 6 1 7 2 8 3 9 4 5 5 3 6 4 7 2 8 1 9
REMARK H PARENT
REMARK Flexibility Score: inf
ROOT
ATOM      1  C   UNL     1     -27.583 -12.622  22.406  1.00  0.00     0.008 C 
ENDROOT
BRANCH   1   2
ATOM      2  C   UNL     1     -29.040 -12.331  22.014  1.00  0.00     0.000 C 
BRANCH   2   3
ATOM      3  C   UNL     1     -29.852 -13.628  21.920  1.00  0.00    -0.003 C 
ATOM      4  C   UNL     1     -28.989 -14.844  22.239  1.00  0.00     0.004 C 
ENDBRANCH   2   3
ENDBRANCH   1   2
BRANCH   1   5
ATOM      5  C   UNL     1     -27.160 -11.864  23.673  1.00  0.00     0.080 C 
BRANCH   5   6
ATOM      6  C   UNL     1     -27.267 -12.719  24.910  1.00  0.00     0.155 C 
ATOM      7  O   UNL     1     -26.342 -13.537  25.159  1.00  0.00    -0.295 OA
BRANCH   6   8
ATOM      8  C   UNL     1     -28.421 -12.667  25.834  1.00  0.00     0.039 C 
ATOM      9  C   UNL     1     -29.590 -13.263  25.602  1.00  0.00     0.012 C 
ENDBRANCH   6   8
ENDBRANCH   5   6
ENDBRANCH   1   5
TORSDOF 5
ENDMDL
MODEL 3
REMARK VINA RESULT:    -3.365      2.120      2.629
REMARK INTER + INTRA:          -4.931
REMARK INTER:                  -4.817
REMARK INTRA:                  -0.115
REMARK UNBOUND:                -0.583
REMARK SMILES C=CC(=O)CCCCC
REMARK SMILES IDX 6 1 7 2 8 3 9 4 5 5 3 6 4 7 2 8 1 9
REMARK H PARENT
REMARK Flexibility Score: inf
ROOT
ATOM      1  C   UNL     1     -27.850 -11.448  22.817  1.00  0.00     0.008 C 
ENDROOT
BRANCH   1   2
ATOM      2  C   UNL     1     -27.787 -10.959  24.272  1.00  0.00     0.000 C 
BRANCH   2   3
ATOM      3  C   UNL     1     -27.400  -9.477  24.336  1.00  0.00    -0.003 C 
ATOM      4  C   UNL     1     -27.018  -9.066  25.755  1.00  0.00     0.004 C 
ENDBRANCH   2   3
ENDBRANCH   1   2
BRANCH   1   5
ATOM      5  C   UNL     1     -29.077 -12.333  22.554  1.00  0.00     0.080 C 
BRANCH   5   6
ATOM      6  C   UNL     1     -28.718 -13.794  22.473  1.00  0.00     0.155 C 
ATOM      7  O   UNL     1     -27.504 -14.122  22.551  1.00  0.00    -0.295 OA
BRANCH   6   8
ATOM      8  C   UNL     1     -29.719 -14.865  22.278  1.00  0.00     0.039 C 
ATOM      9  C   UNL     1     -29.415 -16.119  21.943  1.00  0.00     0.012 C 
ENDBRANCH   6   8
ENDBRANCH   5   6
ENDBRANCH   1   5
TORSDOF 5
ENDMDL
MODEL 4
REMARK VINA RESULT:    -3.346      2.222      4.292
REMARK INTER + INTRA:          -4.906
REMARK INTER:                  -4.793
REMARK INTRA:                  -0.113
REMARK UNBOUND:                -0.583
REMARK SMILES C=CC(=O)CCCCC
REMARK SMILES IDX 6 1 7 2 8 3 9 4 5 5 3 6 4 7 2 8 1 9
REMARK H PARENT
REMARK Flexibility Score: inf
ROOT
ATOM      1  C   UNL     1     -27.549 -13.379  23.294  1.00  0.00     0.008 C 
ENDROOT
BRANCH   1   2
ATOM      2  C   UNL     1     -28.238 -13.897  22.022  1.00  0.00     0.000 C 
BRANCH   2   3
ATOM      3  C   UNL     1     -29.513 -14.675  22.367  1.00  0.00    -0.003 C 
ATOM      4  C   UNL     1     -29.405 -16.134  21.932  1.00  0.00     0.004 C 
ENDBRANCH   2   3
ENDBRANCH   1   2
BRANCH   1   5
ATOM      5  C   UNL     1     -27.092 -11.920  23.153  1.00  0.00     0.080 C 
BRANCH   5   6
ATOM      6  C   UNL     1     -27.678 -11.035  24.223  1.00  0.00     0.155 C 
ATOM      7  O   UNL     1     -28.424 -11.556  25.094  1.00  0.00    -0.295 OA
BRANCH   6   8
ATOM      8  C   UNL     1     -27.441  -9.576  24.288  1.00  0.00     0.039 C 
ATOM      9  C   UNL     1     -26.960  -8.945  25.360  1.00  0.00     0.012 C 
ENDBRANCH   6   8
ENDBRANCH   5   6
ENDBRANCH   1   5
TORSDOF 5
ENDMDL
MODEL 5
REMARK VINA RESULT:    -3.295      1.458      3.602
REMARK INTER + INTRA:          -4.841
REMARK INTER:                  -4.276
REMARK INTRA:                  -0.565
REMARK UNBOUND:                -0.583
REMARK SMILES C=CC(=O)CCCCC
REMARK SMILES IDX 6 1 7 2 8 3 9 4 5 5 3 6 4 7 2 8 1 9
REMARK H PARENT
REMARK Flexibility Score: inf
ROOT
ATOM      1  C   UNL     1     -28.422 -12.017  22.430  1.00  0.00     0.008 C 
ENDROOT
BRANCH   1   2
ATOM      2  C   UNL     1     -27.861 -13.382  22.003  1.00  0.00     0.000 C 
BRANCH   2   3
ATOM      3  C   UNL     1     -28.830 -14.512  22.368  1.00  0.00    -0.003 C 
ATOM      4  C   UNL     1     -30.016 -13.984  23.170  1.00  0.00     0.004 C 
ENDBRANCH   2   3
ENDBRANCH   1   2
BRANCH   1   5
ATOM      5  C   UNL     1     -27.502 -11.295  23.425  1.00  0.00     0.080 C 
BRANCH   5   6
ATOM      6  C   UNL     1     -27.939 -11.498  24.853  1.00  0.00     0.155 C 
ATOM      7  O   UNL     1     -28.819 -10.731  25.328  1.00  0.00    -0.295 OA
BRANCH   6   8
ATOM      8  C   UNL     1     -27.367 -12.537  25.737  1.00  0.00     0.039 C 
ATOM      9  C   UNL     1     -26.380 -13.359  25.379  1.00  0.00     0.012 C 
ENDBRANCH   6   8
ENDBRANCH   5   6
ENDBRANCH   1   5
TORSDOF 5
ENDMDL
MODEL 6
REMARK VINA RESULT:    -3.246      1.702      2.301
REMARK INTER + INTRA:          -4.778
REMARK INTER:                  -4.358
REMARK INTRA:                  -0.420
REMARK UNBOUND:                -0.583
REMARK SMILES C=CC(=O)CCCCC
REMARK SMILES IDX 6 1 7 2 8 3 9 4 5 5 3 6 4 7 2 8 1 9
REMARK H PARENT
REMARK Flexibility Score: inf
ROOT
ATOM      1  C   UNL     1     -28.307 -12.629  25.692  1.00  0.00     0.008 C 
ENDROOT
BRANCH   1   2
ATOM      2  C   UNL     1     -28.801 -11.189  25.486  1.00  0.00     0.000 C 
BRANCH   2   3
ATOM      3  C   UNL     1     -27.710 -10.177  25.854  1.00  0.00    -0.003 C 
ATOM      4  C   UNL     1     -27.482  -9.176  24.726  1.00  0.00     0.004 C 
ENDBRANCH   2   3
ENDBRANCH   1   2
BRANCH   1   5
ATOM      5  C   UNL     1     -27.095 -12.960  24.809  1.00  0.00     0.080 C 
BRANCH   5   6
ATOM      6  C   UNL     1     -27.432 -12.918  23.341  1.00  0.00     0.155 C 
ATOM      7  O   UNL     1     -27.003 -11.955  22.651  1.00  0.00    -0.295 OA
BRANCH   6   8
ATOM      8  C   UNL     1     -28.267 -13.940  22.671  1.00  0.00     0.039 C 
ATOM      9  C   UNL     1     -29.429 -13.678  22.073  1.00  0.00     0.012 C 
ENDBRANCH   6   8
ENDBRANCH   5   6
ENDBRANCH   1   5
TORSDOF 5
ENDMDL
MODEL 7
REMARK VINA RESULT:    -3.194      2.170      4.007
REMARK INTER + INTRA:          -4.710
REMARK INTER:                  -4.254
REMARK INTRA:                  -0.456
REMARK UNBOUND:                -0.583
REMARK SMILES C=CC(=O)CCCCC
REMARK SMILES IDX 6 1 7 2 8 3 9 4 5 5 3 6 4 7 2 8 1 9
REMARK H PARENT
REMARK Flexibility Score: inf
ROOT
ATOM      1  C   UNL     1     -27.014 -12.960  24.466  1.00  0.00     0.008 C 
ENDROOT
BRANCH   1   2
ATOM      2  C   UNL     1     -27.740 -13.804  23.407  1.00  0.00     0.000 C 
BRANCH   2   3
ATOM      3  C   UNL     1     -27.741 -13.095  22.047  1.00  0.00    -0.003 C 
ATOM      4  C   UNL     1     -29.120 -12.529  21.722  1.00  0.00     0.004 C 
ENDBRANCH   2   3
ENDBRANCH   1   2
BRANCH   1   5
ATOM      5  C   UNL     1     -27.988 -12.311  25.460  1.00  0.00     0.080 C 
BRANCH   5   6
ATOM      6  C   UNL     1     -28.444 -10.949  25.002  1.00  0.00     0.155 C 
ATOM      7  O   UNL     1     -29.641 -10.613  25.208  1.00  0.00    -0.295 OA
BRANCH   6   8
ATOM      8  C   UNL     1     -27.562  -9.994  24.297  1.00  0.00     0.039 C 
ATOM      9  C   UNL     1     -27.033  -8.909  24.864  1.00  0.00     0.012 C 
ENDBRANCH   6   8
ENDBRANCH   5   6
ENDBRANCH   1   5
TORSDOF 5
ENDMDL
MODEL 8
REMARK VINA RESULT:    -3.130      1.804      3.711
REMARK INTER + INTRA:          -4.627
REMARK INTER:                  -4.016
REMARK INTRA:                  -0.611
REMARK UNBOUND:                -0.583
REMARK SMILES C=CC(=O)CCCCC
REMARK SMILES IDX 6 1 7 2 8 3 9 4 5 5 3 6 4 7 2 8 1 9
REMARK H PARENT
REMARK Flexibility Score: inf
ROOT
ATOM      1  C   UNL     1     -29.494 -13.437  24.193  1.00  0.00     0.008 C 
ENDROOT
BRANCH   1   2
ATOM      2  C   UNL     1     -30.011 -12.468  23.119  1.00  0.00     0.000 C 
BRANCH   2   3
ATOM      3  C   UNL     1     -29.014 -12.351  21.960  1.00  0.00    -0.003 C 
ATOM      4  C   UNL     1     -27.968 -13.460  22.018  1.00  0.00     0.004 C 
ENDBRANCH   2   3
ENDBRANCH   1   2
BRANCH   1   5
ATOM      5  C   UNL     1     -29.176 -12.724  25.515  1.00  0.00     0.080 C 
BRANCH   5   6
ATOM      6  C   UNL     1     -27.793 -12.123  25.518  1.00  0.00     0.155 C 
ATOM      7  O   UNL     1     -26.800 -12.897  25.557  1.00  0.00    -0.295 OA
BRANCH   6   8
ATOM      8  C   UNL     1     -27.543 -10.665  25.503  1.00  0.00     0.039 C 
ATOM      9  C   UNL     1     -27.518  -9.924  24.396  1.00  0.00     0.012 C 
ENDBRANCH   6   8
ENDBRANCH   5   6
ENDBRANCH   1   5
TORSDOF 5
ENDMDL
MODEL 9
REMARK VINA RESULT:    -1.310      1.342      2.023
REMARK INTER + INTRA:          -2.275
REMARK INTER:                  -1.678
REMARK INTRA:                  -0.597
REMARK UNBOUND:                -0.583
REMARK SMILES C=CC(=O)CCCCC
REMARK SMILES IDX 6 1 7 2 8 3 9 4 5 5 3 6 4 7 2 8 1 9
REMARK H PARENT
REMARK Flexibility Score: inf
ROOT
ATOM      1  C   UNL     1     -27.097 -12.046  23.966  1.00  0.00     0.008 C 
ENDROOT
BRANCH   1   2
ATOM      2  C   UNL     1     -27.838 -11.780  25.285  1.00  0.00     0.000 C 
BRANCH   2   3
ATOM      3  C   UNL     1     -28.642 -13.011  25.721  1.00  0.00    -0.003 C 
ATOM      4  C   UNL     1     -30.125 -12.842  25.406  1.00  0.00     0.004 C 
ENDBRANCH   2   3
ENDBRANCH   1   2
BRANCH   1   5
ATOM      5  C   UNL     1     -27.854 -11.490  22.752  1.00  0.00     0.080 C 
BRANCH   5   6
ATOM      6  C   UNL     1     -28.591 -12.567  21.999  1.00  0.00     0.155 C 
ATOM      7  O   UNL     1     -29.542 -12.232  21.243  1.00  0.00    -0.295 OA
BRANCH   6   8
ATOM      8  C   UNL     1     -28.273 -14.007  22.124  1.00  0.00     0.039 C 
ATOM      9  C   UNL     1     -29.184 -14.957  22.335  1.00  0.00     0.012 C 
ENDBRANCH   6   8
ENDBRANCH   5   6
ENDBRANCH   1   5
TORSDOF 5
ENDMDL
