MODEL 1
REMARK VINA RESULT:    -3.371      0.000      0.000
REMARK INTER + INTRA:          -4.078
REMARK INTER:                  -3.963
REMARK INTRA:                  -0.115
REMARK UNBOUND:                -0.115
REMARK SMILES O=C([O-])CCC(=O)[O-]
REMARK SMILES IDX 4 1 2 2 1 3 3 4 5 5 6 6 7 7 8 8
REMARK H PARENT
REMARK Flexibility Score: inf
ROOT
ATOM      1  C   UNL     1     -10.401  -3.754 -16.346  1.00  0.00     0.059 C 
ENDROOT
BRANCH   1   2
ATOM      2  C   UNL     1      -9.186  -4.013 -15.514  1.00  0.00     0.042 C 
ATOM      3  O   UNL     1      -9.081  -3.503 -14.368  1.00  0.00    -0.550 OA
ATOM      4  O   UNL     1      -8.188  -4.857 -15.984  1.00  0.00    -0.550 OA
ENDBRANCH   1   2
BRANCH   1   5
ATOM      5  C   UNL     1     -11.444  -4.851 -16.124  1.00  0.00     0.059 C 
BRANCH   5   6
ATOM      6  C   UNL     1     -12.517  -4.373 -15.199  1.00  0.00     0.042 C 
ATOM      7  O   UNL     1     -12.517  -4.728 -13.991  1.00  0.00    -0.550 OA
ATOM      8  O   UNL     1     -13.546  -3.574 -15.680  1.00  0.00    -0.550 OA
ENDBRANCH   5   6
ENDBRANCH   1   5
TORSDOF 3
ENDMDL
MODEL 2
REMARK VINA RESULT:    -3.351      0.120      3.794
REMARK INTER + INTRA:          -4.054
REMARK INTER:                  -3.934
REMARK INTRA:                  -0.120
REMARK UNBOUND:                -0.115
REMARK SMILES O=C([O-])CCC(=O)[O-]
REMARK SMILES IDX 4 1 2 2 1 3 3 4 5 5 6 6 7 7 8 8
REMARK H PARENT
REMARK Flexibility Score: inf
ROOT
ATOM      1  C   UNL     1     -11.470  -4.818 -16.123  1.00  0.00     0.059 C 
ENDROOT
BRANCH   1   2
ATOM      2  C   UNL     1     -12.564  -4.321 -15.232  1.00  0.00     0.042 C 
ATOM      3  O   UNL     1     -13.491  -3.611 -15.701  1.00  0.00    -0.550 OA
ATOM      4  O   UNL     1     -12.586  -4.682 -13.891  1.00  0.00    -0.550 OA
ENDBRANCH   1   2
BRANCH   1   5
ATOM      5  C   UNL     1     -10.406  -3.737 -16.318  1.00  0.00     0.059 C 
BRANCH   5   6
ATOM      6  C   UNL     1      -9.236  -3.987 -15.419  1.00  0.00     0.042 C 
ATOM      7  O   UNL     1      -9.224  -3.521 -14.250  1.00  0.00    -0.550 OA
ATOM      8  O   UNL     1      -8.137  -4.695 -15.889  1.00  0.00    -0.550 OA
ENDBRANCH   5   6
ENDBRANCH   1   5
TORSDOF 3
ENDMDL
MODEL 3
REMARK VINA RESULT:    -3.289      7.989      9.424
REMARK INTER + INTRA:          -3.981
REMARK INTER:                  -3.858
REMARK INTRA:                  -0.123
REMARK UNBOUND:                -0.115
REMARK SMILES O=C([O-])CCC(=O)[O-]
REMARK SMILES IDX 4 1 2 2 1 3 3 4 5 5 6 6 7 7 8 8
REMARK H PARENT
REMARK Flexibility Score: inf
ROOT
ATOM      1  C   UNL     1      -6.603   2.369  -9.126  1.00  0.00     0.059 C 
ENDROOT
BRANCH   1   2
ATOM      2  C   UNL     1      -7.214   3.179 -10.225  1.00  0.00     0.042 C 
ATOM      3  O   UNL     1      -6.844   3.012 -11.417  1.00  0.00    -0.550 OA
ATOM      4  O   UNL     1      -8.227   4.086  -9.940  1.00  0.00    -0.550 OA
ENDBRANCH   1   2
BRANCH   1   5
ATOM      5  C   UNL     1      -7.415   1.093  -8.888  1.00  0.00     0.059 C 
BRANCH   5   6
ATOM      6  C   UNL     1      -6.738  -0.082  -9.518  1.00  0.00     0.042 C 
ATOM      7  O   UNL     1      -5.831  -0.699  -8.899  1.00  0.00    -0.550 OA
ATOM      8  O   UNL     1      -7.074  -0.469 -10.809  1.00  0.00    -0.550 OA
ENDBRANCH   5   6
ENDBRANCH   1   5
TORSDOF 3
ENDMDL
MODEL 4
REMARK VINA RESULT:    -3.199      8.012      9.354
REMARK INTER + INTRA:          -3.875
REMARK INTER:                  -3.750
REMARK INTRA:                  -0.125
REMARK UNBOUND:                -0.115
REMARK SMILES O=C([O-])CCC(=O)[O-]
REMARK SMILES IDX 4 1 2 2 1 3 3 4 5 5 6 6 7 7 8 8
REMARK H PARENT
REMARK Flexibility Score: inf
ROOT
ATOM      1  C   UNL     1      -7.212   0.743  -8.655  1.00  0.00     0.059 C 
ENDROOT
BRANCH   1   2
ATOM      2  C   UNL     1      -6.518  -0.344  -9.411  1.00  0.00     0.042 C 
ATOM      3  O   UNL     1      -5.507  -0.913  -8.920  1.00  0.00    -0.550 OA
ATOM      4  O   UNL     1      -7.014  -0.765 -10.638  1.00  0.00    -0.550 OA
ENDBRANCH   1   2
BRANCH   1   5
ATOM      5  C   UNL     1      -6.449   2.062  -8.792  1.00  0.00     0.059 C 
BRANCH   5   6
ATOM      6  C   UNL     1      -7.026   2.887  -9.897  1.00  0.00     0.042 C 
ATOM      7  O   UNL     1      -8.011   3.640  -9.678  1.00  0.00    -0.550 OA
ATOM      8  O   UNL     1      -6.508   2.790 -11.182  1.00  0.00    -0.550 OA
ENDBRANCH   5   6
ENDBRANCH   1   5
TORSDOF 3
ENDMDL
MODEL 5
REMARK VINA RESULT:    -3.187      7.324      9.598
REMARK INTER + INTRA:          -3.861
REMARK INTER:                  -3.768
REMARK INTRA:                  -0.092
REMARK UNBOUND:                -0.115
REMARK SMILES O=C([O-])CCC(=O)[O-]
REMARK SMILES IDX 4 1 2 2 1 3 3 4 5 5 6 6 7 7 8 8
REMARK H PARENT
REMARK Flexibility Score: inf
ROOT
ATOM      1  C   UNL     1      -3.406  -1.303 -17.585  1.00  0.00     0.059 C 
ENDROOT
BRANCH   1   2
ATOM      2  C   UNL     1      -3.775  -2.368 -16.601  1.00  0.00     0.042 C 
ATOM      3  O   UNL     1      -3.365  -3.547 -16.761  1.00  0.00    -0.550 OA
ATOM      4  O   UNL     1      -4.530  -2.049 -15.481  1.00  0.00    -0.550 OA
ENDBRANCH   1   2
BRANCH   1   5
ATOM      5  C   UNL     1      -2.934  -1.928 -18.899  1.00  0.00     0.059 C 
BRANCH   5   6
ATOM      6  C   UNL     1      -1.481  -1.650 -19.117  1.00  0.00     0.042 C 
ATOM      7  O   UNL     1      -0.873  -0.831 -18.378  1.00  0.00    -0.550 OA
ATOM      8  O   UNL     1      -0.807  -2.258 -20.168  1.00  0.00    -0.550 OA
ENDBRANCH   5   6
ENDBRANCH   1   5
TORSDOF 3
ENDMDL
MODEL 6
REMARK VINA RESULT:    -3.179      7.356      9.048
REMARK INTER + INTRA:          -3.851
REMARK INTER:                  -3.761
REMARK INTRA:                  -0.090
REMARK UNBOUND:                -0.115
REMARK SMILES O=C([O-])CCC(=O)[O-]
REMARK SMILES IDX 4 1 2 2 1 3 3 4 5 5 6 6 7 7 8 8
REMARK H PARENT
REMARK Flexibility Score: inf
ROOT
ATOM      1  C   UNL     1      -2.901  -1.932 -18.937  1.00  0.00     0.059 C 
ENDROOT
BRANCH   1   2
ATOM      2  C   UNL     1      -1.451  -1.661 -19.184  1.00  0.00     0.042 C 
ATOM      3  O   UNL     1      -0.812  -0.884 -18.428  1.00  0.00    -0.550 OA
ATOM      4  O   UNL     1      -0.790  -2.306 -20.223  1.00  0.00    -0.550 OA
ENDBRANCH   1   2
BRANCH   1   5
ATOM      5  C   UNL     1      -3.343  -1.306 -17.612  1.00  0.00     0.059 C 
BRANCH   5   6
ATOM      6  C   UNL     1      -3.759  -2.368 -16.646  1.00  0.00     0.042 C 
ATOM      7  O   UNL     1      -3.491  -3.577 -16.876  1.00  0.00    -0.550 OA
ATOM      8  O   UNL     1      -4.487  -2.031 -15.512  1.00  0.00    -0.550 OA
ENDBRANCH   5   6
ENDBRANCH   1   5
TORSDOF 3
ENDMDL
MODEL 7
REMARK VINA RESULT:    -3.054      1.221      4.151
REMARK INTER + INTRA:          -3.705
REMARK INTER:                  -3.581
REMARK INTRA:                  -0.123
REMARK UNBOUND:                -0.115
REMARK SMILES O=C([O-])CCC(=O)[O-]
REMARK SMILES IDX 4 1 2 2 1 3 3 4 5 5 6 6 7 7 8 8
REMARK H PARENT
REMARK Flexibility Score: inf
ROOT
ATOM      1  C   UNL     1     -10.418  -3.820 -16.179  1.00  0.00     0.059 C 
ENDROOT
BRANCH   1   2
ATOM      2  C   UNL     1     -11.593  -4.637 -15.744  1.00  0.00     0.042 C 
ATOM      3  O   UNL     1     -11.446  -5.852 -15.446  1.00  0.00    -0.550 OA
ATOM      4  O   UNL     1     -12.844  -4.046 -15.621  1.00  0.00    -0.550 OA
ENDBRANCH   1   2
BRANCH   1   5
ATOM      5  C   UNL     1      -9.348  -3.798 -15.085  1.00  0.00     0.059 C 
BRANCH   5   6
ATOM      6  C   UNL     1      -8.078  -4.409 -15.584  1.00  0.00     0.042 C 
ATOM      7  O   UNL     1      -8.111  -5.437 -16.311  1.00  0.00    -0.550 OA
ATOM      8  O   UNL     1      -6.853  -3.873 -15.208  1.00  0.00    -0.550 OA
ENDBRANCH   5   6
ENDBRANCH   1   5
TORSDOF 3
ENDMDL
MODEL 8
REMARK VINA RESULT:    -3.045      7.706      9.152
REMARK INTER + INTRA:          -3.694
REMARK INTER:                  -3.548
REMARK INTRA:                  -0.146
REMARK UNBOUND:                -0.115
REMARK SMILES O=C([O-])CCC(=O)[O-]
REMARK SMILES IDX 4 1 2 2 1 3 3 4 5 5 6 6 7 7 8 8
REMARK H PARENT
REMARK Flexibility Score: inf
ROOT
ATOM      1  C   UNL     1      -6.365  -0.510  -9.133  1.00  0.00     0.059 C 
ENDROOT
BRANCH   1   2
ATOM      2  C   UNL     1      -6.264  -0.565 -10.624  1.00  0.00     0.042 C 
ATOM      3  O   UNL     1      -7.271  -0.865 -11.317  1.00  0.00    -0.550 OA
ATOM      4  O   UNL     1      -5.070  -0.237 -11.253  1.00  0.00    -0.550 OA
ENDBRANCH   1   2
BRANCH   1   5
ATOM      5  C   UNL     1      -7.289   0.630  -8.701  1.00  0.00     0.059 C 
BRANCH   5   6
ATOM      6  C   UNL     1      -6.558   1.935  -8.732  1.00  0.00     0.042 C 
ATOM      7  O   UNL     1      -5.646   2.172  -7.897  1.00  0.00    -0.550 OA
ATOM      8  O   UNL     1      -6.917   2.911  -9.653  1.00  0.00    -0.550 OA
ENDBRANCH   5   6
ENDBRANCH   1   5
TORSDOF 3
ENDMDL
MODEL 9
REMARK VINA RESULT:    -3.042      7.715      9.247
REMARK INTER + INTRA:          -3.691
REMARK INTER:                  -3.537
REMARK INTRA:                  -0.154
REMARK UNBOUND:                -0.115
REMARK SMILES O=C([O-])CCC(=O)[O-]
REMARK SMILES IDX 4 1 2 2 1 3 3 4 5 5 6 6 7 7 8 8
REMARK H PARENT
REMARK Flexibility Score: inf
ROOT
ATOM      1  C   UNL     1      -7.322   0.654  -8.674  1.00  0.00     0.059 C 
ENDROOT
BRANCH   1   2
ATOM      2  C   UNL     1      -6.594   1.959  -8.717  1.00  0.00     0.042 C 
ATOM      3  O   UNL     1      -5.648   2.184  -7.917  1.00  0.00    -0.550 OA
ATOM      4  O   UNL     1      -6.927   2.911  -9.672  1.00  0.00    -0.550 OA
ENDBRANCH   1   2
BRANCH   1   5
ATOM      5  C   UNL     1      -6.407  -0.485  -9.130  1.00  0.00     0.059 C 
BRANCH   5   6
ATOM      6  C   UNL     1      -6.296  -0.501 -10.621  1.00  0.00     0.042 C 
ATOM      7  O   UNL     1      -7.252  -0.922 -11.324  1.00  0.00    -0.550 OA
ATOM      8  O   UNL     1      -5.118  -0.097 -11.235  1.00  0.00    -0.550 OA
ENDBRANCH   5   6
ENDBRANCH   1   5
TORSDOF 3
ENDMDL
