MODEL 1
REMARK VINA RESULT:    -4.160      0.000      0.000
REMARK INTER + INTRA:          -7.157
REMARK INTER:                  -6.349
REMARK INTRA:                  -0.808
REMARK UNBOUND:                -0.808
REMARK SMILES O=C([O-])CCCCCCCCC(=O)[O-]
REMARK SMILES IDX 7 1 6 2 5 3 4 4 2 5 1 6 3 7 8 8 9 9 10 10 11 11 12 12 13 13
REMARK SMILES IDX 14 14
REMARK H PARENT
REMARK Flexibility Score: inf
ROOT
ATOM      1  C   UNL     1      42.199 -12.761  27.794  1.00  0.00     0.000 C 
ENDROOT
BRANCH   1   2
ATOM      2  C   UNL     1      42.052 -13.061  29.297  1.00  0.00     0.000 C 
BRANCH   2   3
ATOM      3  C   UNL     1      41.087 -12.100  30.009  1.00  0.00     0.006 C 
BRANCH   3   4
ATOM      4  C   UNL     1      40.497 -12.748  31.265  1.00  0.00     0.053 C 
BRANCH   4   5
ATOM      5  C   UNL     1      39.002 -12.695  31.227  1.00  0.00     0.041 C 
ATOM      6  O   UNL     1      38.388 -11.749  31.787  1.00  0.00    -0.550 OA
ATOM      7  O   UNL     1      38.290 -13.664  30.534  1.00  0.00    -0.550 OA
ENDBRANCH   4   5
ENDBRANCH   3   4
ENDBRANCH   2   3
ENDBRANCH   1   2
BRANCH   1   8
ATOM      8  C   UNL     1      40.874 -12.544  27.041  1.00  0.00     0.000 C 
BRANCH   8   9
ATOM      9  C   UNL     1      40.651 -11.082  26.627  1.00  0.00     0.000 C 
BRANCH   9  10
ATOM     10  C   UNL     1      39.281 -10.580  27.097  1.00  0.00     0.006 C 
BRANCH  10  11
ATOM     11  C   UNL     1      38.418 -11.736  27.610  1.00  0.00     0.053 C 
BRANCH  11  12
ATOM     12  C   UNL     1      36.995 -11.301  27.764  1.00  0.00     0.041 C 
ATOM     13  O   UNL     1      36.480 -11.212  28.910  1.00  0.00    -0.550 OA
ATOM     14  O   UNL     1      36.252 -10.945  26.646  1.00  0.00    -0.550 OA
ENDBRANCH  11  12
ENDBRANCH  10  11
ENDBRANCH   9  10
ENDBRANCH   8   9
ENDBRANCH   1   8
TORSDOF 9
ENDMDL
MODEL 2
REMARK VINA RESULT:    -4.122     13.429     14.955
REMARK INTER + INTRA:          -7.098
REMARK INTER:                  -6.417
REMARK INTRA:                  -0.681
REMARK UNBOUND:                -0.808
REMARK SMILES O=C([O-])CCCCCCCCC(=O)[O-]
REMARK SMILES IDX 7 1 6 2 5 3 4 4 2 5 1 6 3 7 8 8 9 9 10 10 11 11 12 12 13 13
REMARK SMILES IDX 14 14
REMARK H PARENT
REMARK Flexibility Score: inf
ROOT
ATOM      1  C   UNL     1      43.594   0.633  21.604  1.00  0.00     0.000 C 
ENDROOT
BRANCH   1   2
ATOM      2  C   UNL     1      44.832   0.064  22.321  1.00  0.00     0.000 C 
BRANCH   2   3
ATOM      3  C   UNL     1      45.104   0.738  23.674  1.00  0.00     0.006 C 
BRANCH   3   4
ATOM      4  C   UNL     1      45.165  -0.298  24.800  1.00  0.00     0.053 C 
BRANCH   4   5
ATOM      5  C   UNL     1      43.811  -0.886  25.044  1.00  0.00     0.041 C 
ATOM      6  O   UNL     1      43.664  -2.136  25.100  1.00  0.00    -0.550 OA
ATOM      7  O   UNL     1      42.720  -0.055  25.256  1.00  0.00    -0.550 OA
ENDBRANCH   4   5
ENDBRANCH   3   4
ENDBRANCH   2   3
ENDBRANCH   1   2
BRANCH   1   8
ATOM      8  C   UNL     1      42.348  -0.269  21.643  1.00  0.00     0.000 C 
BRANCH   8   9
ATOM      9  C   UNL     1      42.119  -1.034  20.330  1.00  0.00     0.000 C 
BRANCH   9  10
ATOM     10  C   UNL     1      41.202  -0.247  19.388  1.00  0.00     0.006 C 
BRANCH  10  11
ATOM     11  C   UNL     1      41.987   0.319  18.202  1.00  0.00     0.053 C 
BRANCH  11  12
ATOM     12  C   UNL     1      41.864   1.810  18.154  1.00  0.00     0.041 C 
ATOM     13  O   UNL     1      41.752   2.471  19.220  1.00  0.00    -0.550 OA
ATOM     14  O   UNL     1      41.923   2.474  16.935  1.00  0.00    -0.550 OA
ENDBRANCH  11  12
ENDBRANCH  10  11
ENDBRANCH   9  10
ENDBRANCH   8   9
ENDBRANCH   1   8
TORSDOF 9
ENDMDL
MODEL 3
REMARK VINA RESULT:    -4.039      1.983      4.071
REMARK INTER + INTRA:          -6.973
REMARK INTER:                  -6.216
REMARK INTRA:                  -0.756
REMARK UNBOUND:                -0.808
REMARK SMILES O=C([O-])CCCCCCCCC(=O)[O-]
REMARK SMILES IDX 7 1 6 2 5 3 4 4 2 5 1 6 3 7 8 8 9 9 10 10 11 11 12 12 13 13
REMARK SMILES IDX 14 14
REMARK H PARENT
REMARK Flexibility Score: inf
ROOT
ATOM      1  C   UNL     1      41.856 -12.786  28.634  1.00  0.00     0.000 C 
ENDROOT
BRANCH   1   2
ATOM      2  C   UNL     1      41.533 -12.895  27.133  1.00  0.00     0.000 C 
BRANCH   2   3
ATOM      3  C   UNL     1      41.584 -11.541  26.409  1.00  0.00     0.006 C 
BRANCH   3   4
ATOM      4  C   UNL     1      40.343 -10.702  26.727  1.00  0.00     0.053 C 
BRANCH   4   5
ATOM      5  C   UNL     1      40.178  -9.609  25.719  1.00  0.00     0.041 C 
ATOM      6  O   UNL     1      41.168  -9.205  25.055  1.00  0.00    -0.550 OA
ATOM      7  O   UNL     1      38.921  -9.070  25.478  1.00  0.00    -0.550 OA
ENDBRANCH   4   5
ENDBRANCH   3   4
ENDBRANCH   2   3
ENDBRANCH   1   2
BRANCH   1   8
ATOM      8  C   UNL     1      40.778 -13.353  29.575  1.00  0.00     0.000 C 
BRANCH   8   9
ATOM      9  C   UNL     1      40.080 -12.270  30.411  1.00  0.00     0.000 C 
BRANCH   9  10
ATOM     10  C   UNL     1      38.558 -12.342  30.246  1.00  0.00     0.006 C 
BRANCH  10  11
ATOM     11  C   UNL     1      38.173 -12.527  28.776  1.00  0.00     0.053 C 
BRANCH  11  12
ATOM     12  C   UNL     1      37.062 -11.596  28.403  1.00  0.00     0.041 C 
ATOM     13  O   UNL     1      36.331 -11.093  29.297  1.00  0.00    -0.550 OA
ATOM     14  O   UNL     1      36.867 -11.244  27.074  1.00  0.00    -0.550 OA
ENDBRANCH  11  12
ENDBRANCH  10  11
ENDBRANCH   9  10
ENDBRANCH   8   9
ENDBRANCH   1   8
TORSDOF 9
ENDMDL
MODEL 4
REMARK VINA RESULT:    -3.996     13.314     15.506
REMARK INTER + INTRA:          -6.907
REMARK INTER:                  -6.349
REMARK INTRA:                  -0.558
REMARK UNBOUND:                -0.808
REMARK SMILES O=C([O-])CCCCCCCCC(=O)[O-]
REMARK SMILES IDX 7 1 6 2 5 3 4 4 2 5 1 6 3 7 8 8 9 9 10 10 11 11 12 12 13 13
REMARK SMILES IDX 14 14
REMARK H PARENT
REMARK Flexibility Score: inf
ROOT
ATOM      1  C   UNL     1      42.438  -0.974  20.933  1.00  0.00     0.000 C 
ENDROOT
BRANCH   1   2
ATOM      2  C   UNL     1      41.234  -0.605  20.047  1.00  0.00     0.000 C 
BRANCH   2   3
ATOM      3  C   UNL     1      41.639  -0.223  18.615  1.00  0.00     0.006 C 
BRANCH   3   4
ATOM      4  C   UNL     1      41.302   1.243  18.324  1.00  0.00     0.053 C 
BRANCH   4   5
ATOM      5  C   UNL     1      42.303   2.148  18.971  1.00  0.00     0.041 C 
ATOM      6  O   UNL     1      41.968   2.866  19.950  1.00  0.00    -0.550 OA
ATOM      7  O   UNL     1      43.618   2.162  18.525  1.00  0.00    -0.550 OA
ENDBRANCH   4   5
ENDBRANCH   3   4
ENDBRANCH   2   3
ENDBRANCH   1   2
BRANCH   1   8
ATOM      8  C   UNL     1      42.776   0.050  22.032  1.00  0.00     0.000 C 
BRANCH   8   9
ATOM      9  C   UNL     1      44.284   0.173  22.296  1.00  0.00     0.000 C 
BRANCH   9  10
ATOM     10  C   UNL     1      44.555   0.606  23.741  1.00  0.00     0.006 C 
BRANCH  10  11
ATOM     11  C   UNL     1      44.941  -0.593  24.611  1.00  0.00     0.053 C 
BRANCH  11  12
ATOM     12  C   UNL     1      43.721  -1.226  25.203  1.00  0.00     0.041 C 
ATOM     13  O   UNL     1      43.661  -2.476  25.345  1.00  0.00    -0.550 OA
ATOM     14  O   UNL     1      42.671  -0.432  25.646  1.00  0.00    -0.550 OA
ENDBRANCH  11  12
ENDBRANCH  10  11
ENDBRANCH   9  10
ENDBRANCH   8   9
ENDBRANCH   1   8
TORSDOF 9
ENDMDL
MODEL 5
REMARK VINA RESULT:    -3.987     13.904     16.217
REMARK INTER + INTRA:          -6.894
REMARK INTER:                  -6.518
REMARK INTRA:                  -0.376
REMARK UNBOUND:                -0.808
REMARK SMILES O=C([O-])CCCCCCCCC(=O)[O-]
REMARK SMILES IDX 7 1 6 2 5 3 4 4 2 5 1 6 3 7 8 8 9 9 10 10 11 11 12 12 13 13
REMARK SMILES IDX 14 14
REMARK H PARENT
REMARK Flexibility Score: inf
ROOT
ATOM      1  C   UNL     1      41.437  -0.884  20.039  1.00  0.00     0.000 C 
ENDROOT
BRANCH   1   2
ATOM      2  C   UNL     1      41.486  -0.236  18.643  1.00  0.00     0.000 C 
BRANCH   2   3
ATOM      3  C   UNL     1      41.861   1.254  18.686  1.00  0.00     0.006 C 
BRANCH   3   4
ATOM      4  C   UNL     1      41.834   1.866  17.283  1.00  0.00     0.053 C 
BRANCH   4   5
ATOM      5  C   UNL     1      43.208   1.877  16.690  1.00  0.00     0.041 C 
ATOM      6  O   UNL     1      43.627   0.881  16.043  1.00  0.00    -0.550 OA
ATOM      7  O   UNL     1      44.008   3.005  16.811  1.00  0.00    -0.550 OA
ENDBRANCH   4   5
ENDBRANCH   3   4
ENDBRANCH   2   3
ENDBRANCH   1   2
BRANCH   1   8
ATOM      8  C   UNL     1      42.113  -0.072  21.158  1.00  0.00     0.000 C 
BRANCH   8   9
ATOM      9  C   UNL     1      43.478  -0.642  21.572  1.00  0.00     0.000 C 
BRANCH   9  10
ATOM     10  C   UNL     1      43.920  -0.081  22.928  1.00  0.00     0.006 C 
BRANCH  10  11
ATOM     11  C   UNL     1      43.102  -0.692  24.069  1.00  0.00     0.053 C 
BRANCH  11  12
ATOM     12  C   UNL     1      43.979  -1.513  24.962  1.00  0.00     0.041 C 
ATOM     13  O   UNL     1      43.547  -2.584  25.463  1.00  0.00    -0.550 OA
ATOM     14  O   UNL     1      45.290  -1.121  25.200  1.00  0.00    -0.550 OA
ENDBRANCH  11  12
ENDBRANCH  10  11
ENDBRANCH   9  10
ENDBRANCH   8   9
ENDBRANCH   1   8
TORSDOF 9
ENDMDL
MODEL 6
REMARK VINA RESULT:    -3.974      3.087      4.423
REMARK INTER + INTRA:          -6.874
REMARK INTER:                  -6.297
REMARK INTRA:                  -0.577
REMARK UNBOUND:                -0.808
REMARK SMILES O=C([O-])CCCCCCCCC(=O)[O-]
REMARK SMILES IDX 7 1 6 2 5 3 4 4 2 5 1 6 3 7 8 8 9 9 10 10 11 11 12 12 13 13
REMARK SMILES IDX 14 14
REMARK H PARENT
REMARK Flexibility Score: inf
ROOT
ATOM      1  C   UNL     1      41.017 -12.059  29.736  1.00  0.00     0.000 C 
ENDROOT
BRANCH   1   2
ATOM      2  C   UNL     1      41.841 -13.213  29.138  1.00  0.00     0.000 C 
BRANCH   2   3
ATOM      3  C   UNL     1      41.669 -13.347  27.617  1.00  0.00     0.006 C 
BRANCH   3   4
ATOM      4  C   UNL     1      42.686 -12.478  26.872  1.00  0.00     0.053 C 
BRANCH   4   5
ATOM      5  C   UNL     1      43.822 -13.313  26.373  1.00  0.00     0.041 C 
ATOM      6  O   UNL     1      44.715 -13.708  27.168  1.00  0.00    -0.550 OA
ATOM      7  O   UNL     1      43.870 -13.695  25.039  1.00  0.00    -0.550 OA
ENDBRANCH   4   5
ENDBRANCH   3   4
ENDBRANCH   2   3
ENDBRANCH   1   2
BRANCH   1   8
ATOM      8  C   UNL     1      40.273 -12.398  31.040  1.00  0.00     0.000 C 
BRANCH   8   9
ATOM      9  C   UNL     1      38.748 -12.264  30.913  1.00  0.00     0.000 C 
BRANCH   9  10
ATOM     10  C   UNL     1      38.266 -12.735  29.537  1.00  0.00     0.006 C 
BRANCH  10  11
ATOM     11  C   UNL     1      37.134 -11.845  29.016  1.00  0.00     0.053 C 
BRANCH  11  12
ATOM     12  C   UNL     1      37.464 -11.319  27.655  1.00  0.00     0.041 C 
ATOM     13  O   UNL     1      38.665 -11.163  27.310  1.00  0.00    -0.550 OA
ATOM     14  O   UNL     1      36.446 -11.051  26.748  1.00  0.00    -0.550 OA
ENDBRANCH  11  12
ENDBRANCH  10  11
ENDBRANCH   9  10
ENDBRANCH   8   9
ENDBRANCH   1   8
TORSDOF 9
ENDMDL
MODEL 7
REMARK VINA RESULT:    -3.964     12.940     15.038
REMARK INTER + INTRA:          -6.857
REMARK INTER:                  -6.134
REMARK INTRA:                  -0.724
REMARK UNBOUND:                -0.808
REMARK SMILES O=C([O-])CCCCCCCCC(=O)[O-]
REMARK SMILES IDX 7 1 6 2 5 3 4 4 2 5 1 6 3 7 8 8 9 9 10 10 11 11 12 12 13 13
REMARK SMILES IDX 14 14
REMARK H PARENT
REMARK Flexibility Score: inf
ROOT
ATOM      1  C   UNL     1      44.622   2.032  21.483  1.00  0.00     0.000 C 
ENDROOT
BRANCH   1   2
ATOM      2  C   UNL     1      43.360   1.814  20.629  1.00  0.00     0.000 C 
BRANCH   2   3
ATOM      3  C   UNL     1      42.289   0.976  21.345  1.00  0.00     0.006 C 
BRANCH   3   4
ATOM      4  C   UNL     1      42.426  -0.507  20.990  1.00  0.00     0.053 C 
BRANCH   4   5
ATOM      5  C   UNL     1      41.447  -0.882  19.923  1.00  0.00     0.041 C 
ATOM      6  O   UNL     1      41.582  -0.434  18.753  1.00  0.00    -0.550 OA
ATOM      7  O   UNL     1      40.412  -1.763  20.207  1.00  0.00    -0.550 OA
ENDBRANCH   4   5
ENDBRANCH   3   4
ENDBRANCH   2   3
ENDBRANCH   1   2
BRANCH   1   8
ATOM      8  C   UNL     1      44.369   2.635  22.876  1.00  0.00     0.000 C 
BRANCH   8   9
ATOM      9  C   UNL     1      45.097   1.880  23.998  1.00  0.00     0.000 C 
BRANCH   9  10
ATOM     10  C   UNL     1      45.283   0.402  23.636  1.00  0.00     0.006 C 
BRANCH  10  11
ATOM     11  C   UNL     1      45.194  -0.484  24.881  1.00  0.00     0.053 C 
BRANCH  11  12
ATOM     12  C   UNL     1      43.885  -1.208  24.918  1.00  0.00     0.041 C 
ATOM     13  O   UNL     1      42.854  -0.678  24.425  1.00  0.00    -0.550 OA
ATOM     14  O   UNL     1      43.813  -2.488  25.452  1.00  0.00    -0.550 OA
ENDBRANCH  11  12
ENDBRANCH  10  11
ENDBRANCH   9  10
ENDBRANCH   8   9
ENDBRANCH   1   8
TORSDOF 9
ENDMDL
MODEL 8
REMARK VINA RESULT:    -3.953      2.359      5.442
REMARK INTER + INTRA:          -6.841
REMARK INTER:                  -6.018
REMARK INTRA:                  -0.823
REMARK UNBOUND:                -0.808
REMARK SMILES O=C([O-])CCCCCCCCC(=O)[O-]
REMARK SMILES IDX 7 1 6 2 5 3 4 4 2 5 1 6 3 7 8 8 9 9 10 10 11 11 12 12 13 13
REMARK SMILES IDX 14 14
REMARK H PARENT
REMARK Flexibility Score: inf
ROOT
ATOM      1  C   UNL     1      36.783 -11.489  28.933  1.00  0.00     0.000 C 
ENDROOT
BRANCH   1   2
ATOM      2  C   UNL     1      37.229 -11.368  27.465  1.00  0.00     0.000 C 
BRANCH   2   3
ATOM      3  C   UNL     1      38.726 -11.653  27.268  1.00  0.00     0.006 C 
BRANCH   3   4
ATOM      4  C   UNL     1      39.551 -10.371  27.406  1.00  0.00     0.053 C 
BRANCH   4   5
ATOM      5  C   UNL     1      39.756  -9.733  26.068  1.00  0.00     0.041 C 
ATOM      6  O   UNL     1      38.859  -9.004  25.569  1.00  0.00    -0.550 OA
ATOM      7  O   UNL     1      40.958  -9.906  25.393  1.00  0.00    -0.550 OA
ENDBRANCH   4   5
ENDBRANCH   3   4
ENDBRANCH   2   3
ENDBRANCH   1   2
BRANCH   1   8
ATOM      8  C   UNL     1      37.465 -12.615  29.730  1.00  0.00     0.000 C 
BRANCH   8   9
ATOM      9  C   UNL     1      37.765 -12.225  31.185  1.00  0.00     0.000 C 
BRANCH   9  10
ATOM     10  C   UNL     1      39.141 -12.743  31.621  1.00  0.00     0.006 C 
BRANCH  10  11
ATOM     11  C   UNL     1      39.939 -13.260  30.421  1.00  0.00     0.053 C 
BRANCH  11  12
ATOM     12  C   UNL     1      41.131 -12.391  30.169  1.00  0.00     0.041 C 
ATOM     13  O   UNL     1      41.816 -12.544  29.124  1.00  0.00    -0.550 OA
ATOM     14  O   UNL     1      41.455 -11.380  31.064  1.00  0.00    -0.550 OA
ENDBRANCH  11  12
ENDBRANCH  10  11
ENDBRANCH   9  10
ENDBRANCH   8   9
ENDBRANCH   1   8
TORSDOF 9
ENDMDL
MODEL 9
REMARK VINA RESULT:    -3.947     14.127     15.749
REMARK INTER + INTRA:          -6.833
REMARK INTER:                  -6.156
REMARK INTRA:                  -0.677
REMARK UNBOUND:                -0.808
REMARK SMILES O=C([O-])CCCCCCCCC(=O)[O-]
REMARK SMILES IDX 7 1 6 2 5 3 4 4 2 5 1 6 3 7 8 8 9 9 10 10 11 11 12 12 13 13
REMARK SMILES IDX 14 14
REMARK H PARENT
REMARK Flexibility Score: inf
ROOT
ATOM      1  C   UNL     1      45.626   1.974  22.637  1.00  0.00     0.000 C 
ENDROOT
BRANCH   1   2
ATOM      2  C   UNL     1      46.570   0.808  22.294  1.00  0.00     0.000 C 
BRANCH   2   3
ATOM      3  C   UNL     1      47.805   1.252  21.495  1.00  0.00     0.006 C 
BRANCH   3   4
ATOM      4  C   UNL     1      48.448   0.064  20.774  1.00  0.00     0.053 C 
BRANCH   4   5
ATOM      5  C   UNL     1      49.761  -0.282  21.404  1.00  0.00     0.041 C 
ATOM      6  O   UNL     1      49.799  -0.755  22.570  1.00  0.00    -0.550 OA
ATOM      7  O   UNL     1      50.938  -0.127  20.685  1.00  0.00    -0.550 OA
ENDBRANCH   4   5
ENDBRANCH   3   4
ENDBRANCH   2   3
ENDBRANCH   1   2
BRANCH   1   8
ATOM      8  C   UNL     1      44.129   1.680  22.435  1.00  0.00     0.000 C 
BRANCH   8   9
ATOM      9  C   UNL     1      43.853   0.233  22.002  1.00  0.00     0.000 C 
BRANCH   9  10
ATOM     10  C   UNL     1      42.803  -0.422  22.907  1.00  0.00     0.006 C 
BRANCH  10  11
ATOM     11  C   UNL     1      43.103  -0.151  24.383  1.00  0.00     0.053 C 
BRANCH  11  12
ATOM     12  C   UNL     1      44.043  -1.181  24.926  1.00  0.00     0.041 C 
ATOM     13  O   UNL     1      45.260  -0.904  25.090  1.00  0.00    -0.550 OA
ATOM     14  O   UNL     1      43.565  -2.431  25.297  1.00  0.00    -0.550 OA
ENDBRANCH  11  12
ENDBRANCH  10  11
ENDBRANCH   9  10
ENDBRANCH   8   9
ENDBRANCH   1   8
TORSDOF 9
ENDMDL
