MODEL 1
REMARK VINA RESULT:    -4.537      0.000      0.000
REMARK INTER + INTRA:          -6.505
REMARK INTER:                  -6.129
REMARK INTRA:                  -0.376
REMARK UNBOUND:                -0.376
REMARK SMILES C=C1C(=O)O[C@H]2[C@H]1CCC(C)=CCC[C@@]1(C)O[C@@H]21
REMARK SMILES IDX 6 1 7 2 2 3 1 4 3 5 4 6 5 7 8 8 9 9 10 10 11 11 12 12 18 14
REMARK SMILES IDX 15 15 17 16 16 17 14 18 13 19
REMARK H PARENT
REMARK Flexibility Score: 70.00
ROOT
ATOM      1  C   UNL     1      19.001  48.223  43.379  1.00  0.00     0.216 C 
ATOM      2  C   UNL     1      19.396  46.693  43.426  1.00  0.00     0.070 C 
ATOM      3  C   UNL     1      20.751  46.703  44.069  1.00  0.00     0.037 C 
ATOM      4  C   UNL     1      21.474  45.628  44.387  1.00  0.00     0.021 C 
ATOM      5  C   UNL     1      21.102  48.068  44.357  1.00  0.00     0.334 C 
ATOM      6  O   UNL     1      22.172  48.451  44.900  1.00  0.00    -0.247 OA
ATOM      7  O   UNL     1      20.097  48.922  43.968  1.00  0.00    -0.455 OA
ENDROOT
BRANCH   2   8
ATOM      8  C   UNL     1      19.446  46.027  42.016  1.00  0.00     0.017 C 
BRANCH   8   9
ATOM      9  C   UNL     1      18.060  45.556  41.509  1.00  0.00     0.031 C 
BRANCH   9  10
ATOM     10  C   UNL     1      17.653  46.230  40.206  1.00  0.00    -0.077 C 
ATOM     11  C   UNL     1      18.397  45.880  38.942  1.00  0.00     0.039 C 
ATOM     12  C   UNL     1      16.629  47.114  40.113  1.00  0.00    -0.028 CG0
ATOM     13  G   UNL     1      15.813  47.621  41.275  1.00  0.00     0.000 G0
ENDBRANCH   9  10
ENDBRANCH   8   9
ENDBRANCH   2   8
BRANCH   1  14
ATOM     14  C   UNL     1      17.706  48.630  44.135  1.00  0.00     0.192 C 
ATOM     15  C   UNL     1      16.453  48.969  43.384  1.00  0.00     0.096 C 
ATOM     16  O   UNL     1      16.643  47.712  43.995  1.00  0.00    -0.362 OA
ATOM     17  C   UNL     1      15.389  49.788  44.114  1.00  0.00     0.045 C 
BRANCH  15  18
ATOM     18  C   UNL     1      16.403  48.918  41.839  1.00  0.00     0.042 C 
BRANCH  18  19
ATOM     19  C   UNL     1      15.798  47.622  41.269  1.00  0.00     0.030 CG0
ATOM     20  G   UNL     1      16.633  47.110  40.122  1.00  0.00     0.000 G0
ENDBRANCH  18  19
ENDBRANCH  15  18
ENDBRANCH   1  14
TORSDOF 0
ENDMDL
MODEL 2
REMARK VINA RESULT:    -4.462      2.676      3.724
REMARK INTER + INTRA:          -6.403
REMARK INTER:                  -6.030
REMARK INTRA:                  -0.374
REMARK UNBOUND:                -0.376
REMARK SMILES C=C1C(=O)O[C@H]2[C@H]1CCC(C)=CCC[C@@]1(C)O[C@@H]21
REMARK SMILES IDX 6 1 7 2 2 3 1 4 3 5 4 6 5 7 8 8 9 9 10 10 11 11 12 12 18 14
REMARK SMILES IDX 15 15 17 16 16 17 14 18 13 19
REMARK H PARENT
REMARK Flexibility Score: 70.00
ROOT
ATOM      1  C   UNL     1      19.213  49.913  45.474  1.00  0.00     0.216 C 
ATOM      2  C   UNL     1      19.507  48.828  46.585  1.00  0.00     0.070 C 
ATOM      3  C   UNL     1      20.169  49.616  47.675  1.00  0.00     0.037 C 
ATOM      4  C   UNL     1      20.548  49.142  48.863  1.00  0.00     0.021 C 
ATOM      5  C   UNL     1      20.253  50.988  47.251  1.00  0.00     0.334 C 
ATOM      6  O   UNL     1      20.750  51.933  47.919  1.00  0.00    -0.247 OA
ATOM      7  O   UNL     1      19.700  51.146  46.002  1.00  0.00    -0.455 OA
ENDROOT
BRANCH   2   8
ATOM      8  C   UNL     1      20.428  47.670  46.086  1.00  0.00     0.017 C 
BRANCH   8   9
ATOM      9  C   UNL     1      19.644  46.478  45.484  1.00  0.00     0.031 C 
BRANCH   9  10
ATOM     10  C   UNL     1      20.038  46.186  44.042  1.00  0.00    -0.077 C 
ATOM     11  C   UNL     1      21.375  45.546  43.768  1.00  0.00     0.039 C 
ATOM     12  C   UNL     1      19.231  46.448  42.983  1.00  0.00    -0.028 CG0
ATOM     13  G   UNL     1      17.891  47.132  43.063  1.00  0.00     0.000 G0
ENDBRANCH   9  10
ENDBRANCH   8   9
ENDBRANCH   2   8
BRANCH   1  14
ATOM     14  C   UNL     1      17.724  50.113  45.074  1.00  0.00     0.192 C 
ATOM     15  C   UNL     1      17.180  49.506  43.815  1.00  0.00     0.096 C 
ATOM     16  O   UNL     1      16.961  48.926  45.083  1.00  0.00    -0.362 OA
ATOM     17  C   UNL     1      15.893  50.097  43.243  1.00  0.00     0.045 C 
BRANCH  15  18
ATOM     18  C   UNL     1      18.073  48.656  42.881  1.00  0.00     0.042 C 
BRANCH  18  19
ATOM     19  C   UNL     1      17.892  47.136  43.042  1.00  0.00     0.030 CG0
ATOM     20  G   UNL     1      19.227  46.438  42.994  1.00  0.00     0.000 G0
ENDBRANCH  18  19
ENDBRANCH  15  18
ENDBRANCH   1  14
TORSDOF 0
ENDMDL
MODEL 3
REMARK VINA RESULT:    -4.408      3.806      5.771
REMARK INTER + INTRA:          -6.330
REMARK INTER:                  -6.048
REMARK INTRA:                  -0.282
REMARK UNBOUND:                -0.376
REMARK SMILES C=C1C(=O)O[C@H]2[C@H]1CCC(C)=CCC[C@@]1(C)O[C@@H]21
REMARK SMILES IDX 6 1 7 2 2 3 1 4 3 5 4 6 5 7 8 8 9 9 10 10 11 11 12 12 18 14
REMARK SMILES IDX 15 15 17 16 16 17 14 18 13 19
REMARK H PARENT
REMARK Flexibility Score: 70.00
ROOT
ATOM      1  C   UNL     1      19.135  48.765  45.082  1.00  0.00     0.216 C 
ATOM      2  C   UNL     1      20.319  49.812  45.073  1.00  0.00     0.070 C 
ATOM      3  C   UNL     1      21.336  49.180  44.169  1.00  0.00     0.037 C 
ATOM      4  C   UNL     1      22.494  49.725  43.794  1.00  0.00     0.021 C 
ATOM      5  C   UNL     1      20.811  47.921  43.713  1.00  0.00     0.334 C 
ATOM      6  O   UNL     1      21.396  47.121  42.936  1.00  0.00    -0.247 OA
ATOM      7  O   UNL     1      19.557  47.699  44.232  1.00  0.00    -0.455 OA
ENDROOT
BRANCH   2   8
ATOM      8  C   UNL     1      20.914  50.082  46.490  1.00  0.00     0.017 C 
BRANCH   8   9
ATOM      9  C   UNL     1      19.875  50.635  47.497  1.00  0.00     0.031 C 
BRANCH   9  10
ATOM     10  C   UNL     1      19.472  49.607  48.547  1.00  0.00    -0.077 C 
ATOM     11  C   UNL     1      20.543  48.997  49.417  1.00  0.00     0.039 C 
ATOM     12  C   UNL     1      18.188  49.229  48.764  1.00  0.00    -0.028 CG0
ATOM     13  G   UNL     1      17.001  49.690  47.958  1.00  0.00     0.000 G0
ENDBRANCH   9  10
ENDBRANCH   8   9
ENDBRANCH   2   8
BRANCH   1  14
ATOM     14  C   UNL     1      17.755  49.270  44.576  1.00  0.00     0.192 C 
ATOM     15  C   UNL     1      16.542  49.199  45.455  1.00  0.00     0.096 C 
ATOM     16  O   UNL     1      17.264  50.397  45.268  1.00  0.00    -0.362 OA
ATOM     17  C   UNL     1      15.173  49.263  44.779  1.00  0.00     0.045 C 
BRANCH  15  18
ATOM     18  C   UNL     1      16.623  48.633  46.891  1.00  0.00     0.042 C 
BRANCH  18  19
ATOM     19  C   UNL     1      16.983  49.677  47.964  1.00  0.00     0.030 CG0
ATOM     20  G   UNL     1      18.187  49.229  48.753  1.00  0.00     0.000 G0
ENDBRANCH  18  19
ENDBRANCH  15  18
ENDBRANCH   1  14
TORSDOF 0
ENDMDL
MODEL 4
REMARK VINA RESULT:    -4.403      3.538      6.157
REMARK INTER + INTRA:          -6.323
REMARK INTER:                  -5.944
REMARK INTRA:                  -0.380
REMARK UNBOUND:                -0.376
REMARK SMILES C=C1C(=O)O[C@H]2[C@H]1CCC(C)=CCC[C@@]1(C)O[C@@H]21
REMARK SMILES IDX 6 1 7 2 2 3 1 4 3 5 4 6 5 7 8 8 9 9 10 10 11 11 12 12 18 14
REMARK SMILES IDX 15 15 17 16 16 17 14 18 13 19
REMARK H PARENT
REMARK Flexibility Score: 70.00
ROOT
ATOM      1  C   UNL     1      18.554  50.007  43.793  1.00  0.00     0.216 C 
ATOM      2  C   UNL     1      17.446  48.882  43.725  1.00  0.00     0.070 C 
ATOM      3  C   UNL     1      16.719  49.185  42.448  1.00  0.00     0.037 C 
ATOM      4  C   UNL     1      15.730  48.462  41.921  1.00  0.00     0.021 C 
ATOM      5  C   UNL     1      17.326  50.344  41.850  1.00  0.00     0.334 C 
ATOM      6  O   UNL     1      16.973  50.879  40.766  1.00  0.00    -0.247 OA
ATOM      7  O   UNL     1      18.372  50.797  42.618  1.00  0.00    -0.455 OA
ENDROOT
BRANCH   2   8
ATOM      8  C   UNL     1      16.473  48.901  44.946  1.00  0.00     0.017 C 
BRANCH   8   9
ATOM      9  C   UNL     1      16.982  48.070  46.149  1.00  0.00     0.031 C 
BRANCH   9  10
ATOM     10  C   UNL     1      17.134  48.903  47.415  1.00  0.00    -0.077 C 
ATOM     11  C   UNL     1      15.893  49.374  48.130  1.00  0.00     0.039 C 
ATOM     12  C   UNL     1      18.336  49.224  47.955  1.00  0.00    -0.028 CG0
ATOM     13  G   UNL     1      19.675  48.887  47.350  1.00  0.00     0.000 G0
ENDBRANCH   9  10
ENDBRANCH   8   9
ENDBRANCH   2   8
BRANCH   1  14
ATOM     14  C   UNL     1      20.031  49.526  43.828  1.00  0.00     0.192 C 
ATOM     15  C   UNL     1      20.813  49.542  45.108  1.00  0.00     0.096 C 
ATOM     16  O   UNL     1      20.240  48.360  44.594  1.00  0.00    -0.362 OA
ATOM     17  C   UNL     1      22.337  49.512  45.008  1.00  0.00     0.045 C 
BRANCH  15  18
ATOM     18  C   UNL     1      20.177  50.026  46.432  1.00  0.00     0.042 C 
BRANCH  18  19
ATOM     19  C   UNL     1      19.692  48.892  47.353  1.00  0.00     0.030 CG0
ATOM     20  G   UNL     1      18.351  49.234  47.950  1.00  0.00     0.000 G0
ENDBRANCH  18  19
ENDBRANCH  15  18
ENDBRANCH   1  14
TORSDOF 0
ENDMDL
MODEL 5
REMARK VINA RESULT:    -4.294      2.838      4.006
REMARK INTER + INTRA:          -6.176
REMARK INTER:                  -5.838
REMARK INTRA:                  -0.339
REMARK UNBOUND:                -0.376
REMARK SMILES C=C1C(=O)O[C@H]2[C@H]1CCC(C)=CCC[C@@]1(C)O[C@@H]21
REMARK SMILES IDX 6 1 7 2 2 3 1 4 3 5 4 6 5 7 8 8 9 9 10 10 11 11 12 12 18 14
REMARK SMILES IDX 15 15 17 16 16 17 14 18 13 19
REMARK H PARENT
REMARK Flexibility Score: 70.00
ROOT
ATOM      1  C   UNL     1      19.567  49.575  45.901  1.00  0.00     0.216 C 
ATOM      2  C   UNL     1      19.594  48.504  44.738  1.00  0.00     0.070 C 
ATOM      3  C   UNL     1      21.016  48.541  44.263  1.00  0.00     0.037 C 
ATOM      4  C   UNL     1      21.549  47.756  43.326  1.00  0.00     0.021 C 
ATOM      5  C   UNL     1      21.727  49.515  45.049  1.00  0.00     0.334 C 
ATOM      6  O   UNL     1      22.946  49.808  44.925  1.00  0.00    -0.247 OA
ATOM      7  O   UNL     1      20.896  50.090  45.980  1.00  0.00    -0.455 OA
ENDROOT
BRANCH   2   8
ATOM      8  C   UNL     1      18.603  48.830  43.577  1.00  0.00     0.017 C 
BRANCH   8   9
ATOM      9  C   UNL     1      17.298  48.000  43.633  1.00  0.00     0.031 C 
BRANCH   9  10
ATOM     10  C   UNL     1      16.049  48.871  43.664  1.00  0.00    -0.077 C 
ATOM     11  C   UNL     1      15.535  49.452  42.370  1.00  0.00     0.039 C 
ATOM     12  C   UNL     1      15.352  49.133  44.797  1.00  0.00    -0.028 CG0
ATOM     13  G   UNL     1      15.747  48.685  46.181  1.00  0.00     0.000 G0
ENDBRANCH   9  10
ENDBRANCH   8   9
ENDBRANCH   2   8
BRANCH   1  14
ATOM     14  C   UNL     1      19.162  49.061  47.310  1.00  0.00     0.192 C 
ATOM     15  C   UNL     1      17.739  49.143  47.777  1.00  0.00     0.096 C 
ATOM     16  O   UNL     1      18.301  47.944  47.291  1.00  0.00    -0.362 OA
ATOM     17  C   UNL     1      17.482  49.068  49.282  1.00  0.00     0.045 C 
BRANCH  15  18
ATOM     18  C   UNL     1      16.629  49.730  46.874  1.00  0.00     0.042 C 
BRANCH  18  19
ATOM     19  C   UNL     1      15.747  48.672  46.187  1.00  0.00     0.030 CG0
ATOM     20  G   UNL     1      15.356  49.129  44.804  1.00  0.00     0.000 G0
ENDBRANCH  18  19
ENDBRANCH  15  18
ENDBRANCH   1  14
TORSDOF 0
ENDMDL
MODEL 6
REMARK VINA RESULT:    -4.290      3.655      5.724
REMARK INTER + INTRA:          -6.171
REMARK INTER:                  -5.840
REMARK INTRA:                  -0.331
REMARK UNBOUND:                -0.376
REMARK SMILES C=C1C(=O)O[C@H]2[C@H]1CCC(C)=CCC[C@@]1(C)O[C@@H]21
REMARK SMILES IDX 6 1 7 2 2 3 1 4 3 5 4 6 5 7 8 8 9 9 10 10 11 11 12 12 18 14
REMARK SMILES IDX 15 15 17 16 16 17 14 18 13 19
REMARK H PARENT
REMARK Flexibility Score: 70.00
ROOT
ATOM      1  C   UNL     1      16.729  48.628  44.038  1.00  0.00     0.216 C 
ATOM      2  C   UNL     1      17.034  49.976  43.270  1.00  0.00     0.070 C 
ATOM      3  C   UNL     1      16.718  49.643  41.843  1.00  0.00     0.037 C 
ATOM      4  C   UNL     1      16.759  50.491  40.814  1.00  0.00     0.021 C 
ATOM      5  C   UNL     1      16.288  48.271  41.785  1.00  0.00     0.334 C 
ATOM      6  O   UNL     1      15.940  47.655  40.744  1.00  0.00    -0.247 OA
ATOM      7  O   UNL     1      16.290  47.708  43.039  1.00  0.00    -0.455 OA
ENDROOT
BRANCH   2   8
ATOM      8  C   UNL     1      18.512  50.452  43.425  1.00  0.00     0.017 C 
BRANCH   8   9
ATOM      9  C   UNL     1      18.877  50.862  44.873  1.00  0.00     0.031 C 
BRANCH   9  10
ATOM     10  C   UNL     1      19.872  49.908  45.520  1.00  0.00    -0.077 C 
ATOM     11  C   UNL     1      21.228  49.731  44.885  1.00  0.00     0.039 C 
ATOM     12  C   UNL     1      19.614  49.225  46.662  1.00  0.00    -0.028 CG0
ATOM     13  G   UNL     1      18.300  49.236  47.401  1.00  0.00     0.000 G0
ENDBRANCH   9  10
ENDBRANCH   8   9
ENDBRANCH   2   8
BRANCH   1  14
ATOM     14  C   UNL     1      15.644  48.690  45.149  1.00  0.00     0.192 C 
ATOM     15  C   UNL     1      15.991  48.396  46.578  1.00  0.00     0.096 C 
ATOM     16  O   UNL     1      15.848  49.715  46.097  1.00  0.00    -0.362 OA
ATOM     17  C   UNL     1      14.849  48.020  47.521  1.00  0.00     0.045 C 
BRANCH  15  18
ATOM     18  C   UNL     1      17.434  48.031  46.996  1.00  0.00     0.042 C 
BRANCH  18  19
ATOM     19  C   UNL     1      18.297  49.237  47.409  1.00  0.00     0.030 CG0
ATOM     20  G   UNL     1      19.605  49.232  46.659  1.00  0.00     0.000 G0
ENDBRANCH  18  19
ENDBRANCH  15  18
ENDBRANCH   1  14
TORSDOF 0
ENDMDL
MODEL 7
REMARK VINA RESULT:    -4.241      2.704      4.810
REMARK INTER + INTRA:          -6.104
REMARK INTER:                  -5.756
REMARK INTRA:                  -0.348
REMARK UNBOUND:                -0.376
REMARK SMILES C=C1C(=O)O[C@H]2[C@H]1CCC(C)=CCC[C@@]1(C)O[C@@H]21
REMARK SMILES IDX 6 1 7 2 2 3 1 4 3 5 4 6 5 7 8 8 9 9 10 10 11 11 12 12 18 14
REMARK SMILES IDX 15 15 17 16 16 17 14 18 13 19
REMARK H PARENT
REMARK Flexibility Score: 70.00
ROOT
ATOM      1  C   UNL     1      19.735  48.427  46.204  1.00  0.00     0.216 C 
ATOM      2  C   UNL     1      19.961  49.991  46.161  1.00  0.00     0.070 C 
ATOM      3  C   UNL     1      20.287  50.335  47.584  1.00  0.00     0.037 C 
ATOM      4  C   UNL     1      20.625  51.542  48.039  1.00  0.00     0.021 C 
ATOM      5  C   UNL     1      20.252  49.123  48.359  1.00  0.00     0.334 C 
ATOM      6  O   UNL     1      20.480  49.036  49.594  1.00  0.00    -0.247 OA
ATOM      7  O   UNL     1      19.945  48.045  47.563  1.00  0.00    -0.455 OA
ENDROOT
BRANCH   2   8
ATOM      8  C   UNL     1      18.710  50.780  45.663  1.00  0.00     0.017 C 
BRANCH   8   9
ATOM      9  C   UNL     1      18.401  50.558  44.162  1.00  0.00     0.031 C 
BRANCH   9  10
ATOM     10  C   UNL     1      17.090  49.815  43.937  1.00  0.00    -0.077 C 
ATOM     11  C   UNL     1      15.806  50.444  44.415  1.00  0.00     0.039 C 
ATOM     12  C   UNL     1      17.011  48.621  43.299  1.00  0.00    -0.028 CG0
ATOM     13  G   UNL     1      18.191  47.823  42.805  1.00  0.00     0.000 G0
ENDBRANCH   9  10
ENDBRANCH   8   9
ENDBRANCH   2   8
BRANCH   1  14
ATOM     14  C   UNL     1      20.668  47.565  45.309  1.00  0.00     0.192 C 
ATOM     15  C   UNL     1      20.112  46.760  44.173  1.00  0.00     0.096 C 
ATOM     16  O   UNL     1      20.749  48.003  43.970  1.00  0.00    -0.362 OA
ATOM     17  C   UNL     1      20.961  45.606  43.641  1.00  0.00     0.045 C 
BRANCH  15  18
ATOM     18  C   UNL     1      18.600  46.766  43.847  1.00  0.00     0.042 C 
BRANCH  18  19
ATOM     19  C   UNL     1      18.183  47.816  42.801  1.00  0.00     0.030 CG0
ATOM     20  G   UNL     1      17.012  48.622  43.301  1.00  0.00     0.000 G0
ENDBRANCH  18  19
ENDBRANCH  15  18
ENDBRANCH   1  14
TORSDOF 0
ENDMDL
MODEL 8
REMARK VINA RESULT:    -4.190      2.030      3.980
REMARK INTER + INTRA:          -6.036
REMARK INTER:                  -5.686
REMARK INTRA:                  -0.349
REMARK UNBOUND:                -0.376
REMARK SMILES C=C1C(=O)O[C@H]2[C@H]1CCC(C)=CCC[C@@]1(C)O[C@@H]21
REMARK SMILES IDX 6 1 7 2 2 3 1 4 3 5 4 6 5 7 8 8 9 9 10 10 11 11 12 12 18 14
REMARK SMILES IDX 15 15 17 16 16 17 14 18 13 19
REMARK H PARENT
REMARK Flexibility Score: 70.00
ROOT
ATOM      1  C   UNL     1      18.447  47.021  43.130  1.00  0.00     0.216 C 
ATOM      2  C   UNL     1      19.253  48.359  43.372  1.00  0.00     0.070 C 
ATOM      3  C   UNL     1      20.661  47.886  43.580  1.00  0.00     0.037 C 
ATOM      4  C   UNL     1      21.730  48.664  43.756  1.00  0.00     0.021 C 
ATOM      5  C   UNL     1      20.673  46.451  43.476  1.00  0.00     0.334 C 
ATOM      6  O   UNL     1      21.689  45.716  43.594  1.00  0.00    -0.247 OA
ATOM      7  O   UNL     1      19.412  45.972  43.213  1.00  0.00    -0.455 OA
ENDROOT
BRANCH   2   8
ATOM      8  C   UNL     1      18.743  49.171  44.603  1.00  0.00     0.017 C 
BRANCH   8   9
ATOM      9  C   UNL     1      17.351  49.813  44.383  1.00  0.00     0.031 C 
BRANCH   9  10
ATOM     10  C   UNL     1      16.283  49.222  45.293  1.00  0.00    -0.077 C 
ATOM     11  C   UNL     1      16.436  49.370  46.786  1.00  0.00     0.039 C 
ATOM     12  C   UNL     1      15.177  48.588  44.830  1.00  0.00    -0.028 CG0
ATOM     13  G   UNL     1      14.887  48.302  43.378  1.00  0.00     0.000 G0
ENDBRANCH   9  10
ENDBRANCH   8   9
ENDBRANCH   2   8
BRANCH   1  14
ATOM     14  C   UNL     1      17.707  46.891  41.771  1.00  0.00     0.192 C 
ATOM     15  C   UNL     1      16.209  46.819  41.716  1.00  0.00     0.096 C 
ATOM     16  O   UNL     1      16.913  48.009  41.437  1.00  0.00    -0.362 OA
ATOM     17  C   UNL     1      15.574  46.238  40.454  1.00  0.00     0.045 C 
BRANCH  15  18
ATOM     18  C   UNL     1      15.355  46.879  43.004  1.00  0.00     0.042 C 
BRANCH  18  19
ATOM     19  C   UNL     1      14.880  48.294  43.382  1.00  0.00     0.030 CG0
ATOM     20  G   UNL     1      15.174  48.580  44.832  1.00  0.00     0.000 G0
ENDBRANCH  18  19
ENDBRANCH  15  18
ENDBRANCH   1  14
TORSDOF 0
ENDMDL
MODEL 9
REMARK VINA RESULT:    -4.147      2.519      4.864
REMARK INTER + INTRA:          -5.977
REMARK INTER:                  -5.615
REMARK INTRA:                  -0.363
REMARK UNBOUND:                -0.376
REMARK SMILES C=C1C(=O)O[C@H]2[C@H]1CCC(C)=CCC[C@@]1(C)O[C@@H]21
REMARK SMILES IDX 6 1 7 2 2 3 1 4 3 5 4 6 5 7 8 8 9 9 10 10 11 11 12 12 18 14
REMARK SMILES IDX 15 15 17 16 16 17 14 18 13 19
REMARK H PARENT
REMARK Flexibility Score: 70.00
ROOT
ATOM      1  C   UNL     1      17.025  47.232  43.213  1.00  0.00     0.216 C 
ATOM      2  C   UNL     1      17.846  46.770  41.943  1.00  0.00     0.070 C 
ATOM      3  C   UNL     1      16.855  45.958  41.164  1.00  0.00     0.037 C 
ATOM      4  C   UNL     1      17.064  45.404  39.969  1.00  0.00     0.021 C 
ATOM      5  C   UNL     1      15.613  45.945  41.891  1.00  0.00     0.334 C 
ATOM      6  O   UNL     1      14.558  45.360  41.530  1.00  0.00    -0.247 OA
ATOM      7  O   UNL     1      15.720  46.679  43.049  1.00  0.00    -0.455 OA
ENDROOT
BRANCH   2   8
ATOM      8  C   UNL     1      19.110  45.927  42.301  1.00  0.00     0.017 C 
BRANCH   8   9
ATOM      9  C   UNL     1      20.356  46.791  42.615  1.00  0.00     0.031 C 
BRANCH   9  10
ATOM     10  C   UNL     1      20.898  46.550  44.018  1.00  0.00    -0.077 C 
ATOM     11  C   UNL     1      21.578  45.238  44.319  1.00  0.00     0.039 C 
ATOM     12  C   UNL     1      20.826  47.469  45.012  1.00  0.00    -0.028 CG0
ATOM     13  G   UNL     1      20.137  48.806  44.908  1.00  0.00     0.000 G0
ENDBRANCH   9  10
ENDBRANCH   8   9
ENDBRANCH   2   8
BRANCH   1  14
ATOM     14  C   UNL     1      16.877  48.764  43.425  1.00  0.00     0.192 C 
ATOM     15  C   UNL     1      17.679  49.474  44.476  1.00  0.00     0.096 C 
ATOM     16  O   UNL     1      18.037  49.505  43.111  1.00  0.00    -0.362 OA
ATOM     17  C   UNL     1      17.176  50.837  44.950  1.00  0.00     0.045 C 
BRANCH  15  18
ATOM     18  C   UNL     1      18.682  48.712  45.373  1.00  0.00     0.042 C 
BRANCH  18  19
ATOM     19  C   UNL     1      20.147  48.811  44.910  1.00  0.00     0.030 CG0
ATOM     20  G   UNL     1      20.825  47.468  45.014  1.00  0.00     0.000 G0
ENDBRANCH  18  19
ENDBRANCH  15  18
ENDBRANCH   1  14
TORSDOF 0
ENDMDL
