MODEL 1
REMARK VINA RESULT:    -4.452      0.000      0.000
REMARK INTER + INTRA:          -6.416
REMARK INTER:                  -6.274
REMARK INTRA:                  -0.142
REMARK UNBOUND:                -0.142
REMARK SMILES CC1=CCC(=C(C)C)C(=O)CC(C)=CCC1
REMARK SMILES IDX 12 1 14 2 13 3 15 4 16 5 2 6 1 7 3 8 11 10 9 11 10 12 5 13
REMARK SMILES IDX 6 14 7 15 8 16 4 17
REMARK H PARENT
REMARK Flexibility Score: 60.00
ROOT
ATOM      1  C   UNL     1       8.766 -18.336 -22.055  1.00  0.00    -0.070 C 
ATOM      2  C   UNL     1       9.291 -18.784 -20.891  1.00  0.00    -0.027 C 
ATOM      3  C   UNL     1       7.512 -18.996 -22.567  1.00  0.00     0.039 C 
ENDROOT
BRANCH   2   4
ATOM      4  C   UNL     1      10.448 -18.147 -20.164  1.00  0.00     0.032 C 
BRANCH   4   5
ATOM      5  C   UNL     1      11.713 -18.991 -20.358  1.00  0.00     0.034 C 
BRANCH   5   6
ATOM      6  C   UNL     1      12.948 -18.141 -20.576  1.00  0.00    -0.077 C 
ATOM      7  C   UNL     1      13.684 -17.614 -19.368  1.00  0.00     0.039 C 
ATOM      8  C   UNL     1      13.392 -17.761 -21.799  1.00  0.00    -0.023 CG0
ATOM      9  G   UNL     1      12.861 -18.203 -23.151  1.00  0.00     0.000 G0
ENDBRANCH   5   6
ENDBRANCH   4   5
ENDBRANCH   2   4
BRANCH   1  10
ATOM     10  C   UNL     1       9.386 -17.221 -22.874  1.00  0.00     0.111 C 
BRANCH  10  11
ATOM     11  C   UNL     1      10.425 -17.741 -23.838  1.00  0.00     0.163 C 
ATOM     12  O   UNL     1      10.052 -18.613 -24.670  1.00  0.00    -0.294 OA
BRANCH  11  13
ATOM     13  C   UNL     1      11.858 -17.296 -23.839  1.00  0.00    -0.002 C 
ATOM     14  C   UNL     1      12.247 -16.205 -24.568  1.00  0.00    -0.069 C 
ATOM     15  C   UNL     1      11.236 -15.248 -25.157  1.00  0.00     0.039 C 
ATOM     16  C   UNL     1      13.704 -15.863 -24.783  1.00  0.00     0.039 C 
BRANCH  13  17
ATOM     17  C   UNL     1      12.884 -18.198 -23.160  1.00  0.00     0.066 CG0
ATOM     18  G   UNL     1      13.380 -17.751 -21.797  1.00  0.00     0.000 G0
ENDBRANCH  13  17
ENDBRANCH  11  13
ENDBRANCH  10  11
ENDBRANCH   1  10
TORSDOF 0
ENDMDL
MODEL 2
REMARK VINA RESULT:    -4.251      3.077      5.371
REMARK INTER + INTRA:          -6.134
REMARK INTER:                  -6.039
REMARK INTRA:                  -0.094
REMARK UNBOUND:                -0.142
REMARK SMILES CC1=CCC(=C(C)C)C(=O)CC(C)=CCC1
REMARK SMILES IDX 12 1 14 2 13 3 15 4 16 5 2 6 1 7 3 8 11 10 9 11 10 12 5 13
REMARK SMILES IDX 6 14 7 15 8 16 4 17
REMARK H PARENT
REMARK Flexibility Score: 60.00
ROOT
ATOM      1  C   UNL     1      14.280 -19.000 -18.880  1.00  0.00    -0.070 C 
ATOM      2  C   UNL     1      13.408 -17.987 -19.094  1.00  0.00    -0.027 C 
ATOM      3  C   UNL     1      15.182 -18.918 -17.676  1.00  0.00     0.039 C 
ENDROOT
BRANCH   2   4
ATOM      4  C   UNL     1      12.340 -17.977 -20.157  1.00  0.00     0.032 C 
BRANCH   4   5
ATOM      5  C   UNL     1      12.891 -17.348 -21.442  1.00  0.00     0.034 C 
BRANCH   5   6
ATOM      6  C   UNL     1      12.379 -18.038 -22.690  1.00  0.00    -0.077 C 
ATOM      7  C   UNL     1      10.929 -17.861 -23.069  1.00  0.00     0.039 C 
ATOM      8  C   UNL     1      13.132 -18.870 -23.451  1.00  0.00    -0.023 CG0
ATOM      9  G   UNL     1      14.616 -19.160 -23.308  1.00  0.00     0.000 G0
ENDBRANCH   5   6
ENDBRANCH   4   5
ENDBRANCH   2   4
BRANCH   1  10
ATOM     10  C   UNL     1      14.405 -20.199 -19.799  1.00  0.00     0.111 C 
BRANCH  10  11
ATOM     11  C   UNL     1      15.342 -19.930 -20.952  1.00  0.00     0.163 C 
ATOM     12  O   UNL     1      16.432 -19.353 -20.684  1.00  0.00    -0.294 OA
BRANCH  11  13
ATOM     13  C   UNL     1      15.036 -20.287 -22.377  1.00  0.00    -0.002 C 
ATOM     14  C   UNL     1      15.282 -21.549 -22.846  1.00  0.00    -0.069 C 
ATOM     15  C   UNL     1      15.592 -22.693 -21.908  1.00  0.00     0.039 C 
ATOM     16  C   UNL     1      15.209 -21.885 -24.319  1.00  0.00     0.039 C 
BRANCH  13  17
ATOM     17  C   UNL     1      14.622 -19.161 -23.319  1.00  0.00     0.066 CG0
ATOM     18  G   UNL     1      13.132 -18.894 -23.439  1.00  0.00     0.000 G0
ENDBRANCH  13  17
ENDBRANCH  11  13
ENDBRANCH  10  11
ENDBRANCH   1  10
TORSDOF 0
ENDMDL
MODEL 3
REMARK VINA RESULT:    -4.055      2.188      5.013
REMARK INTER + INTRA:          -5.857
REMARK INTER:                  -5.945
REMARK INTRA:                   0.088
REMARK UNBOUND:                -0.142
REMARK SMILES CC1=CCC(=C(C)C)C(=O)CC(C)=CCC1
REMARK SMILES IDX 12 1 14 2 13 3 15 4 16 5 2 6 1 7 3 8 11 10 9 11 10 12 5 13
REMARK SMILES IDX 6 14 7 15 8 16 4 17
REMARK H PARENT
REMARK Flexibility Score: 60.00
ROOT
ATOM      1  C   UNL     1      14.985 -18.384 -18.663  1.00  0.00    -0.070 C 
ATOM      2  C   UNL     1      16.138 -18.189 -19.345  1.00  0.00    -0.027 C 
ATOM      3  C   UNL     1      15.046 -19.162 -17.374  1.00  0.00     0.039 C 
ENDROOT
BRANCH   2   4
ATOM      4  C   UNL     1      16.282 -17.317 -20.565  1.00  0.00     0.032 C 
BRANCH   4   5
ATOM      5  C   UNL     1      15.793 -18.072 -21.806  1.00  0.00     0.034 C 
BRANCH   5   6
ATOM      6  C   UNL     1      15.016 -17.184 -22.756  1.00  0.00    -0.077 C 
ATOM      7  C   UNL     1      15.706 -15.977 -23.343  1.00  0.00     0.039 C 
ATOM      8  C   UNL     1      13.707 -17.368 -23.056  1.00  0.00    -0.023 CG0
ATOM      9  G   UNL     1      12.820 -18.528 -22.640  1.00  0.00     0.000 G0
ENDBRANCH   5   6
ENDBRANCH   4   5
ENDBRANCH   2   4
BRANCH   1  10
ATOM     10  C   UNL     1      13.638 -17.877 -19.141  1.00  0.00     0.111 C 
BRANCH  10  11
ATOM     11  C   UNL     1      12.970 -18.852 -20.081  1.00  0.00     0.163 C 
ATOM     12  O   UNL     1      13.140 -20.080 -19.850  1.00  0.00    -0.294 OA
BRANCH  11  13
ATOM     13  C   UNL     1      12.149 -18.438 -21.266  1.00  0.00    -0.002 C 
ATOM     14  C   UNL     1      10.817 -18.155 -21.125  1.00  0.00    -0.069 C 
ATOM     15  C   UNL     1      10.190 -17.968 -19.763  1.00  0.00     0.039 C 
ATOM     16  C   UNL     1       9.908 -17.963 -22.318  1.00  0.00     0.039 C 
BRANCH  13  17
ATOM     17  C   UNL     1      12.797 -18.522 -22.645  1.00  0.00     0.066 CG0
ATOM     18  G   UNL     1      13.701 -17.368 -23.039  1.00  0.00     0.000 G0
ENDBRANCH  13  17
ENDBRANCH  11  13
ENDBRANCH  10  11
ENDBRANCH   1  10
TORSDOF 0
ENDMDL
MODEL 4
REMARK VINA RESULT:    -3.995      2.539      4.725
REMARK INTER + INTRA:          -5.772
REMARK INTER:                  -6.111
REMARK INTRA:                   0.339
REMARK UNBOUND:                -0.142
REMARK SMILES CC1=CCC(=C(C)C)C(=O)CC(C)=CCC1
REMARK SMILES IDX 12 1 14 2 13 3 15 4 16 5 2 6 1 7 3 8 11 10 9 11 10 12 5 13
REMARK SMILES IDX 6 14 7 15 8 16 4 17
REMARK H PARENT
REMARK Flexibility Score: 60.00
ROOT
ATOM      1  C   UNL     1      14.174 -20.144 -19.941  1.00  0.00    -0.070 C 
ATOM      2  C   UNL     1      15.051 -20.937 -20.599  1.00  0.00    -0.027 C 
ATOM      3  C   UNL     1      14.641 -19.465 -18.679  1.00  0.00     0.039 C 
ENDROOT
BRANCH   2   4
ATOM      4  C   UNL     1      14.801 -21.570 -21.944  1.00  0.00     0.032 C 
BRANCH   4   5
ATOM      5  C   UNL     1      15.117 -20.566 -23.059  1.00  0.00     0.034 C 
BRANCH   5   6
ATOM      6  C   UNL     1      14.017 -20.488 -24.097  1.00  0.00    -0.077 C 
ATOM      7  C   UNL     1      13.850 -21.637 -25.060  1.00  0.00     0.039 C 
ATOM      8  C   UNL     1      13.215 -19.407 -24.260  1.00  0.00    -0.023 CG0
ATOM      9  G   UNL     1      13.152 -18.165 -23.390  1.00  0.00     0.000 G0
ENDBRANCH   5   6
ENDBRANCH   4   5
ENDBRANCH   2   4
BRANCH   1  10
ATOM     10  C   UNL     1      12.746 -19.921 -20.399  1.00  0.00     0.111 C 
BRANCH  10  11
ATOM     11  C   UNL     1      12.524 -18.509 -20.884  1.00  0.00     0.163 C 
ATOM     12  O   UNL     1      12.704 -17.581 -20.049  1.00  0.00    -0.294 OA
BRANCH  11  13
ATOM     13  C   UNL     1      12.085 -18.165 -22.277  1.00  0.00    -0.002 C 
ATOM     14  C   UNL     1      10.756 -18.017 -22.571  1.00  0.00    -0.069 C 
ATOM     15  C   UNL     1       9.714 -17.910 -21.482  1.00  0.00     0.039 C 
ATOM     16  C   UNL     1      10.259 -17.902 -23.994  1.00  0.00     0.039 C 
BRANCH  13  17
ATOM     17  C   UNL     1      13.142 -18.168 -23.377  1.00  0.00     0.066 CG0
ATOM     18  G   UNL     1      13.214 -19.414 -24.241  1.00  0.00     0.000 G0
ENDBRANCH  13  17
ENDBRANCH  11  13
ENDBRANCH  10  11
ENDBRANCH   1  10
TORSDOF 0
ENDMDL
MODEL 5
REMARK VINA RESULT:    -3.953      1.659      3.109
REMARK INTER + INTRA:          -5.713
REMARK INTER:                  -5.731
REMARK INTRA:                   0.018
REMARK UNBOUND:                -0.142
REMARK SMILES CC1=CCC(=C(C)C)C(=O)CC(C)=CCC1
REMARK SMILES IDX 12 1 14 2 13 3 15 4 16 5 2 6 1 7 3 8 11 10 9 11 10 12 5 13
REMARK SMILES IDX 6 14 7 15 8 16 4 17
REMARK H PARENT
REMARK Flexibility Score: 60.00
ROOT
ATOM      1  C   UNL     1      10.774 -17.054 -24.085  1.00  0.00    -0.070 C 
ATOM      2  C   UNL     1       9.760 -17.598 -23.372  1.00  0.00    -0.027 C 
ATOM      3  C   UNL     1      10.678 -17.081 -25.589  1.00  0.00     0.039 C 
ENDROOT
BRANCH   2   4
ATOM      4  C   UNL     1       9.624 -17.526 -21.873  1.00  0.00     0.032 C 
BRANCH   4   5
ATOM      5  C   UNL     1      10.482 -18.616 -21.220  1.00  0.00     0.034 C 
BRANCH   5   6
ATOM      6  C   UNL     1      11.285 -18.094 -20.046  1.00  0.00    -0.077 C 
ATOM      7  C   UNL     1      10.544 -17.549 -18.850  1.00  0.00     0.039 C 
ATOM      8  C   UNL     1      12.639 -18.018 -20.036  1.00  0.00    -0.023 CG0
ATOM      9  G   UNL     1      13.600 -18.548 -21.086  1.00  0.00     0.000 G0
ENDBRANCH   5   6
ENDBRANCH   4   5
ENDBRANCH   2   4
BRANCH   1  10
ATOM     10  C   UNL     1      12.004 -16.438 -23.448  1.00  0.00     0.111 C 
BRANCH  10  11
ATOM     11  C   UNL     1      13.154 -17.414 -23.383  1.00  0.00     0.163 C 
ATOM     12  O   UNL     1      13.347 -18.141 -24.396  1.00  0.00    -0.294 OA
BRANCH  11  13
ATOM     13  C   UNL     1      14.045 -17.575 -22.187  1.00  0.00    -0.002 C 
ATOM     14  C   UNL     1      15.287 -17.000 -22.162  1.00  0.00    -0.069 C 
ATOM     15  C   UNL     1      15.697 -15.964 -23.184  1.00  0.00     0.039 C 
ATOM     16  C   UNL     1      16.301 -17.326 -21.089  1.00  0.00     0.039 C 
BRANCH  13  17
ATOM     17  C   UNL     1      13.601 -18.542 -21.093  1.00  0.00     0.066 CG0
ATOM     18  G   UNL     1      12.635 -17.994 -20.059  1.00  0.00     0.000 G0
ENDBRANCH  13  17
ENDBRANCH  11  13
ENDBRANCH  10  11
ENDBRANCH   1  10
TORSDOF 0
ENDMDL
MODEL 6
REMARK VINA RESULT:    -3.922      2.101      4.116
REMARK INTER + INTRA:          -5.669
REMARK INTER:                  -5.511
REMARK INTRA:                  -0.158
REMARK UNBOUND:                -0.142
REMARK SMILES CC1=CCC(=C(C)C)C(=O)CC(C)=CCC1
REMARK SMILES IDX 12 1 14 2 13 3 15 4 16 5 2 6 1 7 3 8 11 10 9 11 10 12 5 13
REMARK SMILES IDX 6 14 7 15 8 16 4 17
REMARK H PARENT
REMARK Flexibility Score: 60.00
ROOT
ATOM      1  C   UNL     1      10.677 -18.254 -21.410  1.00  0.00    -0.070 C 
ATOM      2  C   UNL     1       9.813 -17.681 -22.280  1.00  0.00    -0.027 C 
ATOM      3  C   UNL     1      10.210 -18.490 -19.997  1.00  0.00     0.039 C 
ENDROOT
BRANCH   2   4
ATOM      4  C   UNL     1      10.061 -17.508 -23.756  1.00  0.00     0.032 C 
BRANCH   4   5
ATOM      5  C   UNL     1      10.450 -16.055 -24.052  1.00  0.00     0.034 C 
BRANCH   5   6
ATOM      6  C   UNL     1      11.589 -15.951 -25.045  1.00  0.00    -0.077 C 
ATOM      7  C   UNL     1      11.277 -16.064 -26.516  1.00  0.00     0.039 C 
ATOM      8  C   UNL     1      12.891 -15.835 -24.684  1.00  0.00    -0.023 CG0
ATOM      9  G   UNL     1      13.447 -15.647 -23.284  1.00  0.00     0.000 G0
ENDBRANCH   5   6
ENDBRANCH   4   5
ENDBRANCH   2   4
BRANCH   1  10
ATOM     10  C   UNL     1      12.093 -18.650 -21.781  1.00  0.00     0.111 C 
BRANCH  10  11
ATOM     11  C   UNL     1      13.077 -17.535 -21.520  1.00  0.00     0.163 C 
ATOM     12  O   UNL     1      13.135 -17.085 -20.343  1.00  0.00    -0.294 OA
BRANCH  11  13
ATOM     13  C   UNL     1      13.954 -16.933 -22.577  1.00  0.00    -0.002 C 
ATOM     14  C   UNL     1      15.220 -17.410 -22.785  1.00  0.00    -0.069 C 
ATOM     15  C   UNL     1      15.681 -18.716 -22.180  1.00  0.00     0.039 C 
ATOM     16  C   UNL     1      16.213 -16.690 -23.669  1.00  0.00     0.039 C 
BRANCH  13  17
ATOM     17  C   UNL     1      13.463 -15.668 -23.275  1.00  0.00     0.066 CG0
ATOM     18  G   UNL     1      12.884 -15.846 -24.667  1.00  0.00     0.000 G0
ENDBRANCH  13  17
ENDBRANCH  11  13
ENDBRANCH  10  11
ENDBRANCH   1  10
TORSDOF 0
ENDMDL
MODEL 7
REMARK VINA RESULT:    -3.916      2.724      5.126
REMARK INTER + INTRA:          -5.661
REMARK INTER:                  -5.583
REMARK INTRA:                  -0.078
REMARK UNBOUND:                -0.142
REMARK SMILES CC1=CCC(=C(C)C)C(=O)CC(C)=CCC1
REMARK SMILES IDX 12 1 14 2 13 3 15 4 16 5 2 6 1 7 3 8 11 10 9 11 10 12 5 13
REMARK SMILES IDX 6 14 7 15 8 16 4 17
REMARK H PARENT
REMARK Flexibility Score: 60.00
ROOT
ATOM      1  C   UNL     1      16.116 -17.884 -19.209  1.00  0.00    -0.070 C 
ATOM      2  C   UNL     1      14.981 -17.687 -18.498  1.00  0.00    -0.027 C 
ATOM      3  C   UNL     1      17.409 -17.358 -18.641  1.00  0.00     0.039 C 
ENDROOT
BRANCH   2   4
ATOM      4  C   UNL     1      13.635 -18.269 -18.843  1.00  0.00     0.032 C 
BRANCH   4   5
ATOM      5  C   UNL     1      12.795 -17.230 -19.595  1.00  0.00     0.034 C 
BRANCH   5   6
ATOM      6  C   UNL     1      11.924 -17.854 -20.666  1.00  0.00    -0.077 C 
ATOM      7  C   UNL     1      10.662 -18.566 -20.246  1.00  0.00     0.039 C 
ATOM      8  C   UNL     1      12.252 -17.876 -21.981  1.00  0.00    -0.023 CG0
ATOM      9  G   UNL     1      13.429 -17.187 -22.650  1.00  0.00     0.000 G0
ENDBRANCH   5   6
ENDBRANCH   4   5
ENDBRANCH   2   4
BRANCH   1  10
ATOM     10  C   UNL     1      16.147 -18.587 -20.552  1.00  0.00     0.111 C 
BRANCH  10  11
ATOM     11  C   UNL     1      15.779 -17.657 -21.683  1.00  0.00     0.163 C 
ATOM     12  O   UNL     1      16.383 -16.551 -21.736  1.00  0.00    -0.294 OA
BRANCH  11  13
ATOM     13  C   UNL     1      14.736 -17.970 -22.715  1.00  0.00    -0.002 C 
ATOM     14  C   UNL     1      15.019 -18.806 -23.760  1.00  0.00    -0.069 C 
ATOM     15  C   UNL     1      16.266 -19.661 -23.771  1.00  0.00     0.039 C 
ATOM     16  C   UNL     1      14.083 -18.964 -24.938  1.00  0.00     0.039 C 
BRANCH  13  17
ATOM     17  C   UNL     1      13.426 -17.190 -22.661  1.00  0.00     0.066 CG0
ATOM     18  G   UNL     1      12.257 -17.877 -21.977  1.00  0.00     0.000 G0
ENDBRANCH  13  17
ENDBRANCH  11  13
ENDBRANCH  10  11
ENDBRANCH   1  10
TORSDOF 0
ENDMDL
MODEL 8
REMARK VINA RESULT:    -3.851      2.113      4.029
REMARK INTER + INTRA:          -5.569
REMARK INTER:                  -5.862
REMARK INTRA:                   0.292
REMARK UNBOUND:                -0.142
REMARK SMILES CC1=CCC(=C(C)C)C(=O)CC(C)=CCC1
REMARK SMILES IDX 12 1 14 2 13 3 15 4 16 5 2 6 1 7 3 8 11 10 9 11 10 12 5 13
REMARK SMILES IDX 6 14 7 15 8 16 4 17
REMARK H PARENT
REMARK Flexibility Score: 60.00
ROOT
ATOM      1  C   UNL     1      14.282 -19.603 -22.559  1.00  0.00    -0.070 C 
ATOM      2  C   UNL     1      14.750 -20.456 -21.619  1.00  0.00    -0.027 C 
ATOM      3  C   UNL     1      13.425 -20.166 -23.664  1.00  0.00     0.039 C 
ENDROOT
BRANCH   2   4
ATOM      4  C   UNL     1      15.491 -20.045 -20.373  1.00  0.00     0.032 C 
BRANCH   4   5
ATOM      5  C   UNL     1      14.501 -19.847 -19.219  1.00  0.00     0.034 C 
BRANCH   5   6
ATOM      6  C   UNL     1      14.225 -18.384 -18.939  1.00  0.00    -0.077 C 
ATOM      7  C   UNL     1      15.193 -17.621 -18.068  1.00  0.00     0.039 C 
ATOM      8  C   UNL     1      13.114 -17.734 -19.365  1.00  0.00    -0.023 CG0
ATOM      9  G   UNL     1      12.034 -18.264 -20.291  1.00  0.00     0.000 G0
ENDBRANCH   5   6
ENDBRANCH   4   5
ENDBRANCH   2   4
BRANCH   1  10
ATOM     10  C   UNL     1      14.592 -18.119 -22.566  1.00  0.00     0.111 C 
BRANCH  10  11
ATOM     11  C   UNL     1      13.366 -17.286 -22.275  1.00  0.00     0.163 C 
ATOM     12  O   UNL     1      13.457 -16.043 -22.470  1.00  0.00    -0.294 OA
BRANCH  11  13
ATOM     13  C   UNL     1      12.079 -17.851 -21.752  1.00  0.00    -0.002 C 
ATOM     14  C   UNL     1      10.946 -17.827 -22.521  1.00  0.00    -0.069 C 
ATOM     15  C   UNL     1      11.000 -17.505 -23.996  1.00  0.00     0.039 C 
ATOM     16  C   UNL     1       9.586 -18.169 -21.955  1.00  0.00     0.039 C 
BRANCH  13  17
ATOM     17  C   UNL     1      12.030 -18.279 -20.289  1.00  0.00     0.066 CG0
ATOM     18  G   UNL     1      13.113 -17.717 -19.385  1.00  0.00     0.000 G0
ENDBRANCH  13  17
ENDBRANCH  11  13
ENDBRANCH  10  11
ENDBRANCH   1  10
TORSDOF 0
ENDMDL
MODEL 9
REMARK VINA RESULT:    -3.556      3.498      4.738
REMARK INTER + INTRA:          -5.154
REMARK INTER:                  -5.062
REMARK INTRA:                  -0.092
REMARK UNBOUND:                -0.142
REMARK SMILES CC1=CCC(=C(C)C)C(=O)CC(C)=CCC1
REMARK SMILES IDX 12 1 14 2 13 3 15 4 16 5 2 6 1 7 3 8 11 10 9 11 10 12 5 13
REMARK SMILES IDX 6 14 7 15 8 16 4 17
REMARK H PARENT
REMARK Flexibility Score: 60.00
ROOT
ATOM      1  C   UNL     1      15.325 -21.852 -22.483  1.00  0.00    -0.070 C 
ATOM      2  C   UNL     1      15.006 -21.716 -21.174  1.00  0.00    -0.027 C 
ATOM      3  C   UNL     1      16.302 -22.933 -22.865  1.00  0.00     0.039 C 
ENDROOT
BRANCH   2   4
ATOM      4  C   UNL     1      13.944 -20.792 -20.637  1.00  0.00     0.032 C 
BRANCH   4   5
ATOM      5  C   UNL     1      14.600 -19.597 -19.935  1.00  0.00     0.034 C 
BRANCH   5   6
ATOM      6  C   UNL     1      13.955 -18.279 -20.312  1.00  0.00    -0.077 C 
ATOM      7  C   UNL     1      12.752 -17.814 -19.530  1.00  0.00     0.039 C 
ATOM      8  C   UNL     1      14.353 -17.523 -21.365  1.00  0.00    -0.023 CG0
ATOM      9  G   UNL     1      15.560 -17.748 -22.258  1.00  0.00     0.000 G0
ENDBRANCH   5   6
ENDBRANCH   4   5
ENDBRANCH   2   4
BRANCH   1  10
ATOM     10  C   UNL     1      14.765 -20.961 -23.574  1.00  0.00     0.111 C 
BRANCH  10  11
ATOM     11  C   UNL     1      15.667 -19.784 -23.859  1.00  0.00     0.163 C 
ATOM     12  O   UNL     1      16.824 -20.039 -24.291  1.00  0.00    -0.294 OA
BRANCH  11  13
ATOM     13  C   UNL     1      15.269 -18.355 -23.636  1.00  0.00    -0.002 C 
ATOM     14  C   UNL     1      14.824 -17.586 -24.677  1.00  0.00    -0.069 C 
ATOM     15  C   UNL     1      14.446 -18.199 -26.006  1.00  0.00     0.039 C 
ATOM     16  C   UNL     1      14.636 -16.091 -24.547  1.00  0.00     0.039 C 
BRANCH  13  17
ATOM     17  C   UNL     1      15.548 -17.744 -22.266  1.00  0.00     0.066 CG0
ATOM     18  G   UNL     1      14.345 -17.522 -21.367  1.00  0.00     0.000 G0
ENDBRANCH  13  17
ENDBRANCH  11  13
ENDBRANCH  10  11
ENDBRANCH   1  10
TORSDOF 0
ENDMDL
