MODEL 1
REMARK VINA RESULT:    -3.591      0.000      0.000
REMARK INTER + INTRA:          -7.579
REMARK INTER:                  -6.321
REMARK INTRA:                  -1.258
REMARK UNBOUND:                -1.258
REMARK SMILES CCCCCCCCCCCCCCC(=O)[O-]
REMARK SMILES IDX 9 1 10 2 11 3 12 4 13 5 14 6 15 7 16 8 17 9 8 10 7 11 6 12
REMARK SMILES IDX 5 13 4 14 3 15 2 16 1 17
REMARK H PARENT
REMARK Flexibility Score: inf
ROOT
ATOM      1  C   UNL     1      -1.527   5.664   8.925  1.00  0.00     0.000 C 
ENDROOT
BRANCH   1   2
ATOM      2  C   UNL     1      -2.761   5.678   9.843  1.00  0.00     0.000 C 
BRANCH   2   3
ATOM      3  C   UNL     1      -4.082   5.711   9.054  1.00  0.00     0.000 C 
BRANCH   3   4
ATOM      4  C   UNL     1      -4.794   4.350   9.037  1.00  0.00     0.000 C 
BRANCH   4   5
ATOM      5  C   UNL     1      -4.094   3.304   9.923  1.00  0.00     0.006 C 
BRANCH   5   6
ATOM      6  C   UNL     1      -3.848   1.985   9.177  1.00  0.00     0.053 C 
BRANCH   6   7
ATOM      7  C   UNL     1      -2.402   1.802   8.833  1.00  0.00     0.041 C 
ATOM      8  O   UNL     1      -2.071   1.118   7.829  1.00  0.00    -0.550 OA
ATOM      9  O   UNL     1      -1.419   2.364   9.638  1.00  0.00    -0.550 OA
ENDBRANCH   6   7
ENDBRANCH   5   6
ENDBRANCH   4   5
ENDBRANCH   3   4
ENDBRANCH   2   3
ENDBRANCH   1   2
BRANCH   1  10
ATOM     10  C   UNL     1      -0.230   6.028   9.669  1.00  0.00     0.000 C 
BRANCH  10  11
ATOM     11  C   UNL     1      -0.106   7.545   9.943  1.00  0.00    -0.000 C 
BRANCH  11  12
ATOM     12  C   UNL     1      -0.580   8.425   8.771  1.00  0.00    -0.000 C 
BRANCH  12  13
ATOM     13  C   UNL     1       0.040   9.834   8.738  1.00  0.00    -0.000 C 
BRANCH  13  14
ATOM     14  C   UNL     1       1.572   9.841   8.944  1.00  0.00    -0.000 C 
BRANCH  14  15
ATOM     15  C   UNL     1       2.340   9.458   7.667  1.00  0.00    -0.000 C 
BRANCH  15  16
ATOM     16  C   UNL     1       3.028   8.089   7.780  1.00  0.00    -0.003 C 
ATOM     17  C   UNL     1       3.576   7.814   9.180  1.00  0.00     0.004 C 
ENDBRANCH  15  16
ENDBRANCH  14  15
ENDBRANCH  13  14
ENDBRANCH  12  13
ENDBRANCH  11  12
ENDBRANCH  10  11
ENDBRANCH   1  10
TORSDOF 13
ENDMDL
MODEL 2
REMARK VINA RESULT:    -3.576      3.043      6.977
REMARK INTER + INTRA:          -7.552
REMARK INTER:                  -6.118
REMARK INTRA:                  -1.434
REMARK UNBOUND:                -1.258
REMARK SMILES CCCCCCCCCCCCCCC(=O)[O-]
REMARK SMILES IDX 9 1 10 2 11 3 12 4 13 5 14 6 15 7 16 8 17 9 8 10 7 11 6 12
REMARK SMILES IDX 5 13 4 14 3 15 2 16 1 17
REMARK H PARENT
REMARK Flexibility Score: inf
ROOT
ATOM      1  C   UNL     1      -1.494   3.045   9.364  1.00  0.00     0.000 C 
ENDROOT
BRANCH   1   2
ATOM      2  C   UNL     1      -1.260   4.459   9.922  1.00  0.00     0.000 C 
BRANCH   2   3
ATOM      3  C   UNL     1      -1.127   5.517   8.811  1.00  0.00     0.000 C 
BRANCH   3   4
ATOM      4  C   UNL     1      -0.823   6.918   9.364  1.00  0.00     0.000 C 
BRANCH   4   5
ATOM      5  C   UNL     1       0.631   7.353   9.110  1.00  0.00     0.006 C 
BRANCH   5   6
ATOM      6  C   UNL     1       0.732   8.426   8.017  1.00  0.00     0.053 C 
BRANCH   6   7
ATOM      7  C   UNL     1       1.975   8.269   7.197  1.00  0.00     0.041 C 
ATOM      8  O   UNL     1       1.953   8.509   5.960  1.00  0.00    -0.550 OA
ATOM      9  O   UNL     1       3.151   7.831   7.792  1.00  0.00    -0.550 OA
ENDBRANCH   6   7
ENDBRANCH   5   6
ENDBRANCH   4   5
ENDBRANCH   3   4
ENDBRANCH   2   3
ENDBRANCH   1   2
BRANCH   1  10
ATOM     10  C   UNL     1      -2.674   2.327  10.042  1.00  0.00     0.000 C 
BRANCH  10  11
ATOM     11  C   UNL     1      -3.705   1.783   9.026  1.00  0.00    -0.000 C 
BRANCH  11  12
ATOM     12  C   UNL     1      -5.167   1.961   9.475  1.00  0.00    -0.000 C 
BRANCH  12  13
ATOM     13  C   UNL     1      -5.492   3.349  10.057  1.00  0.00    -0.000 C 
BRANCH  13  14
ATOM     14  C   UNL     1      -5.907   4.387   8.990  1.00  0.00    -0.000 C 
BRANCH  14  15
ATOM     15  C   UNL     1      -4.821   5.449   8.746  1.00  0.00    -0.000 C 
BRANCH  15  16
ATOM     16  C   UNL     1      -4.566   6.326   9.982  1.00  0.00    -0.003 C 
ATOM     17  C   UNL     1      -4.518   7.818   9.651  1.00  0.00     0.004 C 
ENDBRANCH  15  16
ENDBRANCH  14  15
ENDBRANCH  13  14
ENDBRANCH  12  13
ENDBRANCH  11  12
ENDBRANCH  10  11
ENDBRANCH   1  10
TORSDOF 13
ENDMDL
MODEL 3
REMARK VINA RESULT:    -3.438      3.668      6.154
REMARK INTER + INTRA:          -7.309
REMARK INTER:                  -6.182
REMARK INTRA:                  -1.127
REMARK UNBOUND:                -1.258
REMARK SMILES CCCCCCCCCCCCCCC(=O)[O-]
REMARK SMILES IDX 9 1 10 2 11 3 12 4 13 5 14 6 15 7 16 8 17 9 8 10 7 11 6 12
REMARK SMILES IDX 5 13 4 14 3 15 2 16 1 17
REMARK H PARENT
REMARK Flexibility Score: inf
ROOT
ATOM      1  C   UNL     1      -1.916   5.172   9.091  1.00  0.00     0.000 C 
ENDROOT
BRANCH   1   2
ATOM      2  C   UNL     1      -1.297   3.920   9.734  1.00  0.00     0.000 C 
BRANCH   2   3
ATOM      3  C   UNL     1      -1.689   2.625   8.999  1.00  0.00     0.000 C 
BRANCH   3   4
ATOM      4  C   UNL     1      -2.849   1.886   9.684  1.00  0.00     0.000 C 
BRANCH   4   5
ATOM      5  C   UNL     1      -4.221   2.267   9.101  1.00  0.00     0.006 C 
BRANCH   5   6
ATOM      6  C   UNL     1      -5.362   1.450   9.724  1.00  0.00     0.053 C 
BRANCH   6   7
ATOM      7  C   UNL     1      -5.862   0.391   8.790  1.00  0.00     0.041 C 
ATOM      8  O   UNL     1      -5.049  -0.356   8.184  1.00  0.00    -0.550 OA
ATOM      9  O   UNL     1      -7.226   0.250   8.565  1.00  0.00    -0.550 OA
ENDBRANCH   6   7
ENDBRANCH   5   6
ENDBRANCH   4   5
ENDBRANCH   3   4
ENDBRANCH   2   3
ENDBRANCH   1   2
BRANCH   1  10
ATOM     10  C   UNL     1      -2.558   6.114  10.125  1.00  0.00     0.000 C 
BRANCH  10  11
ATOM     11  C   UNL     1      -3.862   6.766   9.609  1.00  0.00    -0.000 C 
BRANCH  11  12
ATOM     12  C   UNL     1      -4.680   5.855   8.674  1.00  0.00    -0.000 C 
BRANCH  12  13
ATOM     13  C   UNL     1      -6.073   5.477   9.209  1.00  0.00    -0.000 C 
BRANCH  13  14
ATOM     14  C   UNL     1      -7.233   5.950   8.303  1.00  0.00    -0.000 C 
BRANCH  14  15
ATOM     15  C   UNL     1      -6.805   7.057   7.325  1.00  0.00    -0.000 C 
BRANCH  15  16
ATOM     16  C   UNL     1      -7.676   7.096   6.060  1.00  0.00    -0.003 C 
ATOM     17  C   UNL     1      -7.701   8.474   5.398  1.00  0.00     0.004 C 
ENDBRANCH  15  16
ENDBRANCH  14  15
ENDBRANCH  13  14
ENDBRANCH  12  13
ENDBRANCH  11  12
ENDBRANCH  10  11
ENDBRANCH   1  10
TORSDOF 13
ENDMDL
MODEL 4
REMARK VINA RESULT:    -3.429      3.093      6.585
REMARK INTER + INTRA:          -7.292
REMARK INTER:                  -5.900
REMARK INTRA:                  -1.392
REMARK UNBOUND:                -1.258
REMARK SMILES CCCCCCCCCCCCCCC(=O)[O-]
REMARK SMILES IDX 9 1 10 2 11 3 12 4 13 5 14 6 15 7 16 8 17 9 8 10 7 11 6 12
REMARK SMILES IDX 5 13 4 14 3 15 2 16 1 17
REMARK H PARENT
REMARK Flexibility Score: inf
ROOT
ATOM      1  C   UNL     1      -1.487   3.089   9.350  1.00  0.00     0.000 C 
ENDROOT
BRANCH   1   2
ATOM      2  C   UNL     1      -0.954   4.393   9.969  1.00  0.00     0.000 C 
BRANCH   2   3
ATOM      3  C   UNL     1      -0.989   5.572   8.981  1.00  0.00     0.000 C 
BRANCH   3   4
ATOM      4  C   UNL     1      -1.404   6.891   9.651  1.00  0.00     0.000 C 
BRANCH   4   5
ATOM      5  C   UNL     1      -0.550   8.085   9.190  1.00  0.00     0.006 C 
BRANCH   5   6
ATOM      6  C   UNL     1       0.025   7.875   7.782  1.00  0.00     0.053 C 
BRANCH   6   7
ATOM      7  C   UNL     1       1.400   8.455   7.651  1.00  0.00     0.041 C 
ATOM      8  O   UNL     1       1.922   9.073   8.616  1.00  0.00    -0.550 OA
ATOM      9  O   UNL     1       2.094   8.337   6.453  1.00  0.00    -0.550 OA
ENDBRANCH   6   7
ENDBRANCH   5   6
ENDBRANCH   4   5
ENDBRANCH   3   4
ENDBRANCH   2   3
ENDBRANCH   1   2
BRANCH   1  10
ATOM     10  C   UNL     1      -2.763   2.582  10.043  1.00  0.00     0.000 C 
BRANCH  10  11
ATOM     11  C   UNL     1      -4.051   2.971   9.281  1.00  0.00    -0.000 C 
BRANCH  11  12
ATOM     12  C   UNL     1      -4.631   4.334   9.704  1.00  0.00    -0.000 C 
BRANCH  12  13
ATOM     13  C   UNL     1      -4.645   5.396   8.589  1.00  0.00    -0.000 C 
BRANCH  13  14
ATOM     14  C   UNL     1      -6.035   6.031   8.357  1.00  0.00    -0.000 C 
BRANCH  14  15
ATOM     15  C   UNL     1      -6.040   7.548   8.609  1.00  0.00    -0.000 C 
BRANCH  15  16
ATOM     16  C   UNL     1      -4.989   7.979   9.643  1.00  0.00    -0.003 C 
ATOM     17  C   UNL     1      -4.370   9.341   9.328  1.00  0.00     0.004 C 
ENDBRANCH  15  16
ENDBRANCH  14  15
ENDBRANCH  13  14
ENDBRANCH  12  13
ENDBRANCH  11  12
ENDBRANCH  10  11
ENDBRANCH   1  10
TORSDOF 13
ENDMDL
MODEL 5
REMARK VINA RESULT:    -3.422      1.777      2.101
REMARK INTER + INTRA:          -7.281
REMARK INTER:                  -6.334
REMARK INTRA:                  -0.947
REMARK UNBOUND:                -1.258
REMARK SMILES CCCCCCCCCCCCCCC(=O)[O-]
REMARK SMILES IDX 9 1 10 2 11 3 12 4 13 5 14 6 15 7 16 8 17 9 8 10 7 11 6 12
REMARK SMILES IDX 5 13 4 14 3 15 2 16 1 17
REMARK H PARENT
REMARK Flexibility Score: inf
ROOT
ATOM      1  C   UNL     1      -1.599   4.998   9.097  1.00  0.00     0.000 C 
ENDROOT
BRANCH   1   2
ATOM      2  C   UNL     1      -2.895   4.861   9.914  1.00  0.00     0.000 C 
BRANCH   2   3
ATOM      3  C   UNL     1      -4.157   4.967   9.039  1.00  0.00     0.000 C 
BRANCH   3   4
ATOM      4  C   UNL     1      -5.036   3.709   9.118  1.00  0.00     0.000 C 
BRANCH   4   5
ATOM      5  C   UNL     1      -4.223   2.435   9.413  1.00  0.00     0.006 C 
BRANCH   5   6
ATOM      6  C   UNL     1      -5.100   1.306   9.972  1.00  0.00     0.053 C 
BRANCH   6   7
ATOM      7  C   UNL     1      -5.768   0.528   8.881  1.00  0.00     0.041 C 
ATOM      8  O   UNL     1      -7.002   0.662   8.670  1.00  0.00    -0.550 OA
ATOM      9  O   UNL     1      -5.032  -0.368   8.115  1.00  0.00    -0.550 OA
ENDBRANCH   6   7
ENDBRANCH   5   6
ENDBRANCH   4   5
ENDBRANCH   3   4
ENDBRANCH   2   3
ENDBRANCH   1   2
BRANCH   1  10
ATOM     10  C   UNL     1      -0.351   5.149   9.984  1.00  0.00     0.000 C 
BRANCH  10  11
ATOM     11  C   UNL     1       0.446   6.438   9.677  1.00  0.00    -0.000 C 
BRANCH  11  12
ATOM     12  C   UNL     1      -0.031   7.172   8.410  1.00  0.00    -0.000 C 
BRANCH  12  13
ATOM     13  C   UNL     1      -0.056   8.706   8.532  1.00  0.00    -0.000 C 
BRANCH  13  14
ATOM     14  C   UNL     1       1.314   9.371   8.268  1.00  0.00    -0.000 C 
BRANCH  14  15
ATOM     15  C   UNL     1       2.145   8.613   7.219  1.00  0.00    -0.000 C 
BRANCH  15  16
ATOM     16  C   UNL     1       3.617   8.455   7.634  1.00  0.00    -0.003 C 
ATOM     17  C   UNL     1       3.781   8.076   9.105  1.00  0.00     0.004 C 
ENDBRANCH  15  16
ENDBRANCH  14  15
ENDBRANCH  13  14
ENDBRANCH  12  13
ENDBRANCH  11  12
ENDBRANCH  10  11
ENDBRANCH   1  10
TORSDOF 13
ENDMDL
MODEL 6
REMARK VINA RESULT:    -3.415      2.734      3.443
REMARK INTER + INTRA:          -7.268
REMARK INTER:                  -6.635
REMARK INTRA:                  -0.633
REMARK UNBOUND:                -1.258
REMARK SMILES CCCCCCCCCCCCCCC(=O)[O-]
REMARK SMILES IDX 9 1 10 2 11 3 12 4 13 5 14 6 15 7 16 8 17 9 8 10 7 11 6 12
REMARK SMILES IDX 5 13 4 14 3 15 2 16 1 17
REMARK H PARENT
REMARK Flexibility Score: inf
ROOT
ATOM      1  C   UNL     1      -1.507   3.988   9.319  1.00  0.00     0.000 C 
ENDROOT
BRANCH   1   2
ATOM      2  C   UNL     1      -2.005   2.561   9.605  1.00  0.00     0.000 C 
BRANCH   2   3
ATOM      3  C   UNL     1      -3.541   2.470   9.642  1.00  0.00     0.000 C 
BRANCH   3   4
ATOM      4  C   UNL     1      -4.071   1.177   9.003  1.00  0.00     0.000 C 
BRANCH   4   5
ATOM      5  C   UNL     1      -5.261   0.579   9.773  1.00  0.00     0.006 C 
BRANCH   5   6
ATOM      6  C   UNL     1      -6.565   1.345   9.511  1.00  0.00     0.053 C 
BRANCH   6   7
ATOM      7  C   UNL     1      -7.676   0.429   9.100  1.00  0.00     0.041 C 
ATOM      8  O   UNL     1      -8.078  -0.472   9.884  1.00  0.00    -0.550 OA
ATOM      9  O   UNL     1      -8.248   0.550   7.840  1.00  0.00    -0.550 OA
ENDBRANCH   6   7
ENDBRANCH   5   6
ENDBRANCH   4   5
ENDBRANCH   3   4
ENDBRANCH   2   3
ENDBRANCH   1   2
BRANCH   1  10
ATOM     10  C   UNL     1      -0.219   4.332  10.087  1.00  0.00     0.000 C 
BRANCH  10  11
ATOM     11  C   UNL     1       0.197   5.813   9.920  1.00  0.00    -0.000 C 
BRANCH  11  12
ATOM     12  C   UNL     1      -0.716   6.607   8.967  1.00  0.00    -0.000 C 
BRANCH  12  13
ATOM     13  C   UNL     1      -0.821   8.109   9.288  1.00  0.00    -0.000 C 
BRANCH  13  14
ATOM     14  C   UNL     1       0.074   8.997   8.394  1.00  0.00    -0.000 C 
BRANCH  14  15
ATOM     15  C   UNL     1       0.806   8.193   7.307  1.00  0.00    -0.000 C 
BRANCH  15  16
ATOM     16  C   UNL     1       2.267   8.634   7.128  1.00  0.00    -0.003 C 
ATOM     17  C   UNL     1       3.255   7.729   7.863  1.00  0.00     0.004 C 
ENDBRANCH  15  16
ENDBRANCH  14  15
ENDBRANCH  13  14
ENDBRANCH  12  13
ENDBRANCH  11  12
ENDBRANCH  10  11
ENDBRANCH   1  10
TORSDOF 13
ENDMDL
MODEL 7
REMARK VINA RESULT:    -3.373      3.082      6.924
REMARK INTER + INTRA:          -7.195
REMARK INTER:                  -5.966
REMARK INTRA:                  -1.229
REMARK UNBOUND:                -1.258
REMARK SMILES CCCCCCCCCCCCCCC(=O)[O-]
REMARK SMILES IDX 9 1 10 2 11 3 12 4 13 5 14 6 15 7 16 8 17 9 8 10 7 11 6 12
REMARK SMILES IDX 5 13 4 14 3 15 2 16 1 17
REMARK H PARENT
REMARK Flexibility Score: inf
ROOT
ATOM      1  C   UNL     1      -4.578   2.199  10.066  1.00  0.00     0.000 C 
ENDROOT
BRANCH   1   2
ATOM      2  C   UNL     1      -3.693   1.556   8.985  1.00  0.00     0.000 C 
BRANCH   2   3
ATOM      3  C   UNL     1      -2.245   2.077   9.022  1.00  0.00     0.000 C 
BRANCH   3   4
ATOM      4  C   UNL     1      -2.023   3.124  10.125  1.00  0.00     0.000 C 
BRANCH   4   5
ATOM      5  C   UNL     1      -0.879   4.099   9.795  1.00  0.00     0.006 C 
BRANCH   5   6
ATOM      6  C   UNL     1      -1.381   5.355   9.068  1.00  0.00     0.053 C 
BRANCH   6   7
ATOM      7  C   UNL     1      -0.360   6.451   9.083  1.00  0.00     0.041 C 
ATOM      8  O   UNL     1      -0.662   7.604   8.675  1.00  0.00    -0.550 OA
ATOM      9  O   UNL     1       0.932   6.192   9.521  1.00  0.00    -0.550 OA
ENDBRANCH   6   7
ENDBRANCH   5   6
ENDBRANCH   4   5
ENDBRANCH   3   4
ENDBRANCH   2   3
ENDBRANCH   1   2
BRANCH   1  10
ATOM     10  C   UNL     1      -5.712   3.053   9.474  1.00  0.00     0.000 C 
BRANCH  10  11
ATOM     11  C   UNL     1      -5.497   4.568   9.701  1.00  0.00    -0.000 C 
BRANCH  11  12
ATOM     12  C   UNL     1      -5.069   5.328   8.431  1.00  0.00    -0.000 C 
BRANCH  12  13
ATOM     13  C   UNL     1      -5.968   6.526   8.071  1.00  0.00    -0.000 C 
BRANCH  13  14
ATOM     14  C   UNL     1      -7.479   6.229   8.208  1.00  0.00    -0.000 C 
BRANCH  14  15
ATOM     15  C   UNL     1      -8.289   6.723   6.998  1.00  0.00    -0.000 C 
BRANCH  15  16
ATOM     16  C   UNL     1      -7.396   7.135   5.817  1.00  0.00    -0.003 C 
ATOM     17  C   UNL     1      -7.732   8.525   5.276  1.00  0.00     0.004 C 
ENDBRANCH  15  16
ENDBRANCH  14  15
ENDBRANCH  13  14
ENDBRANCH  12  13
ENDBRANCH  11  12
ENDBRANCH  10  11
ENDBRANCH   1  10
TORSDOF 13
ENDMDL
MODEL 8
REMARK VINA RESULT:    -3.358      3.704      7.471
REMARK INTER + INTRA:          -7.167
REMARK INTER:                  -6.311
REMARK INTRA:                  -0.856
REMARK UNBOUND:                -1.258
REMARK SMILES CCCCCCCCCCCCCCC(=O)[O-]
REMARK SMILES IDX 9 1 10 2 11 3 12 4 13 5 14 6 15 7 16 8 17 9 8 10 7 11 6 12
REMARK SMILES IDX 5 13 4 14 3 15 2 16 1 17
REMARK H PARENT
REMARK Flexibility Score: inf
ROOT
ATOM      1  C   UNL     1      -1.918   5.543   8.997  1.00  0.00     0.000 C 
ENDROOT
BRANCH   1   2
ATOM      2  C   UNL     1      -0.851   6.645   9.110  1.00  0.00     0.000 C 
BRANCH   2   3
ATOM      3  C   UNL     1      -1.459   8.059   9.075  1.00  0.00     0.000 C 
BRANCH   3   4
ATOM      4  C   UNL     1      -0.388   9.160   9.021  1.00  0.00     0.000 C 
BRANCH   4   5
ATOM      5  C   UNL     1       1.031   8.620   9.272  1.00  0.00     0.006 C 
BRANCH   5   6
ATOM      6  C   UNL     1       2.067   9.257   8.336  1.00  0.00     0.053 C 
BRANCH   6   7
ATOM      7  C   UNL     1       2.383   8.371   7.170  1.00  0.00     0.041 C 
ATOM      8  O   UNL     1       3.432   7.675   7.168  1.00  0.00    -0.550 OA
ATOM      9  O   UNL     1       1.532   8.337   6.072  1.00  0.00    -0.550 OA
ENDBRANCH   6   7
ENDBRANCH   5   6
ENDBRANCH   4   5
ENDBRANCH   3   4
ENDBRANCH   2   3
ENDBRANCH   1   2
BRANCH   1  10
ATOM     10  C   UNL     1      -3.299   6.001   9.497  1.00  0.00     0.000 C 
BRANCH  10  11
ATOM     11  C   UNL     1      -4.462   5.365   8.700  1.00  0.00    -0.000 C 
BRANCH  11  12
ATOM     12  C   UNL     1      -5.817   6.065   8.920  1.00  0.00    -0.000 C 
BRANCH  12  13
ATOM     13  C   UNL     1      -5.764   7.601   8.832  1.00  0.00    -0.000 C 
BRANCH  13  14
ATOM     14  C   UNL     1      -6.605   8.183   7.672  1.00  0.00    -0.000 C 
BRANCH  14  15
ATOM     15  C   UNL     1      -7.087   7.100   6.691  1.00  0.00    -0.000 C 
BRANCH  15  16
ATOM     16  C   UNL     1      -8.070   7.647   5.645  1.00  0.00    -0.003 C 
ATOM     17  C   UNL     1      -7.684   9.037   5.137  1.00  0.00     0.004 C 
ENDBRANCH  15  16
ENDBRANCH  14  15
ENDBRANCH  13  14
ENDBRANCH  12  13
ENDBRANCH  11  12
ENDBRANCH  10  11
ENDBRANCH   1  10
TORSDOF 13
ENDMDL
MODEL 9
REMARK VINA RESULT:    -3.308      2.452      3.576
REMARK INTER + INTRA:          -7.081
REMARK INTER:                  -6.137
REMARK INTRA:                  -0.943
REMARK UNBOUND:                -1.258
REMARK SMILES CCCCCCCCCCCCCCC(=O)[O-]
REMARK SMILES IDX 9 1 10 2 11 3 12 4 13 5 14 6 15 7 16 8 17 9 8 10 7 11 6 12
REMARK SMILES IDX 5 13 4 14 3 15 2 16 1 17
REMARK H PARENT
REMARK Flexibility Score: inf
ROOT
ATOM      1  C   UNL     1      -1.871   2.366   9.082  1.00  0.00     0.000 C 
ENDROOT
BRANCH   1   2
ATOM      2  C   UNL     1      -3.143   1.939   9.833  1.00  0.00     0.000 C 
BRANCH   2   3
ATOM      3  C   UNL     1      -4.429   2.305   9.071  1.00  0.00     0.000 C 
BRANCH   3   4
ATOM      4  C   UNL     1      -5.549   2.790  10.003  1.00  0.00     0.000 C 
BRANCH   4   5
ATOM      5  C   UNL     1      -6.106   4.166   9.596  1.00  0.00     0.006 C 
BRANCH   5   6
ATOM      6  C   UNL     1      -5.120   4.954   8.723  1.00  0.00     0.053 C 
BRANCH   6   7
ATOM      7  C   UNL     1      -5.314   6.433   8.862  1.00  0.00     0.041 C 
ATOM      8  O   UNL     1      -6.327   6.989   8.361  1.00  0.00    -0.550 OA
ATOM      9  O   UNL     1      -4.361   7.201   9.518  1.00  0.00    -0.550 OA
ENDBRANCH   6   7
ENDBRANCH   5   6
ENDBRANCH   4   5
ENDBRANCH   3   4
ENDBRANCH   2   3
ENDBRANCH   1   2
BRANCH   1  10
ATOM     10  C   UNL     1      -1.155   3.550   9.753  1.00  0.00     0.000 C 
BRANCH  10  11
ATOM     11  C   UNL     1      -1.448   4.899   9.055  1.00  0.00    -0.000 C 
BRANCH  11  12
ATOM     12  C   UNL     1      -0.425   6.001   9.385  1.00  0.00    -0.000 C 
BRANCH  12  13
ATOM     13  C   UNL     1      -0.885   7.427   9.029  1.00  0.00    -0.000 C 
BRANCH  13  14
ATOM     14  C   UNL     1       0.271   8.364   8.610  1.00  0.00    -0.000 C 
BRANCH  14  15
ATOM     15  C   UNL     1       0.735   8.119   7.165  1.00  0.00    -0.000 C 
BRANCH  15  16
ATOM     16  C   UNL     1       2.182   8.577   6.923  1.00  0.00    -0.003 C 
ATOM     17  C   UNL     1       2.607   9.715   7.851  1.00  0.00     0.004 C 
ENDBRANCH  15  16
ENDBRANCH  14  15
ENDBRANCH  13  14
ENDBRANCH  12  13
ENDBRANCH  11  12
ENDBRANCH  10  11
ENDBRANCH   1  10
TORSDOF 13
ENDMDL
