MODEL 1
REMARK VINA RESULT:    -5.118      0.000      0.000
REMARK INTER + INTRA:          -7.251
REMARK INTER:                  -6.763
REMARK INTRA:                  -0.488
REMARK UNBOUND:                -0.488
REMARK SMILES CC[C@@H](C=C[C@@H](C)[C@@H]1CC[C@H]2[C@H]3CC=C4C[C@@H](O)CC[C@@]4(C)[C@@H]3CC[C@]21C)C(C)C
REMARK SMILES IDX 6 1 7 2 5 3 4 4 3 5 2 6 1 7 28 8 29 9 30 10 8 11 9 12 26 13
REMARK SMILES IDX 10 14 11 15 25 16 27 17 12 18 24 19 23 20 13 21 21 22 14 23
REMARK SMILES IDX 15 24 20 25 22 26 16 27 19 28 17 29 18 30
REMARK H PARENT 18 31
REMARK Flexibility Score: inf
ROOT
ATOM      1  C   UNL     1     -29.864   0.964  28.757  1.00  0.00     0.012 C 
ATOM      2  C   UNL     1     -30.417   2.254  28.118  1.00  0.00     0.012 C 
ENDROOT
BRANCH   1   3
ATOM      3  C   UNL     1     -29.165   1.164  30.096  1.00  0.00    -0.028 C 
ATOM      4  C   UNL     1     -29.722   1.737  31.183  1.00  0.00    -0.027 C 
BRANCH   4   5
ATOM      5  C   UNL     1     -29.031   1.811  32.536  1.00  0.00     0.014 C 
BRANCH   5   6
ATOM      6  C   UNL     1     -30.023   1.578  33.710  1.00  0.00     0.004 C 
ATOM      7  C   UNL     1     -31.458   1.219  33.309  1.00  0.00     0.004 C 
ENDBRANCH   5   6
BRANCH   5   8
ATOM      8  C   UNL     1     -28.114   3.074  32.665  1.00  0.00    -0.011 C 
ATOM      9  C   UNL     1     -26.638   2.663  32.846  1.00  0.00     0.008 C 
ATOM     10  C   UNL     1     -28.527   3.971  33.847  1.00  0.00     0.008 C 
ENDBRANCH   5   8
ENDBRANCH   4   5
ENDBRANCH   1   3
BRANCH   1  11
ATOM     11  C   UNL     1     -29.158  -0.026  27.756  1.00  0.00     0.002 C 
ATOM     12  C   UNL     1     -27.761   0.506  27.357  1.00  0.00     0.005 C 
ATOM     13  C   UNL     1     -29.828  -0.391  26.385  1.00  0.00    -0.026 C 
ATOM     14  C   UNL     1     -27.826   0.895  25.877  1.00  0.00     0.005 C 
ATOM     15  C   UNL     1     -29.282   0.683  25.429  1.00  0.00    -0.001 C 
ATOM     16  C   UNL     1     -29.310  -1.801  25.947  1.00  0.00     0.007 C 
ATOM     17  C   UNL     1     -31.371  -0.408  26.411  1.00  0.00     0.012 C 
ATOM     18  C   UNL     1     -29.490   0.357  23.917  1.00  0.00     0.000 C 
ATOM     19  C   UNL     1     -29.590  -2.133  24.478  1.00  0.00     0.005 C 
ATOM     20  C   UNL     1     -29.019  -1.063  23.511  1.00  0.00     0.003 C 
ATOM     21  C   UNL     1     -28.817   1.419  23.030  1.00  0.00     0.031 C 
ATOM     22  C   UNL     1     -29.334  -1.370  21.989  1.00  0.00    -0.008 C 
ATOM     23  C   UNL     1     -28.878   1.086  21.570  1.00  0.00    -0.027 C 
ATOM     24  C   UNL     1     -28.960  -0.175  21.096  1.00  0.00    -0.065 C 
ATOM     25  C   UNL     1     -28.491  -2.606  21.540  1.00  0.00     0.014 C 
ATOM     26  C   UNL     1     -30.844  -1.675  21.765  1.00  0.00     0.016 C 
ATOM     27  C   UNL     1     -28.874  -0.382  19.595  1.00  0.00     0.063 C 
ATOM     28  C   UNL     1     -28.503  -2.843  20.020  1.00  0.00     0.033 C 
ATOM     29  C   UNL     1     -28.015  -1.607  19.253  1.00  0.00     0.118 C 
BRANCH  29  30
ATOM     30  O   UNL     1     -26.661  -1.373  19.556  1.00  0.00    -0.393 OA
ATOM     31  H   UNL     1     -26.125  -1.683  18.784  1.00  0.00     0.210 HD
ENDBRANCH  29  30
ENDBRANCH   1  11
TORSDOF 6
ENDMDL
MODEL 2
REMARK VINA RESULT:    -4.661      3.495     11.313
REMARK INTER + INTRA:          -6.648
REMARK INTER:                  -5.912
REMARK INTRA:                  -0.736
REMARK UNBOUND:                -0.488
REMARK SMILES CC[C@@H](C=C[C@@H](C)[C@@H]1CC[C@H]2[C@H]3CC=C4C[C@@H](O)CC[C@@]4(C)[C@@H]3CC[C@]21C)C(C)C
REMARK SMILES IDX 6 1 7 2 5 3 4 4 3 5 2 6 1 7 28 8 29 9 30 10 8 11 9 12 26 13
REMARK SMILES IDX 10 14 11 15 25 16 27 17 12 18 24 19 23 20 13 21 21 22 14 23
REMARK SMILES IDX 15 24 20 25 22 26 16 27 19 28 17 29 18 30
REMARK H PARENT 18 31
REMARK Flexibility Score: inf
ROOT
ATOM      1  C   UNL     1     -28.202  -2.112  18.173  1.00  0.00     0.012 C 
ATOM      2  C   UNL     1     -28.618  -0.679  17.785  1.00  0.00     0.012 C 
ENDROOT
BRANCH   1   3
ATOM      3  C   UNL     1     -28.438  -3.160  17.093  1.00  0.00    -0.028 C 
ATOM      4  C   UNL     1     -28.161  -2.999  15.783  1.00  0.00    -0.027 C 
BRANCH   4   5
ATOM      5  C   UNL     1     -28.302  -4.112  14.756  1.00  0.00     0.014 C 
BRANCH   5   6
ATOM      6  C   UNL     1     -27.028  -4.256  13.875  1.00  0.00     0.004 C 
ATOM      7  C   UNL     1     -25.727  -3.734  14.494  1.00  0.00     0.004 C 
ENDBRANCH   5   6
BRANCH   5   8
ATOM      8  C   UNL     1     -29.658  -4.032  13.978  1.00  0.00    -0.011 C 
ATOM      9  C   UNL     1     -30.148  -2.573  13.881  1.00  0.00     0.008 C 
ATOM     10  C   UNL     1     -30.758  -4.881  14.643  1.00  0.00     0.008 C 
ENDBRANCH   5   8
ENDBRANCH   4   5
ENDBRANCH   1   3
BRANCH   1  11
ATOM     11  C   UNL     1     -28.581  -2.541  19.641  1.00  0.00     0.002 C 
ATOM     12  C   UNL     1     -30.112  -2.469  19.852  1.00  0.00     0.005 C 
ATOM     13  C   UNL     1     -27.993  -1.775  20.876  1.00  0.00    -0.026 C 
ATOM     14  C   UNL     1     -30.383  -1.324  20.833  1.00  0.00     0.005 C 
ATOM     15  C   UNL     1     -29.027  -0.662  21.125  1.00  0.00    -0.001 C 
ATOM     16  C   UNL     1     -27.968  -2.755  22.096  1.00  0.00     0.007 C 
ATOM     17  C   UNL     1     -26.575  -1.205  20.661  1.00  0.00     0.012 C 
ATOM     18  C   UNL     1     -28.892   0.033  22.515  1.00  0.00     0.000 C 
ATOM     19  C   UNL     1     -27.760  -2.059  23.444  1.00  0.00     0.005 C 
ATOM     20  C   UNL     1     -28.816  -0.954  23.707  1.00  0.00     0.003 C 
ATOM     21  C   UNL     1     -30.028   1.048  22.732  1.00  0.00     0.031 C 
ATOM     22  C   UNL     1     -28.593  -0.197  25.081  1.00  0.00    -0.008 C 
ATOM     23  C   UNL     1     -30.019   1.654  24.103  1.00  0.00    -0.027 C 
ATOM     24  C   UNL     1     -29.509   1.034  25.188  1.00  0.00    -0.065 C 
ATOM     25  C   UNL     1     -28.934  -1.171  26.253  1.00  0.00     0.014 C 
ATOM     26  C   UNL     1     -27.123   0.291  25.236  1.00  0.00     0.016 C 
ATOM     27  C   UNL     1     -29.689   1.697  26.541  1.00  0.00     0.063 C 
ATOM     28  C   UNL     1     -29.015  -0.480  27.627  1.00  0.00     0.033 C 
ATOM     29  C   UNL     1     -30.035   0.665  27.623  1.00  0.00     0.118 C 
BRANCH  29  30
ATOM     30  O   UNL     1     -31.325   0.141  27.422  1.00  0.00    -0.393 OA
ATOM     31  H   UNL     1     -31.560   0.281  26.471  1.00  0.00     0.210 HD
ENDBRANCH  29  30
ENDBRANCH   1  11
TORSDOF 6
ENDMDL
MODEL 3
REMARK VINA RESULT:    -4.551      1.298      3.042
REMARK INTER + INTRA:          -6.503
REMARK INTER:                  -5.968
REMARK INTRA:                  -0.535
REMARK UNBOUND:                -0.488
REMARK SMILES CC[C@@H](C=C[C@@H](C)[C@@H]1CC[C@H]2[C@H]3CC=C4C[C@@H](O)CC[C@@]4(C)[C@@H]3CC[C@]21C)C(C)C
REMARK SMILES IDX 6 1 7 2 5 3 4 4 3 5 2 6 1 7 28 8 29 9 30 10 8 11 9 12 26 13
REMARK SMILES IDX 10 14 11 15 25 16 27 17 12 18 24 19 23 20 13 21 21 22 14 23
REMARK SMILES IDX 15 24 20 25 22 26 16 27 19 28 17 29 18 30
REMARK H PARENT 18 31
REMARK Flexibility Score: inf
ROOT
ATOM      1  C   UNL     1     -29.097   0.797  28.746  1.00  0.00     0.012 C 
ATOM      2  C   UNL     1     -28.622  -0.643  29.029  1.00  0.00     0.012 C 
ENDROOT
BRANCH   1   3
ATOM      3  C   UNL     1     -29.966   1.409  29.838  1.00  0.00    -0.028 C 
ATOM      4  C   UNL     1     -29.511   1.883  31.016  1.00  0.00    -0.027 C 
BRANCH   4   5
ATOM      5  C   UNL     1     -30.395   2.593  32.029  1.00  0.00     0.014 C 
BRANCH   5   6
ATOM      6  C   UNL     1     -29.579   3.546  32.947  1.00  0.00     0.004 C 
ATOM      7  C   UNL     1     -28.054   3.434  32.838  1.00  0.00     0.004 C 
ENDBRANCH   5   6
BRANCH   5   8
ATOM      8  C   UNL     1     -31.363   1.607  32.766  1.00  0.00    -0.011 C 
ATOM      9  C   UNL     1     -32.742   2.260  32.993  1.00  0.00     0.008 C 
ATOM     10  C   UNL     1     -30.800   1.151  34.125  1.00  0.00     0.008 C 
ENDBRANCH   5   8
ENDBRANCH   4   5
ENDBRANCH   1   3
BRANCH   1  11
ATOM     11  C   UNL     1     -29.565   1.065  27.266  1.00  0.00     0.002 C 
ATOM     12  C   UNL     1     -30.914   0.360  26.984  1.00  0.00     0.005 C 
ATOM     13  C   UNL     1     -28.662   0.649  26.053  1.00  0.00    -0.026 C 
ATOM     14  C   UNL     1     -30.639  -0.766  25.984  1.00  0.00     0.005 C 
ATOM     15  C   UNL     1     -29.119  -0.788  25.749  1.00  0.00    -0.001 C 
ATOM     16  C   UNL     1     -29.005   1.581  24.843  1.00  0.00     0.007 C 
ATOM     17  C   UNL     1     -27.145   0.723  26.329  1.00  0.00     0.012 C 
ATOM     18  C   UNL     1     -28.651  -1.326  24.361  1.00  0.00     0.000 C 
ATOM     19  C   UNL     1     -28.472   1.072  23.501  1.00  0.00     0.005 C 
ATOM     20  C   UNL     1     -28.952  -0.368  23.182  1.00  0.00     0.003 C 
ATOM     21  C   UNL     1     -29.244  -2.719  24.086  1.00  0.00     0.031 C 
ATOM     22  C   UNL     1     -28.379  -0.925  21.813  1.00  0.00    -0.008 C 
ATOM     23  C   UNL     1     -28.928  -3.228  22.712  1.00  0.00    -0.027 C 
ATOM     24  C   UNL     1     -28.685  -2.424  21.656  1.00  0.00    -0.065 C 
ATOM     25  C   UNL     1     -29.053  -0.155  20.634  1.00  0.00     0.014 C 
ATOM     26  C   UNL     1     -26.835  -0.745  21.723  1.00  0.00     0.016 C 
ATOM     27  C   UNL     1     -28.516  -3.065  20.291  1.00  0.00     0.063 C 
ATOM     28  C   UNL     1     -28.782  -0.779  19.254  1.00  0.00     0.033 C 
ATOM     29  C   UNL     1     -29.224  -2.247  19.202  1.00  0.00     0.118 C 
BRANCH  29  30
ATOM     30  O   UNL     1     -30.621  -2.320  19.347  1.00  0.00    -0.393 OA
ATOM     31  H   UNL     1     -31.025  -1.809  18.601  1.00  0.00     0.210 HD
ENDBRANCH  29  30
ENDBRANCH   1  11
TORSDOF 6
ENDMDL
MODEL 4
REMARK VINA RESULT:    -3.924      3.413     11.275
REMARK INTER + INTRA:          -5.674
REMARK INTER:                  -5.239
REMARK INTRA:                  -0.435
REMARK UNBOUND:                -0.488
REMARK SMILES CC[C@@H](C=C[C@@H](C)[C@@H]1CC[C@H]2[C@H]3CC=C4C[C@@H](O)CC[C@@]4(C)[C@@H]3CC[C@]21C)C(C)C
REMARK SMILES IDX 6 1 7 2 5 3 4 4 3 5 2 6 1 7 28 8 29 9 30 10 8 11 9 12 26 13
REMARK SMILES IDX 10 14 11 15 25 16 27 17 12 18 24 19 23 20 13 21 21 22 14 23
REMARK SMILES IDX 15 24 20 25 22 26 16 27 19 28 17 29 18 30
REMARK H PARENT 18 31
REMARK Flexibility Score: inf
ROOT
ATOM      1  C   UNL     1     -28.945  -2.311  18.010  1.00  0.00     0.012 C 
ATOM      2  C   UNL     1     -28.845  -3.740  18.581  1.00  0.00     0.012 C 
ENDROOT
BRANCH   1   3
ATOM      3  C   UNL     1     -28.236  -2.104  16.677  1.00  0.00    -0.028 C 
ATOM      4  C   UNL     1     -27.331  -2.948  16.142  1.00  0.00    -0.027 C 
BRANCH   4   5
ATOM      5  C   UNL     1     -26.734  -2.764  14.755  1.00  0.00     0.014 C 
BRANCH   5   6
ATOM      6  C   UNL     1     -27.207  -1.441  14.089  1.00  0.00     0.004 C 
ATOM      7  C   UNL     1     -26.547  -0.159  14.609  1.00  0.00     0.004 C 
ENDBRANCH   5   6
BRANCH   5   8
ATOM      8  C   UNL     1     -26.870  -4.052  13.875  1.00  0.00    -0.011 C 
ATOM      9  C   UNL     1     -28.118  -4.863  14.281  1.00  0.00     0.008 C 
ATOM     10  C   UNL     1     -25.631  -4.961  13.985  1.00  0.00     0.008 C 
ENDBRANCH   5   8
ENDBRANCH   4   5
ENDBRANCH   1   3
BRANCH   1  11
ATOM     11  C   UNL     1     -28.769  -1.157  19.067  1.00  0.00     0.002 C 
ATOM     12  C   UNL     1     -27.287  -1.033  19.496  1.00  0.00     0.005 C 
ATOM     13  C   UNL     1     -29.554  -1.188  20.425  1.00  0.00    -0.026 C 
ATOM     14  C   UNL     1     -27.198  -1.477  20.960  1.00  0.00     0.005 C 
ATOM     15  C   UNL     1     -28.603  -1.952  21.364  1.00  0.00    -0.001 C 
ATOM     16  C   UNL     1     -29.723   0.284  20.928  1.00  0.00     0.007 C 
ATOM     17  C   UNL     1     -30.943  -1.855  20.346  1.00  0.00     0.012 C 
ATOM     18  C   UNL     1     -28.960  -1.820  22.877  1.00  0.00     0.000 C 
ATOM     19  C   UNL     1     -30.146   0.391  22.396  1.00  0.00     0.005 C 
ATOM     20  C   UNL     1     -29.175  -0.359  23.346  1.00  0.00     0.003 C 
ATOM     21  C   UNL     1     -27.900  -2.513  23.751  1.00  0.00     0.031 C 
ATOM     22  C   UNL     1     -29.618  -0.291  24.866  1.00  0.00    -0.008 C 
ATOM     23  C   UNL     1     -28.127  -2.307  25.219  1.00  0.00    -0.027 C 
ATOM     24  C   UNL     1     -28.768  -1.237  25.731  1.00  0.00    -0.065 C 
ATOM     25  C   UNL     1     -29.419   1.168  25.384  1.00  0.00     0.014 C 
ATOM     26  C   UNL     1     -31.110  -0.697  25.047  1.00  0.00     0.016 C 
ATOM     27  C   UNL     1     -28.807  -1.080  27.240  1.00  0.00     0.063 C 
ATOM     28  C   UNL     1     -29.560   1.307  26.910  1.00  0.00     0.033 C 
ATOM     29  C   UNL     1     -28.587   0.382  27.652  1.00  0.00     0.118 C 
BRANCH  29  30
ATOM     30  O   UNL     1     -27.266   0.785  27.389  1.00  0.00    -0.393 OA
ATOM     31  H   UNL     1     -26.837   0.987  28.258  1.00  0.00     0.210 HD
ENDBRANCH  29  30
ENDBRANCH   1  11
TORSDOF 6
ENDMDL
MODEL 5
REMARK VINA RESULT:    -3.429      1.408      2.694
REMARK INTER + INTRA:          -5.020
REMARK INTER:                  -4.237
REMARK INTRA:                  -0.783
REMARK UNBOUND:                -0.488
REMARK SMILES CC[C@@H](C=C[C@@H](C)[C@@H]1CC[C@H]2[C@H]3CC=C4C[C@@H](O)CC[C@@]4(C)[C@@H]3CC[C@]21C)C(C)C
REMARK SMILES IDX 6 1 7 2 5 3 4 4 3 5 2 6 1 7 28 8 29 9 30 10 8 11 9 12 26 13
REMARK SMILES IDX 10 14 11 15 25 16 27 17 12 18 24 19 23 20 13 21 21 22 14 23
REMARK SMILES IDX 15 24 20 25 22 26 16 27 19 28 17 29 18 30
REMARK H PARENT 18 31
REMARK Flexibility Score: inf
ROOT
ATOM      1  C   UNL     1     -29.106   1.443  29.901  1.00  0.00     0.012 C 
ATOM      2  C   UNL     1     -27.847   1.040  30.695  1.00  0.00     0.012 C 
ENDROOT
BRANCH   1   3
ATOM      3  C   UNL     1     -30.207   2.088  30.733  1.00  0.00    -0.028 C 
ATOM      4  C   UNL     1     -30.179   2.237  32.073  1.00  0.00    -0.027 C 
BRANCH   4   5
ATOM      5  C   UNL     1     -31.245   2.993  32.853  1.00  0.00     0.014 C 
BRANCH   5   6
ATOM      6  C   UNL     1     -30.640   3.795  34.040  1.00  0.00     0.004 C 
ATOM      7  C   UNL     1     -29.109   3.807  34.125  1.00  0.00     0.004 C 
ENDBRANCH   5   6
BRANCH   5   8
ATOM      8  C   UNL     1     -32.475   2.090  33.203  1.00  0.00    -0.011 C 
ATOM      9  C   UNL     1     -32.025   0.819  33.955  1.00  0.00     0.008 C 
ATOM     10  C   UNL     1     -33.261   1.670  31.947  1.00  0.00     0.008 C 
ENDBRANCH   5   8
ENDBRANCH   4   5
ENDBRANCH   1   3
BRANCH   1  11
ATOM     11  C   UNL     1     -29.583   0.391  28.830  1.00  0.00     0.002 C 
ATOM     12  C   UNL     1     -28.560  -0.763  28.706  1.00  0.00     0.005 C 
ATOM     13  C   UNL     1     -29.846   0.823  27.345  1.00  0.00    -0.026 C 
ATOM     14  C   UNL     1     -27.909  -0.650  27.324  1.00  0.00     0.005 C 
ATOM     15  C   UNL     1     -28.477   0.622  26.672  1.00  0.00    -0.001 C 
ATOM     16  C   UNL     1     -30.890  -0.164  26.724  1.00  0.00     0.007 C 
ATOM     17  C   UNL     1     -30.361   2.268  27.180  1.00  0.00     0.012 C 
ATOM     18  C   UNL     1     -28.526   0.626  25.113  1.00  0.00     0.000 C 
ATOM     19  C   UNL     1     -30.976  -0.092  25.197  1.00  0.00     0.005 C 
ATOM     20  C   UNL     1     -29.601  -0.318  24.516  1.00  0.00     0.003 C 
ATOM     21  C   UNL     1     -27.143   0.306  24.520  1.00  0.00     0.031 C 
ATOM     22  C   UNL     1     -29.664  -0.208  22.936  1.00  0.00    -0.008 C 
ATOM     23  C   UNL     1     -27.162   0.172  23.027  1.00  0.00    -0.027 C 
ATOM     24  C   UNL     1     -28.252  -0.203  22.327  1.00  0.00    -0.065 C 
ATOM     25  C   UNL     1     -30.441  -1.442  22.377  1.00  0.00     0.014 C 
ATOM     26  C   UNL     1     -30.382   1.095  22.480  1.00  0.00     0.016 C 
ATOM     27  C   UNL     1     -28.099  -0.435  20.835  1.00  0.00     0.063 C 
ATOM     28  C   UNL     1     -30.342  -1.593  20.849  1.00  0.00     0.033 C 
ATOM     29  C   UNL     1     -28.883  -1.674  20.383  1.00  0.00     0.118 C 
BRANCH  29  30
ATOM     30  O   UNL     1     -28.297  -2.851  20.885  1.00  0.00    -0.393 OA
ATOM     31  H   UNL     1     -28.127  -2.710  21.850  1.00  0.00     0.210 HD
ENDBRANCH  29  30
ENDBRANCH   1  11
TORSDOF 6
ENDMDL
MODEL 6
REMARK VINA RESULT:    -3.193      3.047      9.825
REMARK INTER + INTRA:          -4.708
REMARK INTER:                  -4.113
REMARK INTRA:                  -0.595
REMARK UNBOUND:                -0.488
REMARK SMILES CC[C@@H](C=C[C@@H](C)[C@@H]1CC[C@H]2[C@H]3CC=C4C[C@@H](O)CC[C@@]4(C)[C@@H]3CC[C@]21C)C(C)C
REMARK SMILES IDX 6 1 7 2 5 3 4 4 3 5 2 6 1 7 28 8 29 9 30 10 8 11 9 12 26 13
REMARK SMILES IDX 10 14 11 15 25 16 27 17 12 18 24 19 23 20 13 21 21 22 14 23
REMARK SMILES IDX 15 24 20 25 22 26 16 27 19 28 17 29 18 30
REMARK H PARENT 18 31
REMARK Flexibility Score: inf
ROOT
ATOM      1  C   UNL     1     -28.564  -0.922  24.811  1.00  0.00     0.012 C 
ATOM      2  C   UNL     1     -27.119  -1.460  24.792  1.00  0.00     0.012 C 
ENDROOT
BRANCH   1   3
ATOM      3  C   UNL     1     -29.269  -0.937  23.461  1.00  0.00    -0.028 C 
ATOM      4  C   UNL     1     -28.818  -0.330  22.344  1.00  0.00    -0.027 C 
BRANCH   4   5
ATOM      5  C   UNL     1     -29.493  -0.467  20.988  1.00  0.00     0.014 C 
BRANCH   5   6
ATOM      6  C   UNL     1     -30.905  -1.110  21.102  1.00  0.00     0.004 C 
ATOM      7  C   UNL     1     -31.892  -0.389  22.027  1.00  0.00     0.004 C 
ENDBRANCH   5   6
BRANCH   5   8
ATOM      8  C   UNL     1     -28.545  -1.103  19.916  1.00  0.00    -0.011 C 
ATOM      9  C   UNL     1     -29.141  -2.416  19.368  1.00  0.00     0.008 C 
ATOM     10  C   UNL     1     -27.143  -1.394  20.484  1.00  0.00     0.008 C 
ENDBRANCH   5   8
ENDBRANCH   4   5
ENDBRANCH   1   3
BRANCH   1  11
ATOM     11  C   UNL     1     -28.782   0.370  25.685  1.00  0.00     0.002 C 
ATOM     12  C   UNL     1     -27.425   0.946  26.156  1.00  0.00     0.005 C 
ATOM     13  C   UNL     1     -29.643   0.315  26.995  1.00  0.00    -0.026 C 
ATOM     14  C   UNL     1     -27.347   0.747  27.672  1.00  0.00     0.005 C 
ATOM     15  C   UNL     1     -28.610  -0.029  28.082  1.00  0.00    -0.001 C 
ATOM     16  C   UNL     1     -30.230   1.742  27.256  1.00  0.00     0.007 C 
ATOM     17  C   UNL     1     -30.801  -0.705  26.958  1.00  0.00     0.012 C 
ATOM     18  C   UNL     1     -29.114   0.208  29.539  1.00  0.00     0.000 C 
ATOM     19  C   UNL     1     -30.788   1.931  28.670  1.00  0.00     0.005 C 
ATOM     20  C   UNL     1     -29.740   1.608  29.767  1.00  0.00     0.003 C 
ATOM     21  C   UNL     1     -27.989  -0.048  30.556  1.00  0.00     0.031 C 
ATOM     22  C   UNL     1     -30.311   1.761  31.237  1.00  0.00    -0.008 C 
ATOM     23  C   UNL     1     -28.383   0.288  31.963  1.00  0.00    -0.027 C 
ATOM     24  C   UNL     1     -29.321   1.206  32.275  1.00  0.00    -0.065 C 
ATOM     25  C   UNL     1     -30.542   3.277  31.532  1.00  0.00     0.014 C 
ATOM     26  C   UNL     1     -31.657   0.998  31.412  1.00  0.00     0.016 C 
ATOM     27  C   UNL     1     -29.526   1.552  33.738  1.00  0.00     0.063 C 
ATOM     28  C   UNL     1     -30.841   3.580  33.011  1.00  0.00     0.033 C 
ATOM     29  C   UNL     1     -29.728   3.061  33.929  1.00  0.00     0.118 C 
BRANCH  29  30
ATOM     30  O   UNL     1     -28.539   3.764  33.666  1.00  0.00    -0.393 OA
ATOM     31  H   UNL     1     -28.780   4.713  33.520  1.00  0.00     0.210 HD
ENDBRANCH  29  30
ENDBRANCH   1  11
TORSDOF 6
ENDMDL
MODEL 7
REMARK VINA RESULT:    -2.855      1.414      2.613
REMARK INTER + INTRA:          -4.262
REMARK INTER:                  -3.793
REMARK INTRA:                  -0.469
REMARK UNBOUND:                -0.488
REMARK SMILES CC[C@@H](C=C[C@@H](C)[C@@H]1CC[C@H]2[C@H]3CC=C4C[C@@H](O)CC[C@@]4(C)[C@@H]3CC[C@]21C)C(C)C
REMARK SMILES IDX 6 1 7 2 5 3 4 4 3 5 2 6 1 7 28 8 29 9 30 10 8 11 9 12 26 13
REMARK SMILES IDX 10 14 11 15 25 16 27 17 12 18 24 19 23 20 13 21 21 22 14 23
REMARK SMILES IDX 15 24 20 25 22 26 16 27 19 28 17 29 18 30
REMARK H PARENT 18 31
REMARK Flexibility Score: inf
ROOT
ATOM      1  C   UNL     1     -29.963   0.885  30.261  1.00  0.00     0.012 C 
ATOM      2  C   UNL     1     -31.441   0.448  30.209  1.00  0.00     0.012 C 
ENDROOT
BRANCH   1   3
ATOM      3  C   UNL     1     -29.599   1.766  31.450  1.00  0.00    -0.028 C 
ATOM      4  C   UNL     1     -29.564   1.357  32.735  1.00  0.00    -0.027 C 
BRANCH   4   5
ATOM      5  C   UNL     1     -29.081   2.237  33.878  1.00  0.00     0.014 C 
BRANCH   5   6
ATOM      6  C   UNL     1     -30.030   3.445  34.124  1.00  0.00     0.004 C 
ATOM      7  C   UNL     1     -31.530   3.132  34.092  1.00  0.00     0.004 C 
ENDBRANCH   5   6
BRANCH   5   8
ATOM      8  C   UNL     1     -27.559   2.585  33.757  1.00  0.00    -0.011 C 
ATOM      9  C   UNL     1     -27.367   4.048  33.307  1.00  0.00     0.008 C 
ATOM     10  C   UNL     1     -26.832   1.661  32.763  1.00  0.00     0.008 C 
ENDBRANCH   5   8
ENDBRANCH   4   5
ENDBRANCH   1   3
BRANCH   1  11
ATOM     11  C   UNL     1     -29.344   1.310  28.877  1.00  0.00     0.002 C 
ATOM     12  C   UNL     1     -30.380   2.093  28.035  1.00  0.00     0.005 C 
ATOM     13  C   UNL     1     -28.788   0.231  27.883  1.00  0.00    -0.026 C 
ATOM     14  C   UNL     1     -30.754   1.213  26.838  1.00  0.00     0.005 C 
ATOM     15  C   UNL     1     -30.015  -0.123  27.025  1.00  0.00    -0.001 C 
ATOM     16  C   UNL     1     -27.694   0.905  26.989  1.00  0.00     0.007 C 
ATOM     17  C   UNL     1     -28.183  -1.015  28.563  1.00  0.00     0.012 C 
ATOM     18  C   UNL     1     -29.675  -0.902  25.717  1.00  0.00     0.000 C 
ATOM     19  C   UNL     1     -27.321   0.088  25.749  1.00  0.00     0.005 C 
ATOM     20  C   UNL     1     -28.553  -0.249  24.870  1.00  0.00     0.003 C 
ATOM     21  C   UNL     1     -30.936  -1.115  24.862  1.00  0.00     0.031 C 
ATOM     22  C   UNL     1     -28.190  -1.127  23.602  1.00  0.00    -0.008 C 
ATOM     23  C   UNL     1     -30.644  -1.748  23.535  1.00  0.00    -0.027 C 
ATOM     24  C   UNL     1     -29.461  -1.631  22.898  1.00  0.00    -0.065 C 
ATOM     25  C   UNL     1     -27.382  -0.248  22.596  1.00  0.00     0.014 C 
ATOM     26  C   UNL     1     -27.338  -2.371  23.990  1.00  0.00     0.016 C 
ATOM     27  C   UNL     1     -29.343  -2.203  21.497  1.00  0.00     0.063 C 
ATOM     28  C   UNL     1     -27.199  -0.901  21.214  1.00  0.00     0.033 C 
ATOM     29  C   UNL     1     -28.547  -1.265  20.580  1.00  0.00     0.118 C 
BRANCH  29  30
ATOM     30  O   UNL     1     -29.272  -0.088  20.314  1.00  0.00    -0.393 OA
ATOM     31  H   UNL     1     -29.179   0.107  19.348  1.00  0.00     0.210 HD
ENDBRANCH  29  30
ENDBRANCH   1  11
TORSDOF 6
ENDMDL
MODEL 8
REMARK VINA RESULT:    -2.576      2.997      6.301
REMARK INTER + INTRA:          -3.893
REMARK INTER:                  -3.064
REMARK INTRA:                  -0.829
REMARK UNBOUND:                -0.488
REMARK SMILES CC[C@@H](C=C[C@@H](C)[C@@H]1CC[C@H]2[C@H]3CC=C4C[C@@H](O)CC[C@@]4(C)[C@@H]3CC[C@]21C)C(C)C
REMARK SMILES IDX 6 1 7 2 5 3 4 4 3 5 2 6 1 7 28 8 29 9 30 10 8 11 9 12 26 13
REMARK SMILES IDX 10 14 11 15 25 16 27 17 12 18 24 19 23 20 13 21 21 22 14 23
REMARK SMILES IDX 15 24 20 25 22 26 16 27 19 28 17 29 18 30
REMARK H PARENT 18 31
REMARK Flexibility Score: inf
ROOT
ATOM      1  C   UNL     1     -28.355   0.152  22.771  1.00  0.00     0.012 C 
ATOM      2  C   UNL     1     -27.128   1.083  22.845  1.00  0.00     0.012 C 
ENDROOT
BRANCH   1   3
ATOM      3  C   UNL     1     -29.136   0.020  24.072  1.00  0.00    -0.028 C 
ATOM      4  C   UNL     1     -28.787  -0.770  25.108  1.00  0.00    -0.027 C 
BRANCH   4   5
ATOM      5  C   UNL     1     -29.530  -0.784  26.436  1.00  0.00     0.014 C 
BRANCH   5   6
ATOM      6  C   UNL     1     -31.059  -0.562  26.249  1.00  0.00     0.004 C 
ATOM      7  C   UNL     1     -31.776  -1.577  25.353  1.00  0.00     0.004 C 
ENDBRANCH   5   6
BRANCH   5   8
ATOM      8  C   UNL     1     -28.841   0.121  27.511  1.00  0.00    -0.011 C 
ATOM      9  C   UNL     1     -29.836   1.155  28.077  1.00  0.00     0.008 C 
ATOM     10  C   UNL     1     -27.620   0.868  26.941  1.00  0.00     0.008 C 
ENDBRANCH   5   8
ENDBRANCH   4   5
ENDBRANCH   1   3
BRANCH   1  11
ATOM     11  C   UNL     1     -28.130  -1.183  21.967  1.00  0.00     0.002 C 
ATOM     12  C   UNL     1     -26.654  -1.309  21.519  1.00  0.00     0.005 C 
ATOM     13  C   UNL     1     -28.947  -1.478  20.661  1.00  0.00    -0.026 C 
ATOM     14  C   UNL     1     -26.627  -1.173  19.994  1.00  0.00     0.005 C 
ATOM     15  C   UNL     1     -28.069  -0.872  19.551  1.00  0.00    -0.001 C 
ATOM     16  C   UNL     1     -29.034  -3.030  20.477  1.00  0.00     0.007 C 
ATOM     17  C   UNL     1     -30.374  -0.891  20.651  1.00  0.00     0.012 C 
ATOM     18  C   UNL     1     -28.451  -1.335  18.111  1.00  0.00     0.000 C 
ATOM     19  C   UNL     1     -29.483  -3.462  19.078  1.00  0.00     0.005 C 
ATOM     20  C   UNL     1     -28.585  -2.871  17.960  1.00  0.00     0.003 C 
ATOM     21  C   UNL     1     -27.459  -0.778  17.076  1.00  0.00     0.031 C 
ATOM     22  C   UNL     1     -29.058  -3.277  16.503  1.00  0.00    -0.008 C 
ATOM     23  C   UNL     1     -27.706  -1.295  15.691  1.00  0.00    -0.027 C 
ATOM     24  C   UNL     1     -28.290  -2.484  15.432  1.00  0.00    -0.065 C 
ATOM     25  C   UNL     1     -28.779  -4.799  16.288  1.00  0.00     0.014 C 
ATOM     26  C   UNL     1     -30.577  -3.004  16.296  1.00  0.00     0.016 C 
ATOM     27  C   UNL     1     -28.355  -2.951  13.990  1.00  0.00     0.063 C 
ATOM     28  C   UNL     1     -28.947  -5.257  14.829  1.00  0.00     0.033 C 
ATOM     29  C   UNL     1     -28.052  -4.452  13.879  1.00  0.00     0.118 C 
BRANCH  29  30
ATOM     30  O   UNL     1     -26.702  -4.715  14.171  1.00  0.00    -0.393 OA
ATOM     31  H   UNL     1     -26.153  -4.247  13.494  1.00  0.00     0.210 HD
ENDBRANCH  29  30
ENDBRANCH   1  11
TORSDOF 6
ENDMDL
MODEL 9
REMARK VINA RESULT:    -2.312      3.117      9.946
REMARK INTER + INTRA:          -3.543
REMARK INTER:                  -3.295
REMARK INTRA:                  -0.248
REMARK UNBOUND:                -0.488
REMARK SMILES CC[C@@H](C=C[C@@H](C)[C@@H]1CC[C@H]2[C@H]3CC=C4C[C@@H](O)CC[C@@]4(C)[C@@H]3CC[C@]21C)C(C)C
REMARK SMILES IDX 6 1 7 2 5 3 4 4 3 5 2 6 1 7 28 8 29 9 30 10 8 11 9 12 26 13
REMARK SMILES IDX 10 14 11 15 25 16 27 17 12 18 24 19 23 20 13 21 21 22 14 23
REMARK SMILES IDX 15 24 20 25 22 26 16 27 19 28 17 29 18 30
REMARK H PARENT 18 31
REMARK Flexibility Score: inf
ROOT
ATOM      1  C   UNL     1     -29.604  -0.182  24.430  1.00  0.00     0.012 C 
ATOM      2  C   UNL     1     -30.938   0.368  23.885  1.00  0.00     0.012 C 
ENDROOT
BRANCH   1   3
ATOM      3  C   UNL     1     -28.846  -1.088  23.468  1.00  0.00    -0.028 C 
ATOM      4  C   UNL     1     -29.110  -1.214  22.152  1.00  0.00    -0.027 C 
BRANCH   4   5
ATOM      5  C   UNL     1     -28.255  -2.040  21.203  1.00  0.00     0.014 C 
BRANCH   5   6
ATOM      6  C   UNL     1     -26.797  -1.504  21.117  1.00  0.00     0.004 C 
ATOM      7  C   UNL     1     -26.139  -1.143  22.453  1.00  0.00     0.004 C 
ENDBRANCH   5   6
BRANCH   5   8
ATOM      8  C   UNL     1     -28.966  -2.294  19.832  1.00  0.00    -0.011 C 
ATOM      9  C   UNL     1     -28.195  -1.613  18.681  1.00  0.00     0.008 C 
ATOM     10  C   UNL     1     -30.417  -1.778  19.828  1.00  0.00     0.008 C 
ENDBRANCH   5   8
ENDBRANCH   4   5
ENDBRANCH   1   3
BRANCH   1  11
ATOM     11  C   UNL     1     -29.642  -0.654  25.932  1.00  0.00     0.002 C 
ATOM     12  C   UNL     1     -31.102  -0.839  26.409  1.00  0.00     0.005 C 
ATOM     13  C   UNL     1     -28.984   0.214  27.061  1.00  0.00    -0.026 C 
ATOM     14  C   UNL     1     -31.386   0.253  27.445  1.00  0.00     0.005 C 
ATOM     15  C   UNL     1     -30.130   1.138  27.509  1.00  0.00    -0.001 C 
ATOM     16  C   UNL     1     -28.581  -0.736  28.238  1.00  0.00     0.007 C 
ATOM     17  C   UNL     1     -27.742   1.013  26.613  1.00  0.00     0.012 C 
ATOM     18  C   UNL     1     -29.873   1.860  28.867  1.00  0.00     0.000 C 
ATOM     19  C   UNL     1     -28.260  -0.001  29.543  1.00  0.00     0.005 C 
ATOM     20  C   UNL     1     -29.424   0.913  30.008  1.00  0.00     0.003 C 
ATOM     21  C   UNL     1     -31.108   2.671  29.299  1.00  0.00     0.031 C 
ATOM     22  C   UNL     1     -29.095   1.711  31.337  1.00  0.00    -0.008 C 
ATOM     23  C   UNL     1     -30.961   3.283  30.659  1.00  0.00    -0.027 C 
ATOM     24  C   UNL     1     -30.172   2.770  31.626  1.00  0.00    -0.065 C 
ATOM     25  C   UNL     1     -29.056   0.705  32.531  1.00  0.00     0.014 C 
ATOM     26  C   UNL     1     -27.724   2.442  31.242  1.00  0.00     0.016 C 
ATOM     27  C   UNL     1     -30.220   3.406  33.002  1.00  0.00     0.063 C 
ATOM     28  C   UNL     1     -29.009   1.386  33.910  1.00  0.00     0.033 C 
ATOM     29  C   UNL     1     -30.193   2.342  34.107  1.00  0.00     0.118 C 
BRANCH  29  30
ATOM     30  O   UNL     1     -31.391   1.605  34.125  1.00  0.00    -0.393 OA
ATOM     31  H   UNL     1     -31.234   0.769  33.619  1.00  0.00     0.210 HD
ENDBRANCH  29  30
ENDBRANCH   1  11
TORSDOF 6
ENDMDL
