MODEL 1
REMARK VINA RESULT:    -4.524      0.000      0.000
REMARK INTER + INTRA:          -6.814
REMARK INTER:                  -6.111
REMARK INTRA:                  -0.703
REMARK UNBOUND:                -0.703
REMARK SMILES CC(=O)CCC=C(C)CCC=C(C)C
REMARK SMILES IDX 7 1 6 2 8 3 9 4 10 5 11 6 13 7 12 8 14 9 5 10 4 11 2 12 3 13
REMARK SMILES IDX 1 14
REMARK H PARENT
REMARK Flexibility Score: inf
ROOT
ATOM      1  C   UNL     1       1.981   0.557  24.568  1.00  0.00    -0.077 C 
ATOM      2  C   UNL     1       2.915   1.532  24.654  1.00  0.00    -0.028 C 
ATOM      3  C   UNL     1       1.168   0.340  23.313  1.00  0.00     0.039 C 
ENDROOT
BRANCH   1   4
ATOM      4  C   UNL     1       1.736  -0.332  25.767  1.00  0.00     0.034 C 
BRANCH   4   5
ATOM      5  C   UNL     1       0.319  -0.918  25.735  1.00  0.00     0.032 C 
BRANCH   5   6
ATOM      6  C   UNL     1      -0.473  -0.504  26.952  1.00  0.00    -0.028 C 
ATOM      7  C   UNL     1      -2.574  -0.287  25.620  1.00  0.00     0.039 C 
ATOM      8  C   UNL     1      -1.791  -0.214  26.910  1.00  0.00    -0.080 C 
ATOM      9  C   UNL     1      -2.485   0.193  28.184  1.00  0.00     0.039 C 
ENDBRANCH   5   6
ENDBRANCH   4   5
ENDBRANCH   1   4
BRANCH   2  10
ATOM     10  C   UNL     1       3.289   2.462  23.525  1.00  0.00     0.035 C 
BRANCH  10  11
ATOM     11  C   UNL     1       2.492   3.772  23.569  1.00  0.00     0.079 C 
BRANCH  11  12
ATOM     12  C   UNL     1       1.658   3.960  22.326  1.00  0.00     0.130 C 
ATOM     13  O   UNL     1       2.150   3.737  21.230  1.00  0.00    -0.300 OA
ATOM     14  C   UNL     1       0.230   4.409  22.406  1.00  0.00     0.087 C 
ENDBRANCH  11  12
ENDBRANCH  10  11
ENDBRANCH   2  10
TORSDOF 6
ENDMDL
MODEL 2
REMARK VINA RESULT:    -4.133      8.300      9.616
REMARK INTER + INTRA:          -6.285
REMARK INTER:                  -5.449
REMARK INTRA:                  -0.835
REMARK UNBOUND:                -0.703
REMARK SMILES CC(=O)CCC=C(C)CCC=C(C)C
REMARK SMILES IDX 7 1 6 2 8 3 9 4 10 5 11 6 13 7 12 8 14 9 5 10 4 11 2 12 3 13
REMARK SMILES IDX 1 14
REMARK H PARENT
REMARK Flexibility Score: inf
ROOT
ATOM      1  C   UNL     1       1.335  -2.140  15.175  1.00  0.00    -0.077 C 
ATOM      2  C   UNL     1       0.453  -1.158  15.469  1.00  0.00    -0.028 C 
ATOM      3  C   UNL     1       2.608  -1.865  14.409  1.00  0.00     0.039 C 
ENDROOT
BRANCH   1   4
ATOM      4  C   UNL     1       1.030  -3.556  15.614  1.00  0.00     0.034 C 
BRANCH   4   5
ATOM      5  C   UNL     1       1.178  -3.703  17.133  1.00  0.00     0.032 C 
BRANCH   5   6
ATOM      6  C   UNL     1      -0.128  -4.100  17.776  1.00  0.00    -0.028 C 
ATOM      7  C   UNL     1      -0.287  -1.930  19.002  1.00  0.00     0.039 C 
ATOM      8  C   UNL     1      -0.804  -3.300  18.629  1.00  0.00    -0.080 C 
ATOM      9  C   UNL     1      -2.098  -3.797  19.218  1.00  0.00     0.039 C 
ENDBRANCH   5   6
ENDBRANCH   4   5
ENDBRANCH   1   4
BRANCH   2  10
ATOM     10  C   UNL     1       0.648   0.300  15.128  1.00  0.00     0.035 C 
BRANCH  10  11
ATOM     11  C   UNL     1      -0.193   0.728  13.919  1.00  0.00     0.079 C 
BRANCH  11  12
ATOM     12  C   UNL     1       0.670   1.225  12.786  1.00  0.00     0.130 C 
ATOM     13  O   UNL     1       1.865   1.401  12.971  1.00  0.00    -0.300 OA
ATOM     14  C   UNL     1       0.094   1.504  11.431  1.00  0.00     0.087 C 
ENDBRANCH  11  12
ENDBRANCH  10  11
ENDBRANCH   2  10
TORSDOF 6
ENDMDL
MODEL 3
REMARK VINA RESULT:    -4.126      7.723     10.122
REMARK INTER + INTRA:          -6.276
REMARK INTER:                  -5.217
REMARK INTRA:                  -1.059
REMARK UNBOUND:                -0.703
REMARK SMILES CC(=O)CCC=C(C)CCC=C(C)C
REMARK SMILES IDX 7 1 6 2 8 3 9 4 10 5 11 6 13 7 12 8 14 9 5 10 4 11 2 12 3 13
REMARK SMILES IDX 1 14
REMARK H PARENT
REMARK Flexibility Score: inf
ROOT
ATOM      1  C   UNL     1       1.299  -2.596  16.266  1.00  0.00    -0.077 C 
ATOM      2  C   UNL     1       0.623  -3.751  16.461  1.00  0.00    -0.028 C 
ATOM      3  C   UNL     1       1.947  -1.848  17.408  1.00  0.00     0.039 C 
ENDROOT
BRANCH   1   4
ATOM      4  C   UNL     1       1.397  -2.030  14.866  1.00  0.00     0.034 C 
BRANCH   4   5
ATOM      5  C   UNL     1       1.384  -0.497  14.892  1.00  0.00     0.032 C 
BRANCH   5   6
ATOM      6  C   UNL     1       0.093   0.050  14.333  1.00  0.00    -0.028 C 
ATOM      7  C   UNL     1      -0.717   0.703  16.603  1.00  0.00     0.039 C 
ATOM      8  C   UNL     1      -0.871   0.597  15.104  1.00  0.00    -0.080 C 
ATOM      9  C   UNL     1      -2.124   1.110  14.443  1.00  0.00     0.039 C 
ENDBRANCH   5   6
ENDBRANCH   4   5
ENDBRANCH   1   4
BRANCH   2  10
ATOM     10  C   UNL     1       0.481  -4.446  17.794  1.00  0.00     0.035 C 
BRANCH  10  11
ATOM     11  C   UNL     1      -0.978  -4.499  18.264  1.00  0.00     0.079 C 
BRANCH  11  12
ATOM     12  C   UNL     1      -1.231  -3.548  19.408  1.00  0.00     0.130 C 
ATOM     13  O   UNL     1      -1.328  -3.985  20.544  1.00  0.00    -0.300 OA
ATOM     14  C   UNL     1      -1.358  -2.072  19.180  1.00  0.00     0.087 C 
ENDBRANCH  11  12
ENDBRANCH  10  11
ENDBRANCH   2  10
TORSDOF 6
ENDMDL
MODEL 4
REMARK VINA RESULT:    -4.119      8.810     11.377
REMARK INTER + INTRA:          -6.266
REMARK INTER:                  -5.547
REMARK INTRA:                  -0.719
REMARK UNBOUND:                -0.703
REMARK SMILES CC(=O)CCC=C(C)CCC=C(C)C
REMARK SMILES IDX 7 1 6 2 8 3 9 4 10 5 11 6 13 7 12 8 14 9 5 10 4 11 2 12 3 13
REMARK SMILES IDX 1 14
REMARK H PARENT
REMARK Flexibility Score: inf
ROOT
ATOM      1  C   UNL     1       2.679  -2.255  15.021  1.00  0.00    -0.077 C 
ATOM      2  C   UNL     1       1.381  -2.546  15.264  1.00  0.00    -0.028 C 
ATOM      3  C   UNL     1       3.804  -2.982  15.719  1.00  0.00     0.039 C 
ENDROOT
BRANCH   1   4
ATOM      4  C   UNL     1       3.012  -1.160  14.031  1.00  0.00     0.034 C 
BRANCH   4   5
ATOM      5  C   UNL     1       2.391   0.175  14.459  1.00  0.00     0.032 C 
BRANCH   5   6
ATOM      6  C   UNL     1       1.795   0.905  13.281  1.00  0.00    -0.028 C 
ATOM      7  C   UNL     1      -0.532   0.465  14.072  1.00  0.00     0.039 C 
ATOM      8  C   UNL     1       0.465   1.042  13.094  1.00  0.00    -0.080 C 
ATOM      9  C   UNL     1      -0.024   1.788  11.880  1.00  0.00     0.039 C 
ENDBRANCH   5   6
ENDBRANCH   4   5
ENDBRANCH   1   4
BRANCH   2  10
ATOM     10  C   UNL     1       0.907  -3.637  16.195  1.00  0.00     0.035 C 
BRANCH  10  11
ATOM     11  C   UNL     1       0.420  -3.079  17.538  1.00  0.00     0.079 C 
BRANCH  11  12
ATOM     12  C   UNL     1      -0.292  -4.129  18.354  1.00  0.00     0.130 C 
ATOM     13  O   UNL     1       0.045  -4.324  19.511  1.00  0.00    -0.300 OA
ATOM     14  C   UNL     1      -1.414  -4.937  17.775  1.00  0.00     0.087 C 
ENDBRANCH  11  12
ENDBRANCH  10  11
ENDBRANCH   2  10
TORSDOF 6
ENDMDL
MODEL 5
REMARK VINA RESULT:    -4.101      7.963     10.672
REMARK INTER + INTRA:          -6.243
REMARK INTER:                  -5.181
REMARK INTRA:                  -1.061
REMARK UNBOUND:                -0.703
REMARK SMILES CC(=O)CCC=C(C)CCC=C(C)C
REMARK SMILES IDX 7 1 6 2 8 3 9 4 10 5 11 6 13 7 12 8 14 9 5 10 4 11 2 12 3 13
REMARK SMILES IDX 1 14
REMARK H PARENT
REMARK Flexibility Score: inf
ROOT
ATOM      1  C   UNL     1       0.970  -2.286  16.245  1.00  0.00    -0.077 C 
ATOM      2  C   UNL     1       0.896  -3.631  16.368  1.00  0.00    -0.028 C 
ATOM      3  C   UNL     1       0.698  -1.362  17.409  1.00  0.00     0.039 C 
ENDROOT
BRANCH   1   4
ATOM      4  C   UNL     1       1.324  -1.691  14.899  1.00  0.00     0.034 C 
BRANCH   4   5
ATOM      5  C   UNL     1       2.709  -2.161  14.438  1.00  0.00     0.032 C 
BRANCH   5   6
ATOM      6  C   UNL     1       3.803  -1.544  15.276  1.00  0.00    -0.028 C 
ATOM      7  C   UNL     1       4.608  -3.785  16.032  1.00  0.00     0.039 C 
ATOM      8  C   UNL     1       4.673  -2.275  16.006  1.00  0.00    -0.080 C 
ATOM      9  C   UNL     1       5.726  -1.559  16.811  1.00  0.00     0.039 C 
ENDBRANCH   5   6
ENDBRANCH   4   5
ENDBRANCH   1   4
BRANCH   2  10
ATOM     10  C   UNL     1       0.593  -4.358  17.656  1.00  0.00     0.035 C 
BRANCH  10  11
ATOM     11  C   UNL     1      -0.910  -4.612  17.836  1.00  0.00     0.079 C 
BRANCH  11  12
ATOM     12  C   UNL     1      -1.397  -4.142  19.184  1.00  0.00     0.130 C 
ATOM     13  O   UNL     1      -2.548  -3.751  19.306  1.00  0.00    -0.300 OA
ATOM     14  C   UNL     1      -0.498  -4.149  20.384  1.00  0.00     0.087 C 
ENDBRANCH  11  12
ENDBRANCH  10  11
ENDBRANCH   2  10
TORSDOF 6
ENDMDL
MODEL 6
REMARK VINA RESULT:    -4.061      7.156      9.637
REMARK INTER + INTRA:          -6.188
REMARK INTER:                  -5.071
REMARK INTRA:                  -1.118
REMARK UNBOUND:                -0.703
REMARK SMILES CC(=O)CCC=C(C)CCC=C(C)C
REMARK SMILES IDX 7 1 6 2 8 3 9 4 10 5 11 6 13 7 12 8 14 9 5 10 4 11 2 12 3 13
REMARK SMILES IDX 1 14
REMARK H PARENT
REMARK Flexibility Score: inf
ROOT
ATOM      1  C   UNL     1       0.679  -3.900  17.412  1.00  0.00    -0.077 C 
ATOM      2  C   UNL     1      -0.595  -4.121  17.809  1.00  0.00    -0.028 C 
ATOM      3  C   UNL     1       1.819  -3.819  18.400  1.00  0.00     0.039 C 
ENDROOT
BRANCH   1   4
ATOM      4  C   UNL     1       0.967  -3.717  15.938  1.00  0.00     0.034 C 
BRANCH   4   5
ATOM      5  C   UNL     1       1.805  -2.456  15.696  1.00  0.00     0.032 C 
BRANCH   5   6
ATOM      6  C   UNL     1       1.065  -1.465  14.831  1.00  0.00    -0.028 C 
ATOM      7  C   UNL     1       0.161  -0.264  16.826  1.00  0.00     0.039 C 
ATOM      8  C   UNL     1       0.313  -0.463  15.335  1.00  0.00    -0.080 C 
ATOM      9  C   UNL     1      -0.387   0.469  14.381  1.00  0.00     0.039 C 
ENDBRANCH   5   6
ENDBRANCH   4   5
ENDBRANCH   1   4
BRANCH   2  10
ATOM     10  C   UNL     1      -1.019  -4.359  19.239  1.00  0.00     0.035 C 
BRANCH  10  11
ATOM     11  C   UNL     1      -2.144  -3.412  19.673  1.00  0.00     0.079 C 
BRANCH  11  12
ATOM     12  C   UNL     1      -1.659  -1.989  19.796  1.00  0.00     0.130 C 
ATOM     13  O   UNL     1      -2.282  -1.090  19.251  1.00  0.00    -0.300 OA
ATOM     14  C   UNL     1      -0.427  -1.650  20.581  1.00  0.00     0.087 C 
ENDBRANCH  11  12
ENDBRANCH  10  11
ENDBRANCH   2  10
TORSDOF 6
ENDMDL
MODEL 7
REMARK VINA RESULT:    -4.061      2.333      5.203
REMARK INTER + INTRA:          -6.188
REMARK INTER:                  -4.947
REMARK INTRA:                  -1.241
REMARK UNBOUND:                -0.703
REMARK SMILES CC(=O)CCC=C(C)CCC=C(C)C
REMARK SMILES IDX 7 1 6 2 8 3 9 4 10 5 11 6 13 7 12 8 14 9 5 10 4 11 2 12 3 13
REMARK SMILES IDX 1 14
REMARK H PARENT
REMARK Flexibility Score: inf
ROOT
ATOM      1  C   UNL     1       2.794   0.563  24.317  1.00  0.00    -0.077 C 
ATOM      2  C   UNL     1       1.906   0.196  25.269  1.00  0.00    -0.028 C 
ATOM      3  C   UNL     1       2.906  -0.175  23.004  1.00  0.00     0.039 C 
ENDROOT
BRANCH   1   4
ATOM      4  C   UNL     1       3.710   1.739  24.583  1.00  0.00     0.034 C 
BRANCH   4   5
ATOM      5  C   UNL     1       3.628   2.765  23.446  1.00  0.00     0.032 C 
BRANCH   5   6
ATOM      6  C   UNL     1       2.307   3.494  23.460  1.00  0.00    -0.028 C 
ATOM      7  C   UNL     1       2.231   3.586  20.965  1.00  0.00     0.039 C 
ATOM      8  C   UNL     1       1.663   3.874  22.336  1.00  0.00    -0.080 C 
ATOM      9  C   UNL     1       0.350   4.601  22.463  1.00  0.00     0.039 C 
ENDBRANCH   5   6
ENDBRANCH   4   5
ENDBRANCH   1   4
BRANCH   2  10
ATOM     10  C   UNL     1       0.909  -0.928  25.123  1.00  0.00     0.035 C 
BRANCH  10  11
ATOM     11  C   UNL     1      -0.518  -0.408  24.898  1.00  0.00     0.079 C 
BRANCH  11  12
ATOM     12  C   UNL     1      -0.857  -0.327  23.431  1.00  0.00     0.130 C 
ATOM     13  O   UNL     1      -1.312  -1.308  22.862  1.00  0.00    -0.300 OA
ATOM     14  C   UNL     1      -0.653   0.938  22.653  1.00  0.00     0.087 C 
ENDBRANCH  11  12
ENDBRANCH  10  11
ENDBRANCH   2  10
TORSDOF 6
ENDMDL
MODEL 8
REMARK VINA RESULT:    -4.010      7.460      8.683
REMARK INTER + INTRA:          -6.119
REMARK INTER:                  -5.094
REMARK INTRA:                  -1.025
REMARK UNBOUND:                -0.703
REMARK SMILES CC(=O)CCC=C(C)CCC=C(C)C
REMARK SMILES IDX 7 1 6 2 8 3 9 4 10 5 11 6 13 7 12 8 14 9 5 10 4 11 2 12 3 13
REMARK SMILES IDX 1 14
REMARK H PARENT
REMARK Flexibility Score: inf
ROOT
ATOM      1  C   UNL     1       1.882  -2.968  17.670  1.00  0.00    -0.077 C 
ATOM      2  C   UNL     1       1.731  -3.457  16.418  1.00  0.00    -0.028 C 
ATOM      3  C   UNL     1       1.583  -1.525  18.004  1.00  0.00     0.039 C 
ENDROOT
BRANCH   1   4
ATOM      4  C   UNL     1       2.376  -3.890  18.764  1.00  0.00     0.034 C 
BRANCH   4   5
ATOM      5  C   UNL     1       1.295  -4.904  19.156  1.00  0.00     0.032 C 
BRANCH   5   6
ATOM      6  C   UNL     1       0.090  -4.218  19.751  1.00  0.00    -0.028 C 
ATOM      7  C   UNL     1      -1.349  -4.873  17.818  1.00  0.00     0.039 C 
ATOM      8  C   UNL     1      -1.119  -4.197  19.149  1.00  0.00    -0.080 C 
ATOM      9  C   UNL     1      -2.256  -3.479  19.830  1.00  0.00     0.039 C 
ENDBRANCH   5   6
ENDBRANCH   4   5
ENDBRANCH   1   4
BRANCH   2  10
ATOM     10  C   UNL     1       1.211  -2.662  15.244  1.00  0.00     0.035 C 
BRANCH  10  11
ATOM     11  C   UNL     1       2.332  -1.912  14.513  1.00  0.00     0.079 C 
BRANCH  11  12
ATOM     12  C   UNL     1       2.044  -0.435  14.415  1.00  0.00     0.130 C 
ATOM     13  O   UNL     1       2.971   0.357  14.338  1.00  0.00    -0.300 OA
ATOM     14  C   UNL     1       0.638   0.086  14.405  1.00  0.00     0.087 C 
ENDBRANCH  11  12
ENDBRANCH  10  11
ENDBRANCH   2  10
TORSDOF 6
ENDMDL
MODEL 9
REMARK VINA RESULT:    -3.918      3.144      5.699
REMARK INTER + INTRA:          -5.995
REMARK INTER:                  -4.474
REMARK INTRA:                  -1.520
REMARK UNBOUND:                -0.703
REMARK SMILES CC(=O)CCC=C(C)CCC=C(C)C
REMARK SMILES IDX 7 1 6 2 8 3 9 4 10 5 11 6 13 7 12 8 14 9 5 10 4 11 2 12 3 13
REMARK SMILES IDX 1 14
REMARK H PARENT
REMARK Flexibility Score: inf
ROOT
ATOM      1  C   UNL     1       2.637   1.988  23.833  1.00  0.00    -0.077 C 
ATOM      2  C   UNL     1       2.555   3.307  23.545  1.00  0.00    -0.028 C 
ATOM      3  C   UNL     1       1.569   1.010  23.401  1.00  0.00     0.039 C 
ENDROOT
BRANCH   1   4
ATOM      4  C   UNL     1       3.824   1.482  24.623  1.00  0.00     0.034 C 
BRANCH   4   5
ATOM      5  C   UNL     1       5.141   1.835  23.921  1.00  0.00     0.032 C 
BRANCH   5   6
ATOM      6  C   UNL     1       5.310   1.045  22.646  1.00  0.00    -0.028 C 
ATOM      7  C   UNL     1       5.439   3.126  21.270  1.00  0.00     0.039 C 
ATOM      8  C   UNL     1       5.446   1.623  21.433  1.00  0.00    -0.080 C 
ATOM      9  C   UNL     1       5.606   0.741  20.223  1.00  0.00     0.039 C 
ENDBRANCH   5   6
ENDBRANCH   4   5
ENDBRANCH   1   4
BRANCH   2  10
ATOM     10  C   UNL     1       1.450   3.941  22.734  1.00  0.00     0.035 C 
BRANCH  10  11
ATOM     11  C   UNL     1       1.832   4.089  21.255  1.00  0.00     0.079 C 
BRANCH  11  12
ATOM     12  C   UNL     1       1.224   2.997  20.410  1.00  0.00     0.130 C 
ATOM     13  O   UNL     1       0.013   2.960  20.255  1.00  0.00    -0.300 OA
ATOM     14  C   UNL     1       2.077   1.957  19.748  1.00  0.00     0.087 C 
ENDBRANCH  11  12
ENDBRANCH  10  11
ENDBRANCH   2  10
TORSDOF 6
ENDMDL
