MODEL 1
REMARK VINA RESULT:    -5.355      0.000      0.000
REMARK INTER + INTRA:         -12.667
REMARK INTER:                 -10.365
REMARK INTRA:                  -2.303
REMARK UNBOUND:                -2.303
REMARK SMILES CCCCCCCCCCCCCCCCCC(=O)[O-]
REMARK SMILES IDX 10 1 11 2 12 3 13 4 14 5 15 6 16 7 17 8 18 9 19 10 20 11
REMARK SMILES IDX 9 12 8 13 7 14 6 15 5 16 4 17 3 18 2 19 1 20
REMARK H PARENT
REMARK Flexibility Score: inf
ROOT
ATOM      1  C   UNL     1      34.906  42.984  47.230  1.00  0.00     0.000 C 
ENDROOT
BRANCH   1   2
ATOM      2  C   UNL     1      35.072  44.457  47.639  1.00  0.00     0.000 C 
BRANCH   2   3
ATOM      3  C   UNL     1      34.292  44.806  48.919  1.00  0.00     0.000 C 
BRANCH   3   4
ATOM      4  C   UNL     1      35.094  45.714  49.864  1.00  0.00     0.000 C 
BRANCH   4   5
ATOM      5  C   UNL     1      35.437  45.020  51.194  1.00  0.00     0.000 C 
BRANCH   5   6
ATOM      6  C   UNL     1      35.783  43.529  51.021  1.00  0.00     0.000 C 
BRANCH   6   7
ATOM      7  C   UNL     1      37.285  43.221  50.879  1.00  0.00     0.006 C 
BRANCH   7   8
ATOM      8  C   UNL     1      37.599  42.321  49.676  1.00  0.00     0.053 C 
BRANCH   8   9
ATOM      9  C   UNL     1      38.778  41.448  49.971  1.00  0.00     0.041 C 
ATOM     10  O   UNL     1      39.238  40.681  49.086  1.00  0.00    -0.550 OA
ATOM     11  O   UNL     1      39.343  41.451  51.241  1.00  0.00    -0.550 OA
ENDBRANCH   8   9
ENDBRANCH   7   8
ENDBRANCH   6   7
ENDBRANCH   5   6
ENDBRANCH   4   5
ENDBRANCH   3   4
ENDBRANCH   2   3
ENDBRANCH   1   2
BRANCH   1  12
ATOM     12  C   UNL     1      33.781  42.276  48.004  1.00  0.00     0.000 C 
BRANCH  12  13
ATOM     13  C   UNL     1      32.878  41.425  47.093  1.00  0.00    -0.000 C 
BRANCH  13  14
ATOM     14  C   UNL     1      31.526  42.073  46.733  1.00  0.00    -0.000 C 
BRANCH  14  15
ATOM     15  C   UNL     1      31.333  43.515  47.247  1.00  0.00    -0.000 C 
BRANCH  15  16
ATOM     16  C   UNL     1      31.378  44.604  46.158  1.00  0.00    -0.000 C 
BRANCH  16  17
ATOM     17  C   UNL     1      31.783  44.057  44.783  1.00  0.00    -0.000 C 
BRANCH  17  18
ATOM     18  C   UNL     1      33.207  44.498  44.414  1.00  0.00    -0.000 C 
BRANCH  18  19
ATOM     19  C   UNL     1      33.234  45.465  43.221  1.00  0.00    -0.003 C 
ATOM     20  C   UNL     1      32.056  45.263  42.267  1.00  0.00     0.004 C 
ENDBRANCH  18  19
ENDBRANCH  17  18
ENDBRANCH  16  17
ENDBRANCH  15  16
ENDBRANCH  14  15
ENDBRANCH  13  14
ENDBRANCH  12  13
ENDBRANCH   1  12
TORSDOF 16
ENDMDL
MODEL 2
REMARK VINA RESULT:    -5.329      2.889      7.209
REMARK INTER + INTRA:         -12.617
REMARK INTER:                 -10.493
REMARK INTRA:                  -2.124
REMARK UNBOUND:                -2.303
REMARK SMILES CCCCCCCCCCCCCCCCCC(=O)[O-]
REMARK SMILES IDX 10 1 11 2 12 3 13 4 14 5 15 6 16 7 17 8 18 9 19 10 20 11
REMARK SMILES IDX 9 12 8 13 7 14 6 15 5 16 4 17 3 18 2 19 1 20
REMARK H PARENT
REMARK Flexibility Score: inf
ROOT
ATOM      1  C   UNL     1      35.109  44.046  47.581  1.00  0.00     0.000 C 
ENDROOT
BRANCH   1   2
ATOM      2  C   UNL     1      34.683  42.602  47.268  1.00  0.00     0.000 C 
BRANCH   2   3
ATOM      3  C   UNL     1      33.395  42.194  48.005  1.00  0.00     0.000 C 
BRANCH   3   4
ATOM      4  C   UNL     1      32.243  41.879  47.038  1.00  0.00     0.000 C 
BRANCH   4   5
ATOM      5  C   UNL     1      31.220  43.025  46.951  1.00  0.00     0.000 C 
BRANCH   5   6
ATOM      6  C   UNL     1      31.662  44.155  46.003  1.00  0.00     0.000 C 
BRANCH   6   7
ATOM      7  C   UNL     1      31.964  43.713  44.559  1.00  0.00     0.006 C 
BRANCH   7   8
ATOM      8  C   UNL     1      32.157  44.896  43.600  1.00  0.00     0.053 C 
BRANCH   8   9
ATOM      9  C   UNL     1      33.599  45.293  43.545  1.00  0.00     0.041 C 
ATOM     10  O   UNL     1      33.959  46.284  42.858  1.00  0.00    -0.550 OA
ATOM     11  O   UNL     1      34.552  44.540  44.221  1.00  0.00    -0.550 OA
ENDBRANCH   8   9
ENDBRANCH   7   8
ENDBRANCH   6   7
ENDBRANCH   5   6
ENDBRANCH   4   5
ENDBRANCH   3   4
ENDBRANCH   2   3
ENDBRANCH   1   2
BRANCH   1  12
ATOM     12  C   UNL     1      34.199  44.722  48.620  1.00  0.00     0.000 C 
BRANCH  12  13
ATOM     13  C   UNL     1      34.954  45.728  49.508  1.00  0.00    -0.000 C 
BRANCH  13  14
ATOM     14  C   UNL     1      35.392  45.177  50.880  1.00  0.00    -0.000 C 
BRANCH  14  15
ATOM     15  C   UNL     1      34.835  43.783  51.236  1.00  0.00    -0.000 C 
BRANCH  15  16
ATOM     16  C   UNL     1      35.765  42.604  50.890  1.00  0.00    -0.000 C 
BRANCH  16  17
ATOM     17  C   UNL     1      37.219  43.038  50.663  1.00  0.00    -0.000 C 
BRANCH  17  18
ATOM     18  C   UNL     1      37.814  42.342  49.430  1.00  0.00    -0.000 C 
BRANCH  18  19
ATOM     19  C   UNL     1      38.915  41.335  49.796  1.00  0.00    -0.003 C 
ATOM     20  C   UNL     1      39.469  41.547  51.205  1.00  0.00     0.004 C 
ENDBRANCH  18  19
ENDBRANCH  17  18
ENDBRANCH  16  17
ENDBRANCH  15  16
ENDBRANCH  14  15
ENDBRANCH  13  14
ENDBRANCH  12  13
ENDBRANCH   1  12
TORSDOF 16
ENDMDL
MODEL 3
REMARK VINA RESULT:    -5.120      1.456      4.102
REMARK INTER + INTRA:         -12.212
REMARK INTER:                 -10.449
REMARK INTRA:                  -1.763
REMARK UNBOUND:                -2.303
REMARK SMILES CCCCCCCCCCCCCCCCCC(=O)[O-]
REMARK SMILES IDX 10 1 11 2 12 3 13 4 14 5 15 6 16 7 17 8 18 9 19 10 20 11
REMARK SMILES IDX 9 12 8 13 7 14 6 15 5 16 4 17 3 18 2 19 1 20
REMARK H PARENT
REMARK Flexibility Score: inf
ROOT
ATOM      1  C   UNL     1      32.905  44.297  43.698  1.00  0.00     0.000 C 
ENDROOT
BRANCH   1   2
ATOM      2  C   UNL     1      34.283  44.829  44.123  1.00  0.00     0.000 C 
BRANCH   2   3
ATOM      3  C   UNL     1      34.582  44.575  45.611  1.00  0.00     0.000 C 
BRANCH   3   4
ATOM      4  C   UNL     1      36.012  44.061  45.842  1.00  0.00     0.000 C 
BRANCH   4   5
ATOM      5  C   UNL     1      36.042  42.764  46.669  1.00  0.00     0.000 C 
BRANCH   5   6
ATOM      6  C   UNL     1      37.394  42.529  47.369  1.00  0.00     0.000 C 
BRANCH   6   7
ATOM      7  C   UNL     1      37.301  42.185  48.867  1.00  0.00     0.006 C 
BRANCH   7   8
ATOM      8  C   UNL     1      38.563  41.495  49.402  1.00  0.00     0.053 C 
BRANCH   8   9
ATOM      9  C   UNL     1      38.984  42.110  50.699  1.00  0.00     0.041 C 
ATOM     10  O   UNL     1      38.509  43.218  51.061  1.00  0.00    -0.550 OA
ATOM     11  O   UNL     1      39.936  41.478  51.490  1.00  0.00    -0.550 OA
ENDBRANCH   8   9
ENDBRANCH   7   8
ENDBRANCH   6   7
ENDBRANCH   5   6
ENDBRANCH   4   5
ENDBRANCH   3   4
ENDBRANCH   2   3
ENDBRANCH   1   2
BRANCH   1  12
ATOM     12  C   UNL     1      31.825  44.522  44.771  1.00  0.00     0.000 C 
BRANCH  12  13
ATOM     13  C   UNL     1      31.445  43.228  45.512  1.00  0.00    -0.000 C 
BRANCH  13  14
ATOM     14  C   UNL     1      30.380  43.402  46.614  1.00  0.00    -0.000 C 
BRANCH  14  15
ATOM     15  C   UNL     1      30.931  43.467  48.054  1.00  0.00    -0.000 C 
BRANCH  15  16
ATOM     16  C   UNL     1      32.449  43.706  48.159  1.00  0.00    -0.000 C 
BRANCH  16  17
ATOM     17  C   UNL     1      33.154  42.680  49.056  1.00  0.00    -0.000 C 
BRANCH  17  18
ATOM     18  C   UNL     1      34.148  43.369  50.002  1.00  0.00    -0.000 C 
BRANCH  18  19
ATOM     19  C   UNL     1      34.661  44.706  49.446  1.00  0.00    -0.003 C 
ATOM     20  C   UNL     1      35.282  45.596  50.523  1.00  0.00     0.004 C 
ENDBRANCH  18  19
ENDBRANCH  17  18
ENDBRANCH  16  17
ENDBRANCH  15  16
ENDBRANCH  14  15
ENDBRANCH  13  14
ENDBRANCH  12  13
ENDBRANCH   1  12
TORSDOF 16
ENDMDL
MODEL 4
REMARK VINA RESULT:    -5.111      2.332      3.697
REMARK INTER + INTRA:         -12.194
REMARK INTER:                 -10.084
REMARK INTRA:                  -2.110
REMARK UNBOUND:                -2.303
REMARK SMILES CCCCCCCCCCCCCCCCCC(=O)[O-]
REMARK SMILES IDX 10 1 11 2 12 3 13 4 14 5 15 6 16 7 17 8 18 9 19 10 20 11
REMARK SMILES IDX 9 12 8 13 7 14 6 15 5 16 4 17 3 18 2 19 1 20
REMARK H PARENT
REMARK Flexibility Score: inf
ROOT
ATOM      1  C   UNL     1      36.699  42.075  47.275  1.00  0.00     0.000 C 
ENDROOT
BRANCH   1   2
ATOM      2  C   UNL     1      37.991  42.462  48.015  1.00  0.00     0.000 C 
BRANCH   2   3
ATOM      3  C   UNL     1      38.516  41.331  48.917  1.00  0.00     0.000 C 
BRANCH   3   4
ATOM      4  C   UNL     1      38.458  41.696  50.409  1.00  0.00     0.000 C 
BRANCH   4   5
ATOM      5  C   UNL     1      37.674  42.995  50.664  1.00  0.00     0.000 C 
BRANCH   5   6
ATOM      6  C   UNL     1      36.298  42.748  51.311  1.00  0.00     0.000 C 
BRANCH   6   7
ATOM      7  C   UNL     1      35.095  42.898  50.361  1.00  0.00     0.006 C 
BRANCH   7   8
ATOM      8  C   UNL     1      34.090  43.958  50.832  1.00  0.00     0.053 C 
BRANCH   8   9
ATOM      9  C   UNL     1      34.784  45.258  51.092  1.00  0.00     0.041 C 
ATOM     10  O   UNL     1      35.267  45.922  50.139  1.00  0.00    -0.550 OA
ATOM     11  O   UNL     1      34.935  45.714  52.396  1.00  0.00    -0.550 OA
ENDBRANCH   8   9
ENDBRANCH   7   8
ENDBRANCH   6   7
ENDBRANCH   5   6
ENDBRANCH   4   5
ENDBRANCH   3   4
ENDBRANCH   2   3
ENDBRANCH   1   2
BRANCH   1  12
ATOM     12  C   UNL     1      36.180  43.197  46.360  1.00  0.00     0.000 C 
BRANCH  12  13
ATOM     13  C   UNL     1      35.549  44.361  47.145  1.00  0.00    -0.000 C 
BRANCH  13  14
ATOM     14  C   UNL     1      34.029  44.527  46.946  1.00  0.00    -0.000 C 
BRANCH  14  15
ATOM     15  C   UNL     1      33.205  43.229  47.081  1.00  0.00    -0.000 C 
BRANCH  15  16
ATOM     16  C   UNL     1      32.116  43.037  46.009  1.00  0.00    -0.000 C 
BRANCH  16  17
ATOM     17  C   UNL     1      31.835  44.315  45.207  1.00  0.00    -0.000 C 
BRANCH  17  18
ATOM     18  C   UNL     1      32.025  44.072  43.703  1.00  0.00    -0.000 C 
BRANCH  18  19
ATOM     19  C   UNL     1      32.562  45.310  42.968  1.00  0.00    -0.003 C 
ATOM     20  C   UNL     1      33.981  45.685  43.399  1.00  0.00     0.004 C 
ENDBRANCH  18  19
ENDBRANCH  17  18
ENDBRANCH  16  17
ENDBRANCH  15  16
ENDBRANCH  14  15
ENDBRANCH  13  14
ENDBRANCH  12  13
ENDBRANCH   1  12
TORSDOF 16
ENDMDL
MODEL 5
REMARK VINA RESULT:    -5.072      2.017      2.981
REMARK INTER + INTRA:         -12.119
REMARK INTER:                 -10.131
REMARK INTRA:                  -1.987
REMARK UNBOUND:                -2.303
REMARK SMILES CCCCCCCCCCCCCCCCCC(=O)[O-]
REMARK SMILES IDX 10 1 11 2 12 3 13 4 14 5 15 6 16 7 17 8 18 9 19 10 20 11
REMARK SMILES IDX 9 12 8 13 7 14 6 15 5 16 4 17 3 18 2 19 1 20
REMARK H PARENT
REMARK Flexibility Score: inf
ROOT
ATOM      1  C   UNL     1      34.782  43.915  47.512  1.00  0.00     0.000 C 
ENDROOT
BRANCH   1   2
ATOM      2  C   UNL     1      35.976  43.493  46.640  1.00  0.00     0.000 C 
BRANCH   2   3
ATOM      3  C   UNL     1      36.672  42.224  47.165  1.00  0.00     0.000 C 
BRANCH   3   4
ATOM      4  C   UNL     1      37.949  42.543  47.958  1.00  0.00     0.000 C 
BRANCH   4   5
ATOM      5  C   UNL     1      38.371  41.386  48.881  1.00  0.00     0.000 C 
BRANCH   5   6
ATOM      6  C   UNL     1      38.457  41.799  50.362  1.00  0.00     0.000 C 
BRANCH   6   7
ATOM      7  C   UNL     1      37.766  43.131  50.708  1.00  0.00     0.006 C 
BRANCH   7   8
ATOM      8  C   UNL     1      36.365  42.939  51.305  1.00  0.00     0.053 C 
BRANCH   8   9
ATOM      9  C   UNL     1      35.772  44.261  51.680  1.00  0.00     0.041 C 
ATOM     10  O   UNL     1      35.698  45.188  50.831  1.00  0.00    -0.550 OA
ATOM     11  O   UNL     1      35.340  44.483  52.982  1.00  0.00    -0.550 OA
ENDBRANCH   8   9
ENDBRANCH   7   8
ENDBRANCH   6   7
ENDBRANCH   5   6
ENDBRANCH   4   5
ENDBRANCH   3   4
ENDBRANCH   2   3
ENDBRANCH   1   2
BRANCH   1  12
ATOM     12  C   UNL     1      34.378  42.833  48.529  1.00  0.00     0.000 C 
BRANCH  12  13
ATOM     13  C   UNL     1      32.905  42.407  48.389  1.00  0.00    -0.000 C 
BRANCH  13  14
ATOM     14  C   UNL     1      32.594  41.549  47.146  1.00  0.00    -0.000 C 
BRANCH  14  15
ATOM     15  C   UNL     1      31.576  42.162  46.164  1.00  0.00    -0.000 C 
BRANCH  15  16
ATOM     16  C   UNL     1      31.262  43.652  46.399  1.00  0.00    -0.000 C 
BRANCH  16  17
ATOM     17  C   UNL     1      31.531  44.521  45.163  1.00  0.00    -0.000 C 
BRANCH  17  18
ATOM     18  C   UNL     1      32.874  44.152  44.515  1.00  0.00    -0.000 C 
BRANCH  18  19
ATOM     19  C   UNL     1      33.308  45.162  43.442  1.00  0.00    -0.003 C 
ATOM     20  C   UNL     1      32.188  45.503  42.460  1.00  0.00     0.004 C 
ENDBRANCH  18  19
ENDBRANCH  17  18
ENDBRANCH  16  17
ENDBRANCH  15  16
ENDBRANCH  14  15
ENDBRANCH  13  14
ENDBRANCH  12  13
ENDBRANCH   1  12
TORSDOF 16
ENDMDL
MODEL 6
REMARK VINA RESULT:    -5.058      1.056      2.714
REMARK INTER + INTRA:         -12.091
REMARK INTER:                  -9.463
REMARK INTRA:                  -2.628
REMARK UNBOUND:                -2.303
REMARK SMILES CCCCCCCCCCCCCCCCCC(=O)[O-]
REMARK SMILES IDX 10 1 11 2 12 3 13 4 14 5 15 6 16 7 17 8 18 9 19 10 20 11
REMARK SMILES IDX 9 12 8 13 7 14 6 15 5 16 4 17 3 18 2 19 1 20
REMARK H PARENT
REMARK Flexibility Score: inf
ROOT
ATOM      1  C   UNL     1      34.470  42.692  47.353  1.00  0.00     0.000 C 
ENDROOT
BRANCH   1   2
ATOM      2  C   UNL     1      33.542  42.442  48.553  1.00  0.00     0.000 C 
BRANCH   2   3
ATOM      3  C   UNL     1      33.171  43.740  49.293  1.00  0.00     0.000 C 
BRANCH   3   4
ATOM      4  C   UNL     1      33.746  43.786  50.718  1.00  0.00     0.000 C 
BRANCH   4   5
ATOM      5  C   UNL     1      34.930  44.761  50.840  1.00  0.00     0.000 C 
BRANCH   5   6
ATOM      6  C   UNL     1      36.198  44.097  51.409  1.00  0.00     0.000 C 
BRANCH   6   7
ATOM      7  C   UNL     1      36.452  42.657  50.928  1.00  0.00     0.006 C 
BRANCH   7   8
ATOM      8  C   UNL     1      37.346  42.592  49.682  1.00  0.00     0.053 C 
BRANCH   8   9
ATOM      9  C   UNL     1      38.550  41.743  49.946  1.00  0.00     0.041 C 
ATOM     10  O   UNL     1      38.966  40.940  49.071  1.00  0.00    -0.550 OA
ATOM     11  O   UNL     1      39.188  41.810  51.179  1.00  0.00    -0.550 OA
ENDBRANCH   8   9
ENDBRANCH   7   8
ENDBRANCH   6   7
ENDBRANCH   5   6
ENDBRANCH   4   5
ENDBRANCH   3   4
ENDBRANCH   2   3
ENDBRANCH   1   2
BRANCH   1  12
ATOM     12  C   UNL     1      34.945  44.153  47.264  1.00  0.00     0.000 C 
BRANCH  12  13
ATOM     13  C   UNL     1      35.869  44.405  46.058  1.00  0.00    -0.000 C 
BRANCH  13  14
ATOM     14  C   UNL     1      35.199  44.224  44.681  1.00  0.00    -0.000 C 
BRANCH  14  15
ATOM     15  C   UNL     1      34.002  45.158  44.406  1.00  0.00    -0.000 C 
BRANCH  15  16
ATOM     16  C   UNL     1      32.860  44.526  43.588  1.00  0.00    -0.000 C 
BRANCH  16  17
ATOM     17  C   UNL     1      31.879  43.723  44.453  1.00  0.00    -0.000 C 
BRANCH  17  18
ATOM     18  C   UNL     1      31.615  44.436  45.787  1.00  0.00    -0.000 C 
BRANCH  18  19
ATOM     19  C   UNL     1      30.560  43.717  46.641  1.00  0.00    -0.003 C 
ATOM     20  C   UNL     1      30.475  42.220  46.341  1.00  0.00     0.004 C 
ENDBRANCH  18  19
ENDBRANCH  17  18
ENDBRANCH  16  17
ENDBRANCH  15  16
ENDBRANCH  14  15
ENDBRANCH  13  14
ENDBRANCH  12  13
ENDBRANCH   1  12
TORSDOF 16
ENDMDL
MODEL 7
REMARK VINA RESULT:    -5.035      2.337      5.587
REMARK INTER + INTRA:         -12.047
REMARK INTER:                 -10.133
REMARK INTRA:                  -1.914
REMARK UNBOUND:                -2.303
REMARK SMILES CCCCCCCCCCCCCCCCCC(=O)[O-]
REMARK SMILES IDX 10 1 11 2 12 3 13 4 14 5 15 6 16 7 17 8 18 9 19 10 20 11
REMARK SMILES IDX 9 12 8 13 7 14 6 15 5 16 4 17 3 18 2 19 1 20
REMARK H PARENT
REMARK Flexibility Score: inf
ROOT
ATOM      1  C   UNL     1      31.752  43.906  44.437  1.00  0.00     0.000 C 
ENDROOT
BRANCH   1   2
ATOM      2  C   UNL     1      31.859  43.336  45.861  1.00  0.00     0.000 C 
BRANCH   2   3
ATOM      3  C   UNL     1      31.686  44.416  46.944  1.00  0.00     0.000 C 
BRANCH   3   4
ATOM      4  C   UNL     1      32.737  44.302  48.059  1.00  0.00     0.000 C 
BRANCH   4   5
ATOM      5  C   UNL     1      32.516  43.066  48.949  1.00  0.00     0.000 C 
BRANCH   5   6
ATOM      6  C   UNL     1      33.821  42.528  49.565  1.00  0.00     0.000 C 
BRANCH   6   7
ATOM      7  C   UNL     1      33.957  42.731  51.085  1.00  0.00     0.006 C 
BRANCH   7   8
ATOM      8  C   UNL     1      35.286  43.388  51.483  1.00  0.00     0.053 C 
BRANCH   8   9
ATOM      9  C   UNL     1      35.167  44.879  51.434  1.00  0.00     0.041 C 
ATOM     10  O   UNL     1      34.795  45.521  52.450  1.00  0.00    -0.550 OA
ATOM     11  O   UNL     1      35.428  45.556  50.249  1.00  0.00    -0.550 OA
ENDBRANCH   8   9
ENDBRANCH   7   8
ENDBRANCH   6   7
ENDBRANCH   5   6
ENDBRANCH   4   5
ENDBRANCH   3   4
ENDBRANCH   2   3
ENDBRANCH   1   2
BRANCH   1  12
ATOM     12  C   UNL     1      32.780  45.016  44.163  1.00  0.00     0.000 C 
BRANCH  12  13
ATOM     13  C   UNL     1      34.230  44.501  44.175  1.00  0.00    -0.000 C 
BRANCH  13  14
ATOM     14  C   UNL     1      35.074  44.972  45.377  1.00  0.00    -0.000 C 
BRANCH  14  15
ATOM     15  C   UNL     1      36.234  44.034  45.771  1.00  0.00    -0.000 C 
BRANCH  15  16
ATOM     16  C   UNL     1      35.911  43.040  46.902  1.00  0.00    -0.000 C 
BRANCH  16  17
ATOM     17  C   UNL     1      37.114  42.171  47.295  1.00  0.00    -0.000 C 
BRANCH  17  18
ATOM     18  C   UNL     1      37.478  42.374  48.773  1.00  0.00    -0.000 C 
BRANCH  18  19
ATOM     19  C   UNL     1      38.582  41.417  49.245  1.00  0.00    -0.003 C 
ATOM     20  C   UNL     1      38.796  41.459  50.759  1.00  0.00     0.004 C 
ENDBRANCH  18  19
ENDBRANCH  17  18
ENDBRANCH  16  17
ENDBRANCH  15  16
ENDBRANCH  14  15
ENDBRANCH  13  14
ENDBRANCH  12  13
ENDBRANCH   1  12
TORSDOF 16
ENDMDL
MODEL 8
REMARK VINA RESULT:    -5.016      2.491      6.809
REMARK INTER + INTRA:         -12.010
REMARK INTER:                 -10.338
REMARK INTRA:                  -1.673
REMARK UNBOUND:                -2.303
REMARK SMILES CCCCCCCCCCCCCCCCCC(=O)[O-]
REMARK SMILES IDX 10 1 11 2 12 3 13 4 14 5 15 6 16 7 17 8 18 9 19 10 20 11
REMARK SMILES IDX 9 12 8 13 7 14 6 15 5 16 4 17 3 18 2 19 1 20
REMARK H PARENT
REMARK Flexibility Score: inf
ROOT
ATOM      1  C   UNL     1      34.762  44.626  44.891  1.00  0.00     0.000 C 
ENDROOT
BRANCH   1   2
ATOM      2  C   UNL     1      33.258  44.328  44.774  1.00  0.00     0.000 C 
BRANCH   2   3
ATOM      3  C   UNL     1      32.572  44.203  46.146  1.00  0.00     0.000 C 
BRANCH   3   4
ATOM      4  C   UNL     1      31.972  42.807  46.376  1.00  0.00     0.000 C 
BRANCH   4   5
ATOM      5  C   UNL     1      32.447  42.176  47.697  1.00  0.00     0.000 C 
BRANCH   5   6
ATOM      6  C   UNL     1      32.579  43.200  48.839  1.00  0.00     0.000 C 
BRANCH   6   7
ATOM      7  C   UNL     1      33.907  43.141  49.616  1.00  0.00     0.006 C 
BRANCH   7   8
ATOM      8  C   UNL     1      33.837  43.851  50.975  1.00  0.00     0.053 C 
BRANCH   8   9
ATOM      9  C   UNL     1      34.739  45.044  50.988  1.00  0.00     0.041 C 
ATOM     10  O   UNL     1      35.061  45.609  49.910  1.00  0.00    -0.550 OA
ATOM     11  O   UNL     1      35.260  45.507  52.190  1.00  0.00    -0.550 OA
ENDBRANCH   8   9
ENDBRANCH   7   8
ENDBRANCH   6   7
ENDBRANCH   5   6
ENDBRANCH   4   5
ENDBRANCH   3   4
ENDBRANCH   2   3
ENDBRANCH   1   2
BRANCH   1  12
ATOM     12  C   UNL     1      35.302  44.403  46.314  1.00  0.00     0.000 C 
BRANCH  12  13
ATOM     13  C   UNL     1      36.515  43.456  46.347  1.00  0.00    -0.000 C 
BRANCH  13  14
ATOM     14  C   UNL     1      36.449  42.357  47.428  1.00  0.00    -0.000 C 
BRANCH  14  15
ATOM     15  C   UNL     1      37.681  42.272  48.352  1.00  0.00    -0.000 C 
BRANCH  15  16
ATOM     16  C   UNL     1      37.393  42.524  49.844  1.00  0.00    -0.000 C 
BRANCH  16  17
ATOM     17  C   UNL     1      38.666  42.782  50.662  1.00  0.00    -0.000 C 
BRANCH  17  18
ATOM     18  C   UNL     1      39.281  41.463  51.151  1.00  0.00    -0.000 C 
BRANCH  18  19
ATOM     19  C   UNL     1      40.418  41.680  52.161  1.00  0.00    -0.003 C 
ATOM     20  C   UNL     1      40.586  40.505  53.125  1.00  0.00     0.004 C 
ENDBRANCH  18  19
ENDBRANCH  17  18
ENDBRANCH  16  17
ENDBRANCH  15  16
ENDBRANCH  14  15
ENDBRANCH  13  14
ENDBRANCH  12  13
ENDBRANCH   1  12
TORSDOF 16
ENDMDL
MODEL 9
REMARK VINA RESULT:    -4.929      1.235      3.167
REMARK INTER + INTRA:         -11.841
REMARK INTER:                  -9.531
REMARK INTRA:                  -2.311
REMARK UNBOUND:                -2.303
REMARK SMILES CCCCCCCCCCCCCCCCCC(=O)[O-]
REMARK SMILES IDX 10 1 11 2 12 3 13 4 14 5 15 6 16 7 17 8 18 9 19 10 20 11
REMARK SMILES IDX 9 12 8 13 7 14 6 15 5 16 4 17 3 18 2 19 1 20
REMARK H PARENT
REMARK Flexibility Score: inf
ROOT
ATOM      1  C   UNL     1      31.150  43.977  47.703  1.00  0.00     0.000 C 
ENDROOT
BRANCH   1   2
ATOM      2  C   UNL     1      31.411  43.519  49.147  1.00  0.00     0.000 C 
BRANCH   2   3
ATOM      3  C   UNL     1      32.883  43.691  49.564  1.00  0.00     0.000 C 
BRANCH   3   4
ATOM      4  C   UNL     1      33.574  44.840  48.813  1.00  0.00     0.000 C 
BRANCH   4   5
ATOM      5  C   UNL     1      34.943  45.197  49.418  1.00  0.00     0.000 C 
BRANCH   5   6
ATOM      6  C   UNL     1      35.190  44.527  50.782  1.00  0.00     0.000 C 
BRANCH   6   7
ATOM      7  C   UNL     1      36.627  44.021  51.008  1.00  0.00     0.006 C 
BRANCH   7   8
ATOM      8  C   UNL     1      36.767  42.506  50.808  1.00  0.00     0.053 C 
BRANCH   8   9
ATOM      9  C   UNL     1      38.128  42.172  50.284  1.00  0.00     0.041 C 
ATOM     10  O   UNL     1      39.124  42.177  51.055  1.00  0.00    -0.550 OA
ATOM     11  O   UNL     1      38.304  41.896  48.934  1.00  0.00    -0.550 OA
ENDBRANCH   8   9
ENDBRANCH   7   8
ENDBRANCH   6   7
ENDBRANCH   5   6
ENDBRANCH   4   5
ENDBRANCH   3   4
ENDBRANCH   2   3
ENDBRANCH   1   2
BRANCH   1  12
ATOM     12  C   UNL     1      30.833  42.807  46.756  1.00  0.00     0.000 C 
BRANCH  12  13
ATOM     13  C   UNL     1      31.310  43.062  45.315  1.00  0.00    -0.000 C 
BRANCH  13  14
ATOM     14  C   UNL     1      31.954  44.443  45.082  1.00  0.00    -0.000 C 
BRANCH  14  15
ATOM     15  C   UNL     1      32.794  44.565  43.793  1.00  0.00    -0.000 C 
BRANCH  15  16
ATOM     16  C   UNL     1      34.289  44.864  44.017  1.00  0.00    -0.000 C 
BRANCH  16  17
ATOM     17  C   UNL     1      34.705  44.752  45.491  1.00  0.00    -0.000 C 
BRANCH  17  18
ATOM     18  C   UNL     1      36.092  44.107  45.621  1.00  0.00    -0.000 C 
BRANCH  18  19
ATOM     19  C   UNL     1      36.136  43.017  46.702  1.00  0.00    -0.003 C 
ATOM     20  C   UNL     1      34.804  42.282  46.858  1.00  0.00     0.004 C 
ENDBRANCH  18  19
ENDBRANCH  17  18
ENDBRANCH  16  17
ENDBRANCH  15  16
ENDBRANCH  14  15
ENDBRANCH  13  14
ENDBRANCH  12  13
ENDBRANCH   1  12
TORSDOF 16
ENDMDL
