MODEL 1
REMARK VINA RESULT:    -2.018      0.000      0.000
REMARK INTER + INTRA:          -7.422
REMARK INTER:                  -5.322
REMARK INTRA:                  -2.100
REMARK UNBOUND:                -2.100
REMARK SMILES CCCCCCCCCCCCCCCCCCCCCCCCCCCCCC(=O)[O-]
REMARK SMILES IDX 16 1 17 2 18 3 19 4 20 5 21 6 22 7 23 8 24 9 25 10 26 11
REMARK SMILES IDX 27 12 28 13 29 14 30 15 31 16 32 17 15 18 14 19 13 20 12 21
REMARK SMILES IDX 11 22 10 23 9 24 8 25 7 26 6 27 5 28 4 29 3 30 2 31 1 32
REMARK H PARENT
REMARK Flexibility Score: inf
ROOT
ATOM      1  C   UNL     1       3.702   8.362   0.653  1.00  0.00     0.000 C 
ENDROOT
BRANCH   1   2
ATOM      2  C   UNL     1       3.246   9.055  -0.641  1.00  0.00     0.000 C 
BRANCH   2   3
ATOM      3  C   UNL     1       3.785  10.494  -0.761  1.00  0.00     0.000 C 
BRANCH   3   4
ATOM      4  C   UNL     1       2.888  11.542  -0.070  1.00  0.00     0.000 C 
BRANCH   4   5
ATOM      5  C   UNL     1       3.087  12.984  -0.573  1.00  0.00     0.000 C 
BRANCH   5   6
ATOM      6  C   UNL     1       2.875  13.124  -2.089  1.00  0.00     0.000 C 
BRANCH   6   7
ATOM      7  C   UNL     1       3.594  12.036  -2.910  1.00  0.00     0.000 C 
BRANCH   7   8
ATOM      8  C   UNL     1       4.835  12.510  -3.694  1.00  0.00     0.000 C 
BRANCH   8   9
ATOM      9  C   UNL     1       5.918  11.426  -3.831  1.00  0.00     0.000 C 
BRANCH   9  10
ATOM     10  C   UNL     1       6.489  11.325  -5.253  1.00  0.00     0.000 C 
BRANCH  10  11
ATOM     11  C   UNL     1       5.997  12.459  -6.170  1.00  0.00     0.000 C 
BRANCH  11  12
ATOM     12  C   UNL     1       5.589  11.967  -7.570  1.00  0.00     0.000 C 
BRANCH  12  13
ATOM     13  C   UNL     1       4.280  12.563  -8.125  1.00  0.00     0.006 C 
BRANCH  13  14
ATOM     14  C   UNL     1       3.041  12.279  -7.254  1.00  0.00     0.053 C 
BRANCH  14  15
ATOM     15  C   UNL     1       2.942  10.838  -6.852  1.00  0.00     0.041 C 
ATOM     16  O   UNL     1       2.876   9.935  -7.730  1.00  0.00    -0.550 OA
ATOM     17  O   UNL     1       2.887  10.492  -5.507  1.00  0.00    -0.550 OA
ENDBRANCH  14  15
ENDBRANCH  13  14
ENDBRANCH  12  13
ENDBRANCH  11  12
ENDBRANCH  10  11
ENDBRANCH   9  10
ENDBRANCH   8   9
ENDBRANCH   7   8
ENDBRANCH   6   7
ENDBRANCH   5   6
ENDBRANCH   4   5
ENDBRANCH   3   4
ENDBRANCH   2   3
ENDBRANCH   1   2
BRANCH   1  18
ATOM     18  C   UNL     1       3.508   9.244   1.899  1.00  0.00     0.000 C 
BRANCH  18  19
ATOM     19  C   UNL     1       3.990   8.559   3.188  1.00  0.00     0.000 C 
BRANCH  19  20
ATOM     20  C   UNL     1       5.410   8.990   3.590  1.00  0.00     0.000 C 
BRANCH  20  21
ATOM     21  C   UNL     1       6.385   7.805   3.528  1.00  0.00     0.000 C 
BRANCH  21  22
ATOM     22  C   UNL     1       5.887   6.678   2.606  1.00  0.00     0.000 C 
BRANCH  22  23
ATOM     23  C   UNL     1       6.776   6.492   1.364  1.00  0.00     0.000 C 
BRANCH  23  24
ATOM     24  C   UNL     1       6.876   7.777   0.516  1.00  0.00    -0.000 C 
BRANCH  24  25
ATOM     25  C   UNL     1       8.138   8.621   0.793  1.00  0.00    -0.000 C 
BRANCH  25  26
ATOM     26  C   UNL     1       7.917  10.142   0.684  1.00  0.00    -0.000 C 
BRANCH  26  27
ATOM     27  C   UNL     1       7.372  10.559  -0.694  1.00  0.00    -0.000 C 
BRANCH  27  28
ATOM     28  C   UNL     1       7.506  12.070  -0.955  1.00  0.00    -0.000 C 
BRANCH  28  29
ATOM     29  C   UNL     1       7.417  12.959   0.302  1.00  0.00    -0.000 C 
BRANCH  29  30
ATOM     30  C   UNL     1       6.051  12.951   1.015  1.00  0.00    -0.000 C 
BRANCH  30  31
ATOM     31  C   UNL     1       6.038  12.238   2.378  1.00  0.00    -0.003 C 
ATOM     32  C   UNL     1       6.849  12.979   3.443  1.00  0.00     0.004 C 
ENDBRANCH  30  31
ENDBRANCH  29  30
ENDBRANCH  28  29
ENDBRANCH  27  28
ENDBRANCH  26  27
ENDBRANCH  25  26
ENDBRANCH  24  25
ENDBRANCH  23  24
ENDBRANCH  22  23
ENDBRANCH  21  22
ENDBRANCH  20  21
ENDBRANCH  19  20
ENDBRANCH  18  19
ENDBRANCH   1  18
TORSDOF 28
ENDMDL
MODEL 2
REMARK VINA RESULT:    -1.983      2.278      7.604
REMARK INTER + INTRA:          -7.328
REMARK INTER:                  -5.545
REMARK INTRA:                  -1.783
REMARK UNBOUND:                -2.100
REMARK SMILES CCCCCCCCCCCCCCCCCCCCCCCCCCCCCC(=O)[O-]
REMARK SMILES IDX 16 1 17 2 18 3 19 4 20 5 21 6 22 7 23 8 24 9 25 10 26 11
REMARK SMILES IDX 27 12 28 13 29 14 30 15 31 16 32 17 15 18 14 19 13 20 12 21
REMARK SMILES IDX 11 22 10 23 9 24 8 25 7 26 6 27 5 28 4 29 3 30 2 31 1 32
REMARK H PARENT
REMARK Flexibility Score: inf
ROOT
ATOM      1  C   UNL     1       6.202  13.125   1.693  1.00  0.00     0.000 C 
ENDROOT
BRANCH   1   2
ATOM      2  C   UNL     1       4.981  12.207   1.530  1.00  0.00     0.000 C 
BRANCH   2   3
ATOM      3  C   UNL     1       3.721  12.974   1.083  1.00  0.00     0.000 C 
BRANCH   3   4
ATOM      4  C   UNL     1       2.875  12.208   0.044  1.00  0.00     0.000 C 
BRANCH   4   5
ATOM      5  C   UNL     1       3.557  10.956  -0.536  1.00  0.00     0.000 C 
BRANCH   5   6
ATOM      6  C   UNL     1       2.944   9.645  -0.015  1.00  0.00     0.000 C 
BRANCH   6   7
ATOM      7  C   UNL     1       2.877   9.570   1.523  1.00  0.00     0.000 C 
BRANCH   7   8
ATOM      8  C   UNL     1       3.277   8.215   2.138  1.00  0.00     0.000 C 
BRANCH   8   9
ATOM      9  C   UNL     1       3.511   8.282   3.657  1.00  0.00     0.000 C 
BRANCH   9  10
ATOM     10  C   UNL     1       4.893   8.840   4.028  1.00  0.00     0.000 C 
BRANCH  10  11
ATOM     11  C   UNL     1       6.009   8.312   3.109  1.00  0.00     0.000 C 
BRANCH  11  12
ATOM     12  C   UNL     1       6.124   6.777   3.122  1.00  0.00     0.000 C 
BRANCH  12  13
ATOM     13  C   UNL     1       6.278   6.113   1.739  1.00  0.00     0.006 C 
BRANCH  13  14
ATOM     14  C   UNL     1       6.212   7.100   0.557  1.00  0.00     0.053 C 
BRANCH  14  15
ATOM     15  C   UNL     1       7.367   6.942  -0.385  1.00  0.00     0.041 C 
ATOM     16  O   UNL     1       8.460   7.526  -0.156  1.00  0.00    -0.550 OA
ATOM     17  O   UNL     1       7.226   6.177  -1.537  1.00  0.00    -0.550 OA
ENDBRANCH  14  15
ENDBRANCH  13  14
ENDBRANCH  12  13
ENDBRANCH  11  12
ENDBRANCH  10  11
ENDBRANCH   9  10
ENDBRANCH   8   9
ENDBRANCH   7   8
ENDBRANCH   6   7
ENDBRANCH   5   6
ENDBRANCH   4   5
ENDBRANCH   3   4
ENDBRANCH   2   3
ENDBRANCH   1   2
BRANCH   1  18
ATOM     18  C   UNL     1       7.530  12.347   1.726  1.00  0.00     0.000 C 
BRANCH  18  19
ATOM     19  C   UNL     1       8.160  12.196   0.331  1.00  0.00     0.000 C 
BRANCH  19  20
ATOM     20  C   UNL     1       7.806  10.857  -0.336  1.00  0.00     0.000 C 
BRANCH  20  21
ATOM     21  C   UNL     1       7.089  11.081  -1.676  1.00  0.00     0.000 C 
BRANCH  21  22
ATOM     22  C   UNL     1       6.055  12.218  -1.610  1.00  0.00     0.000 C 
BRANCH  22  23
ATOM     23  C   UNL     1       5.736  12.811  -2.994  1.00  0.00     0.000 C 
BRANCH  23  24
ATOM     24  C   UNL     1       6.847  12.523  -4.026  1.00  0.00    -0.000 C 
BRANCH  24  25
ATOM     25  C   UNL     1       6.340  12.369  -5.474  1.00  0.00    -0.000 C 
BRANCH  25  26
ATOM     26  C   UNL     1       7.457  12.181  -6.519  1.00  0.00    -0.000 C 
BRANCH  26  27
ATOM     27  C   UNL     1       6.932  12.273  -7.963  1.00  0.00    -0.000 C 
BRANCH  27  28
ATOM     28  C   UNL     1       5.412  12.052  -8.060  1.00  0.00    -0.000 C 
BRANCH  28  29
ATOM     29  C   UNL     1       4.557  13.047  -7.249  1.00  0.00    -0.000 C 
BRANCH  29  30
ATOM     30  C   UNL     1       3.121  12.580  -6.943  1.00  0.00    -0.000 C 
BRANCH  30  31
ATOM     31  C   UNL     1       3.010  11.148  -6.391  1.00  0.00    -0.003 C 
ATOM     32  C   UNL     1       3.026  11.100  -4.862  1.00  0.00     0.004 C 
ENDBRANCH  30  31
ENDBRANCH  29  30
ENDBRANCH  28  29
ENDBRANCH  27  28
ENDBRANCH  26  27
ENDBRANCH  25  26
ENDBRANCH  24  25
ENDBRANCH  23  24
ENDBRANCH  22  23
ENDBRANCH  21  22
ENDBRANCH  20  21
ENDBRANCH  19  20
ENDBRANCH  18  19
ENDBRANCH   1  18
TORSDOF 28
ENDMDL
MODEL 3
REMARK VINA RESULT:    -1.538      1.705      4.890
REMARK INTER + INTRA:          -6.157
REMARK INTER:                  -4.481
REMARK INTRA:                  -1.675
REMARK UNBOUND:                -2.100
REMARK SMILES CCCCCCCCCCCCCCCCCCCCCCCCCCCCCC(=O)[O-]
REMARK SMILES IDX 16 1 17 2 18 3 19 4 20 5 21 6 22 7 23 8 24 9 25 10 26 11
REMARK SMILES IDX 27 12 28 13 29 14 30 15 31 16 32 17 15 18 14 19 13 20 12 21
REMARK SMILES IDX 11 22 10 23 9 24 8 25 7 26 6 27 5 28 4 29 3 30 2 31 1 32
REMARK H PARENT
REMARK Flexibility Score: inf
ROOT
ATOM      1  C   UNL     1       7.635   9.082   0.098  1.00  0.00     0.000 C 
ENDROOT
BRANCH   1   2
ATOM      2  C   UNL     1       8.590  10.065   0.792  1.00  0.00     0.000 C 
BRANCH   2   3
ATOM      3  C   UNL     1       7.913  11.407   1.132  1.00  0.00     0.000 C 
BRANCH   3   4
ATOM      4  C   UNL     1       8.073  12.470   0.025  1.00  0.00     0.000 C 
BRANCH   4   5
ATOM      5  C   UNL     1       7.452  12.081  -1.329  1.00  0.00     0.000 C 
BRANCH   5   6
ATOM      6  C   UNL     1       7.710  13.125  -2.428  1.00  0.00     0.000 C 
BRANCH   6   7
ATOM      7  C   UNL     1       8.566  12.590  -3.592  1.00  0.00     0.000 C 
BRANCH   7   8
ATOM      8  C   UNL     1       8.147  13.068  -4.996  1.00  0.00     0.000 C 
BRANCH   8   9
ATOM      9  C   UNL     1       7.055  12.192  -5.635  1.00  0.00     0.000 C 
BRANCH   9  10
ATOM     10  C   UNL     1       6.353  12.877  -6.818  1.00  0.00     0.000 C 
BRANCH  10  11
ATOM     11  C   UNL     1       5.604  11.879  -7.719  1.00  0.00     0.000 C 
BRANCH  11  12
ATOM     12  C   UNL     1       4.095  12.167  -7.810  1.00  0.00     0.000 C 
BRANCH  12  13
ATOM     13  C   UNL     1       3.435  12.656  -6.505  1.00  0.00     0.006 C 
BRANCH  13  14
ATOM     14  C   UNL     1       3.053  11.525  -5.531  1.00  0.00     0.053 C 
BRANCH  14  15
ATOM     15  C   UNL     1       3.569  11.767  -4.144  1.00  0.00     0.041 C 
ATOM     16  O   UNL     1       3.824  10.795  -3.382  1.00  0.00    -0.550 OA
ATOM     17  O   UNL     1       3.734  13.066  -3.679  1.00  0.00    -0.550 OA
ENDBRANCH  14  15
ENDBRANCH  13  14
ENDBRANCH  12  13
ENDBRANCH  11  12
ENDBRANCH  10  11
ENDBRANCH   9  10
ENDBRANCH   8   9
ENDBRANCH   7   8
ENDBRANCH   6   7
ENDBRANCH   5   6
ENDBRANCH   4   5
ENDBRANCH   3   4
ENDBRANCH   2   3
ENDBRANCH   1   2
BRANCH   1  18
ATOM     18  C   UNL     1       6.216   9.113   0.693  1.00  0.00     0.000 C 
BRANCH  18  19
ATOM     19  C   UNL     1       5.175   9.674  -0.290  1.00  0.00     0.000 C 
BRANCH  19  20
ATOM     20  C   UNL     1       4.858  11.156  -0.033  1.00  0.00     0.000 C 
BRANCH  20  21
ATOM     21  C   UNL     1       3.417  11.334   0.469  1.00  0.00     0.000 C 
BRANCH  21  22
ATOM     22  C   UNL     1       3.353  11.986   1.861  1.00  0.00     0.000 C 
BRANCH  22  23
ATOM     23  C   UNL     1       2.876  11.011   2.951  1.00  0.00     0.000 C 
BRANCH  23  24
ATOM     24  C   UNL     1       3.010   9.536   2.519  1.00  0.00    -0.000 C 
BRANCH  24  25
ATOM     25  C   UNL     1       3.523   8.596   3.631  1.00  0.00    -0.000 C 
BRANCH  25  26
ATOM     26  C   UNL     1       5.004   8.808   4.004  1.00  0.00    -0.000 C 
BRANCH  26  27
ATOM     27  C   UNL     1       5.952   7.943   3.154  1.00  0.00    -0.000 C 
BRANCH  27  28
ATOM     28  C   UNL     1       5.303   6.628   2.688  1.00  0.00    -0.000 C 
BRANCH  28  29
ATOM     29  C   UNL     1       6.297   5.510   2.310  1.00  0.00    -0.000 C 
BRANCH  29  30
ATOM     30  C   UNL     1       7.047   5.722   0.981  1.00  0.00    -0.000 C 
BRANCH  30  31
ATOM     31  C   UNL     1       6.187   5.549  -0.282  1.00  0.00    -0.003 C 
ATOM     32  C   UNL     1       6.722   6.339  -1.477  1.00  0.00     0.004 C 
ENDBRANCH  30  31
ENDBRANCH  29  30
ENDBRANCH  28  29
ENDBRANCH  27  28
ENDBRANCH  26  27
ENDBRANCH  25  26
ENDBRANCH  24  25
ENDBRANCH  23  24
ENDBRANCH  22  23
ENDBRANCH  21  22
ENDBRANCH  20  21
ENDBRANCH  19  20
ENDBRANCH  18  19
ENDBRANCH   1  18
TORSDOF 28
ENDMDL
MODEL 4
REMARK VINA RESULT:    -1.105      1.805      3.408
REMARK INTER + INTRA:          -5.015
REMARK INTER:                  -2.678
REMARK INTRA:                  -2.336
REMARK UNBOUND:                -2.100
REMARK SMILES CCCCCCCCCCCCCCCCCCCCCCCCCCCCCC(=O)[O-]
REMARK SMILES IDX 16 1 17 2 18 3 19 4 20 5 21 6 22 7 23 8 24 9 25 10 26 11
REMARK SMILES IDX 27 12 28 13 29 14 30 15 31 16 32 17 15 18 14 19 13 20 12 21
REMARK SMILES IDX 11 22 10 23 9 24 8 25 7 26 6 27 5 28 4 29 3 30 2 31 1 32
REMARK H PARENT
REMARK Flexibility Score: inf
ROOT
ATOM      1  C   UNL     1       6.607   8.298  -1.274  1.00  0.00     0.000 C 
ENDROOT
BRANCH   1   2
ATOM      2  C   UNL     1       7.094   9.745  -1.438  1.00  0.00     0.000 C 
BRANCH   2   3
ATOM      3  C   UNL     1       6.098  10.619  -2.226  1.00  0.00     0.000 C 
BRANCH   3   4
ATOM      4  C   UNL     1       6.473  12.116  -2.236  1.00  0.00     0.000 C 
BRANCH   4   5
ATOM      5  C   UNL     1       5.269  13.075  -2.227  1.00  0.00     0.000 C 
BRANCH   5   6
ATOM      6  C   UNL     1       4.129  12.597  -1.312  1.00  0.00     0.000 C 
BRANCH   6   7
ATOM      7  C   UNL     1       2.875  12.142  -2.082  1.00  0.00     0.000 C 
BRANCH   7   8
ATOM      8  C   UNL     1       3.143  11.287  -3.336  1.00  0.00     0.000 C 
BRANCH   8   9
ATOM      9  C   UNL     1       3.702  12.099  -4.518  1.00  0.00     0.000 C 
BRANCH   9  10
ATOM     10  C   UNL     1       2.962  11.825  -5.836  1.00  0.00     0.000 C 
BRANCH  10  11
ATOM     11  C   UNL     1       3.710  10.826  -6.738  1.00  0.00     0.000 C 
BRANCH  11  12
ATOM     12  C   UNL     1       4.062  11.409  -8.118  1.00  0.00     0.000 C 
BRANCH  12  13
ATOM     13  C   UNL     1       4.625  12.844  -8.107  1.00  0.00     0.006 C 
BRANCH  13  14
ATOM     14  C   UNL     1       6.164  12.915  -8.109  1.00  0.00     0.053 C 
BRANCH  14  15
ATOM     15  C   UNL     1       6.761  12.434  -6.820  1.00  0.00     0.041 C 
ATOM     16  O   UNL     1       6.636  13.115  -5.767  1.00  0.00    -0.550 OA
ATOM     17  O   UNL     1       7.486  11.248  -6.788  1.00  0.00    -0.550 OA
ENDBRANCH  14  15
ENDBRANCH  13  14
ENDBRANCH  12  13
ENDBRANCH  11  12
ENDBRANCH  10  11
ENDBRANCH   9  10
ENDBRANCH   8   9
ENDBRANCH   7   8
ENDBRANCH   6   7
ENDBRANCH   5   6
ENDBRANCH   4   5
ENDBRANCH   3   4
ENDBRANCH   2   3
ENDBRANCH   1   2
BRANCH   1  18
ATOM     18  C   UNL     1       5.191   8.213  -0.675  1.00  0.00     0.000 C 
BRANCH  18  19
ATOM     19  C   UNL     1       5.112   7.244   0.517  1.00  0.00     0.000 C 
BRANCH  19  20
ATOM     20  C   UNL     1       6.476   7.019   1.187  1.00  0.00     0.000 C 
BRANCH  20  21
ATOM     21  C   UNL     1       6.320   6.270   2.520  1.00  0.00     0.000 C 
BRANCH  21  22
ATOM     22  C   UNL     1       5.233   6.885   3.418  1.00  0.00     0.000 C 
BRANCH  22  23
ATOM     23  C   UNL     1       5.078   8.401   3.208  1.00  0.00     0.000 C 
BRANCH  23  24
ATOM     24  C   UNL     1       3.934   8.997   4.056  1.00  0.00    -0.000 C 
BRANCH  24  25
ATOM     25  C   UNL     1       2.953   9.883   3.260  1.00  0.00    -0.000 C 
BRANCH  25  26
ATOM     26  C   UNL     1       3.333  10.073   1.778  1.00  0.00    -0.000 C 
BRANCH  26  27
ATOM     27  C   UNL     1       3.730  11.525   1.456  1.00  0.00    -0.000 C 
BRANCH  27  28
ATOM     28  C   UNL     1       4.640  12.147   2.530  1.00  0.00    -0.000 C 
BRANCH  28  29
ATOM     29  C   UNL     1       5.978  12.705   2.005  1.00  0.00    -0.000 C 
BRANCH  29  30
ATOM     30  C   UNL     1       7.018  11.643   1.598  1.00  0.00    -0.000 C 
BRANCH  30  31
ATOM     31  C   UNL     1       8.445  12.179   1.396  1.00  0.00    -0.003 C 
ATOM     32  C   UNL     1       8.560  13.125   0.200  1.00  0.00     0.004 C 
ENDBRANCH  30  31
ENDBRANCH  29  30
ENDBRANCH  28  29
ENDBRANCH  27  28
ENDBRANCH  26  27
ENDBRANCH  25  26
ENDBRANCH  24  25
ENDBRANCH  23  24
ENDBRANCH  22  23
ENDBRANCH  21  22
ENDBRANCH  20  21
ENDBRANCH  19  20
ENDBRANCH  18  19
ENDBRANCH   1  18
TORSDOF 28
ENDMDL
MODEL 5
REMARK VINA RESULT:    -1.014      2.263      4.111
REMARK INTER + INTRA:          -4.773
REMARK INTER:                  -3.529
REMARK INTRA:                  -1.244
REMARK UNBOUND:                -2.100
REMARK SMILES CCCCCCCCCCCCCCCCCCCCCCCCCCCCCC(=O)[O-]
REMARK SMILES IDX 16 1 17 2 18 3 19 4 20 5 21 6 22 7 23 8 24 9 25 10 26 11
REMARK SMILES IDX 27 12 28 13 29 14 30 15 31 16 32 17 15 18 14 19 13 20 12 21
REMARK SMILES IDX 11 22 10 23 9 24 8 25 7 26 6 27 5 28 4 29 3 30 2 31 1 32
REMARK H PARENT
REMARK Flexibility Score: inf
ROOT
ATOM      1  C   UNL     1       4.015  10.286   1.120  1.00  0.00     0.000 C 
ENDROOT
BRANCH   1   2
ATOM      2  C   UNL     1       3.079  10.972   0.113  1.00  0.00     0.000 C 
BRANCH   2   3
ATOM      3  C   UNL     1       3.200  10.380  -1.305  1.00  0.00     0.000 C 
BRANCH   3   4
ATOM      4  C   UNL     1       3.831  11.353  -2.323  1.00  0.00     0.000 C 
BRANCH   4   5
ATOM      5  C   UNL     1       3.068  12.679  -2.495  1.00  0.00     0.000 C 
BRANCH   5   6
ATOM      6  C   UNL     1       2.876  13.072  -3.969  1.00  0.00     0.000 C 
BRANCH   6   7
ATOM      7  C   UNL     1       4.178  13.018  -4.791  1.00  0.00     0.000 C 
BRANCH   7   8
ATOM      8  C   UNL     1       4.495  11.656  -5.440  1.00  0.00     0.000 C 
BRANCH   8   9
ATOM      9  C   UNL     1       5.959  11.526  -5.895  1.00  0.00     0.000 C 
BRANCH   9  10
ATOM     10  C   UNL     1       6.546  12.849  -6.410  1.00  0.00     0.000 C 
BRANCH  10  11
ATOM     11  C   UNL     1       8.083  12.884  -6.332  1.00  0.00     0.000 C 
BRANCH  11  12
ATOM     12  C   UNL     1       8.617  12.683  -4.902  1.00  0.00     0.000 C 
BRANCH  12  13
ATOM     13  C   UNL     1       7.665  13.125  -3.772  1.00  0.00     0.006 C 
BRANCH  13  14
ATOM     14  C   UNL     1       8.161  12.769  -2.358  1.00  0.00     0.053 C 
BRANCH  14  15
ATOM     15  C   UNL     1       7.109  12.986  -1.311  1.00  0.00     0.041 C 
ATOM     16  O   UNL     1       7.431  13.100  -0.098  1.00  0.00    -0.550 OA
ATOM     17  O   UNL     1       5.766  13.028  -1.671  1.00  0.00    -0.550 OA
ENDBRANCH  14  15
ENDBRANCH  13  14
ENDBRANCH  12  13
ENDBRANCH  11  12
ENDBRANCH  10  11
ENDBRANCH   9  10
ENDBRANCH   8   9
ENDBRANCH   7   8
ENDBRANCH   6   7
ENDBRANCH   5   6
ENDBRANCH   4   5
ENDBRANCH   3   4
ENDBRANCH   2   3
ENDBRANCH   1   2
BRANCH   1  18
ATOM     18  C   UNL     1       4.202  11.105   2.410  1.00  0.00     0.000 C 
BRANCH  18  19
ATOM     19  C   UNL     1       3.052  10.901   3.410  1.00  0.00     0.000 C 
BRANCH  19  20
ATOM     20  C   UNL     1       2.984   9.462   3.948  1.00  0.00     0.000 C 
BRANCH  20  21
ATOM     21  C   UNL     1       4.114   8.601   3.362  1.00  0.00     0.000 C 
BRANCH  21  22
ATOM     22  C   UNL     1       5.447   8.790   4.106  1.00  0.00     0.000 C 
BRANCH  22  23
ATOM     23  C   UNL     1       6.482   7.707   3.753  1.00  0.00     0.000 C 
BRANCH  23  24
ATOM     24  C   UNL     1       5.821   6.361   3.389  1.00  0.00    -0.000 C 
BRANCH  24  25
ATOM     25  C   UNL     1       6.691   5.451   2.497  1.00  0.00    -0.000 C 
BRANCH  25  26
ATOM     26  C   UNL     1       6.472   5.653   0.985  1.00  0.00    -0.000 C 
BRANCH  26  27
ATOM     27  C   UNL     1       5.343   6.655   0.684  1.00  0.00    -0.000 C 
BRANCH  27  28
ATOM     28  C   UNL     1       5.547   7.400  -0.648  1.00  0.00    -0.000 C 
BRANCH  28  29
ATOM     29  C   UNL     1       6.782   8.321  -0.696  1.00  0.00    -0.000 C 
BRANCH  29  30
ATOM     30  C   UNL     1       7.054   9.121   0.593  1.00  0.00    -0.000 C 
BRANCH  30  31
ATOM     31  C   UNL     1       8.531   9.179   1.019  1.00  0.00    -0.003 C 
ATOM     32  C   UNL     1       9.311   7.922   0.627  1.00  0.00     0.004 C 
ENDBRANCH  30  31
ENDBRANCH  29  30
ENDBRANCH  28  29
ENDBRANCH  27  28
ENDBRANCH  26  27
ENDBRANCH  25  26
ENDBRANCH  24  25
ENDBRANCH  23  24
ENDBRANCH  22  23
ENDBRANCH  21  22
ENDBRANCH  20  21
ENDBRANCH  19  20
ENDBRANCH  18  19
ENDBRANCH   1  18
TORSDOF 28
ENDMDL
MODEL 6
REMARK VINA RESULT:    -0.765      2.193      4.735
REMARK INTER + INTRA:          -4.117
REMARK INTER:                  -1.423
REMARK INTRA:                  -2.694
REMARK UNBOUND:                -2.100
REMARK SMILES CCCCCCCCCCCCCCCCCCCCCCCCCCCCCC(=O)[O-]
REMARK SMILES IDX 16 1 17 2 18 3 19 4 20 5 21 6 22 7 23 8 24 9 25 10 26 11
REMARK SMILES IDX 27 12 28 13 29 14 30 15 31 16 32 17 15 18 14 19 13 20 12 21
REMARK SMILES IDX 11 22 10 23 9 24 8 25 7 26 6 27 5 28 4 29 3 30 2 31 1 32
REMARK H PARENT
REMARK Flexibility Score: inf
ROOT
ATOM      1  C   UNL     1       7.146  10.483   0.853  1.00  0.00     0.000 C 
ENDROOT
BRANCH   1   2
ATOM      2  C   UNL     1       7.604  11.495  -0.208  1.00  0.00     0.000 C 
BRANCH   2   3
ATOM      3  C   UNL     1       6.467  11.902  -1.166  1.00  0.00     0.000 C 
BRANCH   3   4
ATOM      4  C   UNL     1       6.884  12.981  -2.187  1.00  0.00     0.000 C 
BRANCH   4   5
ATOM      5  C   UNL     1       8.391  13.016  -2.499  1.00  0.00     0.000 C 
BRANCH   5   6
ATOM      6  C   UNL     1       8.692  12.984  -4.006  1.00  0.00     0.000 C 
BRANCH   6   7
ATOM      7  C   UNL     1       7.425  12.958  -4.883  1.00  0.00     0.000 C 
BRANCH   7   8
ATOM      8  C   UNL     1       7.672  12.828  -6.399  1.00  0.00     0.000 C 
BRANCH   8   9
ATOM      9  C   UNL     1       6.901  11.662  -7.042  1.00  0.00     0.000 C 
BRANCH   9  10
ATOM     10  C   UNL     1       5.859  12.128  -8.071  1.00  0.00     0.000 C 
BRANCH  10  11
ATOM     11  C   UNL     1       4.418  12.032  -7.539  1.00  0.00     0.000 C 
BRANCH  11  12
ATOM     12  C   UNL     1       4.351  11.635  -6.053  1.00  0.00     0.000 C 
BRANCH  12  13
ATOM     13  C   UNL     1       2.950  11.702  -5.413  1.00  0.00     0.006 C 
BRANCH  13  14
ATOM     14  C   UNL     1       2.876  12.586  -4.154  1.00  0.00     0.053 C 
BRANCH  14  15
ATOM     15  C   UNL     1       3.152  11.816  -2.897  1.00  0.00     0.041 C 
ATOM     16  O   UNL     1       3.447  10.591  -2.953  1.00  0.00    -0.550 OA
ATOM     17  O   UNL     1       3.047  12.441  -1.660  1.00  0.00    -0.550 OA
ENDBRANCH  14  15
ENDBRANCH  13  14
ENDBRANCH  12  13
ENDBRANCH  11  12
ENDBRANCH  10  11
ENDBRANCH   9  10
ENDBRANCH   8   9
ENDBRANCH   7   8
ENDBRANCH   6   7
ENDBRANCH   5   6
ENDBRANCH   4   5
ENDBRANCH   3   4
ENDBRANCH   2   3
ENDBRANCH   1   2
BRANCH   1  18
ATOM     18  C   UNL     1       6.432  11.152   2.041  1.00  0.00     0.000 C 
BRANCH  18  19
ATOM     19  C   UNL     1       5.628  10.150   2.886  1.00  0.00     0.000 C 
BRANCH  19  20
ATOM     20  C   UNL     1       4.192  10.627   3.161  1.00  0.00     0.000 C 
BRANCH  20  21
ATOM     21  C   UNL     1       3.170   9.542   2.793  1.00  0.00     0.000 C 
BRANCH  21  22
ATOM     22  C   UNL     1       2.876   9.495   1.284  1.00  0.00     0.000 C 
BRANCH  22  23
ATOM     23  C   UNL     1       2.879   8.062   0.723  1.00  0.00     0.000 C 
BRANCH  23  24
ATOM     24  C   UNL     1       4.247   7.669   0.127  1.00  0.00    -0.000 C 
BRANCH  24  25
ATOM     25  C   UNL     1       5.246   7.104   1.157  1.00  0.00    -0.000 C 
BRANCH  25  26
ATOM     26  C   UNL     1       6.617   6.722   0.564  1.00  0.00    -0.000 C 
BRANCH  26  27
ATOM     27  C   UNL     1       6.981   7.571  -0.668  1.00  0.00    -0.000 C 
BRANCH  27  28
ATOM     28  C   UNL     1       7.030   6.746  -1.967  1.00  0.00    -0.000 C 
BRANCH  28  29
ATOM     29  C   UNL     1       8.414   6.161  -2.314  1.00  0.00    -0.000 C 
BRANCH  29  30
ATOM     30  C   UNL     1       9.313   5.842  -1.103  1.00  0.00    -0.000 C 
BRANCH  30  31
ATOM     31  C   UNL     1      10.820   5.802  -1.410  1.00  0.00    -0.003 C 
ATOM     32  C   UNL     1      11.672   5.539  -0.168  1.00  0.00     0.004 C 
ENDBRANCH  30  31
ENDBRANCH  29  30
ENDBRANCH  28  29
ENDBRANCH  27  28
ENDBRANCH  26  27
ENDBRANCH  25  26
ENDBRANCH  24  25
ENDBRANCH  23  24
ENDBRANCH  22  23
ENDBRANCH  21  22
ENDBRANCH  20  21
ENDBRANCH  19  20
ENDBRANCH  18  19
ENDBRANCH   1  18
TORSDOF 28
ENDMDL
MODEL 7
REMARK VINA RESULT:    -0.714      2.297      5.138
REMARK INTER + INTRA:          -3.983
REMARK INTER:                  -1.250
REMARK INTRA:                  -2.733
REMARK UNBOUND:                -2.100
REMARK SMILES CCCCCCCCCCCCCCCCCCCCCCCCCCCCCC(=O)[O-]
REMARK SMILES IDX 16 1 17 2 18 3 19 4 20 5 21 6 22 7 23 8 24 9 25 10 26 11
REMARK SMILES IDX 27 12 28 13 29 14 30 15 31 16 32 17 15 18 14 19 13 20 12 21
REMARK SMILES IDX 11 22 10 23 9 24 8 25 7 26 6 27 5 28 4 29 3 30 2 31 1 32
REMARK H PARENT
REMARK Flexibility Score: inf
ROOT
ATOM      1  C   UNL     1       5.749  10.093   2.978  1.00  0.00     0.000 C 
ENDROOT
BRANCH   1   2
ATOM      2  C   UNL     1       4.558   9.415   3.671  1.00  0.00     0.000 C 
BRANCH   2   3
ATOM      3  C   UNL     1       4.412   7.931   3.279  1.00  0.00     0.000 C 
BRANCH   3   4
ATOM      4  C   UNL     1       4.925   7.621   1.858  1.00  0.00     0.000 C 
BRANCH   4   5
ATOM      5  C   UNL     1       3.849   7.696   0.760  1.00  0.00     0.000 C 
BRANCH   5   6
ATOM      6  C   UNL     1       2.875   8.870   0.955  1.00  0.00     0.000 C 
BRANCH   6   7
ATOM      7  C   UNL     1       3.052   9.992  -0.087  1.00  0.00     0.000 C 
BRANCH   7   8
ATOM      8  C   UNL     1       3.113   9.527  -1.556  1.00  0.00     0.000 C 
BRANCH   8   9
ATOM      9  C   UNL     1       3.709  10.583  -2.503  1.00  0.00     0.000 C 
BRANCH   9  10
ATOM     10  C   UNL     1       3.129  11.987  -2.275  1.00  0.00     0.000 C 
BRANCH  10  11
ATOM     11  C   UNL     1       2.877  12.744  -3.592  1.00  0.00     0.000 C 
BRANCH  11  12
ATOM     12  C   UNL     1       4.173  13.070  -4.355  1.00  0.00     0.000 C 
BRANCH  12  13
ATOM     13  C   UNL     1       5.460  13.068  -3.506  1.00  0.00     0.006 C 
BRANCH  13  14
ATOM     14  C   UNL     1       6.499  12.017  -3.941  1.00  0.00     0.053 C 
BRANCH  14  15
ATOM     15  C   UNL     1       7.795  12.638  -4.370  1.00  0.00     0.041 C 
ATOM     16  O   UNL     1       8.651  12.983  -3.510  1.00  0.00    -0.550 OA
ATOM     17  O   UNL     1       8.044  12.870  -5.718  1.00  0.00    -0.550 OA
ENDBRANCH  14  15
ENDBRANCH  13  14
ENDBRANCH  12  13
ENDBRANCH  11  12
ENDBRANCH  10  11
ENDBRANCH   9  10
ENDBRANCH   8   9
ENDBRANCH   7   8
ENDBRANCH   6   7
ENDBRANCH   5   6
ENDBRANCH   4   5
ENDBRANCH   3   4
ENDBRANCH   2   3
ENDBRANCH   1   2
BRANCH   1  18
ATOM     18  C   UNL     1       5.589  11.621   2.882  1.00  0.00     0.000 C 
BRANCH  18  19
ATOM     19  C   UNL     1       4.195  12.039   2.386  1.00  0.00     0.000 C 
BRANCH  19  20
ATOM     20  C   UNL     1       4.187  12.419   0.897  1.00  0.00     0.000 C 
BRANCH  20  21
ATOM     21  C   UNL     1       5.580  12.873   0.435  1.00  0.00     0.000 C 
BRANCH  21  22
ATOM     22  C   UNL     1       6.330  11.779  -0.344  1.00  0.00     0.000 C 
BRANCH  22  23
ATOM     23  C   UNL     1       7.856  11.873  -0.176  1.00  0.00     0.000 C 
BRANCH  23  24
ATOM     24  C   UNL     1       8.441  10.653   0.566  1.00  0.00    -0.000 C 
BRANCH  24  25
ATOM     25  C   UNL     1       7.446   9.488   0.750  1.00  0.00    -0.000 C 
BRANCH  25  26
ATOM     26  C   UNL     1       8.108   8.100   0.847  1.00  0.00    -0.000 C 
BRANCH  26  27
ATOM     27  C   UNL     1       9.643   8.174   0.756  1.00  0.00    -0.000 C 
BRANCH  27  28
ATOM     28  C   UNL     1      10.244   7.045  -0.101  1.00  0.00    -0.000 C 
BRANCH  28  29
ATOM     29  C   UNL     1       9.218   6.055  -0.687  1.00  0.00    -0.000 C 
BRANCH  29  30
ATOM     30  C   UNL     1       8.652   6.438  -2.068  1.00  0.00    -0.000 C 
BRANCH  30  31
ATOM     31  C   UNL     1       7.117   6.493  -2.145  1.00  0.00    -0.003 C 
ATOM     32  C   UNL     1       6.438   5.681  -1.040  1.00  0.00     0.004 C 
ENDBRANCH  30  31
ENDBRANCH  29  30
ENDBRANCH  28  29
ENDBRANCH  27  28
ENDBRANCH  26  27
ENDBRANCH  25  26
ENDBRANCH  24  25
ENDBRANCH  23  24
ENDBRANCH  22  23
ENDBRANCH  21  22
ENDBRANCH  20  21
ENDBRANCH  19  20
ENDBRANCH  18  19
ENDBRANCH   1  18
TORSDOF 28
ENDMDL
MODEL 8
REMARK VINA RESULT:    -0.435      1.659      4.600
REMARK INTER + INTRA:          -3.248
REMARK INTER:                  -1.253
REMARK INTRA:                  -1.995
REMARK UNBOUND:                -2.100
REMARK SMILES CCCCCCCCCCCCCCCCCCCCCCCCCCCCCC(=O)[O-]
REMARK SMILES IDX 16 1 17 2 18 3 19 4 20 5 21 6 22 7 23 8 24 9 25 10 26 11
REMARK SMILES IDX 27 12 28 13 29 14 30 15 31 16 32 17 15 18 14 19 13 20 12 21
REMARK SMILES IDX 11 22 10 23 9 24 8 25 7 26 6 27 5 28 4 29 3 30 2 31 1 32
REMARK H PARENT
REMARK Flexibility Score: inf
ROOT
ATOM      1  C   UNL     1       4.759  10.683   2.752  1.00  0.00     0.000 C 
ENDROOT
BRANCH   1   2
ATOM      2  C   UNL     1       3.837   9.546   3.220  1.00  0.00     0.000 C 
BRANCH   2   3
ATOM      3  C   UNL     1       4.497   8.159   3.090  1.00  0.00     0.000 C 
BRANCH   3   4
ATOM      4  C   UNL     1       5.218   7.948   1.742  1.00  0.00     0.000 C 
BRANCH   4   5
ATOM      5  C   UNL     1       4.292   7.548   0.579  1.00  0.00     0.000 C 
BRANCH   5   6
ATOM      6  C   UNL     1       2.971   8.335   0.568  1.00  0.00     0.000 C 
BRANCH   6   7
ATOM      7  C   UNL     1       2.875   9.354  -0.583  1.00  0.00     0.000 C 
BRANCH   7   8
ATOM      8  C   UNL     1       4.060   9.351  -1.570  1.00  0.00     0.000 C 
BRANCH   8   9
ATOM      9  C   UNL     1       3.998  10.495  -2.597  1.00  0.00     0.000 C 
BRANCH   9  10
ATOM     10  C   UNL     1       2.914  11.534  -2.273  1.00  0.00     0.000 C 
BRANCH  10  11
ATOM     11  C   UNL     1       3.080  12.834  -3.080  1.00  0.00     0.000 C 
BRANCH  11  12
ATOM     12  C   UNL     1       4.515  13.042  -3.596  1.00  0.00     0.000 C 
BRANCH  12  13
ATOM     13  C   UNL     1       4.700  12.881  -5.118  1.00  0.00     0.006 C 
BRANCH  13  14
ATOM     14  C   UNL     1       5.885  11.981  -5.515  1.00  0.00     0.053 C 
BRANCH  14  15
ATOM     15  C   UNL     1       5.899  11.668  -6.981  1.00  0.00     0.041 C 
ATOM     16  O   UNL     1       4.847  11.287  -7.561  1.00  0.00    -0.550 OA
ATOM     17  O   UNL     1       7.085  11.761  -7.702  1.00  0.00    -0.550 OA
ENDBRANCH  14  15
ENDBRANCH  13  14
ENDBRANCH  12  13
ENDBRANCH  11  12
ENDBRANCH  10  11
ENDBRANCH   9  10
ENDBRANCH   8   9
ENDBRANCH   7   8
ENDBRANCH   6   7
ENDBRANCH   5   6
ENDBRANCH   4   5
ENDBRANCH   3   4
ENDBRANCH   2   3
ENDBRANCH   1   2
BRANCH   1  18
ATOM     18  C   UNL     1       4.089  12.065   2.845  1.00  0.00     0.000 C 
BRANCH  18  19
ATOM     19  C   UNL     1       2.934  12.231   1.843  1.00  0.00     0.000 C 
BRANCH  19  20
ATOM     20  C   UNL     1       3.424  12.565   0.425  1.00  0.00     0.000 C 
BRANCH  20  21
ATOM     21  C   UNL     1       4.886  13.037   0.444  1.00  0.00     0.000 C 
BRANCH  21  22
ATOM     22  C   UNL     1       5.879  11.893   0.175  1.00  0.00     0.000 C 
BRANCH  22  23
ATOM     23  C   UNL     1       6.617  12.051  -1.166  1.00  0.00     0.000 C 
BRANCH  23  24
ATOM     24  C   UNL     1       8.138  12.230  -0.981  1.00  0.00    -0.000 C 
BRANCH  24  25
ATOM     25  C   UNL     1       8.531  13.055   0.262  1.00  0.00    -0.000 C 
BRANCH  25  26
ATOM     26  C   UNL     1       9.050  12.211   1.443  1.00  0.00    -0.000 C 
BRANCH  26  27
ATOM     27  C   UNL     1       8.195  10.954   1.687  1.00  0.00    -0.000 C 
BRANCH  27  28
ATOM     28  C   UNL     1       8.864   9.668   1.168  1.00  0.00    -0.000 C 
BRANCH  28  29
ATOM     29  C   UNL     1       7.939   8.732   0.365  1.00  0.00    -0.000 C 
BRANCH  29  30
ATOM     30  C   UNL     1       8.617   7.469  -0.203  1.00  0.00    -0.000 C 
BRANCH  30  31
ATOM     31  C   UNL     1       7.675   6.510  -0.950  1.00  0.00    -0.003 C 
ATOM     32  C   UNL     1       6.649   7.242  -1.817  1.00  0.00     0.004 C 
ENDBRANCH  30  31
ENDBRANCH  29  30
ENDBRANCH  28  29
ENDBRANCH  27  28
ENDBRANCH  26  27
ENDBRANCH  25  26
ENDBRANCH  24  25
ENDBRANCH  23  24
ENDBRANCH  22  23
ENDBRANCH  21  22
ENDBRANCH  20  21
ENDBRANCH  19  20
ENDBRANCH  18  19
ENDBRANCH   1  18
TORSDOF 28
ENDMDL
