MODEL 1
REMARK VINA RESULT:    -9.313      0.000      0.000
REMARK INTER + INTRA:         -10.229
REMARK INTER:                 -10.402
REMARK INTRA:                   0.173
REMARK UNBOUND:                 0.173
REMARK SMILES CC1(C)CC[C@]2(C(=O)[O-])[C@H](O)C[C@@]3(C)C(=CC[C@H]4[C@]5(C)CC[C@H](O)C(C)(C)[C@@H]5CC[C@@]43C)[C@@H]2C1
REMARK SMILES IDX 6 1 5 2 33 3 10 4 4 5 34 6 15 7 12 8 2 9 16 10 13 11 1 12
REMARK SMILES IDX 3 13 17 14 31 15 14 16 18 17 30 18 32 19 19 20 29 21 21 22
REMARK SMILES IDX 20 23 28 24 22 25 25 26 23 27 26 28 27 29 7 30 8 31 9 32
REMARK SMILES IDX 11 33 24 35
REMARK H PARENT 11 34 24 36
REMARK Flexibility Score: inf
ROOT
ATOM      1  C   UNL     1      14.438  47.689  28.929  1.00  0.00     0.042 C 
ATOM      2  C   UNL     1      15.466  46.631  28.418  1.00  0.00     0.017 C 
ATOM      3  C   UNL     1      14.551  47.787  30.494  1.00  0.00     0.030 C 
ATOM      4  C   UNL     1      14.679  49.081  28.280  1.00  0.00     0.127 C 
ATOM      5  C   UNL     1      15.228  45.235  29.018  1.00  0.00     0.007 C 
ATOM      6  C   UNL     1      14.323  46.366  31.117  1.00  0.00     0.015 C 
ATOM      7  C   UNL     1      15.810  48.560  30.975  1.00  0.00    -0.063 C 
ATOM      8  C   UNL     1      16.005  49.734  28.719  1.00  0.00     0.044 C 
ATOM      9  C   UNL     1      15.234  45.227  30.565  1.00  0.00    -0.035 C 
ATOM     10  C   UNL     1      16.345  48.298  32.202  1.00  0.00    -0.027 C 
ATOM     11  C   UNL     1      16.186  49.890  30.268  1.00  0.00    -0.003 C 
ATOM     12  C   UNL     1      14.665  43.874  31.050  1.00  0.00     0.011 C 
ATOM     13  C   UNL     1      16.682  45.328  31.093  1.00  0.00     0.011 C 
ATOM     14  C   UNL     1      17.627  48.891  32.725  1.00  0.00     0.032 C 
ATOM     15  C   UNL     1      17.705  50.324  30.625  1.00  0.00    -0.020 C 
ATOM     16  C   UNL     1      15.155  50.962  30.765  1.00  0.00     0.017 C 
ATOM     17  C   UNL     1      17.863  50.323  32.202  1.00  0.00     0.006 C 
ATOM     18  C   UNL     1      18.073  51.731  30.036  1.00  0.00     0.008 C 
ATOM     19  C   UNL     1      18.697  49.294  29.983  1.00  0.00     0.012 C 
ATOM     20  C   UNL     1      19.089  51.118  32.868  1.00  0.00    -0.025 C 
ATOM     21  C   UNL     1      18.285  52.821  31.081  1.00  0.00     0.005 C 
ATOM     22  C   UNL     1      18.687  51.488  34.348  1.00  0.00     0.010 C 
ATOM     23  C   UNL     1      20.360  50.219  32.966  1.00  0.00     0.012 C 
ATOM     24  C   UNL     1      19.442  52.442  32.045  1.00  0.00     0.003 C 
ATOM     25  C   UNL     1      17.976  52.835  34.473  1.00  0.00     0.033 C 
ATOM     26  C   UNL     1      19.911  53.678  32.930  1.00  0.00    -0.006 C 
ATOM     27  C   UNL     1      18.846  54.033  34.034  1.00  0.00     0.120 C 
ATOM     28  C   UNL     1      20.209  54.925  32.040  1.00  0.00     0.014 C 
ATOM     29  C   UNL     1      21.279  53.370  33.609  1.00  0.00     0.014 C 
ENDROOT
BRANCH   1  30
ATOM     30  C   UNL     1      13.025  47.276  28.511  1.00  0.00     0.051 C 
ATOM     31  O   UNL     1      12.081  48.111  28.522  1.00  0.00    -0.549 OA
ATOM     32  O   UNL     1      12.785  46.008  27.993  1.00  0.00    -0.549 OA
ENDBRANCH   1  30
BRANCH   4  33
ATOM     33  O   UNL     1      14.594  49.019  26.873  1.00  0.00    -0.392 OA
ATOM     34  H   UNL     1      13.690  48.696  26.620  1.00  0.00     0.210 HD
ENDBRANCH   4  33
BRANCH  27  35
ATOM     35  O   UNL     1      17.985  55.057  33.595  1.00  0.00    -0.393 OA
ATOM     36  H   UNL     1      18.341  55.912  33.953  1.00  0.00     0.210 HD
ENDBRANCH  27  35
TORSDOF 3
ENDMDL
MODEL 2
REMARK VINA RESULT:    -9.058      2.726      8.504
REMARK INTER + INTRA:          -9.943
REMARK INTER:                  -9.864
REMARK INTRA:                  -0.079
REMARK UNBOUND:                 0.173
REMARK SMILES CC1(C)CC[C@]2(C(=O)[O-])[C@H](O)C[C@@]3(C)C(=CC[C@H]4[C@]5(C)CC[C@H](O)C(C)(C)[C@@H]5CC[C@@]43C)[C@@H]2C1
REMARK SMILES IDX 6 1 5 2 33 3 10 4 4 5 34 6 15 7 12 8 2 9 16 10 13 11 1 12
REMARK SMILES IDX 3 13 17 14 31 15 14 16 18 17 30 18 32 19 19 20 29 21 21 22
REMARK SMILES IDX 20 23 28 24 22 25 25 26 23 27 26 28 27 29 7 30 8 31 9 32
REMARK SMILES IDX 11 33 24 35
REMARK H PARENT 11 34 24 36
REMARK Flexibility Score: inf
ROOT
ATOM      1  C   UNL     1      18.749  49.072  31.899  1.00  0.00     0.042 C 
ATOM      2  C   UNL     1      18.712  50.240  30.863  1.00  0.00     0.017 C 
ATOM      3  C   UNL     1      17.338  48.962  32.585  1.00  0.00     0.030 C 
ATOM      4  C   UNL     1      19.131  47.723  31.227  1.00  0.00     0.127 C 
ATOM      5  C   UNL     1      18.371  51.593  31.508  1.00  0.00     0.007 C 
ATOM      6  C   UNL     1      16.973  50.341  33.235  1.00  0.00     0.015 C 
ATOM      7  C   UNL     1      16.257  48.318  31.674  1.00  0.00    -0.063 C 
ATOM      8  C   UNL     1      18.058  47.205  30.250  1.00  0.00     0.044 C 
ATOM      9  C   UNL     1      17.034  51.578  32.287  1.00  0.00    -0.035 C 
ATOM     10  C   UNL     1      14.940  48.615  31.863  1.00  0.00    -0.027 C 
ATOM     11  C   UNL     1      16.624  47.045  30.864  1.00  0.00    -0.003 C 
ATOM     12  C   UNL     1      16.958  52.857  33.152  1.00  0.00     0.011 C 
ATOM     13  C   UNL     1      15.843  51.621  31.304  1.00  0.00     0.011 C 
ATOM     14  C   UNL     1      13.818  48.152  30.972  1.00  0.00     0.032 C 
ATOM     15  C   UNL     1      15.532  46.767  29.701  1.00  0.00    -0.020 C 
ATOM     16  C   UNL     1      16.674  45.863  31.894  1.00  0.00     0.017 C 
ATOM     17  C   UNL     1      14.093  46.761  30.364  1.00  0.00     0.006 C 
ATOM     18  C   UNL     1      15.798  45.415  28.950  1.00  0.00     0.008 C 
ATOM     19  C   UNL     1      15.625  47.905  28.627  1.00  0.00     0.012 C 
ATOM     20  C   UNL     1      12.868  46.087  29.574  1.00  0.00    -0.025 C 
ATOM     21  C   UNL     1      14.747  44.338  29.191  1.00  0.00     0.005 C 
ATOM     22  C   UNL     1      11.780  45.655  30.632  1.00  0.00     0.010 C 
ATOM     23  C   UNL     1      12.177  47.113  28.623  1.00  0.00     0.012 C 
ATOM     24  C   UNL     1      13.346  44.820  28.725  1.00  0.00     0.003 C 
ATOM     25  C   UNL     1      11.979  44.239  31.172  1.00  0.00     0.033 C 
ATOM     26  C   UNL     1      12.297  43.626  28.650  1.00  0.00    -0.006 C 
ATOM     27  C   UNL     1      11.870  43.145  30.087  1.00  0.00     0.120 C 
ATOM     28  C   UNL     1      12.864  42.431  27.822  1.00  0.00     0.014 C 
ATOM     29  C   UNL     1      11.033  44.066  27.853  1.00  0.00     0.014 C 
ENDROOT
BRANCH   1  30
ATOM     30  C   UNL     1      19.840  49.341  32.938  1.00  0.00     0.051 C 
ATOM     31  O   UNL     1      20.978  49.752  32.584  1.00  0.00    -0.549 OA
ATOM     32  O   UNL     1      19.556  49.256  34.297  1.00  0.00    -0.549 OA
ENDBRANCH   1  30
BRANCH   4  33
ATOM     33  O   UNL     1      20.390  47.798  30.593  1.00  0.00    -0.392 OA
ATOM     34  H   UNL     1      20.251  47.919  29.618  1.00  0.00     0.210 HD
ENDBRANCH   4  33
BRANCH  27  35
ATOM     35  O   UNL     1      12.643  42.044  30.502  1.00  0.00    -0.393 OA
ATOM     36  H   UNL     1      13.255  42.368  31.213  1.00  0.00     0.210 HD
ENDBRANCH  27  35
TORSDOF 3
ENDMDL
MODEL 3
REMARK VINA RESULT:    -8.678      2.678      5.136
REMARK INTER + INTRA:          -9.519
REMARK INTER:                  -9.484
REMARK INTRA:                  -0.035
REMARK UNBOUND:                 0.173
REMARK SMILES CC1(C)CC[C@]2(C(=O)[O-])[C@H](O)C[C@@]3(C)C(=CC[C@H]4[C@]5(C)CC[C@H](O)C(C)(C)[C@@H]5CC[C@@]43C)[C@@H]2C1
REMARK SMILES IDX 6 1 5 2 33 3 10 4 4 5 34 6 15 7 12 8 2 9 16 10 13 11 1 12
REMARK SMILES IDX 3 13 17 14 31 15 14 16 18 17 30 18 32 19 19 20 29 21 21 22
REMARK SMILES IDX 20 23 28 24 22 25 25 26 23 27 26 28 27 29 7 30 8 31 9 32
REMARK SMILES IDX 11 33 24 35
REMARK H PARENT 11 34 24 36
REMARK Flexibility Score: inf
ROOT
ATOM      1  C   UNL     1      12.327  43.813  29.373  1.00  0.00     0.042 C 
ATOM      2  C   UNL     1      11.609  43.638  30.749  1.00  0.00     0.017 C 
ATOM      3  C   UNL     1      12.213  45.319  28.934  1.00  0.00     0.030 C 
ATOM      4  C   UNL     1      13.819  43.382  29.447  1.00  0.00     0.127 C 
ATOM      5  C   UNL     1      10.121  44.024  30.694  1.00  0.00     0.007 C 
ATOM      6  C   UNL     1      10.701  45.730  28.888  1.00  0.00     0.015 C 
ATOM      7  C   UNL     1      13.164  46.264  29.720  1.00  0.00    -0.063 C 
ATOM      8  C   UNL     1      14.674  44.303  30.338  1.00  0.00     0.044 C 
ATOM      9  C   UNL     1       9.885  45.469  30.192  1.00  0.00    -0.035 C 
ATOM     10  C   UNL     1      12.847  47.582  29.868  1.00  0.00    -0.027 C 
ATOM     11  C   UNL     1      14.634  45.822  29.951  1.00  0.00    -0.003 C 
ATOM     12  C   UNL     1       8.383  45.633  29.864  1.00  0.00     0.011 C 
ATOM     13  C   UNL     1      10.222  46.483  31.307  1.00  0.00     0.011 C 
ATOM     14  C   UNL     1      13.622  48.564  30.706  1.00  0.00     0.032 C 
ATOM     15  C   UNL     1      15.334  46.723  31.101  1.00  0.00    -0.020 C 
ATOM     16  C   UNL     1      15.367  45.985  28.574  1.00  0.00     0.017 C 
ATOM     17  C   UNL     1      15.132  48.249  30.724  1.00  0.00     0.006 C 
ATOM     18  C   UNL     1      16.859  46.393  31.266  1.00  0.00     0.008 C 
ATOM     19  C   UNL     1      14.654  46.414  32.478  1.00  0.00     0.012 C 
ATOM     20  C   UNL     1      16.070  49.357  31.412  1.00  0.00    -0.025 C 
ATOM     21  C   UNL     1      17.801  47.511  30.832  1.00  0.00     0.005 C 
ATOM     22  C   UNL     1      16.118  50.617  30.463  1.00  0.00     0.010 C 
ATOM     23  C   UNL     1      15.468  49.846  32.766  1.00  0.00     0.012 C 
ATOM     24  C   UNL     1      17.547  48.799  31.662  1.00  0.00     0.003 C 
ATOM     25  C   UNL     1      17.242  50.564  29.429  1.00  0.00     0.033 C 
ATOM     26  C   UNL     1      18.710  49.868  31.478  1.00  0.00    -0.006 C 
ATOM     27  C   UNL     1      18.653  50.539  30.055  1.00  0.00     0.120 C 
ATOM     28  C   UNL     1      20.110  49.223  31.720  1.00  0.00     0.014 C 
ATOM     29  C   UNL     1      18.612  50.969  32.575  1.00  0.00     0.014 C 
ENDROOT
BRANCH   1  30
ATOM     30  C   UNL     1      11.680  42.894  28.335  1.00  0.00     0.051 C 
ATOM     31  O   UNL     1      11.261  43.355  27.240  1.00  0.00    -0.549 OA
ATOM     32  O   UNL     1      11.657  41.517  28.529  1.00  0.00    -0.549 OA
ENDBRANCH   1  30
BRANCH   4  33
ATOM     33  O   UNL     1      13.949  42.035  29.851  1.00  0.00    -0.392 OA
ATOM     34  H   UNL     1      13.187  41.803  30.443  1.00  0.00     0.210 HD
ENDBRANCH   4  33
BRANCH  27  35
ATOM     35  O   UNL     1      19.517  49.887  29.153  1.00  0.00    -0.393 OA
ATOM     36  H   UNL     1      19.424  48.912  29.314  1.00  0.00     0.210 HD
ENDBRANCH  27  35
TORSDOF 3
ENDMDL
MODEL 4
REMARK VINA RESULT:    -8.441      2.581      8.527
REMARK INTER + INTRA:          -9.255
REMARK INTER:                  -9.135
REMARK INTRA:                  -0.120
REMARK UNBOUND:                 0.173
REMARK SMILES CC1(C)CC[C@]2(C(=O)[O-])[C@H](O)C[C@@]3(C)C(=CC[C@H]4[C@]5(C)CC[C@H](O)C(C)(C)[C@@H]5CC[C@@]43C)[C@@H]2C1
REMARK SMILES IDX 6 1 5 2 33 3 10 4 4 5 34 6 15 7 12 8 2 9 16 10 13 11 1 12
REMARK SMILES IDX 3 13 17 14 31 15 14 16 18 17 30 18 32 19 19 20 29 21 21 22
REMARK SMILES IDX 20 23 28 24 22 25 25 26 23 27 26 28 27 29 7 30 8 31 9 32
REMARK SMILES IDX 11 33 24 35
REMARK H PARENT 11 34 24 36
REMARK Flexibility Score: inf
ROOT
ATOM      1  C   UNL     1      16.892  50.094  32.898  1.00  0.00     0.042 C 
ATOM      2  C   UNL     1      18.312  50.121  32.250  1.00  0.00     0.017 C 
ATOM      3  C   UNL     1      15.814  50.124  31.753  1.00  0.00     0.030 C 
ATOM      4  C   UNL     1      16.695  48.838  33.794  1.00  0.00     0.127 C 
ATOM      5  C   UNL     1      18.545  51.372  31.387  1.00  0.00     0.007 C 
ATOM      6  C   UNL     1      16.050  51.388  30.857  1.00  0.00     0.015 C 
ATOM      7  C   UNL     1      15.665  48.767  31.010  1.00  0.00    -0.063 C 
ATOM      8  C   UNL     1      16.672  47.520  32.995  1.00  0.00     0.044 C 
ATOM      9  C   UNL     1      17.487  51.549  30.272  1.00  0.00    -0.035 C 
ATOM     10  C   UNL     1      15.219  48.739  29.723  1.00  0.00    -0.027 C 
ATOM     11  C   UNL     1      15.607  47.460  31.846  1.00  0.00    -0.003 C 
ATOM     12  C   UNL     1      17.618  52.978  29.696  1.00  0.00     0.011 C 
ATOM     13  C   UNL     1      17.762  50.564  29.114  1.00  0.00     0.011 C 
ATOM     14  C   UNL     1      15.149  47.505  28.863  1.00  0.00     0.032 C 
ATOM     15  C   UNL     1      15.852  46.163  30.907  1.00  0.00    -0.020 C 
ATOM     16  C   UNL     1      14.187  47.422  32.512  1.00  0.00     0.017 C 
ATOM     17  C   UNL     1      14.843  46.237  29.688  1.00  0.00     0.006 C 
ATOM     18  C   UNL     1      15.667  44.819  31.694  1.00  0.00     0.008 C 
ATOM     19  C   UNL     1      17.330  46.180  30.386  1.00  0.00     0.012 C 
ATOM     20  C   UNL     1      14.537  44.907  28.840  1.00  0.00    -0.025 C 
ATOM     21  C   UNL     1      14.455  43.996  31.270  1.00  0.00     0.005 C 
ATOM     22  C   UNL     1      13.124  45.074  28.159  1.00  0.00     0.010 C 
ATOM     23  C   UNL     1      15.568  44.725  27.684  1.00  0.00     0.012 C 
ATOM     24  C   UNL     1      14.551  43.607  29.770  1.00  0.00     0.003 C 
ATOM     25  C   UNL     1      11.964  44.578  29.022  1.00  0.00     0.033 C 
ATOM     26  C   UNL     1      13.493  42.487  29.374  1.00  0.00    -0.006 C 
ATOM     27  C   UNL     1      12.030  43.067  29.332  1.00  0.00     0.120 C 
ATOM     28  C   UNL     1      13.569  41.272  30.351  1.00  0.00     0.014 C 
ATOM     29  C   UNL     1      13.848  41.873  27.987  1.00  0.00     0.014 C 
ENDROOT
BRANCH   1  30
ATOM     30  C   UNL     1      16.728  51.296  33.830  1.00  0.00     0.051 C 
ATOM     31  O   UNL     1      17.721  51.778  34.439  1.00  0.00    -0.549 OA
ATOM     32  O   UNL     1      15.507  51.955  33.925  1.00  0.00    -0.549 OA
ENDBRANCH   1  30
BRANCH   4  33
ATOM     33  O   UNL     1      17.658  48.781  34.825  1.00  0.00    -0.392 OA
ATOM     34  H   UNL     1      18.430  48.240  34.513  1.00  0.00     0.210 HD
ENDBRANCH   4  33
BRANCH  27  35
ATOM     35  O   UNL     1      11.363  42.844  30.551  1.00  0.00    -0.393 OA
ATOM     36  H   UNL     1      12.000  43.069  31.279  1.00  0.00     0.210 HD
ENDBRANCH  27  35
TORSDOF 3
ENDMDL
MODEL 5
REMARK VINA RESULT:    -8.410      2.197      3.708
REMARK INTER + INTRA:          -9.220
REMARK INTER:                  -9.026
REMARK INTRA:                  -0.194
REMARK UNBOUND:                 0.173
REMARK SMILES CC1(C)CC[C@]2(C(=O)[O-])[C@H](O)C[C@@]3(C)C(=CC[C@H]4[C@]5(C)CC[C@H](O)C(C)(C)[C@@H]5CC[C@@]43C)[C@@H]2C1
REMARK SMILES IDX 6 1 5 2 33 3 10 4 4 5 34 6 15 7 12 8 2 9 16 10 13 11 1 12
REMARK SMILES IDX 3 13 17 14 31 15 14 16 18 17 30 18 32 19 19 20 29 21 21 22
REMARK SMILES IDX 20 23 28 24 22 25 25 26 23 27 26 28 27 29 7 30 8 31 9 32
REMARK SMILES IDX 11 33 24 35
REMARK H PARENT 11 34 24 36
REMARK Flexibility Score: inf
ROOT
ATOM      1  C   UNL     1      11.825  45.351  30.074  1.00  0.00     0.042 C 
ATOM      2  C   UNL     1      12.003  45.363  28.523  1.00  0.00     0.017 C 
ATOM      3  C   UNL     1      13.191  44.935  30.734  1.00  0.00     0.030 C 
ATOM      4  C   UNL     1      11.366  46.737  30.609  1.00  0.00     0.127 C 
ATOM      5  C   UNL     1      12.423  43.994  27.964  1.00  0.00     0.007 C 
ATOM      6  C   UNL     1      13.637  43.545  30.162  1.00  0.00     0.015 C 
ATOM      7  C   UNL     1      14.256  46.066  30.715  1.00  0.00    -0.063 C 
ATOM      8  C   UNL     1      12.437  47.835  30.450  1.00  0.00     0.044 C 
ATOM      9  C   UNL     1      13.718  43.444  28.607  1.00  0.00    -0.035 C 
ATOM     10  C   UNL     1      15.583  45.754  30.735  1.00  0.00    -0.027 C 
ATOM     11  C   UNL     1      13.824  47.506  31.103  1.00  0.00    -0.003 C 
ATOM     12  C   UNL     1      13.859  41.952  28.226  1.00  0.00     0.011 C 
ATOM     13  C   UNL     1      14.951  44.179  28.036  1.00  0.00     0.011 C 
ATOM     14  C   UNL     1      16.703  46.752  30.597  1.00  0.00     0.032 C 
ATOM     15  C   UNL     1      14.940  48.586  30.645  1.00  0.00    -0.020 C 
ATOM     16  C   UNL     1      13.633  47.507  32.660  1.00  0.00     0.017 C 
ATOM     17  C   UNL     1      16.343  48.120  31.215  1.00  0.00     0.006 C 
ATOM     18  C   UNL     1      14.600  50.036  31.140  1.00  0.00     0.008 C 
ATOM     19  C   UNL     1      14.987  48.644  29.080  1.00  0.00     0.012 C 
ATOM     20  C   UNL     1      17.544  49.182  31.309  1.00  0.00    -0.025 C 
ATOM     21  C   UNL     1      15.549  50.585  32.199  1.00  0.00     0.005 C 
ATOM     22  C   UNL     1      18.546  48.692  32.426  1.00  0.00     0.010 C 
ATOM     23  C   UNL     1      18.357  49.236  29.979  1.00  0.00     0.012 C 
ATOM     24  C   UNL     1      17.003  50.645  31.658  1.00  0.00     0.003 C 
ATOM     25  C   UNL     1      18.210  49.213  33.823  1.00  0.00     0.033 C 
ATOM     26  C   UNL     1      17.955  51.508  32.596  1.00  0.00    -0.006 C 
ATOM     27  C   UNL     1      18.278  50.752  33.938  1.00  0.00     0.120 C 
ATOM     28  C   UNL     1      17.330  52.907  32.896  1.00  0.00     0.014 C 
ATOM     29  C   UNL     1      19.284  51.844  31.857  1.00  0.00     0.014 C 
ENDROOT
BRANCH   1  30
ATOM     30  C   UNL     1      10.715  44.371  30.457  1.00  0.00     0.051 C 
ATOM     31  O   UNL     1      10.638  43.912  31.629  1.00  0.00    -0.549 OA
ATOM     32  O   UNL     1       9.702  44.065  29.556  1.00  0.00    -0.549 OA
ENDBRANCH   1  30
BRANCH   4  33
ATOM     33  O   UNL     1      10.146  47.140  30.023  1.00  0.00    -0.392 OA
ATOM     34  H   UNL     1       9.408  46.612  30.425  1.00  0.00     0.210 HD
ENDBRANCH   4  33
BRANCH  27  35
ATOM     35  O   UNL     1      17.401  51.149  34.966  1.00  0.00    -0.393 OA
ATOM     36  H   UNL     1      16.521  51.333  34.545  1.00  0.00     0.210 HD
ENDBRANCH  27  35
TORSDOF 3
ENDMDL
MODEL 6
REMARK VINA RESULT:    -8.385      2.062      8.036
REMARK INTER + INTRA:          -9.192
REMARK INTER:                  -9.011
REMARK INTRA:                  -0.181
REMARK UNBOUND:                 0.173
REMARK SMILES CC1(C)CC[C@]2(C(=O)[O-])[C@H](O)C[C@@]3(C)C(=CC[C@H]4[C@]5(C)CC[C@H](O)C(C)(C)[C@@H]5CC[C@@]43C)[C@@H]2C1
REMARK SMILES IDX 6 1 5 2 33 3 10 4 4 5 34 6 15 7 12 8 2 9 16 10 13 11 1 12
REMARK SMILES IDX 3 13 17 14 31 15 14 16 18 17 30 18 32 19 19 20 29 21 21 22
REMARK SMILES IDX 20 23 28 24 22 25 25 26 23 27 26 28 27 29 7 30 8 31 9 32
REMARK SMILES IDX 11 33 24 35
REMARK H PARENT 11 34 24 36
REMARK Flexibility Score: inf
ROOT
ATOM      1  C   UNL     1      17.520  51.236  31.154  1.00  0.00     0.042 C 
ATOM      2  C   UNL     1      17.556  51.297  32.714  1.00  0.00     0.017 C 
ATOM      3  C   UNL     1      17.964  49.799  30.696  1.00  0.00     0.030 C 
ATOM      4  C   UNL     1      16.105  51.568  30.600  1.00  0.00     0.127 C 
ATOM      5  C   UNL     1      18.953  51.008  33.286  1.00  0.00     0.007 C 
ATOM      6  C   UNL     1      19.383  49.486  31.285  1.00  0.00     0.015 C 
ATOM      7  C   UNL     1      16.870  48.717  30.912  1.00  0.00    -0.063 C 
ATOM      8  C   UNL     1      15.049  50.503  30.954  1.00  0.00     0.044 C 
ATOM      9  C   UNL     1      19.529  49.646  32.830  1.00  0.00    -0.035 C 
ATOM     10  C   UNL     1      17.226  47.412  31.083  1.00  0.00    -0.027 C 
ATOM     11  C   UNL     1      15.407  49.042  30.509  1.00  0.00    -0.003 C 
ATOM     12  C   UNL     1      21.034  49.609  33.180  1.00  0.00     0.011 C 
ATOM     13  C   UNL     1      18.851  48.494  33.604  1.00  0.00     0.011 C 
ATOM     14  C   UNL     1      16.271  46.297  31.421  1.00  0.00     0.032 C 
ATOM     15  C   UNL     1      14.377  47.977  31.165  1.00  0.00    -0.020 C 
ATOM     16  C   UNL     1      15.357  48.993  28.942  1.00  0.00     0.017 C 
ATOM     17  C   UNL     1      14.876  46.518  30.800  1.00  0.00     0.006 C 
ATOM     18  C   UNL     1      12.905  48.196  30.671  1.00  0.00     0.008 C 
ATOM     19  C   UNL     1      14.364  48.169  32.720  1.00  0.00     0.012 C 
ATOM     20  C   UNL     1      13.852  45.286  30.922  1.00  0.00    -0.025 C 
ATOM     21  C   UNL     1      12.360  47.081  29.786  1.00  0.00     0.005 C 
ATOM     22  C   UNL     1      14.346  44.141  29.955  1.00  0.00     0.010 C 
ATOM     23  C   UNL     1      13.861  44.685  32.361  1.00  0.00     0.012 C 
ATOM     24  C   UNL     1      12.363  45.725  30.543  1.00  0.00     0.003 C 
ATOM     25  C   UNL     1      13.776  44.245  28.541  1.00  0.00     0.033 C 
ATOM     26  C   UNL     1      11.508  44.616  29.787  1.00  0.00    -0.006 C 
ATOM     27  C   UNL     1      12.238  44.115  28.486  1.00  0.00     0.120 C 
ATOM     28  C   UNL     1      10.081  45.147  29.441  1.00  0.00     0.014 C 
ATOM     29  C   UNL     1      11.237  43.406  30.730  1.00  0.00     0.014 C 
ENDROOT
BRANCH   1  30
ATOM     30  C   UNL     1      18.452  52.303  30.576  1.00  0.00     0.051 C 
ATOM     31  O   UNL     1      18.856  52.228  29.384  1.00  0.00    -0.549 OA
ATOM     32  O   UNL     1      18.769  53.438  31.315  1.00  0.00    -0.549 OA
ENDBRANCH   1  30
BRANCH   4  33
ATOM     33  O   UNL     1      15.678  52.850  31.007  1.00  0.00    -0.392 OA
ATOM     34  H   UNL     1      15.680  53.454  30.219  1.00  0.00     0.210 HD
ENDBRANCH   4  33
BRANCH  27  35
ATOM     35  O   UNL     1      11.784  44.812  27.350  1.00  0.00    -0.393 OA
ATOM     36  H   UNL     1      12.228  44.406  26.561  1.00  0.00     0.210 HD
ENDBRANCH  27  35
TORSDOF 3
ENDMDL
MODEL 7
REMARK VINA RESULT:    -8.191      2.107      3.591
REMARK INTER + INTRA:          -8.975
REMARK INTER:                  -8.740
REMARK INTRA:                  -0.235
REMARK UNBOUND:                 0.173
REMARK SMILES CC1(C)CC[C@]2(C(=O)[O-])[C@H](O)C[C@@]3(C)C(=CC[C@H]4[C@]5(C)CC[C@H](O)C(C)(C)[C@@H]5CC[C@@]43C)[C@@H]2C1
REMARK SMILES IDX 6 1 5 2 33 3 10 4 4 5 34 6 15 7 12 8 2 9 16 10 13 11 1 12
REMARK SMILES IDX 3 13 17 14 31 15 14 16 18 17 30 18 32 19 19 20 29 21 21 22
REMARK SMILES IDX 20 23 28 24 22 25 25 26 23 27 26 28 27 29 7 30 8 31 9 32
REMARK SMILES IDX 11 33 24 35
REMARK H PARENT 11 34 24 36
REMARK Flexibility Score: inf
ROOT
ATOM      1  C   UNL     1      13.235  44.019  30.381  1.00  0.00     0.042 C 
ATOM      2  C   UNL     1      14.410  43.054  30.025  1.00  0.00     0.017 C 
ATOM      3  C   UNL     1      13.548  44.706  31.761  1.00  0.00     0.030 C 
ATOM      4  C   UNL     1      13.021  45.093  29.277  1.00  0.00     0.127 C 
ATOM      5  C   UNL     1      14.621  41.960  31.083  1.00  0.00     0.007 C 
ATOM      6  C   UNL     1      13.778  43.599  32.847  1.00  0.00     0.015 C 
ATOM      7  C   UNL     1      14.629  45.818  31.665  1.00  0.00    -0.063 C 
ATOM      8  C   UNL     1      14.189  46.092  29.167  1.00  0.00     0.044 C 
ATOM      9  C   UNL     1      14.856  42.524  32.505  1.00  0.00    -0.035 C 
ATOM     10  C   UNL     1      15.386  46.130  32.755  1.00  0.00    -0.027 C 
ATOM     11  C   UNL     1      14.550  46.839  30.498  1.00  0.00    -0.003 C 
ATOM     12  C   UNL     1      14.722  41.365  33.520  1.00  0.00     0.011 C 
ATOM     13  C   UNL     1      16.293  43.075  32.629  1.00  0.00     0.011 C 
ATOM     14  C   UNL     1      16.540  47.097  32.753  1.00  0.00     0.032 C 
ATOM     15  C   UNL     1      15.947  47.644  30.340  1.00  0.00    -0.020 C 
ATOM     16  C   UNL     1      13.367  47.810  30.838  1.00  0.00     0.017 C 
ATOM     17  C   UNL     1      16.329  48.252  31.752  1.00  0.00     0.006 C 
ATOM     18  C   UNL     1      15.858  48.776  29.258  1.00  0.00     0.008 C 
ATOM     19  C   UNL     1      17.060  46.650  29.862  1.00  0.00     0.012 C 
ATOM     20  C   UNL     1      17.400  49.447  31.827  1.00  0.00    -0.025 C 
ATOM     21  C   UNL     1      15.940  50.194  29.814  1.00  0.00     0.005 C 
ATOM     22  C   UNL     1      17.139  50.257  33.156  1.00  0.00     0.010 C 
ATOM     23  C   UNL     1      18.856  48.897  31.923  1.00  0.00     0.012 C 
ATOM     24  C   UNL     1      17.284  50.416  30.561  1.00  0.00     0.003 C 
ATOM     25  C   UNL     1      16.138  51.400  32.993  1.00  0.00     0.033 C 
ATOM     26  C   UNL     1      17.552  51.954  30.864  1.00  0.00    -0.006 C 
ATOM     27  C   UNL     1      16.605  52.489  32.003  1.00  0.00     0.120 C 
ATOM     28  C   UNL     1      17.392  52.817  29.573  1.00  0.00     0.014 C 
ATOM     29  C   UNL     1      19.037  52.173  31.278  1.00  0.00     0.014 C 
ENDROOT
BRANCH   1  30
ATOM     30  C   UNL     1      11.926  43.230  30.451  1.00  0.00     0.051 C 
ATOM     31  O   UNL     1      10.978  43.620  31.184  1.00  0.00    -0.549 OA
ATOM     32  O   UNL     1      11.714  42.139  29.615  1.00  0.00    -0.549 OA
ENDBRANCH   1  30
BRANCH   4  33
ATOM     33  O   UNL     1      12.749  44.501  28.025  1.00  0.00    -0.392 OA
ATOM     34  H   UNL     1      11.791  44.242  27.994  1.00  0.00     0.210 HD
ENDBRANCH   4  33
BRANCH  27  35
ATOM     35  O   UNL     1      15.459  53.103  31.461  1.00  0.00    -0.393 OA
ATOM     36  H   UNL     1      15.183  52.563  30.675  1.00  0.00     0.210 HD
ENDBRANCH  27  35
TORSDOF 3
ENDMDL
MODEL 8
REMARK VINA RESULT:    -8.023      2.324      8.251
REMARK INTER + INTRA:          -8.788
REMARK INTER:                  -8.647
REMARK INTRA:                  -0.141
REMARK UNBOUND:                 0.173
REMARK SMILES CC1(C)CC[C@]2(C(=O)[O-])[C@H](O)C[C@@]3(C)C(=CC[C@H]4[C@]5(C)CC[C@H](O)C(C)(C)[C@@H]5CC[C@@]43C)[C@@H]2C1
REMARK SMILES IDX 6 1 5 2 33 3 10 4 4 5 34 6 15 7 12 8 2 9 16 10 13 11 1 12
REMARK SMILES IDX 3 13 17 14 31 15 14 16 18 17 30 18 32 19 19 20 29 21 21 22
REMARK SMILES IDX 20 23 28 24 22 25 25 26 23 27 26 28 27 29 7 30 8 31 9 32
REMARK SMILES IDX 11 33 24 35
REMARK H PARENT 11 34 24 36
REMARK Flexibility Score: inf
ROOT
ATOM      1  C   UNL     1      17.011  50.832  29.897  1.00  0.00     0.042 C 
ATOM      2  C   UNL     1      16.180  51.837  30.755  1.00  0.00     0.017 C 
ATOM      3  C   UNL     1      17.264  49.533  30.746  1.00  0.00     0.030 C 
ATOM      4  C   UNL     1      16.287  50.479  28.567  1.00  0.00     0.127 C 
ATOM      5  C   UNL     1      16.890  52.231  32.061  1.00  0.00     0.007 C 
ATOM      6  C   UNL     1      17.976  49.923  32.086  1.00  0.00     0.015 C 
ATOM      7  C   UNL     1      16.011  48.622  30.867  1.00  0.00    -0.063 C 
ATOM      8  C   UNL     1      14.991  49.672  28.778  1.00  0.00     0.044 C 
ATOM      9  C   UNL     1      17.264  51.015  32.942  1.00  0.00    -0.035 C 
ATOM     10  C   UNL     1      15.872  47.790  31.938  1.00  0.00    -0.027 C 
ATOM     11  C   UNL     1      15.161  48.346  29.597  1.00  0.00    -0.003 C 
ATOM     12  C   UNL     1      18.247  51.490  34.038  1.00  0.00     0.011 C 
ATOM     13  C   UNL     1      16.009  50.471  33.660  1.00  0.00     0.011 C 
ATOM     14  C   UNL     1      14.652  46.956  32.228  1.00  0.00     0.032 C 
ATOM     15  C   UNL     1      13.716  47.729  29.992  1.00  0.00    -0.020 C 
ATOM     16  C   UNL     1      15.989  47.344  28.719  1.00  0.00     0.017 C 
ATOM     17  C   UNL     1      13.954  46.480  30.937  1.00  0.00     0.006 C 
ATOM     18  C   UNL     1      12.885  47.314  28.728  1.00  0.00     0.008 C 
ATOM     19  C   UNL     1      12.880  48.822  30.742  1.00  0.00     0.012 C 
ATOM     20  C   UNL     1      12.772  45.410  31.135  1.00  0.00    -0.025 C 
ATOM     21  C   UNL     1      12.675  45.812  28.572  1.00  0.00     0.005 C 
ATOM     22  C   UNL     1      13.421  44.035  31.555  1.00  0.00     0.010 C 
ATOM     23  C   UNL     1      11.822  45.826  32.301  1.00  0.00     0.012 C 
ATOM     24  C   UNL     1      11.917  45.230  29.796  1.00  0.00     0.003 C 
ATOM     25  C   UNL     1      13.790  43.143  30.370  1.00  0.00     0.033 C 
ATOM     26  C   UNL     1      11.391  43.753  29.528  1.00  0.00    -0.006 C 
ATOM     27  C   UNL     1      12.574  42.715  29.520  1.00  0.00     0.120 C 
ATOM     28  C   UNL     1      10.590  43.677  28.190  1.00  0.00     0.014 C 
ATOM     29  C   UNL     1      10.349  43.345  30.611  1.00  0.00     0.014 C 
ENDROOT
BRANCH   1  30
ATOM     30  C   UNL     1      18.336  51.480  29.487  1.00  0.00     0.051 C 
ATOM     31  O   UNL     1      19.285  50.779  29.044  1.00  0.00    -0.549 OA
ATOM     32  O   UNL     1      18.472  52.864  29.480  1.00  0.00    -0.549 OA
ENDBRANCH   1  30
BRANCH   4  33
ATOM     33  O   UNL     1      16.038  51.631  27.791  1.00  0.00    -0.392 OA
ATOM     34  H   UNL     1      16.886  52.137  27.687  1.00  0.00     0.210 HD
ENDBRANCH   4  33
BRANCH  27  35
ATOM     35  O   UNL     1      13.025  42.472  28.208  1.00  0.00    -0.393 OA
ATOM     36  H   UNL     1      13.587  41.654  28.239  1.00  0.00     0.210 HD
ENDBRANCH  27  35
TORSDOF 3
ENDMDL
MODEL 9
REMARK VINA RESULT:    -7.824      4.381      6.916
REMARK INTER + INTRA:          -8.565
REMARK INTER:                  -8.356
REMARK INTRA:                  -0.209
REMARK UNBOUND:                 0.173
REMARK SMILES CC1(C)CC[C@]2(C(=O)[O-])[C@H](O)C[C@@]3(C)C(=CC[C@H]4[C@]5(C)CC[C@H](O)C(C)(C)[C@@H]5CC[C@@]43C)[C@@H]2C1
REMARK SMILES IDX 6 1 5 2 33 3 10 4 4 5 34 6 15 7 12 8 2 9 16 10 13 11 1 12
REMARK SMILES IDX 3 13 17 14 31 15 14 16 18 17 30 18 32 19 19 20 29 21 21 22
REMARK SMILES IDX 20 23 28 24 22 25 25 26 23 27 26 28 27 29 7 30 8 31 9 32
REMARK SMILES IDX 11 33 24 35
REMARK H PARENT 11 34 24 36
REMARK Flexibility Score: inf
ROOT
ATOM      1  C   UNL     1      16.936  48.277  31.057  1.00  0.00     0.042 C 
ATOM      2  C   UNL     1      16.854  46.784  31.507  1.00  0.00     0.017 C 
ATOM      3  C   UNL     1      15.697  48.597  30.143  1.00  0.00     0.030 C 
ATOM      4  C   UNL     1      16.973  49.241  32.276  1.00  0.00     0.127 C 
ATOM      5  C   UNL     1      16.853  45.807  30.320  1.00  0.00     0.007 C 
ATOM      6  C   UNL     1      15.676  47.597  28.935  1.00  0.00     0.015 C 
ATOM      7  C   UNL     1      14.370  48.753  30.936  1.00  0.00    -0.063 C 
ATOM      8  C   UNL     1      15.658  49.255  33.080  1.00  0.00     0.044 C 
ATOM      9  C   UNL     1      15.717  46.082  29.305  1.00  0.00    -0.035 C 
ATOM     10  C   UNL     1      13.177  48.501  30.326  1.00  0.00    -0.027 C 
ATOM     11  C   UNL     1      14.374  49.590  32.244  1.00  0.00    -0.003 C 
ATOM     12  C   UNL     1      16.006  45.277  28.018  1.00  0.00     0.011 C 
ATOM     13  C   UNL     1      14.368  45.579  29.865  1.00  0.00     0.011 C 
ATOM     14  C   UNL     1      11.840  48.499  31.019  1.00  0.00     0.032 C 
ATOM     15  C   UNL     1      13.037  49.308  33.113  1.00  0.00    -0.020 C 
ATOM     16  C   UNL     1      14.465  51.093  31.808  1.00  0.00     0.017 C 
ATOM     17  C   UNL     1      11.780  49.523  32.172  1.00  0.00     0.006 C 
ATOM     18  C   UNL     1      12.945  50.236  34.375  1.00  0.00     0.008 C 
ATOM     19  C   UNL     1      13.069  47.833  33.641  1.00  0.00     0.012 C 
ATOM     20  C   UNL     1      10.334  49.748  32.833  1.00  0.00    -0.025 C 
ATOM     21  C   UNL     1      11.822  51.266  34.325  1.00  0.00     0.005 C 
ATOM     22  C   UNL     1       9.438  50.531  31.797  1.00  0.00     0.010 C 
ATOM     23  C   UNL     1       9.617  48.390  33.102  1.00  0.00     0.012 C 
ATOM     24  C   UNL     1      10.440  50.569  34.201  1.00  0.00     0.003 C 
ATOM     25  C   UNL     1       9.538  52.051  31.923  1.00  0.00     0.033 C 
ATOM     26  C   UNL     1       9.237  51.574  34.476  1.00  0.00    -0.006 C 
ATOM     27  C   UNL     1       9.051  52.588  33.287  1.00  0.00     0.120 C 
ATOM     28  C   UNL     1       9.443  52.342  35.820  1.00  0.00     0.014 C 
ATOM     29  C   UNL     1       7.913  50.785  34.698  1.00  0.00     0.014 C 
ENDROOT
BRANCH   1  30
ATOM     30  C   UNL     1      18.245  48.515  30.301  1.00  0.00     0.051 C 
ATOM     31  O   UNL     1      18.360  49.484  29.503  1.00  0.00    -0.549 OA
ATOM     32  O   UNL     1      19.368  47.741  30.574  1.00  0.00    -0.549 OA
ENDBRANCH   1  30
BRANCH   4  33
ATOM     33  O   UNL     1      18.071  48.968  33.120  1.00  0.00    -0.392 OA
ATOM     34  H   UNL     1      18.206  49.738  33.731  1.00  0.00     0.210 HD
ENDBRANCH   4  33
BRANCH  27  35
ATOM     35  O   UNL     1       9.726  53.797  33.543  1.00  0.00    -0.393 OA
ATOM     36  H   UNL     1       9.101  54.379  34.050  1.00  0.00     0.210 HD
ENDBRANCH  27  35
TORSDOF 3
ENDMDL
