MODEL 1
REMARK VINA RESULT:    -2.521      0.000      0.000
REMARK INTER + INTRA:          -2.827
REMARK INTER:                  -2.816
REMARK INTRA:                  -0.011
REMARK UNBOUND:                -0.011
REMARK SMILES CCCC(=O)[O-]
REMARK SMILES IDX 3 1 4 2 5 3 6 4 2 5 1 6
REMARK H PARENT
REMARK Flexibility Score: inf
ROOT
ATOM      1  C   UNL     1      62.660  34.547  60.899  1.00  0.00     0.052 C 
ENDROOT
BRANCH   1   2
ATOM      2  C   UNL     1      64.028  34.115  61.330  1.00  0.00     0.041 C 
ATOM      3  O   UNL     1      64.772  34.909  61.963  1.00  0.00    -0.550 OA
ATOM      4  O   UNL     1      64.492  32.847  61.004  1.00  0.00    -0.550 OA
ENDBRANCH   1   2
BRANCH   1   5
ATOM      5  C   UNL     1      62.384  36.010  61.268  1.00  0.00     0.003 C 
ATOM      6  C   UNL     1      60.978  36.456  60.862  1.00  0.00     0.004 C 
ENDBRANCH   1   5
TORSDOF 2
ENDMDL
MODEL 2
REMARK VINA RESULT:    -2.435     15.304     15.886
REMARK INTER + INTRA:          -2.731
REMARK INTER:                  -2.720
REMARK INTRA:                  -0.011
REMARK UNBOUND:                -0.011
REMARK SMILES CCCC(=O)[O-]
REMARK SMILES IDX 3 1 4 2 5 3 6 4 2 5 1 6
REMARK H PARENT
REMARK Flexibility Score: inf
ROOT
ATOM      1  C   UNL     1      55.392  27.663  50.373  1.00  0.00     0.052 C 
ENDROOT
BRANCH   1   2
ATOM      2  C   UNL     1      55.694  26.261  49.939  1.00  0.00     0.041 C 
ATOM      3  O   UNL     1      54.810  25.569  49.372  1.00  0.00    -0.550 OA
ATOM      4  O   UNL     1      56.944  25.710  50.191  1.00  0.00    -0.550 OA
ENDBRANCH   1   2
BRANCH   1   5
ATOM      5  C   UNL     1      53.956  28.070  50.018  1.00  0.00     0.003 C 
ATOM      6  C   UNL     1      53.664  29.531  50.361  1.00  0.00     0.004 C 
ENDBRANCH   1   5
TORSDOF 2
ENDMDL
MODEL 3
REMARK VINA RESULT:    -2.389      3.709      4.529
REMARK INTER + INTRA:          -2.679
REMARK INTER:                  -2.652
REMARK INTRA:                  -0.027
REMARK UNBOUND:                -0.011
REMARK SMILES CCCC(=O)[O-]
REMARK SMILES IDX 3 1 4 2 5 3 6 4 2 5 1 6
REMARK H PARENT
REMARK Flexibility Score: inf
ROOT
ATOM      1  C   UNL     1      61.156  30.961  62.000  1.00  0.00     0.052 C 
ENDROOT
BRANCH   1   2
ATOM      2  C   UNL     1      62.254  29.942  61.969  1.00  0.00     0.041 C 
ATOM      3  O   UNL     1      61.979  28.714  61.998  1.00  0.00    -0.550 OA
ATOM      4  O   UNL     1      63.582  30.350  61.941  1.00  0.00    -0.550 OA
ENDBRANCH   1   2
BRANCH   1   5
ATOM      5  C   UNL     1      61.100  31.774  60.701  1.00  0.00     0.003 C 
ATOM      6  C   UNL     1      61.790  33.132  60.834  1.00  0.00     0.004 C 
ENDBRANCH   1   5
TORSDOF 2
ENDMDL
MODEL 4
REMARK VINA RESULT:    -2.358      2.681      3.621
REMARK INTER + INTRA:          -2.644
REMARK INTER:                  -2.633
REMARK INTRA:                  -0.011
REMARK UNBOUND:                -0.011
REMARK SMILES CCCC(=O)[O-]
REMARK SMILES IDX 3 1 4 2 5 3 6 4 2 5 1 6
REMARK H PARENT
REMARK Flexibility Score: inf
ROOT
ATOM      1  C   UNL     1      62.539  35.978  61.297  1.00  0.00     0.052 C 
ENDROOT
BRANCH   1   2
ATOM      2  C   UNL     1      61.262  35.414  60.753  1.00  0.00     0.041 C 
ATOM      3  O   UNL     1      61.174  34.187  60.486  1.00  0.00    -0.550 OA
ATOM      4  O   UNL     1      60.179  36.250  60.512  1.00  0.00    -0.550 OA
ENDBRANCH   1   2
BRANCH   1   5
ATOM      5  C   UNL     1      63.664  34.936  61.300  1.00  0.00     0.003 C 
ATOM      6  C   UNL     1      64.943  35.462  61.952  1.00  0.00     0.004 C 
ENDBRANCH   1   5
TORSDOF 2
ENDMDL
MODEL 5
REMARK VINA RESULT:    -2.338     13.522     14.104
REMARK INTER + INTRA:          -2.623
REMARK INTER:                  -2.585
REMARK INTRA:                  -0.037
REMARK UNBOUND:                -0.011
REMARK SMILES CCCC(=O)[O-]
REMARK SMILES IDX 3 1 4 2 5 3 6 4 2 5 1 6
REMARK H PARENT
REMARK Flexibility Score: inf
ROOT
ATOM      1  C   UNL     1      58.915  28.900  49.200  1.00  0.00     0.052 C 
ENDROOT
BRANCH   1   2
ATOM      2  C   UNL     1      59.852  27.732  49.226  1.00  0.00     0.041 C 
ATOM      3  O   UNL     1      61.097  27.918  49.227  1.00  0.00    -0.550 OA
ATOM      4  O   UNL     1      59.350  26.437  49.215  1.00  0.00    -0.550 OA
ENDBRANCH   1   2
BRANCH   1   5
ATOM      5  C   UNL     1      58.117  29.016  50.504  1.00  0.00     0.003 C 
ATOM      6  C   UNL     1      56.684  28.505  50.357  1.00  0.00     0.004 C 
ENDBRANCH   1   5
TORSDOF 2
ENDMDL
MODEL 6
REMARK VINA RESULT:    -2.309      3.066      3.564
REMARK INTER + INTRA:          -2.590
REMARK INTER:                  -2.584
REMARK INTRA:                  -0.006
REMARK UNBOUND:                -0.011
REMARK SMILES CCCC(=O)[O-]
REMARK SMILES IDX 3 1 4 2 5 3 6 4 2 5 1 6
REMARK H PARENT
REMARK Flexibility Score: inf
ROOT
ATOM      1  C   UNL     1      62.175  32.894  60.953  1.00  0.00     0.052 C 
ENDROOT
BRANCH   1   2
ATOM      2  C   UNL     1      61.025  31.936  61.002  1.00  0.00     0.041 C 
ATOM      3  O   UNL     1      60.281  31.787  59.997  1.00  0.00    -0.550 OA
ATOM      4  O   UNL     1      60.755  31.231  62.168  1.00  0.00    -0.550 OA
ENDBRANCH   1   2
BRANCH   1   5
ATOM      5  C   UNL     1      61.723  34.304  60.555  1.00  0.00     0.003 C 
ATOM      6  C   UNL     1      62.586  35.394  61.192  1.00  0.00     0.004 C 
ENDBRANCH   1   5
TORSDOF 2
ENDMDL
MODEL 7
REMARK VINA RESULT:    -2.304     20.059     20.847
REMARK INTER + INTRA:          -2.584
REMARK INTER:                  -2.558
REMARK INTRA:                  -0.025
REMARK UNBOUND:                -0.011
REMARK SMILES CCCC(=O)[O-]
REMARK SMILES IDX 3 1 4 2 5 3 6 4 2 5 1 6
REMARK H PARENT
REMARK Flexibility Score: inf
ROOT
ATOM      1  C   UNL     1      57.782  17.586  50.511  1.00  0.00     0.052 C 
ENDROOT
BRANCH   1   2
ATOM      2  C   UNL     1      58.672  17.912  49.351  1.00  0.00     0.041 C 
ATOM      3  O   UNL     1      59.199  19.051  49.258  1.00  0.00    -0.550 OA
ATOM      4  O   UNL     1      58.894  16.967  48.357  1.00  0.00    -0.550 OA
ENDBRANCH   1   2
BRANCH   1   5
ATOM      5  C   UNL     1      56.496  18.422  50.492  1.00  0.00     0.003 C 
ATOM      6  C   UNL     1      56.214  19.085  51.842  1.00  0.00     0.004 C 
ENDBRANCH   1   5
TORSDOF 2
ENDMDL
MODEL 8
REMARK VINA RESULT:    -2.264      1.962      3.034
REMARK INTER + INTRA:          -2.540
REMARK INTER:                  -2.503
REMARK INTRA:                  -0.037
REMARK UNBOUND:                -0.011
REMARK SMILES CCCC(=O)[O-]
REMARK SMILES IDX 3 1 4 2 5 3 6 4 2 5 1 6
REMARK H PARENT
REMARK Flexibility Score: inf
ROOT
ATOM      1  C   UNL     1      62.410  33.387  60.864  1.00  0.00     0.052 C 
ENDROOT
BRANCH   1   2
ATOM      2  C   UNL     1      63.870  33.319  61.194  1.00  0.00     0.041 C 
ATOM      3  O   UNL     1      64.496  32.234  61.076  1.00  0.00    -0.550 OA
ATOM      4  O   UNL     1      64.530  34.448  61.663  1.00  0.00    -0.550 OA
ENDBRANCH   1   2
BRANCH   1   5
ATOM      5  C   UNL     1      61.839  32.004  60.528  1.00  0.00     0.003 C 
ATOM      6  C   UNL     1      60.892  31.488  61.612  1.00  0.00     0.004 C 
ENDBRANCH   1   5
TORSDOF 2
ENDMDL
MODEL 9
REMARK VINA RESULT:    -2.257      1.957      2.349
REMARK INTER + INTRA:          -2.532
REMARK INTER:                  -2.490
REMARK INTRA:                  -0.041
REMARK UNBOUND:                -0.011
REMARK SMILES CCCC(=O)[O-]
REMARK SMILES IDX 3 1 4 2 5 3 6 4 2 5 1 6
REMARK H PARENT
REMARK Flexibility Score: inf
ROOT
ATOM      1  C   UNL     1      63.030  33.830  60.956  1.00  0.00     0.052 C 
ENDROOT
BRANCH   1   2
ATOM      2  C   UNL     1      64.119  32.889  60.541  1.00  0.00     0.041 C 
ATOM      3  O   UNL     1      64.717  33.056  59.446  1.00  0.00    -0.550 OA
ATOM      4  O   UNL     1      64.450  31.809  61.349  1.00  0.00    -0.550 OA
ENDBRANCH   1   2
BRANCH   1   5
ATOM      5  C   UNL     1      63.558  35.256  61.159  1.00  0.00     0.003 C 
ATOM      6  C   UNL     1      64.806  35.293  62.041  1.00  0.00     0.004 C 
ENDBRANCH   1   5
TORSDOF 2
ENDMDL
