MODEL 1
REMARK VINA RESULT:    -3.655      0.000      0.000
REMARK INTER + INTRA:          -9.277
REMARK INTER:                  -6.647
REMARK INTRA:                  -2.630
REMARK UNBOUND:                -2.630
REMARK SMILES CCCCCC=CCC=CCCCCCCCC(=O)[O-]
REMARK SMILES IDX 11 1 12 2 13 3 14 4 15 5 16 6 17 7 18 8 19 9 20 10 10 11
REMARK SMILES IDX 9 12 8 13 7 14 6 15 5 16 4 17 3 18 2 19 1 20
REMARK H PARENT
REMARK Flexibility Score: inf
ROOT
ATOM      1  C   UNL     1      57.619  28.625  52.496  1.00  0.00     0.027 C 
ENDROOT
BRANCH   1   2
ATOM      2  C   UNL     1      58.558  29.408  51.565  1.00  0.00     0.004 C 
BRANCH   2   3
ATOM      3  C   UNL     1      58.136  29.331  50.087  1.00  0.00     0.000 C 
BRANCH   3   4
ATOM      4  C   UNL     1      59.177  28.700  49.141  1.00  0.00     0.000 C 
BRANCH   4   5
ATOM      5  C   UNL     1      60.248  27.835  49.831  1.00  0.00     0.000 C 
BRANCH   5   6
ATOM      6  C   UNL     1      59.993  26.328  49.670  1.00  0.00     0.006 C 
BRANCH   6   7
ATOM      7  C   UNL     1      60.859  25.516  50.640  1.00  0.00     0.053 C 
BRANCH   7   8
ATOM      8  C   UNL     1      60.431  24.080  50.657  1.00  0.00     0.041 C 
ATOM      9  O   UNL     1      60.595  23.358  49.635  1.00  0.00    -0.550 OA
ATOM     10  O   UNL     1      59.890  23.526  51.810  1.00  0.00    -0.550 OA
ENDBRANCH   7   8
ENDBRANCH   6   7
ENDBRANCH   5   6
ENDBRANCH   4   5
ENDBRANCH   3   4
ENDBRANCH   2   3
ENDBRANCH   1   2
BRANCH   1  11
ATOM     11  C   UNL     1      58.185  27.262  52.802  1.00  0.00    -0.031 C 
ATOM     12  C   UNL     1      57.588  26.097  52.487  1.00  0.00    -0.027 C 
BRANCH  12  13
ATOM     13  C   UNL     1      56.229  25.975  51.845  1.00  0.00     0.054 C 
BRANCH  13  14
ATOM     14  C   UNL     1      56.302  26.238  50.361  1.00  0.00    -0.027 C 
ATOM     15  C   UNL     1      55.279  26.072  49.502  1.00  0.00    -0.031 C 
BRANCH  15  16
ATOM     16  C   UNL     1      53.931  25.500  49.870  1.00  0.00     0.027 C 
BRANCH  16  17
ATOM     17  C   UNL     1      52.965  26.588  50.362  1.00  0.00     0.004 C 
BRANCH  17  18
ATOM     18  C   UNL     1      53.002  27.841  49.468  1.00  0.00     0.000 C 
BRANCH  18  19
ATOM     19  C   UNL     1      53.068  29.144  50.279  1.00  0.00    -0.003 C 
ATOM     20  C   UNL     1      54.497  29.518  50.679  1.00  0.00     0.004 C 
ENDBRANCH  18  19
ENDBRANCH  17  18
ENDBRANCH  16  17
ENDBRANCH  15  16
ENDBRANCH  13  14
ENDBRANCH  12  13
ENDBRANCH   1  11
TORSDOF 14
ENDMDL
MODEL 2
REMARK VINA RESULT:    -3.455     12.487     14.404
REMARK INTER + INTRA:          -8.913
REMARK INTER:                  -7.210
REMARK INTRA:                  -1.703
REMARK UNBOUND:                -2.630
REMARK SMILES CCCCCC=CCC=CCCCCCCCC(=O)[O-]
REMARK SMILES IDX 11 1 12 2 13 3 14 4 15 5 16 6 17 7 18 8 19 9 20 10 10 11
REMARK SMILES IDX 9 12 8 13 7 14 6 15 5 16 4 17 3 18 2 19 1 20
REMARK H PARENT
REMARK Flexibility Score: inf
ROOT
ATOM      1  C   UNL     1      65.669  28.337  60.660  1.00  0.00     0.027 C 
ENDROOT
BRANCH   1   2
ATOM      2  C   UNL     1      67.150  27.935  60.594  1.00  0.00     0.004 C 
BRANCH   2   3
ATOM      3  C   UNL     1      67.965  28.454  61.792  1.00  0.00     0.000 C 
BRANCH   3   4
ATOM      4  C   UNL     1      69.217  29.277  61.425  1.00  0.00     0.000 C 
BRANCH   4   5
ATOM      5  C   UNL     1      69.924  28.847  60.126  1.00  0.00     0.000 C 
BRANCH   5   6
ATOM      6  C   UNL     1      71.278  29.546  59.924  1.00  0.00     0.006 C 
BRANCH   6   7
ATOM      7  C   UNL     1      71.392  30.792  60.810  1.00  0.00     0.053 C 
BRANCH   7   8
ATOM      8  C   UNL     1      71.546  32.025  59.972  1.00  0.00     0.041 C 
ATOM      9  O   UNL     1      71.546  33.164  60.515  1.00  0.00    -0.550 OA
ATOM     10  O   UNL     1      71.734  31.918  58.600  1.00  0.00    -0.550 OA
ENDBRANCH   7   8
ENDBRANCH   6   7
ENDBRANCH   5   6
ENDBRANCH   4   5
ENDBRANCH   3   4
ENDBRANCH   2   3
ENDBRANCH   1   2
BRANCH   1  11
ATOM     11  C   UNL     1      65.413  29.572  59.835  1.00  0.00    -0.031 C 
ATOM     12  C   UNL     1      64.597  30.580  60.198  1.00  0.00    -0.027 C 
BRANCH  12  13
ATOM     13  C   UNL     1      63.757  30.595  61.451  1.00  0.00     0.054 C 
BRANCH  13  14
ATOM     14  C   UNL     1      62.461  29.849  61.247  1.00  0.00    -0.027 C 
ATOM     15  C   UNL     1      61.278  30.429  60.973  1.00  0.00    -0.031 C 
BRANCH  15  16
ATOM     16  C   UNL     1      61.042  31.920  60.928  1.00  0.00     0.027 C 
BRANCH  16  17
ATOM     17  C   UNL     1      61.154  32.472  59.499  1.00  0.00     0.004 C 
BRANCH  17  18
ATOM     18  C   UNL     1      62.357  33.420  59.339  1.00  0.00     0.000 C 
BRANCH  18  19
ATOM     19  C   UNL     1      62.701  34.164  60.638  1.00  0.00    -0.003 C 
ATOM     20  C   UNL     1      64.209  34.285  60.867  1.00  0.00     0.004 C 
ENDBRANCH  18  19
ENDBRANCH  17  18
ENDBRANCH  16  17
ENDBRANCH  15  16
ENDBRANCH  13  14
ENDBRANCH  12  13
ENDBRANCH   1  11
TORSDOF 14
ENDMDL
MODEL 3
REMARK VINA RESULT:    -3.450     10.406     12.848
REMARK INTER + INTRA:          -8.905
REMARK INTER:                  -5.886
REMARK INTRA:                  -3.018
REMARK UNBOUND:                -2.630
REMARK SMILES CCCCCC=CCC=CCCCCCCCC(=O)[O-]
REMARK SMILES IDX 11 1 12 2 13 3 14 4 15 5 16 6 17 7 18 8 19 9 20 10 10 11
REMARK SMILES IDX 9 12 8 13 7 14 6 15 5 16 4 17 3 18 2 19 1 20
REMARK H PARENT
REMARK Flexibility Score: inf
ROOT
ATOM      1  C   UNL     1      63.873  33.673  60.823  1.00  0.00     0.027 C 
ENDROOT
BRANCH   1   2
ATOM      2  C   UNL     1      64.484  35.080  60.901  1.00  0.00     0.004 C 
BRANCH   2   3
ATOM      3  C   UNL     1      63.496  36.133  61.436  1.00  0.00     0.000 C 
BRANCH   3   4
ATOM      4  C   UNL     1      62.499  36.682  60.395  1.00  0.00     0.000 C 
BRANCH   4   5
ATOM      5  C   UNL     1      61.061  36.148  60.522  1.00  0.00     0.000 C 
BRANCH   5   6
ATOM      6  C   UNL     1      60.558  35.475  59.236  1.00  0.00     0.006 C 
BRANCH   6   7
ATOM      7  C   UNL     1      61.698  35.295  58.227  1.00  0.00     0.053 C 
BRANCH   7   8
ATOM      8  C   UNL     1      61.168  34.816  56.909  1.00  0.00     0.041 C 
ATOM      9  O   UNL     1      61.965  34.491  55.986  1.00  0.00    -0.550 OA
ATOM     10  O   UNL     1      59.800  34.687  56.712  1.00  0.00    -0.550 OA
ENDBRANCH   7   8
ENDBRANCH   6   7
ENDBRANCH   5   6
ENDBRANCH   4   5
ENDBRANCH   3   4
ENDBRANCH   2   3
ENDBRANCH   1   2
BRANCH   1  11
ATOM     11  C   UNL     1      64.241  33.002  59.524  1.00  0.00    -0.031 C 
ATOM     12  C   UNL     1      64.593  31.707  59.404  1.00  0.00    -0.027 C 
BRANCH  12  13
ATOM     13  C   UNL     1      64.744  30.749  60.559  1.00  0.00     0.054 C 
BRANCH  13  14
ATOM     14  C   UNL     1      63.963  29.480  60.319  1.00  0.00    -0.027 C 
ATOM     15  C   UNL     1      62.732  29.235  60.806  1.00  0.00    -0.031 C 
BRANCH  15  16
ATOM     16  C   UNL     1      61.982  30.146  61.749  1.00  0.00     0.027 C 
BRANCH  16  17
ATOM     17  C   UNL     1      60.653  30.622  61.146  1.00  0.00     0.004 C 
BRANCH  17  18
ATOM     18  C   UNL     1      60.819  31.914  60.326  1.00  0.00     0.000 C 
BRANCH  18  19
ATOM     19  C   UNL     1      60.244  31.792  58.907  1.00  0.00    -0.003 C 
ATOM     20  C   UNL     1      61.250  31.213  57.910  1.00  0.00     0.004 C 
ENDBRANCH  18  19
ENDBRANCH  17  18
ENDBRANCH  16  17
ENDBRANCH  15  16
ENDBRANCH  13  14
ENDBRANCH  12  13
ENDBRANCH   1  11
TORSDOF 14
ENDMDL
MODEL 4
REMARK VINA RESULT:    -3.438      2.946      5.163
REMARK INTER + INTRA:          -8.882
REMARK INTER:                  -7.657
REMARK INTRA:                  -1.225
REMARK UNBOUND:                -2.630
REMARK SMILES CCCCCC=CCC=CCCCCCCCC(=O)[O-]
REMARK SMILES IDX 11 1 12 2 13 3 14 4 15 5 16 6 17 7 18 8 19 9 20 10 10 11
REMARK SMILES IDX 9 12 8 13 7 14 6 15 5 16 4 17 3 18 2 19 1 20
REMARK H PARENT
REMARK Flexibility Score: inf
ROOT
ATOM      1  C   UNL     1      59.585  24.838  51.560  1.00  0.00     0.027 C 
ENDROOT
BRANCH   1   2
ATOM      2  C   UNL     1      60.058  23.401  51.296  1.00  0.00     0.004 C 
BRANCH   2   3
ATOM      3  C   UNL     1      60.962  23.287  50.056  1.00  0.00     0.000 C 
BRANCH   3   4
ATOM      4  C   UNL     1      60.789  21.991  49.237  1.00  0.00     0.000 C 
BRANCH   4   5
ATOM      5  C   UNL     1      60.556  20.717  50.070  1.00  0.00     0.000 C 
BRANCH   5   6
ATOM      6  C   UNL     1      59.429  19.836  49.511  1.00  0.00     0.006 C 
BRANCH   6   7
ATOM      7  C   UNL     1      58.975  18.800  50.546  1.00  0.00     0.053 C 
BRANCH   7   8
ATOM      8  C   UNL     1      57.585  19.099  51.021  1.00  0.00     0.041 C 
ATOM      9  O   UNL     1      56.597  18.512  50.499  1.00  0.00    -0.550 OA
ATOM     10  O   UNL     1      57.381  19.992  52.065  1.00  0.00    -0.550 OA
ENDBRANCH   7   8
ENDBRANCH   6   7
ENDBRANCH   5   6
ENDBRANCH   4   5
ENDBRANCH   3   4
ENDBRANCH   2   3
ENDBRANCH   1   2
BRANCH   1  11
ATOM     11  C   UNL     1      60.698  25.823  51.305  1.00  0.00    -0.031 C 
ATOM     12  C   UNL     1      60.650  26.814  50.396  1.00  0.00    -0.027 C 
BRANCH  12  13
ATOM     13  C   UNL     1      59.505  27.047  49.441  1.00  0.00     0.054 C 
BRANCH  13  14
ATOM     14  C   UNL     1      59.241  28.522  49.258  1.00  0.00    -0.027 C 
ATOM     15  C   UNL     1      58.410  29.252  50.024  1.00  0.00    -0.031 C 
BRANCH  15  16
ATOM     16  C   UNL     1      57.537  28.692  51.122  1.00  0.00     0.027 C 
BRANCH  16  17
ATOM     17  C   UNL     1      56.075  28.553  50.673  1.00  0.00     0.004 C 
BRANCH  17  18
ATOM     18  C   UNL     1      55.745  27.119  50.218  1.00  0.00     0.000 C 
BRANCH  18  19
ATOM     19  C   UNL     1      54.316  26.988  49.669  1.00  0.00    -0.003 C 
ATOM     20  C   UNL     1      53.968  25.553  49.269  1.00  0.00     0.004 C 
ENDBRANCH  18  19
ENDBRANCH  17  18
ENDBRANCH  16  17
ENDBRANCH  15  16
ENDBRANCH  13  14
ENDBRANCH  12  13
ENDBRANCH   1  11
TORSDOF 14
ENDMDL
MODEL 5
REMARK VINA RESULT:    -3.404     10.882     13.102
REMARK INTER + INTRA:          -8.819
REMARK INTER:                  -6.224
REMARK INTRA:                  -2.595
REMARK UNBOUND:                -2.630
REMARK SMILES CCCCCC=CCC=CCCCCCCCC(=O)[O-]
REMARK SMILES IDX 11 1 12 2 13 3 14 4 15 5 16 6 17 7 18 8 19 9 20 10 10 11
REMARK SMILES IDX 9 12 8 13 7 14 6 15 5 16 4 17 3 18 2 19 1 20
REMARK H PARENT
REMARK Flexibility Score: inf
ROOT
ATOM      1  C   UNL     1      63.444  33.065  59.215  1.00  0.00     0.027 C 
ENDROOT
BRANCH   1   2
ATOM      2  C   UNL     1      62.060  32.399  59.194  1.00  0.00     0.004 C 
BRANCH   2   3
ATOM      3  C   UNL     1      61.318  32.517  60.538  1.00  0.00     0.000 C 
BRANCH   3   4
ATOM      4  C   UNL     1      60.828  31.182  61.134  1.00  0.00     0.000 C 
BRANCH   4   5
ATOM      5  C   UNL     1      61.928  30.302  61.757  1.00  0.00     0.000 C 
BRANCH   5   6
ATOM      6  C   UNL     1      62.088  28.951  61.043  1.00  0.00     0.006 C 
BRANCH   6   7
ATOM      7  C   UNL     1      63.562  28.538  60.970  1.00  0.00     0.053 C 
BRANCH   7   8
ATOM      8  C   UNL     1      64.304  29.393  59.988  1.00  0.00     0.041 C 
ATOM      9  O   UNL     1      63.897  29.490  58.797  1.00  0.00    -0.550 OA
ATOM     10  O   UNL     1      65.417  30.118  60.394  1.00  0.00    -0.550 OA
ENDBRANCH   7   8
ENDBRANCH   6   7
ENDBRANCH   5   6
ENDBRANCH   4   5
ENDBRANCH   3   4
ENDBRANCH   2   3
ENDBRANCH   1   2
BRANCH   1  11
ATOM     11  C   UNL     1      63.910  33.286  60.632  1.00  0.00    -0.031 C 
ATOM     12  C   UNL     1      64.215  34.486  61.159  1.00  0.00    -0.027 C 
BRANCH  12  13
ATOM     13  C   UNL     1      64.209  35.786  60.394  1.00  0.00     0.054 C 
BRANCH  13  14
ATOM     14  C   UNL     1      63.461  36.858  61.146  1.00  0.00    -0.027 C 
ATOM     15  C   UNL     1      62.119  36.954  61.212  1.00  0.00    -0.031 C 
BRANCH  15  16
ATOM     16  C   UNL     1      61.156  36.065  60.462  1.00  0.00     0.027 C 
BRANCH  16  17
ATOM     17  C   UNL     1      60.433  36.826  59.341  1.00  0.00     0.004 C 
BRANCH  17  18
ATOM     18  C   UNL     1      61.316  36.988  58.090  1.00  0.00     0.000 C 
BRANCH  18  19
ATOM     19  C   UNL     1      61.557  35.658  57.360  1.00  0.00    -0.003 C 
ATOM     20  C   UNL     1      60.259  34.904  57.064  1.00  0.00     0.004 C 
ENDBRANCH  18  19
ENDBRANCH  17  18
ENDBRANCH  16  17
ENDBRANCH  15  16
ENDBRANCH  13  14
ENDBRANCH  12  13
ENDBRANCH   1  11
TORSDOF 14
ENDMDL
MODEL 6
REMARK VINA RESULT:    -3.369      1.484      2.706
REMARK INTER + INTRA:          -8.757
REMARK INTER:                  -5.975
REMARK INTRA:                  -2.782
REMARK UNBOUND:                -2.630
REMARK SMILES CCCCCC=CCC=CCCCCCCCC(=O)[O-]
REMARK SMILES IDX 11 1 12 2 13 3 14 4 15 5 16 6 17 7 18 8 19 9 20 10 10 11
REMARK SMILES IDX 9 12 8 13 7 14 6 15 5 16 4 17 3 18 2 19 1 20
REMARK H PARENT
REMARK Flexibility Score: inf
ROOT
ATOM      1  C   UNL     1      58.913  29.585  51.123  1.00  0.00     0.027 C 
ENDROOT
BRANCH   1   2
ATOM      2  C   UNL     1      59.207  29.417  49.625  1.00  0.00     0.004 C 
BRANCH   2   3
ATOM      3  C   UNL     1      59.968  28.117  49.306  1.00  0.00     0.000 C 
BRANCH   3   4
ATOM      4  C   UNL     1      59.119  26.831  49.365  1.00  0.00     0.000 C 
BRANCH   4   5
ATOM      5  C   UNL     1      59.831  25.605  49.966  1.00  0.00     0.000 C 
BRANCH   5   6
ATOM      6  C   UNL     1      61.294  25.888  50.343  1.00  0.00     0.006 C 
BRANCH   6   7
ATOM      7  C   UNL     1      61.728  25.038  51.542  1.00  0.00     0.053 C 
BRANCH   7   8
ATOM      8  C   UNL     1      62.575  23.885  51.095  1.00  0.00     0.041 C 
ATOM      9  O   UNL     1      63.786  23.815  51.443  1.00  0.00    -0.550 OA
ATOM     10  O   UNL     1      62.021  22.867  50.330  1.00  0.00    -0.550 OA
ENDBRANCH   7   8
ENDBRANCH   6   7
ENDBRANCH   5   6
ENDBRANCH   4   5
ENDBRANCH   3   4
ENDBRANCH   2   3
ENDBRANCH   1   2
BRANCH   1  11
ATOM     11  C   UNL     1      60.031  29.010  51.955  1.00  0.00    -0.031 C 
ATOM     12  C   UNL     1      59.857  28.202  53.018  1.00  0.00    -0.027 C 
BRANCH  12  13
ATOM     13  C   UNL     1      58.516  27.807  53.584  1.00  0.00     0.054 C 
BRANCH  13  14
ATOM     14  C   UNL     1      58.032  26.511  52.983  1.00  0.00    -0.027 C 
ATOM     15  C   UNL     1      56.908  26.377  52.254  1.00  0.00    -0.031 C 
BRANCH  15  16
ATOM     16  C   UNL     1      55.906  27.479  52.008  1.00  0.00     0.027 C 
BRANCH  16  17
ATOM     17  C   UNL     1      55.759  27.794  50.513  1.00  0.00     0.004 C 
BRANCH  17  18
ATOM     18  C   UNL     1      54.320  28.201  50.146  1.00  0.00     0.000 C 
BRANCH  18  19
ATOM     19  C   UNL     1      53.487  27.022  49.622  1.00  0.00    -0.003 C 
ATOM     20  C   UNL     1      54.352  25.842  49.174  1.00  0.00     0.004 C 
ENDBRANCH  18  19
ENDBRANCH  17  18
ENDBRANCH  16  17
ENDBRANCH  15  16
ENDBRANCH  13  14
ENDBRANCH  12  13
ENDBRANCH   1  11
TORSDOF 14
ENDMDL
MODEL 7
REMARK VINA RESULT:    -3.334      1.407      3.285
REMARK INTER + INTRA:          -8.692
REMARK INTER:                  -5.828
REMARK INTRA:                  -2.865
REMARK UNBOUND:                -2.630
REMARK SMILES CCCCCC=CCC=CCCCCCCCC(=O)[O-]
REMARK SMILES IDX 11 1 12 2 13 3 14 4 15 5 16 6 17 7 18 8 19 9 20 10 10 11
REMARK SMILES IDX 9 12 8 13 7 14 6 15 5 16 4 17 3 18 2 19 1 20
REMARK H PARENT
REMARK Flexibility Score: inf
ROOT
ATOM      1  C   UNL     1      55.974  30.048  52.332  1.00  0.00     0.027 C 
ENDROOT
BRANCH   1   2
ATOM      2  C   UNL     1      57.058  29.042  52.748  1.00  0.00     0.004 C 
BRANCH   2   3
ATOM      3  C   UNL     1      58.237  28.989  51.759  1.00  0.00     0.000 C 
BRANCH   3   4
ATOM      4  C   UNL     1      57.934  29.541  50.351  1.00  0.00     0.000 C 
BRANCH   4   5
ATOM      5  C   UNL     1      58.976  29.188  49.273  1.00  0.00     0.000 C 
BRANCH   5   6
ATOM      6  C   UNL     1      59.382  27.706  49.297  1.00  0.00     0.006 C 
BRANCH   6   7
ATOM      7  C   UNL     1      60.890  27.552  49.530  1.00  0.00     0.053 C 
BRANCH   7   8
ATOM      8  C   UNL     1      61.181  26.300  50.300  1.00  0.00     0.041 C 
ATOM      9  O   UNL     1      62.309  25.743  50.201  1.00  0.00    -0.550 OA
ATOM     10  O   UNL     1      60.227  25.770  51.159  1.00  0.00    -0.550 OA
ENDBRANCH   7   8
ENDBRANCH   6   7
ENDBRANCH   5   6
ENDBRANCH   4   5
ENDBRANCH   3   4
ENDBRANCH   2   3
ENDBRANCH   1   2
BRANCH   1  11
ATOM     11  C   UNL     1      54.604  29.542  52.708  1.00  0.00    -0.031 C 
ATOM     12  C   UNL     1      53.695  29.074  51.833  1.00  0.00    -0.027 C 
BRANCH  12  13
ATOM     13  C   UNL     1      53.877  29.050  50.336  1.00  0.00     0.054 C 
BRANCH  13  14
ATOM     14  C   UNL     1      53.539  27.694  49.767  1.00  0.00    -0.027 C 
ATOM     15  C   UNL     1      54.403  26.667  49.670  1.00  0.00    -0.031 C 
BRANCH  15  16
ATOM     16  C   UNL     1      55.871  26.741  50.020  1.00  0.00     0.027 C 
BRANCH  16  17
ATOM     17  C   UNL     1      56.237  25.771  51.151  1.00  0.00     0.004 C 
BRANCH  17  18
ATOM     18  C   UNL     1      55.159  25.731  52.251  1.00  0.00     0.000 C 
BRANCH  18  19
ATOM     19  C   UNL     1      55.758  25.707  53.665  1.00  0.00    -0.003 C 
ATOM     20  C   UNL     1      57.263  25.432  53.664  1.00  0.00     0.004 C 
ENDBRANCH  18  19
ENDBRANCH  17  18
ENDBRANCH  16  17
ENDBRANCH  15  16
ENDBRANCH  13  14
ENDBRANCH  12  13
ENDBRANCH   1  11
TORSDOF 14
ENDMDL
MODEL 8
REMARK VINA RESULT:    -3.307      9.452     12.120
REMARK INTER + INTRA:          -8.645
REMARK INTER:                  -6.182
REMARK INTRA:                  -2.463
REMARK UNBOUND:                -2.630
REMARK SMILES CCCCCC=CCC=CCCCCCCCC(=O)[O-]
REMARK SMILES IDX 11 1 12 2 13 3 14 4 15 5 16 6 17 7 18 8 19 9 20 10 10 11
REMARK SMILES IDX 9 12 8 13 7 14 6 15 5 16 4 17 3 18 2 19 1 20
REMARK H PARENT
REMARK Flexibility Score: inf
ROOT
ATOM      1  C   UNL     1      62.466  29.255  58.098  1.00  0.00     0.027 C 
ENDROOT
BRANCH   1   2
ATOM      2  C   UNL     1      60.981  29.336  57.713  1.00  0.00     0.004 C 
BRANCH   2   3
ATOM      3  C   UNL     1      60.146  28.184  58.300  1.00  0.00     0.000 C 
BRANCH   3   4
ATOM      4  C   UNL     1      58.988  28.618  59.221  1.00  0.00     0.000 C 
BRANCH   4   5
ATOM      5  C   UNL     1      59.102  28.143  60.682  1.00  0.00     0.000 C 
BRANCH   5   6
ATOM      6  C   UNL     1      59.731  26.746  60.808  1.00  0.00     0.006 C 
BRANCH   6   7
ATOM      7  C   UNL     1      59.137  25.980  61.995  1.00  0.00     0.053 C 
BRANCH   7   8
ATOM      8  C   UNL     1      60.217  25.303  62.783  1.00  0.00     0.041 C 
ATOM      9  O   UNL     1      60.058  24.119  63.190  1.00  0.00    -0.550 OA
ATOM     10  O   UNL     1      61.416  25.959  63.031  1.00  0.00    -0.550 OA
ENDBRANCH   7   8
ENDBRANCH   6   7
ENDBRANCH   5   6
ENDBRANCH   4   5
ENDBRANCH   3   4
ENDBRANCH   2   3
ENDBRANCH   1   2
BRANCH   1  11
ATOM     11  C   UNL     1      62.674  28.269  59.220  1.00  0.00    -0.031 C 
ATOM     12  C   UNL     1      62.880  28.607  60.507  1.00  0.00    -0.027 C 
BRANCH  12  13
ATOM     13  C   UNL     1      63.008  30.023  61.013  1.00  0.00     0.054 C 
BRANCH  13  14
ATOM     14  C   UNL     1      61.746  30.469  61.710  1.00  0.00    -0.027 C 
ATOM     15  C   UNL     1      60.884  31.381  61.224  1.00  0.00    -0.031 C 
BRANCH  15  16
ATOM     16  C   UNL     1      61.095  32.175  59.956  1.00  0.00     0.027 C 
BRANCH  16  17
ATOM     17  C   UNL     1      61.470  33.634  60.253  1.00  0.00     0.004 C 
BRANCH  17  18
ATOM     18  C   UNL     1      62.947  33.780  60.663  1.00  0.00     0.000 C 
BRANCH  18  19
ATOM     19  C   UNL     1      63.370  35.246  60.839  1.00  0.00    -0.003 C 
ATOM     20  C   UNL     1      62.175  36.196  60.949  1.00  0.00     0.004 C 
ENDBRANCH  18  19
ENDBRANCH  17  18
ENDBRANCH  16  17
ENDBRANCH  15  16
ENDBRANCH  13  14
ENDBRANCH  12  13
ENDBRANCH   1  11
TORSDOF 14
ENDMDL
MODEL 9
REMARK VINA RESULT:    -3.289      3.181      6.551
REMARK INTER + INTRA:          -8.612
REMARK INTER:                  -5.680
REMARK INTRA:                  -2.931
REMARK UNBOUND:                -2.630
REMARK SMILES CCCCCC=CCC=CCCCCCCCC(=O)[O-]
REMARK SMILES IDX 11 1 12 2 13 3 14 4 15 5 16 6 17 7 18 8 19 9 20 10 10 11
REMARK SMILES IDX 9 12 8 13 7 14 6 15 5 16 4 17 3 18 2 19 1 20
REMARK H PARENT
REMARK Flexibility Score: inf
ROOT
ATOM      1  C   UNL     1      57.635  27.341  52.446  1.00  0.00     0.027 C 
ENDROOT
BRANCH   1   2
ATOM      2  C   UNL     1      56.173  26.915  52.242  1.00  0.00     0.004 C 
BRANCH   2   3
ATOM      3  C   UNL     1      55.926  26.254  50.874  1.00  0.00     0.000 C 
BRANCH   3   4
ATOM      4  C   UNL     1      55.024  27.056  49.914  1.00  0.00     0.000 C 
BRANCH   4   5
ATOM      5  C   UNL     1      53.978  27.957  50.599  1.00  0.00     0.000 C 
BRANCH   5   6
ATOM      6  C   UNL     1      54.278  29.454  50.430  1.00  0.00     0.006 C 
BRANCH   6   7
ATOM      7  C   UNL     1      53.436  30.297  51.393  1.00  0.00     0.053 C 
BRANCH   7   8
ATOM      8  C   UNL     1      54.125  30.436  52.717  1.00  0.00     0.041 C 
ATOM      9  O   UNL     1      55.003  31.327  52.884  1.00  0.00    -0.550 OA
ATOM     10  O   UNL     1      53.772  29.613  53.778  1.00  0.00    -0.550 OA
ENDBRANCH   7   8
ENDBRANCH   6   7
ENDBRANCH   5   6
ENDBRANCH   4   5
ENDBRANCH   3   4
ENDBRANCH   2   3
ENDBRANCH   1   2
BRANCH   1  11
ATOM     11  C   UNL     1      57.739  28.837  52.601  1.00  0.00    -0.031 C 
ATOM     12  C   UNL     1      57.812  29.709  51.578  1.00  0.00    -0.027 C 
BRANCH  12  13
ATOM     13  C   UNL     1      57.875  29.321  50.122  1.00  0.00     0.054 C 
BRANCH  13  14
ATOM     14  C   UNL     1      59.304  29.229  49.644  1.00  0.00    -0.027 C 
ATOM     15  C   UNL     1      59.935  28.082  49.331  1.00  0.00    -0.031 C 
BRANCH  15  16
ATOM     16  C   UNL     1      59.347  26.702  49.505  1.00  0.00     0.027 C 
BRANCH  16  17
ATOM     17  C   UNL     1      60.381  25.706  50.051  1.00  0.00     0.004 C 
BRANCH  17  18
ATOM     18  C   UNL     1      61.609  26.417  50.648  1.00  0.00     0.000 C 
BRANCH  18  19
ATOM     19  C   UNL     1      61.594  26.433  52.184  1.00  0.00    -0.003 C 
ATOM     20  C   UNL     1      61.312  27.823  52.756  1.00  0.00     0.004 C 
ENDBRANCH  18  19
ENDBRANCH  17  18
ENDBRANCH  16  17
ENDBRANCH  15  16
ENDBRANCH  13  14
ENDBRANCH  12  13
ENDBRANCH   1  11
TORSDOF 14
ENDMDL
