MODEL 1
REMARK VINA RESULT:    -3.721      0.000      0.000
REMARK INTER + INTRA:          -7.435
REMARK INTER:                  -5.896
REMARK INTRA:                  -1.538
REMARK UNBOUND:                -1.538
REMARK SMILES CCCCCCCCCCCC(=O)[O-]
REMARK SMILES IDX 7 1 8 2 9 3 10 4 11 5 12 6 13 7 14 8 6 9 5 10 4 11 3 12 2 13
REMARK SMILES IDX 1 14
REMARK H PARENT
REMARK Flexibility Score: inf
ROOT
ATOM      1  C   UNL     1       6.222 -15.284  23.661  1.00  0.00     0.000 C 
ENDROOT
BRANCH   1   2
ATOM      2  C   UNL     1       6.465 -16.408  24.680  1.00  0.00     0.000 C 
BRANCH   2   3
ATOM      3  C   UNL     1       6.699 -17.773  24.014  1.00  0.00     0.000 C 
BRANCH   3   4
ATOM      4  C   UNL     1       7.551 -17.670  22.737  1.00  0.00     0.006 C 
BRANCH   4   5
ATOM      5  C   UNL     1       8.573 -18.810  22.629  1.00  0.00     0.053 C 
BRANCH   5   6
ATOM      6  C   UNL     1       7.919 -20.114  22.290  1.00  0.00     0.041 C 
ATOM      7  O   UNL     1       7.905 -21.054  23.128  1.00  0.00    -0.550 OA
ATOM      8  O   UNL     1       7.350 -20.300  21.037  1.00  0.00    -0.550 OA
ENDBRANCH   5   6
ENDBRANCH   4   5
ENDBRANCH   3   4
ENDBRANCH   2   3
ENDBRANCH   1   2
BRANCH   1   9
ATOM      9  C   UNL     1       7.282 -14.184  23.793  1.00  0.00     0.000 C 
BRANCH   9  10
ATOM     10  C   UNL     1       8.296 -14.525  24.893  1.00  0.00    -0.000 C 
BRANCH  10  11
ATOM     11  C   UNL     1       9.691 -14.765  24.297  1.00  0.00    -0.000 C 
BRANCH  11  12
ATOM     12  C   UNL     1      10.392 -16.001  24.892  1.00  0.00    -0.000 C 
BRANCH  12  13
ATOM     13  C   UNL     1       9.911 -16.404  26.297  1.00  0.00    -0.003 C 
ATOM     14  C   UNL     1       9.486 -17.869  26.387  1.00  0.00     0.004 C 
ENDBRANCH  12  13
ENDBRANCH  11  12
ENDBRANCH  10  11
ENDBRANCH   9  10
ENDBRANCH   1   9
TORSDOF 10
ENDMDL
MODEL 2
REMARK VINA RESULT:    -3.698      2.293      4.125
REMARK INTER + INTRA:          -7.398
REMARK INTER:                  -6.624
REMARK INTRA:                  -0.774
REMARK UNBOUND:                -1.538
REMARK SMILES CCCCCCCCCCCC(=O)[O-]
REMARK SMILES IDX 7 1 8 2 9 3 10 4 11 5 12 6 13 7 14 8 6 9 5 10 4 11 3 12 2 13
REMARK SMILES IDX 1 14
REMARK H PARENT
REMARK Flexibility Score: inf
ROOT
ATOM      1  C   UNL     1       7.721 -17.132  22.888  1.00  0.00     0.000 C 
ENDROOT
BRANCH   1   2
ATOM      2  C   UNL     1       7.537 -18.471  22.158  1.00  0.00     0.000 C 
BRANCH   2   3
ATOM      3  C   UNL     1       6.808 -19.519  23.014  1.00  0.00     0.000 C 
BRANCH   3   4
ATOM      4  C   UNL     1       7.697 -20.728  23.353  1.00  0.00     0.006 C 
BRANCH   4   5
ATOM      5  C   UNL     1       8.884 -20.862  22.389  1.00  0.00     0.053 C 
BRANCH   5   6
ATOM      6  C   UNL     1       8.703 -22.006  21.439  1.00  0.00     0.041 C 
ATOM      7  O   UNL     1       9.623 -22.852  21.283  1.00  0.00    -0.550 OA
ATOM      8  O   UNL     1       7.530 -22.121  20.705  1.00  0.00    -0.550 OA
ENDBRANCH   5   6
ENDBRANCH   4   5
ENDBRANCH   3   4
ENDBRANCH   2   3
ENDBRANCH   1   2
BRANCH   1   9
ATOM      9  C   UNL     1       6.692 -16.975  24.015  1.00  0.00     0.000 C 
BRANCH   9  10
ATOM     10  C   UNL     1       6.011 -15.602  23.953  1.00  0.00    -0.000 C 
BRANCH  10  11
ATOM     11  C   UNL     1       6.847 -14.611  23.130  1.00  0.00    -0.000 C 
BRANCH  11  12
ATOM     12  C   UNL     1       6.039 -13.933  22.007  1.00  0.00    -0.000 C 
BRANCH  12  13
ATOM     13  C   UNL     1       6.270 -14.516  20.602  1.00  0.00    -0.003 C 
ATOM     14  C   UNL     1       6.100 -13.482  19.490  1.00  0.00     0.004 C 
ENDBRANCH  12  13
ENDBRANCH  11  12
ENDBRANCH  10  11
ENDBRANCH   9  10
ENDBRANCH   1   9
TORSDOF 10
ENDMDL
MODEL 3
REMARK VINA RESULT:    -3.669      3.332      4.846
REMARK INTER + INTRA:          -7.353
REMARK INTER:                  -6.004
REMARK INTRA:                  -1.349
REMARK UNBOUND:                -1.538
REMARK SMILES CCCCCCCCCCCC(=O)[O-]
REMARK SMILES IDX 7 1 8 2 9 3 10 4 11 5 12 6 13 7 14 8 6 9 5 10 4 11 3 12 2 13
REMARK SMILES IDX 1 14
REMARK H PARENT
REMARK Flexibility Score: inf
ROOT
ATOM      1  C   UNL     1       6.997 -16.411  24.511  1.00  0.00     0.000 C 
ENDROOT
BRANCH   1   2
ATOM      2  C   UNL     1       7.036 -17.711  23.692  1.00  0.00     0.000 C 
BRANCH   2   3
ATOM      3  C   UNL     1       8.436 -18.026  23.144  1.00  0.00     0.000 C 
BRANCH   3   4
ATOM      4  C   UNL     1       9.542 -17.223  23.850  1.00  0.00     0.006 C 
BRANCH   4   5
ATOM      5  C   UNL     1      10.316 -16.323  22.877  1.00  0.00     0.053 C 
BRANCH   5   6
ATOM      6  C   UNL     1      10.850 -15.099  23.554  1.00  0.00     0.041 C 
ATOM      7  O   UNL     1      10.061 -14.267  24.075  1.00  0.00    -0.550 OA
ATOM      8  O   UNL     1      12.218 -14.863  23.585  1.00  0.00    -0.550 OA
ENDBRANCH   5   6
ENDBRANCH   4   5
ENDBRANCH   3   4
ENDBRANCH   2   3
ENDBRANCH   1   2
BRANCH   1   9
ATOM      9  C   UNL     1       6.032 -15.396  23.886  1.00  0.00     0.000 C 
BRANCH   9  10
ATOM     10  C   UNL     1       6.782 -14.403  22.989  1.00  0.00    -0.000 C 
BRANCH  10  11
ATOM     11  C   UNL     1       5.912 -13.974  21.798  1.00  0.00    -0.000 C 
BRANCH  11  12
ATOM     12  C   UNL     1       6.274 -14.711  20.495  1.00  0.00    -0.000 C 
BRANCH  12  13
ATOM     13  C   UNL     1       7.497 -15.639  20.596  1.00  0.00    -0.003 C 
ATOM     14  C   UNL     1       7.432 -16.821  19.629  1.00  0.00     0.004 C 
ENDBRANCH  12  13
ENDBRANCH  11  12
ENDBRANCH  10  11
ENDBRANCH   9  10
ENDBRANCH   1   9
TORSDOF 10
ENDMDL
MODEL 4
REMARK VINA RESULT:    -3.665      3.956      5.704
REMARK INTER + INTRA:          -7.346
REMARK INTER:                  -6.707
REMARK INTRA:                  -0.639
REMARK UNBOUND:                -1.538
REMARK SMILES CCCCCCCCCCCC(=O)[O-]
REMARK SMILES IDX 7 1 8 2 9 3 10 4 11 5 12 6 13 7 14 8 6 9 5 10 4 11 3 12 2 13
REMARK SMILES IDX 1 14
REMARK H PARENT
REMARK Flexibility Score: inf
ROOT
ATOM      1  C   UNL     1       6.739 -15.092  22.644  1.00  0.00     0.000 C 
ENDROOT
BRANCH   1   2
ATOM      2  C   UNL     1       6.171 -15.426  24.032  1.00  0.00     0.000 C 
BRANCH   2   3
ATOM      3  C   UNL     1       6.416 -16.888  24.437  1.00  0.00     0.000 C 
BRANCH   3   4
ATOM      4  C   UNL     1       6.982 -17.021  25.861  1.00  0.00     0.006 C 
BRANCH   4   5
ATOM      5  C   UNL     1       7.789 -15.784  26.281  1.00  0.00     0.053 C 
BRANCH   5   6
ATOM      6  C   UNL     1       9.241 -15.925  25.941  1.00  0.00     0.041 C 
ATOM      7  O   UNL     1      10.005 -16.592  26.686  1.00  0.00    -0.550 OA
ATOM      8  O   UNL     1       9.755 -15.294  24.816  1.00  0.00    -0.550 OA
ENDBRANCH   5   6
ENDBRANCH   4   5
ENDBRANCH   3   4
ENDBRANCH   2   3
ENDBRANCH   1   2
BRANCH   1   9
ATOM      9  C   UNL     1       6.011 -13.892  22.027  1.00  0.00     0.000 C 
BRANCH   9  10
ATOM     10  C   UNL     1       5.822 -14.077  20.516  1.00  0.00    -0.000 C 
BRANCH  10  11
ATOM     11  C   UNL     1       6.808 -15.116  19.963  1.00  0.00    -0.000 C 
BRANCH  11  12
ATOM     12  C   UNL     1       7.224 -14.833  18.508  1.00  0.00    -0.000 C 
BRANCH  12  13
ATOM     13  C   UNL     1       7.066 -13.369  18.063  1.00  0.00    -0.003 C 
ATOM     14  C   UNL     1       8.303 -12.824  17.349  1.00  0.00     0.004 C 
ENDBRANCH  12  13
ENDBRANCH  11  12
ENDBRANCH  10  11
ENDBRANCH   9  10
ENDBRANCH   1   9
TORSDOF 10
ENDMDL
MODEL 5
REMARK VINA RESULT:    -3.643      2.961      4.684
REMARK INTER + INTRA:          -7.311
REMARK INTER:                  -5.886
REMARK INTRA:                  -1.425
REMARK UNBOUND:                -1.538
REMARK SMILES CCCCCCCCCCCC(=O)[O-]
REMARK SMILES IDX 7 1 8 2 9 3 10 4 11 5 12 6 13 7 14 8 6 9 5 10 4 11 3 12 2 13
REMARK SMILES IDX 1 14
REMARK H PARENT
REMARK Flexibility Score: inf
ROOT
ATOM      1  C   UNL     1       7.055 -16.489  25.474  1.00  0.00     0.000 C 
ENDROOT
BRANCH   1   2
ATOM      2  C   UNL     1       7.556 -17.663  26.328  1.00  0.00     0.000 C 
BRANCH   2   3
ATOM      3  C   UNL     1       9.090 -17.739  26.394  1.00  0.00     0.000 C 
BRANCH   3   4
ATOM      4  C   UNL     1       9.759 -16.370  26.177  1.00  0.00     0.006 C 
BRANCH   4   5
ATOM      5  C   UNL     1      10.740 -16.386  24.996  1.00  0.00     0.053 C 
BRANCH   5   6
ATOM      6  C   UNL     1      10.710 -15.099  24.231  1.00  0.00     0.041 C 
ATOM      7  O   UNL     1      11.731 -14.710  23.604  1.00  0.00    -0.550 OA
ATOM      8  O   UNL     1       9.564 -14.316  24.233  1.00  0.00    -0.550 OA
ENDBRANCH   5   6
ENDBRANCH   4   5
ENDBRANCH   3   4
ENDBRANCH   2   3
ENDBRANCH   1   2
BRANCH   1   9
ATOM      9  C   UNL     1       6.425 -16.988  24.169  1.00  0.00     0.000 C 
BRANCH   9  10
ATOM     10  C   UNL     1       7.434 -16.943  23.015  1.00  0.00    -0.000 C 
BRANCH  10  11
ATOM     11  C   UNL     1       8.120 -18.304  22.831  1.00  0.00    -0.000 C 
BRANCH  11  12
ATOM     12  C   UNL     1       7.122 -19.476  22.776  1.00  0.00    -0.000 C 
BRANCH  12  13
ATOM     13  C   UNL     1       7.173 -20.425  23.986  1.00  0.00    -0.003 C 
ATOM     14  C   UNL     1       8.565 -21.006  24.232  1.00  0.00     0.004 C 
ENDBRANCH  12  13
ENDBRANCH  11  12
ENDBRANCH  10  11
ENDBRANCH   9  10
ENDBRANCH   1   9
TORSDOF 10
ENDMDL
MODEL 6
REMARK VINA RESULT:    -3.640      2.834      4.632
REMARK INTER + INTRA:          -7.306
REMARK INTER:                  -5.870
REMARK INTRA:                  -1.436
REMARK UNBOUND:                -1.538
REMARK SMILES CCCCCCCCCCCC(=O)[O-]
REMARK SMILES IDX 7 1 8 2 9 3 10 4 11 5 12 6 13 7 14 8 6 9 5 10 4 11 3 12 2 13
REMARK SMILES IDX 1 14
REMARK H PARENT
REMARK Flexibility Score: inf
ROOT
ATOM      1  C   UNL     1       9.875 -14.645  24.028  1.00  0.00     0.000 C 
ENDROOT
BRANCH   1   2
ATOM      2  C   UNL     1      10.893 -15.684  24.523  1.00  0.00     0.000 C 
BRANCH   2   3
ATOM      3  C   UNL     1      10.438 -16.397  25.806  1.00  0.00     0.000 C 
BRANCH   3   4
ATOM      4  C   UNL     1      10.528 -17.929  25.696  1.00  0.00     0.006 C 
BRANCH   4   5
ATOM      5  C   UNL     1      10.168 -18.626  27.015  1.00  0.00     0.053 C 
BRANCH   5   6
ATOM      6  C   UNL     1      11.358 -19.291  27.636  1.00  0.00     0.041 C 
ATOM      7  O   UNL     1      11.294 -19.741  28.810  1.00  0.00    -0.550 OA
ATOM      8  O   UNL     1      12.548 -19.388  26.926  1.00  0.00    -0.550 OA
ENDBRANCH   5   6
ENDBRANCH   4   5
ENDBRANCH   3   4
ENDBRANCH   2   3
ENDBRANCH   1   2
BRANCH   1   9
ATOM      9  C   UNL     1       8.610 -14.660  24.894  1.00  0.00     0.000 C 
BRANCH   9  10
ATOM     10  C   UNL     1       7.366 -14.328  24.060  1.00  0.00    -0.000 C 
BRANCH  10  11
ATOM     11  C   UNL     1       6.376 -15.502  24.058  1.00  0.00    -0.000 C 
BRANCH  11  12
ATOM     12  C   UNL     1       6.801 -16.646  24.999  1.00  0.00    -0.000 C 
BRANCH  12  13
ATOM     13  C   UNL     1       7.094 -17.984  24.299  1.00  0.00    -0.003 C 
ATOM     14  C   UNL     1       7.830 -17.814  22.970  1.00  0.00     0.004 C 
ENDBRANCH  12  13
ENDBRANCH  11  12
ENDBRANCH  10  11
ENDBRANCH   9  10
ENDBRANCH   1   9
TORSDOF 10
ENDMDL
MODEL 7
REMARK VINA RESULT:    -3.621      2.961      5.220
REMARK INTER + INTRA:          -7.277
REMARK INTER:                  -6.207
REMARK INTRA:                  -1.070
REMARK UNBOUND:                -1.538
REMARK SMILES CCCCCCCCCCCC(=O)[O-]
REMARK SMILES IDX 7 1 8 2 9 3 10 4 11 5 12 6 13 7 14 8 6 9 5 10 4 11 3 12 2 13
REMARK SMILES IDX 1 14
REMARK H PARENT
REMARK Flexibility Score: inf
ROOT
ATOM      1  C   UNL     1       8.006 -18.329  26.350  1.00  0.00     0.000 C 
ENDROOT
BRANCH   1   2
ATOM      2  C   UNL     1       7.242 -17.024  26.078  1.00  0.00     0.000 C 
BRANCH   2   3
ATOM      3  C   UNL     1       8.144 -15.782  26.145  1.00  0.00     0.000 C 
BRANCH   3   4
ATOM      4  C   UNL     1       7.927 -14.828  24.958  1.00  0.00     0.006 C 
BRANCH   4   5
ATOM      5  C   UNL     1       6.778 -15.286  24.050  1.00  0.00     0.053 C 
BRANCH   5   6
ATOM      6  C   UNL     1       6.826 -14.619  22.710  1.00  0.00     0.041 C 
ATOM      7  O   UNL     1       6.514 -13.404  22.594  1.00  0.00    -0.550 OA
ATOM      8  O   UNL     1       7.189 -15.347  21.584  1.00  0.00    -0.550 OA
ENDBRANCH   5   6
ENDBRANCH   4   5
ENDBRANCH   3   4
ENDBRANCH   2   3
ENDBRANCH   1   2
BRANCH   1   9
ATOM      9  C   UNL     1       7.085 -19.386  26.970  1.00  0.00     0.000 C 
BRANCH   9  10
ATOM     10  C   UNL     1       7.221 -20.731  26.244  1.00  0.00    -0.000 C 
BRANCH  10  11
ATOM     11  C   UNL     1       8.307 -20.662  25.161  1.00  0.00    -0.000 C 
BRANCH  11  12
ATOM     12  C   UNL     1       7.783 -21.042  23.763  1.00  0.00    -0.000 C 
BRANCH  12  13
ATOM     13  C   UNL     1       6.840 -20.009  23.123  1.00  0.00    -0.003 C 
ATOM     14  C   UNL     1       7.557 -18.731  22.689  1.00  0.00     0.004 C 
ENDBRANCH  12  13
ENDBRANCH  11  12
ENDBRANCH  10  11
ENDBRANCH   9  10
ENDBRANCH   1   9
TORSDOF 10
ENDMDL
MODEL 8
REMARK VINA RESULT:    -3.562      3.256      5.112
REMARK INTER + INTRA:          -7.183
REMARK INTER:                  -5.879
REMARK INTRA:                  -1.304
REMARK UNBOUND:                -1.538
REMARK SMILES CCCCCCCCCCCC(=O)[O-]
REMARK SMILES IDX 7 1 8 2 9 3 10 4 11 5 12 6 13 7 14 8 6 9 5 10 4 11 3 12 2 13
REMARK SMILES IDX 1 14
REMARK H PARENT
REMARK Flexibility Score: inf
ROOT
ATOM      1  C   UNL     1       7.511 -19.281  21.866  1.00  0.00     0.000 C 
ENDROOT
BRANCH   1   2
ATOM      2  C   UNL     1       7.655 -17.882  22.484  1.00  0.00     0.000 C 
BRANCH   2   3
ATOM      3  C   UNL     1       6.755 -17.680  23.713  1.00  0.00     0.000 C 
BRANCH   3   4
ATOM      4  C   UNL     1       7.497 -17.017  24.887  1.00  0.00     0.006 C 
BRANCH   4   5
ATOM      5  C   UNL     1       8.988 -17.383  24.910  1.00  0.00     0.053 C 
BRANCH   5   6
ATOM      6  C   UNL     1       9.853 -16.180  25.126  1.00  0.00     0.041 C 
ATOM      7  O   UNL     1      10.863 -16.250  25.875  1.00  0.00    -0.550 OA
ATOM      8  O   UNL     1       9.527 -14.972  24.522  1.00  0.00    -0.550 OA
ENDBRANCH   5   6
ENDBRANCH   4   5
ENDBRANCH   3   4
ENDBRANCH   2   3
ENDBRANCH   1   2
BRANCH   1   9
ATOM      9  C   UNL     1       7.072 -20.305  22.920  1.00  0.00     0.000 C 
BRANCH   9  10
ATOM     10  C   UNL     1       8.248 -21.186  23.357  1.00  0.00    -0.000 C 
BRANCH  10  11
ATOM     11  C   UNL     1       8.445 -21.125  24.879  1.00  0.00    -0.000 C 
BRANCH  11  12
ATOM     12  C   UNL     1       7.154 -20.760  25.636  1.00  0.00    -0.000 C 
BRANCH  12  13
ATOM     13  C   UNL     1       7.295 -20.715  27.168  1.00  0.00    -0.003 C 
ATOM     14  C   UNL     1       6.010 -21.107  27.898  1.00  0.00     0.004 C 
ENDBRANCH  12  13
ENDBRANCH  11  12
ENDBRANCH  10  11
ENDBRANCH   9  10
ENDBRANCH   1   9
TORSDOF 10
ENDMDL
MODEL 9
REMARK VINA RESULT:    -3.560      3.123      5.902
REMARK INTER + INTRA:          -7.180
REMARK INTER:                  -6.165
REMARK INTRA:                  -1.014
REMARK UNBOUND:                -1.538
REMARK SMILES CCCCCCCCCCCC(=O)[O-]
REMARK SMILES IDX 7 1 8 2 9 3 10 4 11 5 12 6 13 7 14 8 6 9 5 10 4 11 3 12 2 13
REMARK SMILES IDX 1 14
REMARK H PARENT
REMARK Flexibility Score: inf
ROOT
ATOM      1  C   UNL     1       6.819 -19.758  22.908  1.00  0.00     0.000 C 
ENDROOT
BRANCH   1   2
ATOM      2  C   UNL     1       8.034 -18.821  22.838  1.00  0.00     0.000 C 
BRANCH   2   3
ATOM      3  C   UNL     1       7.640 -17.336  22.837  1.00  0.00     0.000 C 
BRANCH   3   4
ATOM      4  C   UNL     1       6.624 -16.992  23.940  1.00  0.00     0.006 C 
BRANCH   4   5
ATOM      5  C   UNL     1       7.196 -16.001  24.964  1.00  0.00     0.053 C 
BRANCH   5   6
ATOM      6  C   UNL     1       7.765 -14.784  24.303  1.00  0.00     0.041 C 
ATOM      7  O   UNL     1       8.959 -14.446  24.517  1.00  0.00    -0.550 OA
ATOM      8  O   UNL     1       6.968 -14.006  23.474  1.00  0.00    -0.550 OA
ENDBRANCH   5   6
ENDBRANCH   4   5
ENDBRANCH   3   4
ENDBRANCH   2   3
ENDBRANCH   1   2
BRANCH   1   9
ATOM      9  C   UNL     1       6.663 -20.553  21.606  1.00  0.00     0.000 C 
BRANCH   9  10
ATOM     10  C   UNL     1       7.921 -20.439  20.735  1.00  0.00    -0.000 C 
BRANCH  10  11
ATOM     11  C   UNL     1       8.379 -21.821  20.249  1.00  0.00    -0.000 C 
BRANCH  11  12
ATOM     12  C   UNL     1       8.575 -22.827  21.399  1.00  0.00    -0.000 C 
BRANCH  12  13
ATOM     13  C   UNL     1       9.854 -22.620  22.228  1.00  0.00    -0.003 C 
ATOM     14  C   UNL     1       9.569 -22.237  23.680  1.00  0.00     0.004 C 
ENDBRANCH  12  13
ENDBRANCH  11  12
ENDBRANCH  10  11
ENDBRANCH   9  10
ENDBRANCH   1   9
TORSDOF 10
ENDMDL
