MODEL 1
REMARK VINA RESULT:    -3.989      0.000      0.000
REMARK INTER + INTRA:          -5.096
REMARK INTER:                  -4.922
REMARK INTRA:                  -0.175
REMARK UNBOUND:                -0.175
REMARK SMILES CCCCC=CC(C)=O
REMARK SMILES IDX 4 1 3 2 2 3 1 4 5 5 6 6 7 7 9 8 8 9
REMARK H PARENT
REMARK Flexibility Score: inf
ROOT
ATOM      1  C   UNL     1      19.693  31.207 -22.418  1.00  0.00     0.027 C 
ENDROOT
BRANCH   1   2
ATOM      2  C   UNL     1      18.300  31.503 -21.852  1.00  0.00     0.004 C 
BRANCH   2   3
ATOM      3  C   UNL     1      17.640  32.669 -22.597  1.00  0.00    -0.003 C 
ATOM      4  C   UNL     1      18.663  33.446 -23.422  1.00  0.00     0.004 C 
ENDBRANCH   2   3
ENDBRANCH   1   2
BRANCH   1   5
ATOM      5  C   UNL     1      20.164  29.838 -22.018  1.00  0.00    -0.023 C 
ATOM      6  C   UNL     1      20.627  29.592 -20.785  1.00  0.00     0.042 C 
BRANCH   6   7
ATOM      7  C   UNL     1      21.089  28.262 -20.343  1.00  0.00     0.152 C 
ATOM      8  O   UNL     1      22.103  28.191 -19.599  1.00  0.00    -0.295 OA
ATOM      9  C   UNL     1      20.396  26.994 -20.745  1.00  0.00     0.093 C 
ENDBRANCH   6   7
ENDBRANCH   1   5
TORSDOF 4
ENDMDL
MODEL 2
REMARK VINA RESULT:    -3.914      7.144      9.366
REMARK INTER + INTRA:          -5.003
REMARK INTER:                  -4.794
REMARK INTRA:                  -0.209
REMARK UNBOUND:                -0.175
REMARK SMILES CCCCC=CC(C)=O
REMARK SMILES IDX 4 1 3 2 2 3 1 4 5 5 6 6 7 7 9 8 8 9
REMARK H PARENT
REMARK Flexibility Score: inf
ROOT
ATOM      1  C   UNL     1      23.642  23.276 -23.237  1.00  0.00     0.027 C 
ENDROOT
BRANCH   1   2
ATOM      2  C   UNL     1      22.253  22.813 -23.689  1.00  0.00     0.004 C 
BRANCH   2   3
ATOM      3  C   UNL     1      21.152  23.507 -22.878  1.00  0.00    -0.003 C 
ATOM      4  C   UNL     1      21.663  24.802 -22.252  1.00  0.00     0.004 C 
ENDBRANCH   2   3
ENDBRANCH   1   2
BRANCH   1   5
ATOM      5  C   UNL     1      24.697  22.882 -24.231  1.00  0.00    -0.023 C 
ATOM      6  C   UNL     1      24.562  23.151 -25.536  1.00  0.00     0.042 C 
BRANCH   6   7
ATOM      7  C   UNL     1      25.576  22.794 -26.547  1.00  0.00     0.152 C 
ATOM      8  O   UNL     1      26.354  23.692 -26.967  1.00  0.00    -0.295 OA
ATOM      9  C   UNL     1      25.714  21.404 -27.093  1.00  0.00     0.093 C 
ENDBRANCH   6   7
ENDBRANCH   1   5
TORSDOF 4
ENDMDL
MODEL 3
REMARK VINA RESULT:    -3.880      6.770      9.503
REMARK INTER + INTRA:          -4.962
REMARK INTER:                  -4.834
REMARK INTRA:                  -0.128
REMARK UNBOUND:                -0.175
REMARK SMILES CCCCC=CC(C)=O
REMARK SMILES IDX 4 1 3 2 2 3 1 4 5 5 6 6 7 7 9 8 8 9
REMARK H PARENT
REMARK Flexibility Score: inf
ROOT
ATOM      1  C   UNL     1      25.073  22.894 -24.232  1.00  0.00     0.027 C 
ENDROOT
BRANCH   1   2
ATOM      2  C   UNL     1      24.725  22.764 -25.719  1.00  0.00     0.004 C 
BRANCH   2   3
ATOM      3  C   UNL     1      25.523  21.629 -26.372  1.00  0.00    -0.003 C 
ATOM      4  C   UNL     1      24.687  20.899 -27.420  1.00  0.00     0.004 C 
ENDBRANCH   2   3
ENDBRANCH   1   2
BRANCH   1   5
ATOM      5  C   UNL     1      23.834  23.007 -23.391  1.00  0.00    -0.023 C 
ATOM      6  C   UNL     1      22.964  24.010 -23.561  1.00  0.00     0.042 C 
BRANCH   6   7
ATOM      7  C   UNL     1      21.728  24.156 -22.767  1.00  0.00     0.152 C 
ATOM      8  O   UNL     1      20.907  23.201 -22.747  1.00  0.00    -0.295 OA
ATOM      9  C   UNL     1      21.415  25.396 -21.984  1.00  0.00     0.093 C 
ENDBRANCH   6   7
ENDBRANCH   1   5
TORSDOF 4
ENDMDL
MODEL 4
REMARK VINA RESULT:    -3.868      8.595     10.426
REMARK INTER + INTRA:          -4.947
REMARK INTER:                  -4.724
REMARK INTRA:                  -0.223
REMARK UNBOUND:                -0.175
REMARK SMILES CCCCC=CC(C)=O
REMARK SMILES IDX 4 1 3 2 2 3 1 4 5 5 6 6 7 7 9 8 8 9
REMARK H PARENT
REMARK Flexibility Score: inf
ROOT
ATOM      1  C   UNL     1      20.863  28.981 -12.238  1.00  0.00     0.027 C 
ENDROOT
BRANCH   1   2
ATOM      2  C   UNL     1      21.151  28.859 -10.738  1.00  0.00     0.004 C 
BRANCH   2   3
ATOM      3  C   UNL     1      19.884  28.471  -9.966  1.00  0.00    -0.003 C 
ATOM      4  C   UNL     1      20.229  27.726  -8.679  1.00  0.00     0.004 C 
ENDBRANCH   2   3
ENDBRANCH   1   2
BRANCH   1   5
ATOM      5  C   UNL     1      19.592  28.271 -12.609  1.00  0.00    -0.023 C 
ATOM      6  C   UNL     1      19.118  28.298 -13.861  1.00  0.00     0.042 C 
BRANCH   6   7
ATOM      7  C   UNL     1      17.881  27.606 -14.274  1.00  0.00     0.152 C 
ATOM      8  O   UNL     1      17.372  27.893 -15.390  1.00  0.00    -0.295 OA
ATOM      9  C   UNL     1      17.209  26.576 -13.415  1.00  0.00     0.093 C 
ENDBRANCH   6   7
ENDBRANCH   1   5
TORSDOF 4
ENDMDL
MODEL 5
REMARK VINA RESULT:    -3.868      7.450      9.084
REMARK INTER + INTRA:          -4.947
REMARK INTER:                  -4.689
REMARK INTRA:                  -0.257
REMARK UNBOUND:                -0.175
REMARK SMILES CCCCC=CC(C)=O
REMARK SMILES IDX 4 1 3 2 2 3 1 4 5 5 6 6 7 7 9 8 8 9
REMARK H PARENT
REMARK Flexibility Score: inf
ROOT
ATOM      1  C   UNL     1      19.008  27.982 -15.404  1.00  0.00     0.027 C 
ENDROOT
BRANCH   1   2
ATOM      2  C   UNL     1      17.598  27.866 -14.814  1.00  0.00     0.004 C 
BRANCH   2   3
ATOM      3  C   UNL     1      17.263  26.409 -14.474  1.00  0.00    -0.003 C 
ATOM      4  C   UNL     1      16.875  26.260 -13.005  1.00  0.00     0.004 C 
ENDBRANCH   2   3
ENDBRANCH   1   2
BRANCH   1   5
ATOM      5  C   UNL     1      20.037  28.163 -14.325  1.00  0.00    -0.023 C 
ATOM      6  C   UNL     1      19.745  28.795 -13.181  1.00  0.00     0.042 C 
BRANCH   6   7
ATOM      7  C   UNL     1      20.719  28.986 -12.088  1.00  0.00     0.152 C 
ATOM      8  O   UNL     1      20.914  28.040 -11.280  1.00  0.00    -0.295 OA
ATOM      9  C   UNL     1      21.482  30.264 -11.906  1.00  0.00     0.093 C 
ENDBRANCH   6   7
ENDBRANCH   1   5
TORSDOF 4
ENDMDL
MODEL 6
REMARK VINA RESULT:    -3.833     12.680     13.158
REMARK INTER + INTRA:          -4.904
REMARK INTER:                  -4.613
REMARK INTRA:                  -0.291
REMARK UNBOUND:                -0.175
REMARK SMILES CCCCC=CC(C)=O
REMARK SMILES IDX 4 1 3 2 2 3 1 4 5 5 6 6 7 7 9 8 8 9
REMARK H PARENT
REMARK Flexibility Score: inf
ROOT
ATOM      1  C   UNL     1      31.854  37.905 -22.009  1.00  0.00     0.027 C 
ENDROOT
BRANCH   1   2
ATOM      2  C   UNL     1      30.997  37.535 -23.224  1.00  0.00     0.004 C 
BRANCH   2   3
ATOM      3  C   UNL     1      29.676  38.313 -23.221  1.00  0.00    -0.003 C 
ATOM      4  C   UNL     1      29.028  38.293 -21.839  1.00  0.00     0.004 C 
ENDBRANCH   2   3
ENDBRANCH   1   2
BRANCH   1   5
ATOM      5  C   UNL     1      32.404  36.679 -21.337  1.00  0.00    -0.023 C 
ATOM      6  C   UNL     1      31.692  35.547 -21.259  1.00  0.00     0.042 C 
BRANCH   6   7
ATOM      7  C   UNL     1      32.195  34.316 -20.620  1.00  0.00     0.152 C 
ATOM      8  O   UNL     1      31.373  33.406 -20.332  1.00  0.00    -0.295 OA
ATOM      9  C   UNL     1      33.646  34.108 -20.302  1.00  0.00     0.093 C 
ENDBRANCH   6   7
ENDBRANCH   1   5
TORSDOF 4
ENDMDL
MODEL 7
REMARK VINA RESULT:    -3.831     14.252     15.989
REMARK INTER + INTRA:          -4.901
REMARK INTER:                  -4.660
REMARK INTRA:                  -0.241
REMARK UNBOUND:                -0.175
REMARK SMILES CCCCC=CC(C)=O
REMARK SMILES IDX 4 1 3 2 2 3 1 4 5 5 6 6 7 7 9 8 8 9
REMARK H PARENT
REMARK Flexibility Score: inf
ROOT
ATOM      1  C   UNL     1      34.231  31.809 -14.541  1.00  0.00     0.027 C 
ENDROOT
BRANCH   1   2
ATOM      2  C   UNL     1      35.460  30.975 -14.923  1.00  0.00     0.004 C 
BRANCH   2   3
ATOM      3  C   UNL     1      36.702  31.446 -14.158  1.00  0.00    -0.003 C 
ATOM      4  C   UNL     1      36.673  32.955 -13.934  1.00  0.00     0.004 C 
ENDBRANCH   2   3
ENDBRANCH   1   2
BRANCH   1   5
ATOM      5  C   UNL     1      33.277  31.932 -15.694  1.00  0.00    -0.023 C 
ATOM      6  C   UNL     1      33.604  31.505 -16.920  1.00  0.00     0.042 C 
BRANCH   6   7
ATOM      7  C   UNL     1      32.696  31.594 -18.080  1.00  0.00     0.152 C 
ATOM      8  O   UNL     1      33.063  32.257 -19.086  1.00  0.00    -0.295 OA
ATOM      9  C   UNL     1      31.353  30.925 -18.104  1.00  0.00     0.093 C 
ENDBRANCH   6   7
ENDBRANCH   1   5
TORSDOF 4
ENDMDL
MODEL 8
REMARK VINA RESULT:    -3.824     16.682     17.748
REMARK INTER + INTRA:          -4.893
REMARK INTER:                  -4.665
REMARK INTRA:                  -0.228
REMARK UNBOUND:                -0.175
REMARK SMILES CCCCC=CC(C)=O
REMARK SMILES IDX 4 1 3 2 2 3 1 4 5 5 6 6 7 7 9 8 8 9
REMARK H PARENT
REMARK Flexibility Score: inf
ROOT
ATOM      1  C   UNL     1      35.043  31.335 -14.389  1.00  0.00     0.027 C 
ENDROOT
BRANCH   1   2
ATOM      2  C   UNL     1      36.569  31.469 -14.436  1.00  0.00     0.004 C 
BRANCH   2   3
ATOM      3  C   UNL     1      37.086  32.279 -13.241  1.00  0.00    -0.003 C 
ATOM      4  C   UNL     1      37.123  33.771 -13.561  1.00  0.00     0.004 C 
ENDBRANCH   2   3
ENDBRANCH   1   2
BRANCH   1   5
ATOM      5  C   UNL     1      34.568  31.001 -13.004  1.00  0.00    -0.023 C 
ATOM      6  C   UNL     1      33.840  29.904 -12.760  1.00  0.00     0.042 C 
BRANCH   6   7
ATOM      7  C   UNL     1      33.361  29.529 -11.415  1.00  0.00     0.152 C 
ATOM      8  O   UNL     1      32.366  28.763 -11.319  1.00  0.00    -0.295 OA
ATOM      9  C   UNL     1      34.016  30.027 -10.161  1.00  0.00     0.093 C 
ENDBRANCH   6   7
ENDBRANCH   1   5
TORSDOF 4
ENDMDL
