MODEL 1
REMARK VINA RESULT:    -3.382      0.000      0.000
REMARK INTER + INTRA:          -4.567
REMARK INTER:                  -4.371
REMARK INTRA:                  -0.196
REMARK UNBOUND:                -0.196
REMARK SMILES CCCCCCC(=O)[O-]
REMARK SMILES IDX 5 1 6 2 7 3 8 4 9 5 4 6 3 7 2 8 1 9
REMARK H PARENT
REMARK Flexibility Score: inf
ROOT
ATOM      1  C   UNL     1      10.419  32.384   2.461  1.00  0.00     0.006 C 
ENDROOT
BRANCH   1   2
ATOM      2  C   UNL     1       9.759  31.292   1.610  1.00  0.00     0.053 C 
BRANCH   2   3
ATOM      3  C   UNL     1      10.353  31.220   0.237  1.00  0.00     0.041 C 
ATOM      4  O   UNL     1      11.601  31.298   0.083  1.00  0.00    -0.550 OA
ATOM      5  O   UNL     1       9.534  31.034  -0.869  1.00  0.00    -0.550 OA
ENDBRANCH   2   3
ENDBRANCH   1   2
BRANCH   1   6
ATOM      6  C   UNL     1      10.637  31.936   3.914  1.00  0.00     0.000 C 
BRANCH   6   7
ATOM      7  C   UNL     1       9.758  32.745   4.877  1.00  0.00    -0.000 C 
BRANCH   7   8
ATOM      8  C   UNL     1       8.458  31.998   5.194  1.00  0.00    -0.003 C 
ATOM      9  C   UNL     1       8.697  30.875   6.199  1.00  0.00     0.004 C 
ENDBRANCH   7   8
ENDBRANCH   6   7
ENDBRANCH   1   6
TORSDOF 5
ENDMDL
MODEL 2
REMARK VINA RESULT:    -3.275     16.575     17.481
REMARK INTER + INTRA:          -4.429
REMARK INTER:                  -4.168
REMARK INTRA:                  -0.260
REMARK UNBOUND:                -0.196
REMARK SMILES CCCCCCC(=O)[O-]
REMARK SMILES IDX 5 1 6 2 7 3 8 4 9 5 4 6 3 7 2 8 1 9
REMARK H PARENT
REMARK Flexibility Score: inf
ROOT
ATOM      1  C   UNL     1      22.862  34.619  11.369  1.00  0.00     0.006 C 
ENDROOT
BRANCH   1   2
ATOM      2  C   UNL     1      22.695  34.194  12.834  1.00  0.00     0.053 C 
BRANCH   2   3
ATOM      3  C   UNL     1      22.743  35.367  13.763  1.00  0.00     0.041 C 
ATOM      4  O   UNL     1      23.736  36.142  13.754  1.00  0.00    -0.550 OA
ATOM      5  O   UNL     1      21.678  35.625  14.616  1.00  0.00    -0.550 OA
ENDBRANCH   2   3
ENDBRANCH   1   2
BRANCH   1   6
ATOM      6  C   UNL     1      23.823  33.698  10.603  1.00  0.00     0.000 C 
BRANCH   6   7
ATOM      7  C   UNL     1      24.911  33.143  11.530  1.00  0.00    -0.000 C 
BRANCH   7   8
ATOM      8  C   UNL     1      25.472  31.822  10.993  1.00  0.00    -0.003 C 
ATOM      9  C   UNL     1      24.770  31.409   9.703  1.00  0.00     0.004 C 
ENDBRANCH   7   8
ENDBRANCH   6   7
ENDBRANCH   1   6
TORSDOF 5
ENDMDL
MODEL 3
REMARK VINA RESULT:    -3.253     16.767     17.960
REMARK INTER + INTRA:          -4.400
REMARK INTER:                  -4.022
REMARK INTRA:                  -0.379
REMARK UNBOUND:                -0.196
REMARK SMILES CCCCCCC(=O)[O-]
REMARK SMILES IDX 5 1 6 2 7 3 8 4 9 5 4 6 3 7 2 8 1 9
REMARK H PARENT
REMARK Flexibility Score: inf
ROOT
ATOM      1  C   UNL     1      22.867  34.537  11.411  1.00  0.00     0.006 C 
ENDROOT
BRANCH   1   2
ATOM      2  C   UNL     1      22.556  34.214  12.878  1.00  0.00     0.053 C 
BRANCH   2   3
ATOM      3  C   UNL     1      22.639  35.432  13.746  1.00  0.00     0.041 C 
ATOM      4  O   UNL     1      23.559  36.274  13.568  1.00  0.00    -0.550 OA
ATOM      5  O   UNL     1      21.684  35.653  14.729  1.00  0.00    -0.550 OA
ENDBRANCH   2   3
ENDBRANCH   1   2
BRANCH   1   6
ATOM      6  C   UNL     1      23.996  33.662  10.849  1.00  0.00     0.000 C 
BRANCH   6   7
ATOM      7  C   UNL     1      24.802  33.010  11.980  1.00  0.00    -0.000 C 
BRANCH   7   8
ATOM      8  C   UNL     1      26.244  33.529  11.999  1.00  0.00    -0.003 C 
ATOM      9  C   UNL     1      26.521  34.345  13.258  1.00  0.00     0.004 C 
ENDBRANCH   7   8
ENDBRANCH   6   7
ENDBRANCH   1   6
TORSDOF 5
ENDMDL
MODEL 4
REMARK VINA RESULT:    -3.238      3.020      5.002
REMARK INTER + INTRA:          -4.381
REMARK INTER:                  -4.166
REMARK INTRA:                  -0.215
REMARK UNBOUND:                -0.196
REMARK SMILES CCCCCCC(=O)[O-]
REMARK SMILES IDX 5 1 6 2 7 3 8 4 9 5 4 6 3 7 2 8 1 9
REMARK H PARENT
REMARK Flexibility Score: inf
ROOT
ATOM      1  C   UNL     1      10.850  31.856   3.423  1.00  0.00     0.006 C 
ENDROOT
BRANCH   1   2
ATOM      2  C   UNL     1      10.128  32.681   4.496  1.00  0.00     0.053 C 
BRANCH   2   3
ATOM      3  C   UNL     1       9.064  31.886   5.188  1.00  0.00     0.041 C 
ATOM      4  O   UNL     1       7.907  31.813   4.695  1.00  0.00    -0.550 OA
ATOM      5  O   UNL     1       9.358  31.199   6.358  1.00  0.00    -0.550 OA
ENDBRANCH   2   3
ENDBRANCH   1   2
BRANCH   1   6
ATOM      6  C   UNL     1      10.542  32.352   2.003  1.00  0.00     0.000 C 
BRANCH   6   7
ATOM      7  C   UNL     1       9.606  31.382   1.272  1.00  0.00    -0.000 C 
BRANCH   7   8
ATOM      8  C   UNL     1      10.146  31.041  -0.122  1.00  0.00    -0.003 C 
ATOM      9  C   UNL     1      11.666  30.907  -0.107  1.00  0.00     0.004 C 
ENDBRANCH   7   8
ENDBRANCH   6   7
ENDBRANCH   1   6
TORSDOF 5
ENDMDL
MODEL 5
REMARK VINA RESULT:    -3.221     16.682     17.916
REMARK INTER + INTRA:          -4.358
REMARK INTER:                  -4.013
REMARK INTRA:                  -0.345
REMARK UNBOUND:                -0.196
REMARK SMILES CCCCCCC(=O)[O-]
REMARK SMILES IDX 5 1 6 2 7 3 8 4 9 5 4 6 3 7 2 8 1 9
REMARK H PARENT
REMARK Flexibility Score: inf
ROOT
ATOM      1  C   UNL     1      22.858  34.623  11.425  1.00  0.00     0.006 C 
ENDROOT
BRANCH   1   2
ATOM      2  C   UNL     1      22.537  34.294  12.888  1.00  0.00     0.053 C 
BRANCH   2   3
ATOM      3  C   UNL     1      22.836  35.446  13.797  1.00  0.00     0.041 C 
ATOM      4  O   UNL     1      21.968  35.847  14.617  1.00  0.00    -0.550 OA
ATOM      5  O   UNL     1      24.083  36.056  13.762  1.00  0.00    -0.550 OA
ENDBRANCH   2   3
ENDBRANCH   1   2
BRANCH   1   6
ATOM      6  C   UNL     1      23.910  33.675  10.833  1.00  0.00     0.000 C 
BRANCH   6   7
ATOM      7  C   UNL     1      24.355  32.631  11.866  1.00  0.00    -0.000 C 
BRANCH   7   8
ATOM      8  C   UNL     1      25.876  32.447  11.844  1.00  0.00    -0.003 C 
ATOM      9  C   UNL     1      26.594  33.743  12.210  1.00  0.00     0.004 C 
ENDBRANCH   7   8
ENDBRANCH   6   7
ENDBRANCH   1   6
TORSDOF 5
ENDMDL
MODEL 6
REMARK VINA RESULT:    -3.206     17.071     18.174
REMARK INTER + INTRA:          -4.339
REMARK INTER:                  -3.937
REMARK INTRA:                  -0.402
REMARK UNBOUND:                -0.196
REMARK SMILES CCCCCCC(=O)[O-]
REMARK SMILES IDX 5 1 6 2 7 3 8 4 9 5 4 6 3 7 2 8 1 9
REMARK H PARENT
REMARK Flexibility Score: inf
ROOT
ATOM      1  C   UNL     1      24.352  32.593  11.882  1.00  0.00     0.006 C 
ENDROOT
BRANCH   1   2
ATOM      2  C   UNL     1      25.869  32.403  12.011  1.00  0.00     0.053 C 
BRANCH   2   3
ATOM      3  C   UNL     1      26.530  33.597  12.627  1.00  0.00     0.041 C 
ATOM      4  O   UNL     1      27.365  34.270  11.964  1.00  0.00    -0.550 OA
ATOM      5  O   UNL     1      26.201  33.988  13.918  1.00  0.00    -0.550 OA
ENDBRANCH   2   3
ENDBRANCH   1   2
BRANCH   1   6
ATOM      6  C   UNL     1      23.983  33.578  10.764  1.00  0.00     0.000 C 
BRANCH   6   7
ATOM      7  C   UNL     1      22.897  34.556  11.229  1.00  0.00    -0.000 C 
BRANCH   7   8
ATOM      8  C   UNL     1      22.704  34.484  12.747  1.00  0.00    -0.003 C 
ATOM      9  C   UNL     1      23.192  35.760  13.427  1.00  0.00     0.004 C 
ENDBRANCH   7   8
ENDBRANCH   6   7
ENDBRANCH   1   6
TORSDOF 5
ENDMDL
MODEL 7
REMARK VINA RESULT:    -3.186     17.133     18.145
REMARK INTER + INTRA:          -4.313
REMARK INTER:                  -3.955
REMARK INTRA:                  -0.358
REMARK UNBOUND:                -0.196
REMARK SMILES CCCCCCC(=O)[O-]
REMARK SMILES IDX 5 1 6 2 7 3 8 4 9 5 4 6 3 7 2 8 1 9
REMARK H PARENT
REMARK Flexibility Score: inf
ROOT
ATOM      1  C   UNL     1      26.622  33.863  12.029  1.00  0.00     0.006 C 
ENDROOT
BRANCH   1   2
ATOM      2  C   UNL     1      25.857  32.546  11.844  1.00  0.00     0.053 C 
BRANCH   2   3
ATOM      3  C   UNL     1      24.944  32.593  10.658  1.00  0.00     0.041 C 
ATOM      4  O   UNL     1      24.137  33.550  10.518  1.00  0.00    -0.550 OA
ATOM      5  O   UNL     1      25.008  31.600   9.690  1.00  0.00    -0.550 OA
ENDBRANCH   2   3
ENDBRANCH   1   2
BRANCH   1   6
ATOM      6  C   UNL     1      26.579  34.362  13.480  1.00  0.00     0.000 C 
BRANCH   6   7
ATOM      7  C   UNL     1      25.160  34.264  14.054  1.00  0.00    -0.000 C 
BRANCH   7   8
ATOM      8  C   UNL     1      24.418  35.599  13.919  1.00  0.00    -0.003 C 
ATOM      9  C   UNL     1      23.047  35.406  13.277  1.00  0.00     0.004 C 
ENDBRANCH   7   8
ENDBRANCH   6   7
ENDBRANCH   1   6
TORSDOF 5
ENDMDL
MODEL 8
REMARK VINA RESULT:    -3.085     17.260     18.497
REMARK INTER + INTRA:          -4.183
REMARK INTER:                  -3.950
REMARK INTRA:                  -0.233
REMARK UNBOUND:                -0.196
REMARK SMILES CCCCCCC(=O)[O-]
REMARK SMILES IDX 5 1 6 2 7 3 8 4 9 5 4 6 3 7 2 8 1 9
REMARK H PARENT
REMARK Flexibility Score: inf
ROOT
ATOM      1  C   UNL     1      26.101  34.456  13.493  1.00  0.00     0.006 C 
ENDROOT
BRANCH   1   2
ATOM      2  C   UNL     1      24.623  34.235  13.841  1.00  0.00     0.053 C 
BRANCH   2   3
ATOM      3  C   UNL     1      23.777  35.407  13.450  1.00  0.00     0.041 C 
ATOM      4  O   UNL     1      22.887  35.279  12.567  1.00  0.00    -0.550 OA
ATOM      5  O   UNL     1      23.947  36.631  14.082  1.00  0.00    -0.550 OA
ENDBRANCH   2   3
ENDBRANCH   1   2
BRANCH   1   6
ATOM      6  C   UNL     1      26.473  33.858  12.130  1.00  0.00     0.000 C 
BRANCH   6   7
ATOM      7  C   UNL     1      25.658  32.590  11.844  1.00  0.00    -0.000 C 
BRANCH   7   8
ATOM      8  C   UNL     1      24.824  32.748  10.567  1.00  0.00    -0.003 C 
ATOM      9  C   UNL     1      24.838  31.467   9.737  1.00  0.00     0.004 C 
ENDBRANCH   7   8
ENDBRANCH   6   7
ENDBRANCH   1   6
TORSDOF 5
ENDMDL
MODEL 9
REMARK VINA RESULT:    -2.929     16.907     17.927
REMARK INTER + INTRA:          -3.981
REMARK INTER:                  -3.630
REMARK INTRA:                  -0.351
REMARK UNBOUND:                -0.196
REMARK SMILES CCCCCCC(=O)[O-]
REMARK SMILES IDX 5 1 6 2 7 3 8 4 9 5 4 6 3 7 2 8 1 9
REMARK H PARENT
REMARK Flexibility Score: inf
ROOT
ATOM      1  C   UNL     1      23.248  33.933  12.670  1.00  0.00     0.006 C 
ENDROOT
BRANCH   1   2
ATOM      2  C   UNL     1      23.518  33.879  11.161  1.00  0.00     0.053 C 
BRANCH   2   3
ATOM      3  C   UNL     1      24.774  33.126  10.847  1.00  0.00     0.041 C 
ATOM      4  O   UNL     1      25.873  33.498  11.336  1.00  0.00    -0.550 OA
ATOM      5  O   UNL     1      24.727  31.996  10.041  1.00  0.00    -0.550 OA
ENDBRANCH   2   3
ENDBRANCH   1   2
BRANCH   1   6
ATOM      6  C   UNL     1      23.074  35.372  13.178  1.00  0.00     0.000 C 
BRANCH   6   7
ATOM      7  C   UNL     1      24.282  35.810  14.016  1.00  0.00    -0.000 C 
BRANCH   7   8
ATOM      8  C   UNL     1      24.924  34.613  14.724  1.00  0.00    -0.003 C 
ATOM      9  C   UNL     1      26.441  34.625  14.563  1.00  0.00     0.004 C 
ENDBRANCH   7   8
ENDBRANCH   6   7
ENDBRANCH   1   6
TORSDOF 5
ENDMDL
