MODEL 1
REMARK VINA RESULT:    -6.441      0.000      0.000
REMARK INTER + INTRA:          -8.549
REMARK INTER:                  -8.135
REMARK INTRA:                  -0.413
REMARK UNBOUND:                -0.413
REMARK SMILES Oc1ccc(CCc2cc(O)cc(O)c2)cc1
REMARK SMILES IDX 6 1 5 2 4 3 3 4 2 5 16 6 17 7 1 8 7 10 8 11 15 12 9 13 13 14
REMARK SMILES IDX 10 15 12 16 14 17 11 19
REMARK H PARENT 1 9 14 18 11 20
REMARK Flexibility Score: inf
ROOT
ATOM      1  C   UNL     1      46.390   7.747  19.809  1.00  0.00     0.040 C 
ENDROOT
BRANCH   1   2
ATOM      2  C   UNL     1      45.914   8.145  21.179  1.00  0.00    -0.047 A 
ATOM      3  C   UNL     1      44.564   8.457  21.398  1.00  0.00     0.007 A 
ATOM      4  C   UNL     1      44.116   8.796  22.680  1.00  0.00     0.046 A 
ATOM      5  C   UNL     1      45.011   8.816  23.755  1.00  0.00     0.115 A 
ATOM      6  C   UNL     1      46.807   8.154  22.265  1.00  0.00     0.007 A 
ATOM      7  C   UNL     1      46.357   8.493  23.544  1.00  0.00     0.046 A 
BRANCH   5   8
ATOM      8  O   UNL     1      44.551   9.156  25.025  1.00  0.00    -0.508 OA
ATOM      9  H   UNL     1      45.146   9.076  25.841  1.00  0.00     0.293 HD
ENDBRANCH   5   8
ENDBRANCH   1   2
BRANCH   1  10
ATOM     10  C   UNL     1      45.348   8.117  18.749  1.00  0.00     0.040 C 
BRANCH  10  11
ATOM     11  C   UNL     1      45.630   7.398  17.457  1.00  0.00    -0.040 A 
ATOM     12  C   UNL     1      46.843   6.714  17.279  1.00  0.00     0.050 A 
ATOM     13  C   UNL     1      44.660   7.359  16.442  1.00  0.00     0.050 A 
ATOM     14  C   UNL     1      47.094   6.017  16.088  1.00  0.00     0.119 A 
ATOM     15  C   UNL     1      44.909   6.662  15.252  1.00  0.00     0.119 A 
ATOM     16  C   UNL     1      46.126   5.995  15.078  1.00  0.00     0.092 A 
BRANCH  14  17
ATOM     17  O   UNL     1      48.298   5.341  15.901  1.00  0.00    -0.508 OA
ATOM     18  H   UNL     1      49.034   5.370  16.595  1.00  0.00     0.293 HD
ENDBRANCH  14  17
BRANCH  15  19
ATOM     19  O   UNL     1      43.955   6.623  14.239  1.00  0.00    -0.508 OA
ATOM     20  H   UNL     1      43.946   5.882  13.548  1.00  0.00     0.293 HD
ENDBRANCH  15  19
ENDBRANCH  10  11
ENDBRANCH   1  10
TORSDOF 6
ENDMDL
MODEL 2
REMARK VINA RESULT:    -6.440      0.033      1.175
REMARK INTER + INTRA:          -8.548
REMARK INTER:                  -8.131
REMARK INTRA:                  -0.417
REMARK UNBOUND:                -0.413
REMARK SMILES Oc1ccc(CCc2cc(O)cc(O)c2)cc1
REMARK SMILES IDX 6 1 5 2 4 3 3 4 2 5 16 6 17 7 1 8 7 10 8 11 15 12 9 13 13 14
REMARK SMILES IDX 10 15 12 16 14 17 11 19
REMARK H PARENT 1 9 14 18 11 20
REMARK Flexibility Score: inf
ROOT
ATOM      1  C   UNL     1      46.418   7.738  19.802  1.00  0.00     0.040 C 
ENDROOT
BRANCH   1   2
ATOM      2  C   UNL     1      45.919   8.081  21.180  1.00  0.00    -0.047 A 
ATOM      3  C   UNL     1      46.802   8.093  22.271  1.00  0.00     0.007 A 
ATOM      4  C   UNL     1      46.343   8.442  23.546  1.00  0.00     0.046 A 
ATOM      5  C   UNL     1      45.003   8.793  23.740  1.00  0.00     0.115 A 
ATOM      6  C   UNL     1      44.576   8.446  21.377  1.00  0.00     0.007 A 
ATOM      7  C   UNL     1      44.121   8.795  22.652  1.00  0.00     0.046 A 
BRANCH   5   8
ATOM      8  O   UNL     1      44.561   9.139  25.015  1.00  0.00    -0.508 OA
ATOM      9  H   UNL     1      43.599   9.408  25.185  1.00  0.00     0.293 HD
ENDBRANCH   5   8
ENDBRANCH   1   2
BRANCH   1  10
ATOM     10  C   UNL     1      45.382   8.126  18.743  1.00  0.00     0.040 C 
BRANCH  10  11
ATOM     11  C   UNL     1      45.649   7.400  17.451  1.00  0.00    -0.040 A 
ATOM     12  C   UNL     1      46.858   6.711  17.265  1.00  0.00     0.050 A 
ATOM     13  C   UNL     1      44.669   7.360  16.447  1.00  0.00     0.050 A 
ATOM     14  C   UNL     1      47.095   6.008  16.076  1.00  0.00     0.119 A 
ATOM     15  C   UNL     1      44.905   6.657  15.257  1.00  0.00     0.119 A 
ATOM     16  C   UNL     1      46.118   5.985  15.074  1.00  0.00     0.092 A 
BRANCH  14  17
ATOM     17  O   UNL     1      48.295   5.327  15.880  1.00  0.00    -0.508 OA
ATOM     18  H   UNL     1      48.974   5.227  16.624  1.00  0.00     0.293 HD
ENDBRANCH  14  17
BRANCH  15  19
ATOM     19  O   UNL     1      43.941   6.617  14.253  1.00  0.00    -0.508 OA
ATOM     20  H   UNL     1      43.303   5.834  14.162  1.00  0.00     0.293 HD
ENDBRANCH  15  19
ENDBRANCH  10  11
ENDBRANCH   1  10
TORSDOF 6
ENDMDL
MODEL 3
REMARK VINA RESULT:    -6.415      0.061      2.346
REMARK INTER + INTRA:          -8.516
REMARK INTER:                  -8.101
REMARK INTRA:                  -0.415
REMARK UNBOUND:                -0.413
REMARK SMILES Oc1ccc(CCc2cc(O)cc(O)c2)cc1
REMARK SMILES IDX 6 1 5 2 4 3 3 4 2 5 16 6 17 7 1 8 7 10 8 11 15 12 9 13 13 14
REMARK SMILES IDX 10 15 12 16 14 17 11 19
REMARK H PARENT 1 9 14 18 11 20
REMARK Flexibility Score: inf
ROOT
ATOM      1  C   UNL     1      46.377   7.747  19.803  1.00  0.00     0.040 C 
ENDROOT
BRANCH   1   2
ATOM      2  C   UNL     1      45.886   8.096  21.182  1.00  0.00    -0.047 A 
ATOM      3  C   UNL     1      46.774   8.111  22.268  1.00  0.00     0.007 A 
ATOM      4  C   UNL     1      46.322   8.467  23.544  1.00  0.00     0.046 A 
ATOM      5  C   UNL     1      44.984   8.821  23.743  1.00  0.00     0.115 A 
ATOM      6  C   UNL     1      44.545   8.465  21.383  1.00  0.00     0.007 A 
ATOM      7  C   UNL     1      44.096   8.820  22.659  1.00  0.00     0.046 A 
BRANCH   5   8
ATOM      8  O   UNL     1      44.548   9.173  25.018  1.00  0.00    -0.508 OA
ATOM      9  H   UNL     1      43.614   8.947  25.339  1.00  0.00     0.293 HD
ENDBRANCH   5   8
ENDBRANCH   1   2
BRANCH   1  10
ATOM     10  C   UNL     1      45.334   8.127  18.748  1.00  0.00     0.040 C 
BRANCH  10  11
ATOM     11  C   UNL     1      45.583   7.378  17.465  1.00  0.00    -0.040 A 
ATOM     12  C   UNL     1      44.605   7.359  16.458  1.00  0.00     0.050 A 
ATOM     13  C   UNL     1      46.815   6.743  17.244  1.00  0.00     0.050 A 
ATOM     14  C   UNL     1      44.848   6.690  15.250  1.00  0.00     0.119 A 
ATOM     15  C   UNL     1      47.059   6.074  16.037  1.00  0.00     0.119 A 
ATOM     16  C   UNL     1      46.073   6.047  15.044  1.00  0.00     0.092 A 
BRANCH  14  17
ATOM     17  O   UNL     1      43.880   6.659  14.248  1.00  0.00    -0.508 OA
ATOM     18  H   UNL     1      43.093   6.024  14.291  1.00  0.00     0.293 HD
ENDBRANCH  14  17
BRANCH  15  19
ATOM     19  O   UNL     1      48.276   5.436  15.812  1.00  0.00    -0.508 OA
ATOM     20  H   UNL     1      48.678   5.374  14.884  1.00  0.00     0.293 HD
ENDBRANCH  15  19
ENDBRANCH  10  11
ENDBRANCH   1  10
TORSDOF 6
ENDMDL
MODEL 4
REMARK VINA RESULT:    -6.270      1.331      3.087
REMARK INTER + INTRA:          -8.333
REMARK INTER:                  -7.925
REMARK INTRA:                  -0.408
REMARK UNBOUND:                -0.413
REMARK SMILES Oc1ccc(CCc2cc(O)cc(O)c2)cc1
REMARK SMILES IDX 6 1 5 2 4 3 3 4 2 5 16 6 17 7 1 8 7 10 8 11 15 12 9 13 13 14
REMARK SMILES IDX 10 15 12 16 14 17 11 19
REMARK H PARENT 1 9 14 18 11 20
REMARK Flexibility Score: inf
ROOT
ATOM      1  C   UNL     1      44.397   8.890  21.245  1.00  0.00     0.040 C 
ENDROOT
BRANCH   1   2
ATOM      2  C   UNL     1      44.420   8.929  22.749  1.00  0.00    -0.047 A 
ATOM      3  C   UNL     1      45.520   8.419  23.455  1.00  0.00     0.007 A 
ATOM      4  C   UNL     1      45.554   8.485  24.852  1.00  0.00     0.046 A 
ATOM      5  C   UNL     1      44.496   9.070  25.555  1.00  0.00     0.115 A 
ATOM      6  C   UNL     1      43.365   9.528  23.458  1.00  0.00     0.007 A 
ATOM      7  C   UNL     1      43.402   9.593  24.854  1.00  0.00     0.046 A 
BRANCH   5   8
ATOM      8  O   UNL     1      44.544   9.129  26.946  1.00  0.00    -0.508 OA
ATOM      9  H   UNL     1      43.698   9.169  27.503  1.00  0.00     0.293 HD
ENDBRANCH   5   8
ENDBRANCH   1   2
BRANCH   1  10
ATOM     10  C   UNL     1      45.804   8.644  20.692  1.00  0.00     0.040 C 
BRANCH  10  11
ATOM     11  C   UNL     1      45.733   8.018  19.325  1.00  0.00    -0.040 A 
ATOM     12  C   UNL     1      44.714   8.386  18.432  1.00  0.00     0.050 A 
ATOM     13  C   UNL     1      46.717   7.105  18.912  1.00  0.00     0.050 A 
ATOM     14  C   UNL     1      44.666   7.828  17.146  1.00  0.00     0.119 A 
ATOM     15  C   UNL     1      46.669   6.547  17.628  1.00  0.00     0.119 A 
ATOM     16  C   UNL     1      45.642   6.908  16.749  1.00  0.00     0.092 A 
BRANCH  14  17
ATOM     17  O   UNL     1      43.654   8.182  16.256  1.00  0.00    -0.508 OA
ATOM     18  H   UNL     1      42.781   8.582  16.579  1.00  0.00     0.293 HD
ENDBRANCH  14  17
BRANCH  15  19
ATOM     19  O   UNL     1      47.637   5.635  17.213  1.00  0.00    -0.508 OA
ATOM     20  H   UNL     1      48.619   5.885  17.180  1.00  0.00     0.293 HD
ENDBRANCH  15  19
ENDBRANCH  10  11
ENDBRANCH   1  10
TORSDOF 6
ENDMDL
MODEL 5
REMARK VINA RESULT:    -6.213      1.644      7.802
REMARK INTER + INTRA:          -8.260
REMARK INTER:                  -7.827
REMARK INTRA:                  -0.433
REMARK UNBOUND:                -0.413
REMARK SMILES Oc1ccc(CCc2cc(O)cc(O)c2)cc1
REMARK SMILES IDX 6 1 5 2 4 3 3 4 2 5 16 6 17 7 1 8 7 10 8 11 15 12 9 13 13 14
REMARK SMILES IDX 10 15 12 16 14 17 11 19
REMARK H PARENT 1 9 14 18 11 20
REMARK Flexibility Score: inf
ROOT
ATOM      1  C   UNL     1      45.419   9.301  20.884  1.00  0.00     0.040 C 
ENDROOT
BRANCH   1   2
ATOM      2  C   UNL     1      45.500   8.490  19.620  1.00  0.00    -0.047 A 
ATOM      3  C   UNL     1      44.578   8.699  18.583  1.00  0.00     0.007 A 
ATOM      4  C   UNL     1      44.673   7.966  17.395  1.00  0.00     0.046 A 
ATOM      5  C   UNL     1      45.697   7.028  17.228  1.00  0.00     0.115 A 
ATOM      6  C   UNL     1      46.535   7.555  19.443  1.00  0.00     0.007 A 
ATOM      7  C   UNL     1      46.628   6.825  18.254  1.00  0.00     0.046 A 
BRANCH   5   8
ATOM      8  O   UNL     1      45.780   6.306  16.039  1.00  0.00    -0.508 OA
ATOM      9  H   UNL     1      46.447   5.552  15.924  1.00  0.00     0.293 HD
ENDBRANCH   5   8
ENDBRANCH   1   2
BRANCH   1  10
ATOM     10  C   UNL     1      45.796   8.445  22.097  1.00  0.00     0.040 C 
BRANCH  10  11
ATOM     11  C   UNL     1      44.993   8.854  23.303  1.00  0.00    -0.040 A 
ATOM     12  C   UNL     1      43.792   9.565  23.144  1.00  0.00     0.050 A 
ATOM     13  C   UNL     1      45.408   8.479  24.591  1.00  0.00     0.050 A 
ATOM     14  C   UNL     1      43.026   9.918  24.265  1.00  0.00     0.119 A 
ATOM     15  C   UNL     1      44.643   8.832  25.711  1.00  0.00     0.119 A 
ATOM     16  C   UNL     1      43.456   9.552  25.545  1.00  0.00     0.092 A 
BRANCH  14  17
ATOM     17  O   UNL     1      41.837  10.630  24.116  1.00  0.00    -0.508 OA
ATOM     18  H   UNL     1      41.816  11.641  24.161  1.00  0.00     0.293 HD
ENDBRANCH  14  17
BRANCH  15  19
ATOM     19  O   UNL     1      45.051   8.469  26.993  1.00  0.00    -0.508 OA
ATOM     20  H   UNL     1      44.386   8.162  27.692  1.00  0.00     0.293 HD
ENDBRANCH  15  19
ENDBRANCH  10  11
ENDBRANCH   1  10
TORSDOF 6
ENDMDL
MODEL 6
REMARK VINA RESULT:    -6.201      1.658      7.556
REMARK INTER + INTRA:          -8.245
REMARK INTER:                  -7.807
REMARK INTRA:                  -0.438
REMARK UNBOUND:                -0.413
REMARK SMILES Oc1ccc(CCc2cc(O)cc(O)c2)cc1
REMARK SMILES IDX 6 1 5 2 4 3 3 4 2 5 16 6 17 7 1 8 7 10 8 11 15 12 9 13 13 14
REMARK SMILES IDX 10 15 12 16 14 17 11 19
REMARK H PARENT 1 9 14 18 11 20
REMARK Flexibility Score: inf
ROOT
ATOM      1  C   UNL     1      45.391   9.329  20.887  1.00  0.00     0.040 C 
ENDROOT
BRANCH   1   2
ATOM      2  C   UNL     1      45.477   8.506  19.631  1.00  0.00    -0.047 A 
ATOM      3  C   UNL     1      44.515   8.654  18.619  1.00  0.00     0.007 A 
ATOM      4  C   UNL     1      44.613   7.912  17.438  1.00  0.00     0.046 A 
ATOM      5  C   UNL     1      45.678   7.024  17.251  1.00  0.00     0.115 A 
ATOM      6  C   UNL     1      46.551   7.622  19.434  1.00  0.00     0.007 A 
ATOM      7  C   UNL     1      46.647   6.881  18.252  1.00  0.00     0.046 A 
BRANCH   5   8
ATOM      8  O   UNL     1      45.763   6.291  16.069  1.00  0.00    -0.508 OA
ATOM      9  H   UNL     1      45.207   6.531  15.257  1.00  0.00     0.293 HD
ENDBRANCH   5   8
ENDBRANCH   1   2
BRANCH   1  10
ATOM     10  C   UNL     1      45.791   8.492  22.106  1.00  0.00     0.040 C 
BRANCH  10  11
ATOM     11  C   UNL     1      44.947   8.858  23.298  1.00  0.00    -0.040 A 
ATOM     12  C   UNL     1      45.355   8.494  24.591  1.00  0.00     0.050 A 
ATOM     13  C   UNL     1      43.775   9.613  23.131  1.00  0.00     0.050 A 
ATOM     14  C   UNL     1      44.587   8.862  25.705  1.00  0.00     0.119 A 
ATOM     15  C   UNL     1      43.007   9.982  24.244  1.00  0.00     0.119 A 
ATOM     16  C   UNL     1      43.413   9.603  25.527  1.00  0.00     0.092 A 
BRANCH  14  17
ATOM     17  O   UNL     1      44.982   8.499  26.991  1.00  0.00    -0.508 OA
ATOM     18  H   UNL     1      44.322   8.126  27.662  1.00  0.00     0.293 HD
ENDBRANCH  14  17
BRANCH  15  19
ATOM     19  O   UNL     1      41.839  10.726  24.086  1.00  0.00    -0.508 OA
ATOM     20  H   UNL     1      41.104  10.429  23.456  1.00  0.00     0.293 HD
ENDBRANCH  15  19
ENDBRANCH  10  11
ENDBRANCH   1  10
TORSDOF 6
ENDMDL
MODEL 7
REMARK VINA RESULT:    -6.180      1.693      6.845
REMARK INTER + INTRA:          -8.219
REMARK INTER:                  -7.721
REMARK INTRA:                  -0.499
REMARK UNBOUND:                -0.413
REMARK SMILES Oc1ccc(CCc2cc(O)cc(O)c2)cc1
REMARK SMILES IDX 6 1 5 2 4 3 3 4 2 5 16 6 17 7 1 8 7 10 8 11 15 12 9 13 13 14
REMARK SMILES IDX 10 15 12 16 14 17 11 19
REMARK H PARENT 1 9 14 18 11 20
REMARK Flexibility Score: inf
ROOT
ATOM      1  C   UNL     1      44.822   7.809  17.470  1.00  0.00     0.040 C 
ENDROOT
BRANCH   1   2
ATOM      2  C   UNL     1      45.768   6.971  16.652  1.00  0.00    -0.047 A 
ATOM      3  C   UNL     1      45.677   6.962  15.252  1.00  0.00     0.007 A 
ATOM      4  C   UNL     1      46.578   6.208  14.491  1.00  0.00     0.046 A 
ATOM      5  C   UNL     1      47.582   5.467  15.122  1.00  0.00     0.115 A 
ATOM      6  C   UNL     1      46.786   6.235  17.281  1.00  0.00     0.007 A 
ATOM      7  C   UNL     1      47.685   5.483  16.519  1.00  0.00     0.046 A 
BRANCH   5   8
ATOM      8  O   UNL     1      48.472   4.721  14.352  1.00  0.00    -0.508 OA
ATOM      9  H   UNL     1      49.394   5.071  14.122  1.00  0.00     0.293 HD
ENDBRANCH   5   8
ENDBRANCH   1   2
BRANCH   1  10
ATOM     10  C   UNL     1      45.580   8.924  18.194  1.00  0.00     0.040 C 
BRANCH  10  11
ATOM     11  C   UNL     1      45.453   8.768  19.686  1.00  0.00    -0.040 A 
ATOM     12  C   UNL     1      46.375   7.983  20.396  1.00  0.00     0.050 A 
ATOM     13  C   UNL     1      44.445   9.451  20.386  1.00  0.00     0.050 A 
ATOM     14  C   UNL     1      46.277   7.863  21.790  1.00  0.00     0.119 A 
ATOM     15  C   UNL     1      44.346   9.332  21.779  1.00  0.00     0.119 A 
ATOM     16  C   UNL     1      45.261   8.536  22.476  1.00  0.00     0.092 A 
BRANCH  14  17
ATOM     17  O   UNL     1      47.185   7.080  22.500  1.00  0.00    -0.508 OA
ATOM     18  H   UNL     1      48.061   7.459  22.836  1.00  0.00     0.293 HD
ENDBRANCH  14  17
BRANCH  15  19
ATOM     19  O   UNL     1      43.345  10.001  22.480  1.00  0.00    -0.508 OA
ATOM     20  H   UNL     1      43.522  10.417  23.386  1.00  0.00     0.293 HD
ENDBRANCH  15  19
ENDBRANCH  10  11
ENDBRANCH   1  10
TORSDOF 6
ENDMDL
MODEL 8
REMARK VINA RESULT:    -6.146      1.696      7.096
REMARK INTER + INTRA:          -8.176
REMARK INTER:                  -7.678
REMARK INTRA:                  -0.499
REMARK UNBOUND:                -0.413
REMARK SMILES Oc1ccc(CCc2cc(O)cc(O)c2)cc1
REMARK SMILES IDX 6 1 5 2 4 3 3 4 2 5 16 6 17 7 1 8 7 10 8 11 15 12 9 13 13 14
REMARK SMILES IDX 10 15 12 16 14 17 11 19
REMARK H PARENT 1 9 14 18 11 20
REMARK Flexibility Score: inf
ROOT
ATOM      1  C   UNL     1      44.801   7.786  17.491  1.00  0.00     0.040 C 
ENDROOT
BRANCH   1   2
ATOM      2  C   UNL     1      45.744   6.954  16.665  1.00  0.00    -0.047 A 
ATOM      3  C   UNL     1      45.628   6.928  15.267  1.00  0.00     0.007 A 
ATOM      4  C   UNL     1      46.526   6.179  14.498  1.00  0.00     0.046 A 
ATOM      5  C   UNL     1      47.553   5.460  15.118  1.00  0.00     0.115 A 
ATOM      6  C   UNL     1      46.785   6.240  17.283  1.00  0.00     0.007 A 
ATOM      7  C   UNL     1      47.681   5.493  16.512  1.00  0.00     0.046 A 
BRANCH   5   8
ATOM      8  O   UNL     1      48.440   4.719  14.340  1.00  0.00    -0.508 OA
ATOM      9  H   UNL     1      48.320   4.636  13.337  1.00  0.00     0.293 HD
ENDBRANCH   5   8
ENDBRANCH   1   2
BRANCH   1  10
ATOM     10  C   UNL     1      45.550   8.939  18.165  1.00  0.00     0.040 C 
BRANCH  10  11
ATOM     11  C   UNL     1      45.458   8.826  19.663  1.00  0.00    -0.040 A 
ATOM     12  C   UNL     1      44.439   9.496  20.361  1.00  0.00     0.050 A 
ATOM     13  C   UNL     1      46.353   8.006  20.368  1.00  0.00     0.050 A 
ATOM     14  C   UNL     1      44.332   9.366  21.753  1.00  0.00     0.119 A 
ATOM     15  C   UNL     1      46.246   7.875  21.759  1.00  0.00     0.119 A 
ATOM     16  C   UNL     1      45.238   8.557  22.448  1.00  0.00     0.092 A 
BRANCH  14  17
ATOM     17  O   UNL     1      43.329  10.033  22.453  1.00  0.00    -0.508 OA
ATOM     18  H   UNL     1      43.446  10.297  23.423  1.00  0.00     0.293 HD
ENDBRANCH  14  17
BRANCH  15  19
ATOM     19  O   UNL     1      47.134   7.068  22.467  1.00  0.00    -0.508 OA
ATOM     20  H   UNL     1      48.117   7.303  22.544  1.00  0.00     0.293 HD
ENDBRANCH  15  19
ENDBRANCH  10  11
ENDBRANCH   1  10
TORSDOF 6
ENDMDL
MODEL 9
REMARK VINA RESULT:    -5.926      1.755      7.152
REMARK INTER + INTRA:          -7.898
REMARK INTER:                  -7.424
REMARK INTRA:                  -0.475
REMARK UNBOUND:                -0.413
REMARK SMILES Oc1ccc(CCc2cc(O)cc(O)c2)cc1
REMARK SMILES IDX 6 1 5 2 4 3 3 4 2 5 16 6 17 7 1 8 7 10 8 11 15 12 9 13 13 14
REMARK SMILES IDX 10 15 12 16 14 17 11 19
REMARK H PARENT 1 9 14 18 11 20
REMARK Flexibility Score: inf
ROOT
ATOM      1  C   UNL     1      46.378   8.313  17.865  1.00  0.00     0.040 C 
ENDROOT
BRANCH   1   2
ATOM      2  C   UNL     1      45.783   7.438  16.796  1.00  0.00    -0.047 A 
ATOM      3  C   UNL     1      46.612   6.646  15.986  1.00  0.00     0.007 A 
ATOM      4  C   UNL     1      46.055   5.809  15.013  1.00  0.00     0.046 A 
ATOM      5  C   UNL     1      44.668   5.746  14.848  1.00  0.00     0.115 A 
ATOM      6  C   UNL     1      44.389   7.363  16.635  1.00  0.00     0.007 A 
ATOM      7  C   UNL     1      43.836   6.525  15.662  1.00  0.00     0.046 A 
BRANCH   5   8
ATOM      8  O   UNL     1      44.128   4.908  13.875  1.00  0.00    -0.508 OA
ATOM      9  H   UNL     1      44.608   4.067  13.577  1.00  0.00     0.293 HD
ENDBRANCH   5   8
ENDBRANCH   1   2
BRANCH   1  10
ATOM     10  C   UNL     1      45.366   8.551  18.990  1.00  0.00     0.040 C 
BRANCH  10  11
ATOM     11  C   UNL     1      46.028   8.411  20.335  1.00  0.00    -0.040 A 
ATOM     12  C   UNL     1      45.744   9.327  21.361  1.00  0.00     0.050 A 
ATOM     13  C   UNL     1      46.889   7.332  20.592  1.00  0.00     0.050 A 
ATOM     14  C   UNL     1      46.335   9.180  22.624  1.00  0.00     0.119 A 
ATOM     15  C   UNL     1      47.479   7.184  21.854  1.00  0.00     0.119 A 
ATOM     16  C   UNL     1      47.203   8.109  22.866  1.00  0.00     0.092 A 
BRANCH  14  17
ATOM     17  O   UNL     1      46.064  10.089  23.645  1.00  0.00    -0.508 OA
ATOM     18  H   UNL     1      45.191  10.599  23.681  1.00  0.00     0.293 HD
ENDBRANCH  14  17
BRANCH  15  19
ATOM     19  O   UNL     1      48.340   6.119  22.115  1.00  0.00    -0.508 OA
ATOM     20  H   UNL     1      48.888   5.690  21.379  1.00  0.00     0.293 HD
ENDBRANCH  15  19
ENDBRANCH  10  11
ENDBRANCH   1  10
TORSDOF 6
ENDMDL
