MODEL 1
REMARK VINA RESULT:    -4.257      0.000      0.000
REMARK INTER + INTRA:          -4.382
REMARK INTER:                  -4.382
REMARK INTRA:                   0.000
REMARK UNBOUND:                 0.000
REMARK SMILES O=c1ccc2ccc(O)cc2o1
REMARK SMILES IDX 6 1 7 2 8 3 10 4 11 5 5 6 4 7 3 8 2 9 1 10 12 11 9 12
REMARK H PARENT 9 13
REMARK Flexibility Score: inf
ROOT
ATOM      1  C   UNL     1      88.540  29.113  29.118  1.00  0.00     0.016 A 
ATOM      2  C   UNL     1      89.272  29.984  28.306  1.00  0.00     0.047 A 
ATOM      3  C   UNL     1      89.228  29.859  26.912  1.00  0.00     0.119 A 
ATOM      4  C   UNL     1      88.443  28.855  26.325  1.00  0.00     0.094 A 
ATOM      5  C   UNL     1      87.708  27.978  27.129  1.00  0.00     0.142 A 
ATOM      6  C   UNL     1      87.756  28.107  28.535  1.00  0.00     0.018 A 
ATOM      7  C   UNL     1      87.009  27.217  29.312  1.00  0.00     0.019 A 
ATOM      8  C   UNL     1      86.245  26.235  28.684  1.00  0.00     0.094 A 
ATOM      9  C   UNL     1      86.245  26.166  27.287  1.00  0.00     0.336 A 
ATOM     10  O   UNL     1      85.561  25.286  26.701  1.00  0.00    -0.246 OA
ATOM     11  O   UNL     1      86.964  27.026  26.570  1.00  0.00    -0.423 OA
ENDROOT
BRANCH   3  12
ATOM     12  O   UNL     1      89.963  30.737  26.120  1.00  0.00    -0.508 OA
ATOM     13  H   UNL     1      90.976  30.705  26.092  1.00  0.00     0.293 HD
ENDBRANCH   3  12
TORSDOF 1
ENDMDL
MODEL 2
REMARK VINA RESULT:    -4.118      1.606      4.793
REMARK INTER + INTRA:          -4.238
REMARK INTER:                  -4.238
REMARK INTRA:                   0.000
REMARK UNBOUND:                 0.000
REMARK SMILES O=c1ccc2ccc(O)cc2o1
REMARK SMILES IDX 6 1 7 2 8 3 10 4 11 5 5 6 4 7 3 8 2 9 1 10 12 11 9 12
REMARK H PARENT 9 13
REMARK Flexibility Score: inf
ROOT
ATOM      1  C   UNL     1      86.340  26.756  26.390  1.00  0.00     0.016 A 
ATOM      2  C   UNL     1      85.787  25.714  27.141  1.00  0.00     0.047 A 
ATOM      3  C   UNL     1      85.982  25.658  28.527  1.00  0.00     0.119 A 
ATOM      4  C   UNL     1      86.735  26.654  29.167  1.00  0.00     0.094 A 
ATOM      5  C   UNL     1      87.292  27.701  28.424  1.00  0.00     0.142 A 
ATOM      6  C   UNL     1      87.093  27.753  27.027  1.00  0.00     0.018 A 
ATOM      7  C   UNL     1      87.661  28.812  26.312  1.00  0.00     0.019 A 
ATOM      8  C   UNL     1      88.402  29.778  26.992  1.00  0.00     0.094 A 
ATOM      9  C   UNL     1      88.557  29.661  28.378  1.00  0.00     0.336 A 
ATOM     10  O   UNL     1      89.222  30.524  29.010  1.00  0.00    -0.246 OA
ATOM     11  O   UNL     1      88.005  28.645  29.035  1.00  0.00    -0.423 OA
ENDROOT
BRANCH   3  12
ATOM     12  O   UNL     1      85.424  24.613  29.257  1.00  0.00    -0.508 OA
ATOM     13  H   UNL     1      85.012  24.765  30.171  1.00  0.00     0.293 HD
ENDBRANCH   3  12
TORSDOF 1
ENDMDL
MODEL 3
REMARK VINA RESULT:    -4.056      1.435      2.228
REMARK INTER + INTRA:          -4.174
REMARK INTER:                  -4.174
REMARK INTRA:                   0.000
REMARK UNBOUND:                 0.000
REMARK SMILES O=c1ccc2ccc(O)cc2o1
REMARK SMILES IDX 6 1 7 2 8 3 10 4 11 5 5 6 4 7 3 8 2 9 1 10 12 11 9 12
REMARK H PARENT 9 13
REMARK Flexibility Score: inf
ROOT
ATOM      1  C   UNL     1      88.166  28.842  26.276  1.00  0.00     0.016 A 
ATOM      2  C   UNL     1      88.860  29.847  26.957  1.00  0.00     0.047 A 
ATOM      3  C   UNL     1      88.771  29.950  28.351  1.00  0.00     0.119 A 
ATOM      4  C   UNL     1      87.982  29.040  29.070  1.00  0.00     0.094 A 
ATOM      5  C   UNL     1      87.283  28.032  28.397  1.00  0.00     0.142 A 
ATOM      6  C   UNL     1      87.376  27.932  26.991  1.00  0.00     0.018 A 
ATOM      7  C   UNL     1      86.667  26.912  26.348  1.00  0.00     0.019 A 
ATOM      8  C   UNL     1      85.895  26.032  27.104  1.00  0.00     0.094 A 
ATOM      9  C   UNL     1      85.850  26.192  28.494  1.00  0.00     0.336 A 
ATOM     10  O   UNL     1      85.159  25.407  29.195  1.00  0.00    -0.246 OA
ATOM     11  O   UNL     1      86.535  27.169  29.083  1.00  0.00    -0.423 OA
ENDROOT
BRANCH   3  12
ATOM     12  O   UNL     1      89.470  30.957  29.011  1.00  0.00    -0.508 OA
ATOM     13  H   UNL     1      89.664  31.848  28.567  1.00  0.00     0.293 HD
ENDBRANCH   3  12
TORSDOF 1
ENDMDL
MODEL 4
REMARK VINA RESULT:    -3.964      2.947      4.363
REMARK INTER + INTRA:          -4.080
REMARK INTER:                  -4.080
REMARK INTRA:                   0.000
REMARK UNBOUND:                 0.000
REMARK SMILES O=c1ccc2ccc(O)cc2o1
REMARK SMILES IDX 6 1 7 2 8 3 10 4 11 5 5 6 4 7 3 8 2 9 1 10 12 11 9 12
REMARK H PARENT 9 13
REMARK Flexibility Score: inf
ROOT
ATOM      1  C   UNL     1      89.326  28.810  28.246  1.00  0.00     0.016 A 
ATOM      2  C   UNL     1      88.390  29.177  29.217  1.00  0.00     0.047 A 
ATOM      3  C   UNL     1      87.371  30.088  28.911  1.00  0.00     0.119 A 
ATOM      4  C   UNL     1      87.287  30.635  27.621  1.00  0.00     0.094 A 
ATOM      5  C   UNL     1      88.220  30.274  26.643  1.00  0.00     0.142 A 
ATOM      6  C   UNL     1      89.246  29.355  26.957  1.00  0.00     0.018 A 
ATOM      7  C   UNL     1      90.163  29.012  25.958  1.00  0.00     0.019 A 
ATOM      8  C   UNL     1      90.040  29.583  24.691  1.00  0.00     0.094 A 
ATOM      9  C   UNL     1      88.998  30.486  24.453  1.00  0.00     0.336 A 
ATOM     10  O   UNL     1      88.870  31.011  23.316  1.00  0.00    -0.246 OA
ATOM     11  O   UNL     1      88.138  30.794  25.420  1.00  0.00    -0.423 OA
ENDROOT
BRANCH   3  12
ATOM     12  O   UNL     1      86.448  30.441  29.891  1.00  0.00    -0.508 OA
ATOM     13  H   UNL     1      86.180  29.795  30.625  1.00  0.00     0.293 HD
ENDBRANCH   3  12
TORSDOF 1
ENDMDL
MODEL 5
REMARK VINA RESULT:    -3.904      1.896      4.710
REMARK INTER + INTRA:          -4.018
REMARK INTER:                  -4.018
REMARK INTRA:                   0.000
REMARK UNBOUND:                 0.000
REMARK SMILES O=c1ccc2ccc(O)cc2o1
REMARK SMILES IDX 6 1 7 2 8 3 10 4 11 5 5 6 4 7 3 8 2 9 1 10 12 11 9 12
REMARK H PARENT 9 13
REMARK Flexibility Score: inf
ROOT
ATOM      1  C   UNL     1      86.987  27.691  26.307  1.00  0.00     0.016 A 
ATOM      2  C   UNL     1      86.801  27.335  27.646  1.00  0.00     0.047 A 
ATOM      3  C   UNL     1      87.665  27.821  28.635  1.00  0.00     0.119 A 
ATOM      4  C   UNL     1      88.724  28.670  28.282  1.00  0.00     0.094 A 
ATOM      5  C   UNL     1      88.919  29.031  26.944  1.00  0.00     0.142 A 
ATOM      6  C   UNL     1      88.045  28.538  25.950  1.00  0.00     0.018 A 
ATOM      7  C   UNL     1      88.265  28.918  24.622  1.00  0.00     0.019 A 
ATOM      8  C   UNL     1      89.331  29.764  24.319  1.00  0.00     0.094 A 
ATOM      9  C   UNL     1      90.156  30.213  25.356  1.00  0.00     0.336 A 
ATOM     10  O   UNL     1      91.124  30.977  25.103  1.00  0.00    -0.246 OA
ATOM     11  O   UNL     1      89.925  29.838  26.612  1.00  0.00    -0.423 OA
ENDROOT
BRANCH   3  12
ATOM     12  O   UNL     1      87.462  27.456  29.963  1.00  0.00    -0.508 OA
ATOM     13  H   UNL     1      86.534  27.275  30.328  1.00  0.00     0.293 HD
ENDBRANCH   3  12
TORSDOF 1
ENDMDL
MODEL 6
REMARK VINA RESULT:    -3.828      2.101      3.280
REMARK INTER + INTRA:          -3.940
REMARK INTER:                  -3.940
REMARK INTRA:                   0.000
REMARK UNBOUND:                 0.000
REMARK SMILES O=c1ccc2ccc(O)cc2o1
REMARK SMILES IDX 6 1 7 2 8 3 10 4 11 5 5 6 4 7 3 8 2 9 1 10 12 11 9 12
REMARK H PARENT 9 13
REMARK Flexibility Score: inf
ROOT
ATOM      1  C   UNL     1      86.672  27.606  26.371  1.00  0.00     0.016 A 
ATOM      2  C   UNL     1      87.181  28.553  27.265  1.00  0.00     0.047 A 
ATOM      3  C   UNL     1      87.239  28.273  28.636  1.00  0.00     0.119 A 
ATOM      4  C   UNL     1      86.785  27.035  29.116  1.00  0.00     0.094 A 
ATOM      5  C   UNL     1      86.274  26.082  28.229  1.00  0.00     0.142 A 
ATOM      6  C   UNL     1      86.217  26.369  26.847  1.00  0.00     0.018 A 
ATOM      7  C   UNL     1      85.703  25.395  25.985  1.00  0.00     0.019 A 
ATOM      8  C   UNL     1      85.263  24.180  26.508  1.00  0.00     0.094 A 
ATOM      9  C   UNL     1      85.350  23.966  27.889  1.00  0.00     0.336 A 
ATOM     10  O   UNL     1      84.959  22.875  28.381  1.00  0.00    -0.246 OA
ATOM     11  O   UNL     1      85.845  24.908  28.687  1.00  0.00    -0.423 OA
ENDROOT
BRANCH   3  12
ATOM     12  O   UNL     1      87.750  29.228  29.511  1.00  0.00    -0.508 OA
ATOM     13  H   UNL     1      88.730  29.243  29.767  1.00  0.00     0.293 HD
ENDBRANCH   3  12
TORSDOF 1
ENDMDL
MODEL 7
REMARK VINA RESULT:    -3.733      2.121      4.829
REMARK INTER + INTRA:          -3.842
REMARK INTER:                  -3.842
REMARK INTRA:                   0.000
REMARK UNBOUND:                 0.000
REMARK SMILES O=c1ccc2ccc(O)cc2o1
REMARK SMILES IDX 6 1 7 2 8 3 10 4 11 5 5 6 4 7 3 8 2 9 1 10 12 11 9 12
REMARK H PARENT 9 13
REMARK Flexibility Score: inf
ROOT
ATOM      1  C   UNL     1      84.467  27.876  28.693  1.00  0.00     0.016 A 
ATOM      2  C   UNL     1      84.539  26.482  28.772  1.00  0.00     0.047 A 
ATOM      3  C   UNL     1      85.779  25.843  28.896  1.00  0.00     0.119 A 
ATOM      4  C   UNL     1      86.957  26.605  28.942  1.00  0.00     0.094 A 
ATOM      5  C   UNL     1      86.894  28.000  28.862  1.00  0.00     0.142 A 
ATOM      6  C   UNL     1      85.641  28.641  28.737  1.00  0.00     0.018 A 
ATOM      7  C   UNL     1      85.611  30.036  28.662  1.00  0.00     0.019 A 
ATOM      8  C   UNL     1      86.807  30.751  28.711  1.00  0.00     0.094 A 
ATOM      9  C   UNL     1      88.011  30.049  28.836  1.00  0.00     0.336 A 
ATOM     10  O   UNL     1      89.102  30.676  28.882  1.00  0.00    -0.246 OA
ATOM     11  O   UNL     1      88.013  28.721  28.907  1.00  0.00    -0.423 OA
ENDROOT
BRANCH   3  12
ATOM     12  O   UNL     1      85.831  24.454  28.974  1.00  0.00    -0.508 OA
ATOM     13  H   UNL     1      84.990  23.889  28.945  1.00  0.00     0.293 HD
ENDBRANCH   3  12
TORSDOF 1
ENDMDL
MODEL 8
REMARK VINA RESULT:    -3.716      1.984      3.858
REMARK INTER + INTRA:          -3.824
REMARK INTER:                  -3.824
REMARK INTRA:                   0.000
REMARK UNBOUND:                 0.000
REMARK SMILES O=c1ccc2ccc(O)cc2o1
REMARK SMILES IDX 6 1 7 2 8 3 10 4 11 5 5 6 4 7 3 8 2 9 1 10 12 11 9 12
REMARK H PARENT 9 13
REMARK Flexibility Score: inf
ROOT
ATOM      1  C   UNL     1      89.144  28.942  28.279  1.00  0.00     0.016 A 
ATOM      2  C   UNL     1      88.075  28.608  29.116  1.00  0.00     0.047 A 
ATOM      3  C   UNL     1      86.898  28.070  28.581  1.00  0.00     0.119 A 
ATOM      4  C   UNL     1      86.789  27.864  27.197  1.00  0.00     0.094 A 
ATOM      5  C   UNL     1      87.853  28.196  26.352  1.00  0.00     0.142 A 
ATOM      6  C   UNL     1      89.039  28.738  26.896  1.00  0.00     0.018 A 
ATOM      7  C   UNL     1      90.086  29.058  26.026  1.00  0.00     0.019 A 
ATOM      8  C   UNL     1      89.931  28.836  24.658  1.00  0.00     0.094 A 
ATOM      9  C   UNL     1      88.728  28.295  24.191  1.00  0.00     0.336 A 
ATOM     10  O   UNL     1      88.570  28.087  22.959  1.00  0.00    -0.246 OA
ATOM     11  O   UNL     1      87.748  27.998  25.039  1.00  0.00    -0.423 OA
ENDROOT
BRANCH   3  12
ATOM     12  O   UNL     1      85.844  27.743  29.430  1.00  0.00    -0.508 OA
ATOM     13  H   UNL     1      85.894  26.947  30.056  1.00  0.00     0.293 HD
ENDBRANCH   3  12
TORSDOF 1
ENDMDL
MODEL 9
REMARK VINA RESULT:    -3.698      2.854      3.837
REMARK INTER + INTRA:          -3.806
REMARK INTER:                  -3.806
REMARK INTRA:                   0.000
REMARK UNBOUND:                 0.000
REMARK SMILES O=c1ccc2ccc(O)cc2o1
REMARK SMILES IDX 6 1 7 2 8 3 10 4 11 5 5 6 4 7 3 8 2 9 1 10 12 11 9 12
REMARK H PARENT 9 13
REMARK Flexibility Score: inf
ROOT
ATOM      1  C   UNL     1      86.640  30.743  29.430  1.00  0.00     0.016 A 
ATOM      2  C   UNL     1      85.597  31.491  28.876  1.00  0.00     0.047 A 
ATOM      3  C   UNL     1      85.491  31.639  27.487  1.00  0.00     0.119 A 
ATOM      4  C   UNL     1      86.435  31.032  26.645  1.00  0.00     0.094 A 
ATOM      5  C   UNL     1      87.482  30.282  27.191  1.00  0.00     0.142 A 
ATOM      6  C   UNL     1      87.586  30.136  28.592  1.00  0.00     0.018 A 
ATOM      7  C   UNL     1      88.643  29.379  29.107  1.00  0.00     0.019 A 
ATOM      8  C   UNL     1      89.558  28.796  28.231  1.00  0.00     0.094 A 
ATOM      9  C   UNL     1      89.392  28.983  26.854  1.00  0.00     0.336 A 
ATOM     10  O   UNL     1      90.207  28.465  26.047  1.00  0.00    -0.246 OA
ATOM     11  O   UNL     1      88.377  29.707  26.389  1.00  0.00    -0.423 OA
ENDROOT
BRANCH   3  12
ATOM     12  O   UNL     1      84.444  32.387  26.954  1.00  0.00    -0.508 OA
ATOM     13  H   UNL     1      83.634  31.944  26.537  1.00  0.00     0.293 HD
ENDBRANCH   3  12
TORSDOF 1
ENDMDL
