MODEL 1
REMARK VINA RESULT:    -3.097      0.000      0.000
REMARK INTER + INTRA:          -3.694
REMARK INTER:                  -3.730
REMARK INTRA:                   0.036
REMARK UNBOUND:                 0.036
REMARK SMILES O=c1c(O)c(-c2ccc(O)cc2O)oc2cc(O)cc(O)c12
REMARK SMILES IDX 5 1 3 2 2 3 1 4 22 5 20 6 19 7 17 8 16 9 15 10 14 11 6 12
REMARK SMILES IDX 8 13 7 14 9 15 11 16 12 17 10 18 13 20 4 22 21 24 18 26
REMARK H PARENT 10 19 13 21 4 23 21 25 18 27
REMARK Flexibility Score: inf
ROOT
ATOM      1  C   UNL     1      20.588 -15.090   2.856  1.00  0.00     0.184 A 
ATOM      2  C   UNL     1      20.418 -14.282   1.718  1.00  0.00     0.208 A 
ATOM      3  C   UNL     1      20.237 -14.898   0.470  1.00  0.00     0.238 A 
ATOM      4  O   UNL     1      20.073 -14.184  -0.557  1.00  0.00    -0.285 OA
ATOM      5  C   UNL     1      20.249 -16.305   0.380  1.00  0.00     0.111 A 
ATOM      6  C   UNL     1      20.077 -17.005  -0.839  1.00  0.00     0.134 A 
ATOM      7  C   UNL     1      20.111 -18.408  -0.846  1.00  0.00     0.093 A 
ATOM      8  C   UNL     1      20.313 -19.122   0.340  1.00  0.00     0.123 A 
ATOM      9  C   UNL     1      20.483 -18.437   1.545  1.00  0.00     0.094 A 
ATOM     10  C   UNL     1      20.451 -17.040   1.574  1.00  0.00     0.146 A 
ATOM     11  O   UNL     1      20.610 -16.413   2.734  1.00  0.00    -0.451 OA
ENDROOT
BRANCH   1  12
ATOM     12  C   UNL     1      20.772 -14.506   4.201  1.00  0.00     0.063 A 
ATOM     13  C   UNL     1      20.032 -14.340   6.511  1.00  0.00     0.047 A 
ATOM     14  C   UNL     1      19.891 -14.878   5.229  1.00  0.00     0.020 A 
ATOM     15  C   UNL     1      21.047 -13.414   6.778  1.00  0.00     0.119 A 
ATOM     16  C   UNL     1      21.914 -13.021   5.754  1.00  0.00     0.093 A 
ATOM     17  C   UNL     1      21.776 -13.552   4.463  1.00  0.00     0.130 A 
BRANCH  15  18
ATOM     18  O   UNL     1      21.200 -12.875   8.053  1.00  0.00    -0.508 OA
ATOM     19  H   UNL     1      20.555 -13.098   8.803  1.00  0.00     0.293 HD
ENDBRANCH  15  18
BRANCH  17  20
ATOM     20  O   UNL     1      22.618 -13.114   3.439  1.00  0.00    -0.507 OA
ATOM     21  H   UNL     1      22.467 -12.231   2.968  1.00  0.00     0.293 HD
ENDBRANCH  17  20
ENDBRANCH   1  12
BRANCH   2  22
ATOM     22  O   UNL     1      20.456 -12.889   1.833  1.00  0.00    -0.502 OA
ATOM     23  H   UNL     1      21.317 -12.362   1.747  1.00  0.00     0.293 HD
ENDBRANCH   2  22
BRANCH   6  24
ATOM     24  O   UNL     1      19.875 -16.320  -2.038  1.00  0.00    -0.507 OA
ATOM     25  H   UNL     1      20.576 -16.308  -2.769  1.00  0.00     0.293 HD
ENDBRANCH   6  24
BRANCH   8  26
ATOM     26  O   UNL     1      20.347 -20.515   0.332  1.00  0.00    -0.508 OA
ATOM     27  H   UNL     1      21.223 -21.024   0.338  1.00  0.00     0.293 HD
ENDBRANCH   8  26
TORSDOF 6
ENDMDL
MODEL 2
REMARK VINA RESULT:    -3.012      1.613      6.698
REMARK INTER + INTRA:          -3.592
REMARK INTER:                  -4.192
REMARK INTRA:                   0.600
REMARK UNBOUND:                 0.036
REMARK SMILES O=c1c(O)c(-c2ccc(O)cc2O)oc2cc(O)cc(O)c12
REMARK SMILES IDX 5 1 3 2 2 3 1 4 22 5 20 6 19 7 17 8 16 9 15 10 14 11 6 12
REMARK SMILES IDX 8 13 7 14 9 15 11 16 12 17 10 18 13 20 4 22 21 24 18 26
REMARK H PARENT 10 19 13 21 4 23 21 25 18 27
REMARK Flexibility Score: inf
ROOT
ATOM      1  C   UNL     1      20.249 -17.294   1.571  1.00  0.00     0.184 A 
ATOM      2  C   UNL     1      20.474 -15.989   1.100  1.00  0.00     0.208 A 
ATOM      3  C   UNL     1      20.564 -14.939   2.028  1.00  0.00     0.238 A 
ATOM      4  O   UNL     1      20.776 -13.766   1.618  1.00  0.00    -0.285 OA
ATOM      5  C   UNL     1      20.405 -15.210   3.403  1.00  0.00     0.111 A 
ATOM      6  C   UNL     1      20.477 -14.210   4.402  1.00  0.00     0.134 A 
ATOM      7  C   UNL     1      20.300 -14.560   5.750  1.00  0.00     0.093 A 
ATOM      8  C   UNL     1      20.053 -15.888   6.115  1.00  0.00     0.123 A 
ATOM      9  C   UNL     1      19.982 -16.878   5.133  1.00  0.00     0.094 A 
ATOM     10  C   UNL     1      20.157 -16.551   3.785  1.00  0.00     0.146 A 
ATOM     11  O   UNL     1      20.089 -17.513   2.872  1.00  0.00    -0.451 OA
ENDROOT
BRANCH   1  12
ATOM     12  C   UNL     1      20.157 -18.446   0.649  1.00  0.00     0.063 A 
ATOM     13  C   UNL     1      20.101 -19.278  -1.634  1.00  0.00     0.047 A 
ATOM     14  C   UNL     1      20.192 -18.212  -0.734  1.00  0.00     0.020 A 
ATOM     15  C   UNL     1      19.961 -20.588  -1.162  1.00  0.00     0.119 A 
ATOM     16  C   UNL     1      19.903 -20.827   0.214  1.00  0.00     0.093 A 
ATOM     17  C   UNL     1      19.987 -19.763   1.124  1.00  0.00     0.130 A 
BRANCH  15  18
ATOM     18  O   UNL     1      19.875 -21.657  -2.050  1.00  0.00    -0.508 OA
ATOM     19  H   UNL     1      19.928 -22.618  -1.729  1.00  0.00     0.293 HD
ENDBRANCH  15  18
BRANCH  17  20
ATOM     20  O   UNL     1      19.878 -20.011   2.493  1.00  0.00    -0.507 OA
ATOM     21  H   UNL     1      19.362 -19.392   3.106  1.00  0.00     0.293 HD
ENDBRANCH  17  20
ENDBRANCH   1  12
BRANCH   2  22
ATOM     22  O   UNL     1      20.581 -15.746  -0.273  1.00  0.00    -0.502 OA
ATOM     23  H   UNL     1      19.908 -15.182  -0.777  1.00  0.00     0.293 HD
ENDBRANCH   2  22
BRANCH   6  24
ATOM     24  O   UNL     1      20.720 -12.878   4.069  1.00  0.00    -0.507 OA
ATOM     25  H   UNL     1      20.309 -12.450   3.248  1.00  0.00     0.293 HD
ENDBRANCH   6  24
BRANCH   8  26
ATOM     26  O   UNL     1      19.877 -16.234   7.452  1.00  0.00    -0.508 OA
ATOM     27  H   UNL     1      19.563 -17.159   7.724  1.00  0.00     0.293 HD
ENDBRANCH   8  26
TORSDOF 6
ENDMDL
MODEL 3
REMARK VINA RESULT:    -1.151      2.384      6.889
REMARK INTER + INTRA:          -1.350
REMARK INTER:                  -1.061
REMARK INTRA:                  -0.289
REMARK UNBOUND:                 0.036
REMARK SMILES O=c1c(O)c(-c2ccc(O)cc2O)oc2cc(O)cc(O)c12
REMARK SMILES IDX 5 1 3 2 2 3 1 4 22 5 20 6 19 7 17 8 16 9 15 10 14 11 6 12
REMARK SMILES IDX 8 13 7 14 9 15 11 16 12 17 10 18 13 20 4 22 21 24 18 26
REMARK H PARENT 10 19 13 21 4 23 21 25 18 27
REMARK Flexibility Score: inf
ROOT
ATOM      1  C   UNL     1      21.223 -15.927   4.013  1.00  0.00     0.184 A 
ATOM      2  C   UNL     1      20.741 -14.640   4.308  1.00  0.00     0.208 A 
ATOM      3  C   UNL     1      21.123 -14.034   5.515  1.00  0.00     0.238 A 
ATOM      4  O   UNL     1      20.705 -12.875   5.787  1.00  0.00    -0.285 OA
ATOM      5  C   UNL     1      21.960 -14.731   6.410  1.00  0.00     0.111 A 
ATOM      6  C   UNL     1      22.389 -14.193   7.648  1.00  0.00     0.134 A 
ATOM      7  C   UNL     1      23.216 -14.955   8.488  1.00  0.00     0.093 A 
ATOM      8  C   UNL     1      23.621 -16.241   8.114  1.00  0.00     0.123 A 
ATOM      9  C   UNL     1      23.202 -16.775   6.893  1.00  0.00     0.094 A 
ATOM     10  C   UNL     1      22.379 -16.032   6.042  1.00  0.00     0.146 A 
ATOM     11  O   UNL     1      21.998 -16.563   4.885  1.00  0.00    -0.451 OA
ENDROOT
BRANCH   1  12
ATOM     12  C   UNL     1      20.870 -16.618   2.755  1.00  0.00     0.063 A 
ATOM     13  C   UNL     1      20.818 -16.606   0.325  1.00  0.00     0.047 A 
ATOM     14  C   UNL     1      21.144 -15.984   1.533  1.00  0.00     0.020 A 
ATOM     15  C   UNL     1      20.200 -17.862   0.324  1.00  0.00     0.119 A 
ATOM     16  C   UNL     1      19.903 -18.490   1.537  1.00  0.00     0.093 A 
ATOM     17  C   UNL     1      20.222 -17.870   2.754  1.00  0.00     0.130 A 
BRANCH  15  18
ATOM     18  O   UNL     1      19.875 -18.493  -0.875  1.00  0.00    -0.508 OA
ATOM     19  H   UNL     1      18.941 -18.437  -1.266  1.00  0.00     0.293 HD
ENDBRANCH  15  18
BRANCH  17  20
ATOM     20  O   UNL     1      19.875 -18.486   3.958  1.00  0.00    -0.507 OA
ATOM     21  H   UNL     1      20.441 -19.222   4.361  1.00  0.00     0.293 HD
ENDBRANCH  17  20
ENDBRANCH   1  12
BRANCH   2  22
ATOM     22  O   UNL     1      19.875 -13.994   3.421  1.00  0.00    -0.502 OA
ATOM     23  H   UNL     1      19.239 -14.501   2.818  1.00  0.00     0.293 HD
ENDBRANCH   2  22
BRANCH   6  24
ATOM     24  O   UNL     1      22.000 -12.915   8.049  1.00  0.00    -0.507 OA
ATOM     25  H   UNL     1      22.201 -12.563   8.978  1.00  0.00     0.293 HD
ENDBRANCH   6  24
BRANCH   8  26
ATOM     26  O   UNL     1      24.442 -16.996   8.947  1.00  0.00    -0.508 OA
ATOM     27  H   UNL     1      24.747 -16.648   9.849  1.00  0.00     0.293 HD
ENDBRANCH   8  26
TORSDOF 6
ENDMDL
MODEL 4
REMARK VINA RESULT:    -0.485      2.421      6.776
REMARK INTER + INTRA:          -0.548
REMARK INTER:                  -0.538
REMARK INTRA:                  -0.010
REMARK UNBOUND:                 0.036
REMARK SMILES O=c1c(O)c(-c2ccc(O)cc2O)oc2cc(O)cc(O)c12
REMARK SMILES IDX 5 1 3 2 2 3 1 4 22 5 20 6 19 7 17 8 16 9 15 10 14 11 6 12
REMARK SMILES IDX 8 13 7 14 9 15 11 16 12 17 10 18 13 20 4 22 21 24 18 26
REMARK H PARENT 10 19 13 21 4 23 21 25 18 27
REMARK Flexibility Score: inf
ROOT
ATOM      1  C   UNL     1      21.281 -15.621   4.284  1.00  0.00     0.184 A 
ATOM      2  C   UNL     1      20.778 -14.402   4.772  1.00  0.00     0.208 A 
ATOM      3  C   UNL     1      21.164 -13.972   6.051  1.00  0.00     0.238 A 
ATOM      4  O   UNL     1      20.728 -12.875   6.496  1.00  0.00    -0.285 OA
ATOM      5  C   UNL     1      22.026 -14.777   6.825  1.00  0.00     0.111 A 
ATOM      6  C   UNL     1      22.460 -14.420   8.124  1.00  0.00     0.134 A 
ATOM      7  C   UNL     1      23.311 -15.280   8.834  1.00  0.00     0.093 A 
ATOM      8  C   UNL     1      23.736 -16.488   8.270  1.00  0.00     0.123 A 
ATOM      9  C   UNL     1      23.311 -16.844   6.988  1.00  0.00     0.094 A 
ATOM     10  C   UNL     1      22.464 -16.001   6.264  1.00  0.00     0.146 A 
ATOM     11  O   UNL     1      22.079 -16.362   5.045  1.00  0.00    -0.451 OA
ENDROOT
BRANCH   1  12
ATOM     12  C   UNL     1      20.925 -16.124   2.941  1.00  0.00     0.063 A 
ATOM     13  C   UNL     1      20.110 -17.949   1.557  1.00  0.00     0.047 A 
ATOM     14  C   UNL     1      20.450 -17.439   2.813  1.00  0.00     0.020 A 
ATOM     15  C   UNL     1      20.253 -17.156   0.413  1.00  0.00     0.119 A 
ATOM     16  C   UNL     1      20.747 -15.853   0.529  1.00  0.00     0.093 A 
ATOM     17  C   UNL     1      21.096 -15.335   1.785  1.00  0.00     0.130 A 
BRANCH  15  18
ATOM     18  O   UNL     1      19.912 -17.652  -0.843  1.00  0.00    -0.508 OA
ATOM     19  H   UNL     1      19.710 -18.635  -0.987  1.00  0.00     0.293 HD
ENDBRANCH  15  18
BRANCH  17  20
ATOM     20  O   UNL     1      21.634 -14.051   1.881  1.00  0.00    -0.507 OA
ATOM     21  H   UNL     1      21.151 -13.308   2.370  1.00  0.00     0.293 HD
ENDBRANCH  17  20
ENDBRANCH   1  12
BRANCH   2  22
ATOM     22  O   UNL     1      19.890 -13.648   3.999  1.00  0.00    -0.502 OA
ATOM     23  H   UNL     1      19.424 -14.029   3.184  1.00  0.00     0.293 HD
ENDBRANCH   2  22
BRANCH   6  24
ATOM     24  O   UNL     1      22.052 -13.223   8.714  1.00  0.00    -0.507 OA
ATOM     25  H   UNL     1      21.455 -13.208   9.532  1.00  0.00     0.293 HD
ENDBRANCH   6  24
BRANCH   8  26
ATOM     26  O   UNL     1      24.581 -17.342   8.975  1.00  0.00    -0.508 OA
ATOM     27  H   UNL     1      24.438 -17.536   9.959  1.00  0.00     0.293 HD
ENDBRANCH   8  26
TORSDOF 6
ENDMDL
