MODEL 1
REMARK VINA RESULT:    -6.407      0.000      0.000
REMARK INTER + INTRA:          -9.532
REMARK INTER:                  -8.654
REMARK INTRA:                  -0.878
REMARK UNBOUND:                -0.878
REMARK SMILES CC(=O)CCC=C(C)CCC=C(C)C
REMARK SMILES IDX 7 1 6 2 8 3 9 4 10 5 11 6 13 7 12 8 14 9 5 10 4 11 2 12 3 13
REMARK SMILES IDX 1 14
REMARK H PARENT
REMARK Flexibility Score: inf
ROOT
ATOM      1  C   UNL     1      -4.459  28.045  29.742  1.00  0.00    -0.077 C 
ATOM      2  C   UNL     1      -5.576  28.808  29.752  1.00  0.00    -0.028 C 
ATOM      3  C   UNL     1      -4.616  26.546  29.790  1.00  0.00     0.039 C 
ENDROOT
BRANCH   1   4
ATOM      4  C   UNL     1      -3.061  28.636  29.705  1.00  0.00     0.034 C 
BRANCH   4   5
ATOM      5  C   UNL     1      -2.361  28.375  28.362  1.00  0.00     0.032 C 
BRANCH   5   6
ATOM      6  C   UNL     1      -1.068  27.613  28.539  1.00  0.00    -0.028 C 
ATOM      7  C   UNL     1      -1.838  25.657  27.176  1.00  0.00     0.039 C 
ATOM      8  C   UNL     1      -0.836  26.377  28.045  1.00  0.00    -0.080 C 
ATOM      9  C   UNL     1       0.484  25.700  28.313  1.00  0.00     0.039 C 
ENDBRANCH   5   6
ENDBRANCH   4   5
ENDBRANCH   1   4
BRANCH   2  10
ATOM     10  C   UNL     1      -5.564  30.318  29.672  1.00  0.00     0.035 C 
BRANCH  10  11
ATOM     11  C   UNL     1      -6.088  30.827  28.322  1.00  0.00     0.079 C 
BRANCH  11  12
ATOM     12  C   UNL     1      -5.029  31.585  27.561  1.00  0.00     0.130 C 
ATOM     13  O   UNL     1      -3.863  31.516  27.920  1.00  0.00    -0.300 OA
ATOM     14  C   UNL     1      -5.379  32.436  26.375  1.00  0.00     0.087 C 
ENDBRANCH  11  12
ENDBRANCH  10  11
ENDBRANCH   2  10
TORSDOF 6
ENDMDL
MODEL 2
REMARK VINA RESULT:    -6.151      1.929      6.129
REMARK INTER + INTRA:          -9.187
REMARK INTER:                  -8.705
REMARK INTRA:                  -0.482
REMARK UNBOUND:                -0.878
REMARK SMILES CC(=O)CCC=C(C)CCC=C(C)C
REMARK SMILES IDX 7 1 6 2 8 3 9 4 10 5 11 6 13 7 12 8 14 9 5 10 4 11 2 12 3 13
REMARK SMILES IDX 1 14
REMARK H PARENT
REMARK Flexibility Score: inf
ROOT
ATOM      1  C   UNL     1      -4.630  29.199  29.250  1.00  0.00    -0.077 C 
ATOM      2  C   UNL     1      -3.537  28.405  29.303  1.00  0.00    -0.028 C 
ATOM      3  C   UNL     1      -5.447  29.376  30.505  1.00  0.00     0.039 C 
ENDROOT
BRANCH   1   4
ATOM      4  C   UNL     1      -5.075  29.901  27.980  1.00  0.00     0.034 C 
BRANCH   4   5
ATOM      5  C   UNL     1      -5.706  31.271  28.270  1.00  0.00     0.032 C 
BRANCH   5   6
ATOM      6  C   UNL     1      -5.729  32.153  27.043  1.00  0.00    -0.028 C 
ATOM      7  C   UNL     1      -3.457  33.112  27.483  1.00  0.00     0.039 C 
ATOM      8  C   UNL     1      -4.743  33.013  26.701  1.00  0.00    -0.080 C 
ATOM      9  C   UNL     1      -4.890  33.868  25.468  1.00  0.00     0.039 C 
ENDBRANCH   5   6
ENDBRANCH   4   5
ENDBRANCH   1   4
BRANCH   2  10
ATOM     10  C   UNL     1      -2.611  28.169  28.131  1.00  0.00     0.035 C 
BRANCH  10  11
ATOM     11  C   UNL     1      -1.251  27.613  28.575  1.00  0.00     0.079 C 
BRANCH  11  12
ATOM     12  C   UNL     1      -0.914  26.324  27.868  1.00  0.00     0.130 C 
ATOM     13  O   UNL     1      -1.701  25.859  27.057  1.00  0.00    -0.300 OA
ATOM     14  C   UNL     1       0.364  25.591  28.149  1.00  0.00     0.087 C 
ENDBRANCH  11  12
ENDBRANCH  10  11
ENDBRANCH   2  10
TORSDOF 6
ENDMDL
MODEL 3
REMARK VINA RESULT:    -6.077      1.793      2.881
REMARK INTER + INTRA:          -9.086
REMARK INTER:                  -8.669
REMARK INTRA:                  -0.417
REMARK UNBOUND:                -0.878
REMARK SMILES CC(=O)CCC=C(C)CCC=C(C)C
REMARK SMILES IDX 7 1 6 2 8 3 9 4 10 5 11 6 13 7 12 8 14 9 5 10 4 11 2 12 3 13
REMARK SMILES IDX 1 14
REMARK H PARENT
REMARK Flexibility Score: inf
ROOT
ATOM      1  C   UNL     1      -5.171  30.316  28.341  1.00  0.00    -0.077 C 
ATOM      2  C   UNL     1      -5.494  31.588  28.016  1.00  0.00    -0.028 C 
ATOM      3  C   UNL     1      -6.031  29.594  29.347  1.00  0.00     0.039 C 
ENDROOT
BRANCH   1   4
ATOM      4  C   UNL     1      -3.971  29.597  27.752  1.00  0.00     0.034 C 
BRANCH   4   5
ATOM      5  C   UNL     1      -3.323  28.636  28.761  1.00  0.00     0.032 C 
BRANCH   5   6
ATOM      6  C   UNL     1      -2.468  27.594  28.078  1.00  0.00    -0.028 C 
ATOM      7  C   UNL     1      -0.804  27.490  29.948  1.00  0.00     0.039 C 
ATOM      8  C   UNL     1      -1.315  27.101  28.582  1.00  0.00    -0.080 C 
ATOM      9  C   UNL     1      -0.527  26.086  27.794  1.00  0.00     0.039 C 
ENDBRANCH   5   6
ENDBRANCH   4   5
ENDBRANCH   1   4
BRANCH   2  10
ATOM     10  C   UNL     1      -4.741  32.414  26.998  1.00  0.00     0.035 C 
BRANCH  10  11
ATOM     11  C   UNL     1      -5.553  32.624  25.713  1.00  0.00     0.079 C 
BRANCH  11  12
ATOM     12  C   UNL     1      -5.009  33.763  24.887  1.00  0.00     0.130 C 
ATOM     13  O   UNL     1      -4.170  33.537  24.028  1.00  0.00    -0.300 OA
ATOM     14  C   UNL     1      -5.470  35.175  25.105  1.00  0.00     0.087 C 
ENDBRANCH  11  12
ENDBRANCH  10  11
ENDBRANCH   2  10
TORSDOF 6
ENDMDL
MODEL 4
REMARK VINA RESULT:    -6.038      1.111      3.566
REMARK INTER + INTRA:          -9.034
REMARK INTER:                  -7.908
REMARK INTRA:                  -1.126
REMARK UNBOUND:                -0.878
REMARK SMILES CC(=O)CCC=C(C)CCC=C(C)C
REMARK SMILES IDX 7 1 6 2 8 3 9 4 10 5 11 6 13 7 12 8 14 9 5 10 4 11 2 12 3 13
REMARK SMILES IDX 1 14
REMARK H PARENT
REMARK Flexibility Score: inf
ROOT
ATOM      1  C   UNL     1      -1.531  27.368  28.132  1.00  0.00    -0.077 C 
ATOM      2  C   UNL     1      -2.359  28.079  27.333  1.00  0.00    -0.028 C 
ATOM      3  C   UNL     1      -1.189  25.955  27.734  1.00  0.00     0.039 C 
ENDROOT
BRANCH   1   4
ATOM      4  C   UNL     1      -0.950  27.928  29.418  1.00  0.00     0.034 C 
BRANCH   4   5
ATOM      5  C   UNL     1      -1.776  27.521  30.648  1.00  0.00     0.032 C 
BRANCH   5   6
ATOM      6  C   UNL     1      -2.953  28.445  30.868  1.00  0.00    -0.028 C 
ATOM      7  C   UNL     1      -4.618  26.819  29.939  1.00  0.00     0.039 C 
ATOM      8  C   UNL     1      -4.226  28.157  30.517  1.00  0.00    -0.080 C 
ATOM      9  C   UNL     1      -5.315  29.171  30.756  1.00  0.00     0.039 C 
ENDBRANCH   5   6
ENDBRANCH   4   5
ENDBRANCH   1   4
BRANCH   2  10
ATOM     10  C   UNL     1      -2.755  29.515  27.595  1.00  0.00     0.035 C 
BRANCH  10  11
ATOM     11  C   UNL     1      -4.259  29.742  27.394  1.00  0.00     0.079 C 
BRANCH  11  12
ATOM     12  C   UNL     1      -4.658  31.162  27.711  1.00  0.00     0.130 C 
ATOM     13  O   UNL     1      -3.817  32.047  27.665  1.00  0.00    -0.300 OA
ATOM     14  C   UNL     1      -6.066  31.510  28.094  1.00  0.00     0.087 C 
ENDBRANCH  11  12
ENDBRANCH  10  11
ENDBRANCH   2  10
TORSDOF 6
ENDMDL
MODEL 5
REMARK VINA RESULT:    -5.890      1.558      3.527
REMARK INTER + INTRA:          -8.834
REMARK INTER:                  -7.851
REMARK INTRA:                  -0.983
REMARK UNBOUND:                -0.878
REMARK SMILES CC(=O)CCC=C(C)CCC=C(C)C
REMARK SMILES IDX 7 1 6 2 8 3 9 4 10 5 11 6 13 7 12 8 14 9 5 10 4 11 2 12 3 13
REMARK SMILES IDX 1 14
REMARK H PARENT
REMARK Flexibility Score: inf
ROOT
ATOM      1  C   UNL     1      -4.443  31.100  27.783  1.00  0.00    -0.077 C 
ATOM      2  C   UNL     1      -5.500  30.996  28.620  1.00  0.00    -0.028 C 
ATOM      3  C   UNL     1      -3.895  32.473  27.488  1.00  0.00     0.039 C 
ENDROOT
BRANCH   1   4
ATOM      4  C   UNL     1      -3.802  29.895  27.117  1.00  0.00     0.034 C 
BRANCH   4   5
ATOM      5  C   UNL     1      -2.636  29.332  27.944  1.00  0.00     0.032 C 
BRANCH   5   6
ATOM      6  C   UNL     1      -2.256  27.937  27.505  1.00  0.00    -0.028 C 
ATOM      7  C   UNL     1      -0.680  27.583  29.421  1.00  0.00     0.039 C 
ATOM      8  C   UNL     1      -1.349  27.158  28.137  1.00  0.00    -0.080 C 
ATOM      9  C   UNL     1      -1.025  25.792  27.588  1.00  0.00     0.039 C 
ENDBRANCH   5   6
ENDBRANCH   4   5
ENDBRANCH   1   4
BRANCH   2  10
ATOM     10  C   UNL     1      -6.125  29.681  29.029  1.00  0.00     0.035 C 
BRANCH  10  11
ATOM     11  C   UNL     1      -5.857  29.350  30.503  1.00  0.00     0.079 C 
BRANCH  11  12
ATOM     12  C   UNL     1      -4.590  28.551  30.676  1.00  0.00     0.130 C 
ATOM     13  O   UNL     1      -3.622  29.066  31.214  1.00  0.00    -0.300 OA
ATOM     14  C   UNL     1      -4.488  27.135  30.189  1.00  0.00     0.087 C 
ENDBRANCH  11  12
ENDBRANCH  10  11
ENDBRANCH   2  10
TORSDOF 6
ENDMDL
MODEL 6
REMARK VINA RESULT:    -5.616      2.219      6.638
REMARK INTER + INTRA:          -8.464
REMARK INTER:                  -8.018
REMARK INTRA:                  -0.446
REMARK UNBOUND:                -0.878
REMARK SMILES CC(=O)CCC=C(C)CCC=C(C)C
REMARK SMILES IDX 7 1 6 2 8 3 9 4 10 5 11 6 13 7 12 8 14 9 5 10 4 11 2 12 3 13
REMARK SMILES IDX 1 14
REMARK H PARENT
REMARK Flexibility Score: inf
ROOT
ATOM      1  C   UNL     1      -4.703  31.198  28.002  1.00  0.00    -0.077 C 
ATOM      2  C   UNL     1      -4.409  29.900  28.243  1.00  0.00    -0.028 C 
ATOM      3  C   UNL     1      -6.125  31.658  28.198  1.00  0.00     0.039 C 
ENDROOT
BRANCH   1   4
ATOM      4  C   UNL     1      -3.667  32.200  27.524  1.00  0.00     0.034 C 
BRANCH   4   5
ATOM      5  C   UNL     1      -4.310  33.384  26.785  1.00  0.00     0.032 C 
BRANCH   5   6
ATOM      6  C   UNL     1      -4.455  33.114  25.305  1.00  0.00    -0.028 C 
ATOM      7  C   UNL     1      -5.625  35.282  24.853  1.00  0.00     0.039 C 
ATOM      8  C   UNL     1      -5.079  33.940  24.435  1.00  0.00    -0.080 C 
ATOM      9  C   UNL     1      -5.192  33.549  22.984  1.00  0.00     0.039 C 
ENDBRANCH   5   6
ENDBRANCH   4   5
ENDBRANCH   1   4
BRANCH   2  10
ATOM     10  C   UNL     1      -3.020  29.315  28.120  1.00  0.00     0.035 C 
BRANCH  10  11
ATOM     11  C   UNL     1      -3.026  27.786  28.257  1.00  0.00     0.079 C 
BRANCH  11  12
ATOM     12  C   UNL     1      -1.628  27.220  28.277  1.00  0.00     0.130 C 
ATOM     13  O   UNL     1      -0.766  27.769  28.947  1.00  0.00    -0.300 OA
ATOM     14  C   UNL     1      -1.268  26.001  27.481  1.00  0.00     0.087 C 
ENDBRANCH  11  12
ENDBRANCH  10  11
ENDBRANCH   2  10
TORSDOF 6
ENDMDL
MODEL 7
REMARK VINA RESULT:    -5.223      1.964      4.839
REMARK INTER + INTRA:          -7.933
REMARK INTER:                  -6.911
REMARK INTRA:                  -1.022
REMARK UNBOUND:                -0.878
REMARK SMILES CC(=O)CCC=C(C)CCC=C(C)C
REMARK SMILES IDX 7 1 6 2 8 3 9 4 10 5 11 6 13 7 12 8 14 9 5 10 4 11 2 12 3 13
REMARK SMILES IDX 1 14
REMARK H PARENT
REMARK Flexibility Score: inf
ROOT
ATOM      1  C   UNL     1      -4.944  30.455  27.965  1.00  0.00    -0.077 C 
ATOM      2  C   UNL     1      -3.719  30.121  27.500  1.00  0.00    -0.028 C 
ATOM      3  C   UNL     1      -5.375  31.897  27.875  1.00  0.00     0.039 C 
ENDROOT
BRANCH   1   4
ATOM      4  C   UNL     1      -5.889  29.444  28.590  1.00  0.00     0.034 C 
BRANCH   4   5
ATOM      5  C   UNL     1      -5.965  29.596  30.117  1.00  0.00     0.032 C 
BRANCH   5   6
ATOM      6  C   UNL     1      -4.593  29.625  30.750  1.00  0.00    -0.028 C 
ATOM      7  C   UNL     1      -4.210  27.169  30.431  1.00  0.00     0.039 C 
ATOM      8  C   UNL     1      -3.813  28.536  30.933  1.00  0.00    -0.080 C 
ATOM      9  C   UNL     1      -2.473  28.681  31.608  1.00  0.00     0.039 C 
ENDBRANCH   5   6
ENDBRANCH   4   5
ENDBRANCH   1   4
BRANCH   2  10
ATOM     10  C   UNL     1      -3.176  28.710  27.497  1.00  0.00     0.035 C 
BRANCH  10  11
ATOM     11  C   UNL     1      -1.737  28.646  28.028  1.00  0.00     0.079 C 
BRANCH  11  12
ATOM     12  C   UNL     1      -1.291  27.225  28.267  1.00  0.00     0.130 C 
ATOM     13  O   UNL     1      -0.486  26.989  29.155  1.00  0.00    -0.300 OA
ATOM     14  C   UNL     1      -1.807  26.093  27.429  1.00  0.00     0.087 C 
ENDBRANCH  11  12
ENDBRANCH  10  11
ENDBRANCH   2  10
TORSDOF 6
ENDMDL
MODEL 8
REMARK VINA RESULT:    -5.168      2.722      6.969
REMARK INTER + INTRA:          -7.859
REMARK INTER:                  -7.411
REMARK INTRA:                  -0.448
REMARK UNBOUND:                -0.878
REMARK SMILES CC(=O)CCC=C(C)CCC=C(C)C
REMARK SMILES IDX 7 1 6 2 8 3 9 4 10 5 11 6 13 7 12 8 14 9 5 10 4 11 2 12 3 13
REMARK SMILES IDX 1 14
REMARK H PARENT
REMARK Flexibility Score: inf
ROOT
ATOM      1  C   UNL     1      -4.234  32.401  27.255  1.00  0.00    -0.077 C 
ATOM      2  C   UNL     1      -3.990  31.240  27.904  1.00  0.00    -0.028 C 
ATOM      3  C   UNL     1      -3.178  33.477  27.290  1.00  0.00     0.039 C 
ENDROOT
BRANCH   1   4
ATOM      4  C   UNL     1      -5.530  32.669  26.512  1.00  0.00     0.034 C 
BRANCH   4   5
ATOM      5  C   UNL     1      -5.365  32.513  24.992  1.00  0.00     0.032 C 
BRANCH   5   6
ATOM      6  C   UNL     1      -5.213  33.848  24.301  1.00  0.00    -0.028 C 
ATOM      7  C   UNL     1      -5.918  32.962  22.066  1.00  0.00     0.039 C 
ATOM      8  C   UNL     1      -5.420  34.053  22.981  1.00  0.00    -0.080 C 
ATOM      9  C   UNL     1      -5.205  35.425  22.394  1.00  0.00     0.039 C 
ENDBRANCH   5   6
ENDBRANCH   4   5
ENDBRANCH   1   4
BRANCH   2  10
ATOM     10  C   UNL     1      -4.944  30.067  27.920  1.00  0.00     0.035 C 
BRANCH  10  11
ATOM     11  C   UNL     1      -5.051  29.432  29.313  1.00  0.00     0.079 C 
BRANCH  11  12
ATOM     12  C   UNL     1      -4.319  28.115  29.385  1.00  0.00     0.130 C 
ATOM     13  O   UNL     1      -4.782  27.205  30.055  1.00  0.00    -0.300 OA
ATOM     14  C   UNL     1      -3.023  27.902  28.659  1.00  0.00     0.087 C 
ENDBRANCH  11  12
ENDBRANCH  10  11
ENDBRANCH   2  10
TORSDOF 6
ENDMDL
MODEL 9
REMARK VINA RESULT:    -5.088      2.755      5.012
REMARK INTER + INTRA:          -7.751
REMARK INTER:                  -7.245
REMARK INTRA:                  -0.506
REMARK UNBOUND:                -0.878
REMARK SMILES CC(=O)CCC=C(C)CCC=C(C)C
REMARK SMILES IDX 7 1 6 2 8 3 9 4 10 5 11 6 13 7 12 8 14 9 5 10 4 11 2 12 3 13
REMARK SMILES IDX 1 14
REMARK H PARENT
REMARK Flexibility Score: inf
ROOT
ATOM      1  C   UNL     1      -4.425  32.579  27.094  1.00  0.00    -0.077 C 
ATOM      2  C   UNL     1      -4.645  33.280  25.959  1.00  0.00    -0.028 C 
ATOM      3  C   UNL     1      -3.158  32.844  27.866  1.00  0.00     0.039 C 
ENDROOT
BRANCH   1   4
ATOM      4  C   UNL     1      -5.390  31.525  27.608  1.00  0.00     0.034 C 
BRANCH   4   5
ATOM      5  C   UNL     1      -4.810  30.108  27.493  1.00  0.00     0.032 C 
BRANCH   5   6
ATOM      6  C   UNL     1      -4.557  29.489  28.849  1.00  0.00    -0.028 C 
ATOM      7  C   UNL     1      -2.516  28.250  28.091  1.00  0.00     0.039 C 
ATOM      8  C   UNL     1      -3.555  28.623  29.119  1.00  0.00    -0.080 C 
ATOM      9  C   UNL     1      -3.421  28.044  30.504  1.00  0.00     0.039 C 
ENDBRANCH   5   6
ENDBRANCH   4   5
ENDBRANCH   1   4
BRANCH   2  10
ATOM     10  C   UNL     1      -5.888  33.140  25.109  1.00  0.00     0.035 C 
BRANCH  10  11
ATOM     11  C   UNL     1      -5.601  33.400  23.624  1.00  0.00     0.079 C 
BRANCH  11  12
ATOM     12  C   UNL     1      -5.725  34.863  23.279  1.00  0.00     0.130 C 
ATOM     13  O   UNL     1      -6.125  35.650  24.124  1.00  0.00    -0.300 OA
ATOM     14  C   UNL     1      -5.378  35.374  21.911  1.00  0.00     0.087 C 
ENDBRANCH  11  12
ENDBRANCH  10  11
ENDBRANCH   2  10
TORSDOF 6
ENDMDL
