MODEL 1
REMARK VINA RESULT:    -5.374      0.000      0.000
REMARK INTER + INTRA:          -7.231
REMARK INTER:                  -6.945
REMARK INTRA:                  -0.286
REMARK UNBOUND:                -0.286
REMARK SMILES C=CC(=O)CCCCC
REMARK SMILES IDX 6 1 7 2 8 3 9 4 5 5 3 6 4 7 2 8 1 9
REMARK H PARENT
REMARK Flexibility Score: inf
ROOT
ATOM      1  C   UNL     1      -2.659  28.048  30.422  1.00  0.00     0.008 C 
ENDROOT
BRANCH   1   2
ATOM      2  C   UNL     1      -3.871  27.130  30.194  1.00  0.00     0.000 C 
BRANCH   2   3
ATOM      3  C   UNL     1      -5.131  27.906  29.785  1.00  0.00    -0.003 C 
ATOM      4  C   UNL     1      -4.822  29.387  29.584  1.00  0.00     0.004 C 
ENDBRANCH   2   3
ENDBRANCH   1   2
BRANCH   1   5
ATOM      5  C   UNL     1      -1.388  27.536  29.721  1.00  0.00     0.080 C 
BRANCH   5   6
ATOM      6  C   UNL     1      -1.593  27.274  28.247  1.00  0.00     0.155 C 
ATOM      7  O   UNL     1      -2.210  28.112  27.536  1.00  0.00    -0.295 OA
BRANCH   6   8
ATOM      8  C   UNL     1      -1.105  26.038  27.600  1.00  0.00     0.039 C 
ATOM      9  C   UNL     1       0.086  25.495  27.851  1.00  0.00     0.012 C 
ENDBRANCH   6   8
ENDBRANCH   5   6
ENDBRANCH   1   5
TORSDOF 5
ENDMDL
MODEL 2
REMARK VINA RESULT:    -5.307      1.373      4.261
REMARK INTER + INTRA:          -7.144
REMARK INTER:                  -6.848
REMARK INTRA:                  -0.296
REMARK UNBOUND:                -0.286
REMARK SMILES C=CC(=O)CCCCC
REMARK SMILES IDX 6 1 7 2 8 3 9 4 5 5 3 6 4 7 2 8 1 9
REMARK H PARENT
REMARK Flexibility Score: inf
ROOT
ATOM      1  C   UNL     1      -1.376  27.626  28.993  1.00  0.00     0.008 C 
ENDROOT
BRANCH   1   2
ATOM      2  C   UNL     1      -1.919  26.961  27.717  1.00  0.00     0.000 C 
BRANCH   2   3
ATOM      3  C   UNL     1      -1.260  25.605  27.430  1.00  0.00    -0.003 C 
ATOM      4  C   UNL     1       0.174  25.570  27.955  1.00  0.00     0.004 C 
ENDBRANCH   2   3
ENDBRANCH   1   2
BRANCH   1   5
ATOM      5  C   UNL     1      -2.346  27.507  30.182  1.00  0.00     0.080 C 
BRANCH   5   6
ATOM      6  C   UNL     1      -3.785  27.758  29.796  1.00  0.00     0.155 C 
ATOM      7  O   UNL     1      -4.602  26.800  29.743  1.00  0.00    -0.295 OA
BRANCH   6   8
ATOM      8  C   UNL     1      -4.274  29.109  29.451  1.00  0.00     0.039 C 
ATOM      9  C   UNL     1      -4.570  29.492  28.208  1.00  0.00     0.012 C 
ENDBRANCH   6   8
ENDBRANCH   5   6
ENDBRANCH   1   5
TORSDOF 5
ENDMDL
MODEL 3
REMARK VINA RESULT:    -4.973      1.326      1.748
REMARK INTER + INTRA:          -6.713
REMARK INTER:                  -6.572
REMARK INTRA:                  -0.142
REMARK UNBOUND:                -0.286
REMARK SMILES C=CC(=O)CCCCC
REMARK SMILES IDX 6 1 7 2 8 3 9 4 5 5 3 6 4 7 2 8 1 9
REMARK H PARENT
REMARK Flexibility Score: inf
ROOT
ATOM      1  C   UNL     1      -3.986  27.631  29.581  1.00  0.00     0.008 C 
ENDROOT
BRANCH   1   2
ATOM      2  C   UNL     1      -5.118  28.669  29.639  1.00  0.00     0.000 C 
BRANCH   2   3
ATOM      3  C   UNL     1      -4.793  29.943  28.847  1.00  0.00    -0.003 C 
ATOM      4  C   UNL     1      -6.059  30.746  28.556  1.00  0.00     0.004 C 
ENDBRANCH   2   3
ENDBRANCH   1   2
BRANCH   1   5
ATOM      5  C   UNL     1      -2.945  27.950  28.492  1.00  0.00     0.080 C 
BRANCH   5   6
ATOM      6  C   UNL     1      -1.640  27.215  28.691  1.00  0.00     0.155 C 
ATOM      7  O   UNL     1      -0.905  27.487  29.678  1.00  0.00    -0.295 OA
BRANCH   6   8
ATOM      8  C   UNL     1      -1.175  26.182  27.742  1.00  0.00     0.039 C 
ATOM      9  C   UNL     1       0.013  25.584  27.827  1.00  0.00     0.012 C 
ENDBRANCH   6   8
ENDBRANCH   5   6
ENDBRANCH   1   5
TORSDOF 5
ENDMDL
MODEL 4
REMARK VINA RESULT:    -4.660      1.313      3.925
REMARK INTER + INTRA:          -6.308
REMARK INTER:                  -6.395
REMARK INTRA:                   0.086
REMARK UNBOUND:                -0.286
REMARK SMILES C=CC(=O)CCCCC
REMARK SMILES IDX 6 1 7 2 8 3 9 4 5 5 3 6 4 7 2 8 1 9
REMARK H PARENT
REMARK Flexibility Score: inf
ROOT
ATOM      1  C   UNL     1      -1.163  27.503  29.222  1.00  0.00     0.008 C 
ENDROOT
BRANCH   1   2
ATOM      2  C   UNL     1      -0.169  26.416  28.780  1.00  0.00     0.000 C 
BRANCH   2   3
ATOM      3  C   UNL     1      -0.542  25.788  27.430  1.00  0.00    -0.003 C 
ATOM      4  C   UNL     1      -1.876  25.050  27.517  1.00  0.00     0.004 C 
ENDBRANCH   2   3
ENDBRANCH   1   2
BRANCH   1   5
ATOM      5  C   UNL     1      -1.967  28.085  28.045  1.00  0.00     0.080 C 
BRANCH   5   6
ATOM      6  C   UNL     1      -3.385  28.444  28.421  1.00  0.00     0.155 C 
ATOM      7  O   UNL     1      -4.070  29.189  27.669  1.00  0.00    -0.295 OA
BRANCH   6   8
ATOM      8  C   UNL     1      -4.006  27.962  29.673  1.00  0.00     0.039 C 
ATOM      9  C   UNL     1      -4.506  26.736  29.824  1.00  0.00     0.012 C 
ENDBRANCH   6   8
ENDBRANCH   5   6
ENDBRANCH   1   5
TORSDOF 5
ENDMDL
MODEL 5
REMARK VINA RESULT:    -4.615      1.738      4.570
REMARK INTER + INTRA:          -6.250
REMARK INTER:                  -6.001
REMARK INTRA:                  -0.250
REMARK UNBOUND:                -0.286
REMARK SMILES C=CC(=O)CCCCC
REMARK SMILES IDX 6 1 7 2 8 3 9 4 5 5 3 6 4 7 2 8 1 9
REMARK H PARENT
REMARK Flexibility Score: inf
ROOT
ATOM      1  C   UNL     1      -3.892  28.710  30.432  1.00  0.00     0.008 C 
ENDROOT
BRANCH   1   2
ATOM      2  C   UNL     1      -3.158  27.387  30.154  1.00  0.00     0.000 C 
BRANCH   2   3
ATOM      3  C   UNL     1      -1.719  27.602  29.665  1.00  0.00    -0.003 C 
ATOM      4  C   UNL     1      -1.545  27.103  28.233  1.00  0.00     0.004 C 
ENDBRANCH   2   3
ENDBRANCH   1   2
BRANCH   1   5
ATOM      5  C   UNL     1      -5.184  28.855  29.607  1.00  0.00     0.080 C 
BRANCH   5   6
ATOM      6  C   UNL     1      -5.002  29.707  28.373  1.00  0.00     0.155 C 
ATOM      7  O   UNL     1      -4.256  29.313  27.436  1.00  0.00    -0.295 OA
BRANCH   6   8
ATOM      8  C   UNL     1      -5.663  31.021  28.229  1.00  0.00     0.039 C 
ATOM      9  C   UNL     1      -5.239  31.973  27.398  1.00  0.00     0.012 C 
ENDBRANCH   6   8
ENDBRANCH   5   6
ENDBRANCH   1   5
TORSDOF 5
ENDMDL
MODEL 6
REMARK VINA RESULT:    -4.586      2.527      4.133
REMARK INTER + INTRA:          -6.213
REMARK INTER:                  -5.951
REMARK INTRA:                  -0.262
REMARK UNBOUND:                -0.286
REMARK SMILES C=CC(=O)CCCCC
REMARK SMILES IDX 6 1 7 2 8 3 9 4 5 5 3 6 4 7 2 8 1 9
REMARK H PARENT
REMARK Flexibility Score: inf
ROOT
ATOM      1  C   UNL     1      -5.372  30.047  28.382  1.00  0.00     0.008 C 
ENDROOT
BRANCH   1   2
ATOM      2  C   UNL     1      -5.623  31.537  28.101  1.00  0.00     0.000 C 
BRANCH   2   3
ATOM      3  C   UNL     1      -4.394  32.242  27.511  1.00  0.00    -0.003 C 
ATOM      4  C   UNL     1      -4.785  33.140  26.340  1.00  0.00     0.004 C 
ENDBRANCH   2   3
ENDBRANCH   1   2
BRANCH   1   5
ATOM      5  C   UNL     1      -4.196  29.480  27.567  1.00  0.00     0.080 C 
BRANCH   5   6
ATOM      6  C   UNL     1      -3.383  28.464  28.335  1.00  0.00     0.155 C 
ATOM      7  O   UNL     1      -2.316  28.006  27.844  1.00  0.00    -0.295 OA
BRANCH   6   8
ATOM      8  C   UNL     1      -3.810  27.962  29.657  1.00  0.00     0.039 C 
ATOM      9  C   UNL     1      -4.413  26.787  29.841  1.00  0.00     0.012 C 
ENDBRANCH   6   8
ENDBRANCH   5   6
ENDBRANCH   1   5
TORSDOF 5
ENDMDL
MODEL 7
REMARK VINA RESULT:    -4.568      2.141      3.403
REMARK INTER + INTRA:          -6.190
REMARK INTER:                  -5.898
REMARK INTRA:                  -0.292
REMARK UNBOUND:                -0.286
REMARK SMILES C=CC(=O)CCCCC
REMARK SMILES IDX 6 1 7 2 8 3 9 4 5 5 3 6 4 7 2 8 1 9
REMARK H PARENT
REMARK Flexibility Score: inf
ROOT
ATOM      1  C   UNL     1      -5.370  29.321  29.290  1.00  0.00     0.008 C 
ENDROOT
BRANCH   1   2
ATOM      2  C   UNL     1      -4.667  29.972  28.087  1.00  0.00     0.000 C 
BRANCH   2   3
ATOM      3  C   UNL     1      -5.183  31.388  27.796  1.00  0.00    -0.003 C 
ATOM      4  C   UNL     1      -4.030  32.340  27.487  1.00  0.00     0.004 C 
ENDBRANCH   2   3
ENDBRANCH   1   2
BRANCH   1   5
ATOM      5  C   UNL     1      -4.682  28.022  29.746  1.00  0.00     0.080 C 
BRANCH   5   6
ATOM      6  C   UNL     1      -3.298  28.255  30.306  1.00  0.00     0.155 C 
ATOM      7  O   UNL     1      -3.135  29.022  31.293  1.00  0.00    -0.295 OA
BRANCH   6   8
ATOM      8  C   UNL     1      -2.101  27.620  29.714  1.00  0.00     0.039 C 
ATOM      9  C   UNL     1      -1.976  27.350  28.415  1.00  0.00     0.012 C 
ENDBRANCH   6   8
ENDBRANCH   5   6
ENDBRANCH   1   5
TORSDOF 5
ENDMDL
MODEL 8
REMARK VINA RESULT:    -4.390      1.883      3.258
REMARK INTER + INTRA:          -5.959
REMARK INTER:                  -5.632
REMARK INTRA:                  -0.328
REMARK UNBOUND:                -0.286
REMARK SMILES C=CC(=O)CCCCC
REMARK SMILES IDX 6 1 7 2 8 3 9 4 5 5 3 6 4 7 2 8 1 9
REMARK H PARENT
REMARK Flexibility Score: inf
ROOT
ATOM      1  C   UNL     1      -4.154  29.236  27.560  1.00  0.00     0.008 C 
ENDROOT
BRANCH   1   2
ATOM      2  C   UNL     1      -4.238  30.755  27.785  1.00  0.00     0.000 C 
BRANCH   2   3
ATOM      3  C   UNL     1      -5.518  31.173  28.523  1.00  0.00    -0.003 C 
ATOM      4  C   UNL     1      -6.125  29.994  29.280  1.00  0.00     0.004 C 
ENDBRANCH   2   3
ENDBRANCH   1   2
BRANCH   1   5
ATOM      5  C   UNL     1      -2.709  28.708  27.611  1.00  0.00     0.080 C 
BRANCH   5   6
ATOM      6  C   UNL     1      -2.459  27.787  28.783  1.00  0.00     0.155 C 
ATOM      7  O   UNL     1      -1.360  27.180  28.887  1.00  0.00    -0.295 OA
BRANCH   6   8
ATOM      8  C   UNL     1      -3.484  27.552  29.821  1.00  0.00     0.039 C 
ATOM      9  C   UNL     1      -4.394  26.581  29.753  1.00  0.00     0.012 C 
ENDBRANCH   6   8
ENDBRANCH   5   6
ENDBRANCH   1   5
TORSDOF 5
ENDMDL
