MODEL 1
REMARK VINA RESULT:    -4.258      0.000      0.000
REMARK INTER + INTRA:          -5.143
REMARK INTER:                  -5.005
REMARK INTRA:                  -0.139
REMARK UNBOUND:                -0.139
REMARK SMILES O=C([O-])C=Cc1ccc(O)c(O)c1
REMARK SMILES IDX 6 1 13 2 7 3 11 4 8 5 9 6 5 7 4 8 2 9 1 10 3 11 12 12 10 14
REMARK H PARENT 12 13 10 15
REMARK Flexibility Score: inf
ROOT
ATOM      1  C   UNL     1      24.197   5.081  23.610  1.00  0.00    -0.022 A 
ATOM      2  C   UNL     1      24.772   4.081  22.809  1.00  0.00     0.058 A 
ATOM      3  C   UNL     1      24.815   6.346  23.668  1.00  0.00     0.012 A 
ATOM      4  C   UNL     1      25.956   4.325  22.096  1.00  0.00     0.157 A 
ATOM      5  C   UNL     1      25.994   6.589  22.957  1.00  0.00     0.051 A 
ATOM      6  C   UNL     1      26.570   5.585  22.174  1.00  0.00     0.157 A 
ENDROOT
BRANCH   1   7
ATOM      7  C   UNL     1      22.939   4.774  24.336  1.00  0.00     0.010 C 
ATOM      8  C   UNL     1      21.948   5.657  24.515  1.00  0.00     0.025 C 
BRANCH   8   9
ATOM      9  C   UNL     1      20.717   5.320  25.252  1.00  0.00     0.064 C 
ATOM     10  O   UNL     1      20.711   4.419  26.132  1.00  0.00    -0.545 OA
ATOM     11  O   UNL     1      19.544   6.006  24.969  1.00  0.00    -0.545 OA
ENDBRANCH   8   9
ENDBRANCH   1   7
BRANCH   4  12
ATOM     12  O   UNL     1      26.520   3.320  21.313  1.00  0.00    -0.504 OA
ATOM     13  H   UNL     1      27.512   3.302  21.104  1.00  0.00     0.293 HD
ENDBRANCH   4  12
BRANCH   6  14
ATOM     14  O   UNL     1      27.747   5.858  21.477  1.00  0.00    -0.504 OA
ATOM     15  H   UNL     1      28.658   5.791  21.913  1.00  0.00     0.293 HD
ENDBRANCH   6  14
TORSDOF 4
ENDMDL
MODEL 2
REMARK VINA RESULT:    -4.206      2.347      6.001
REMARK INTER + INTRA:          -5.082
REMARK INTER:                  -4.949
REMARK INTRA:                  -0.133
REMARK UNBOUND:                -0.139
REMARK SMILES O=C([O-])C=Cc1ccc(O)c(O)c1
REMARK SMILES IDX 6 1 13 2 7 3 11 4 8 5 9 6 5 7 4 8 2 9 1 10 3 11 12 12 10 14
REMARK H PARENT 12 13 10 15
REMARK Flexibility Score: inf
ROOT
ATOM      1  C   UNL     1      23.202   3.879  24.949  1.00  0.00    -0.022 A 
ATOM      2  C   UNL     1      23.677   2.749  25.635  1.00  0.00     0.058 A 
ATOM      3  C   UNL     1      22.109   4.589  25.484  1.00  0.00     0.012 A 
ATOM      4  C   UNL     1      23.060   2.316  26.818  1.00  0.00     0.157 A 
ATOM      5  C   UNL     1      21.495   4.159  26.664  1.00  0.00     0.051 A 
ATOM      6  C   UNL     1      21.963   3.024  27.333  1.00  0.00     0.157 A 
ENDROOT
BRANCH   1   7
ATOM      7  C   UNL     1      23.896   4.300  23.707  1.00  0.00     0.010 C 
ATOM      8  C   UNL     1      25.074   3.802  23.306  1.00  0.00     0.025 C 
BRANCH   8   9
ATOM      9  C   UNL     1      25.739   4.253  22.071  1.00  0.00     0.064 C 
ATOM     10  O   UNL     1      26.229   3.427  21.256  1.00  0.00    -0.545 OA
ATOM     11  O   UNL     1      25.829   5.612  21.802  1.00  0.00    -0.545 OA
ENDBRANCH   8   9
ENDBRANCH   1   7
BRANCH   4  12
ATOM     12  O   UNL     1      23.537   1.186  27.483  1.00  0.00    -0.504 OA
ATOM     13  H   UNL     1      22.930   0.611  28.055  1.00  0.00     0.293 HD
ENDBRANCH   4  12
BRANCH   6  14
ATOM     14  O   UNL     1      21.329   2.618  28.507  1.00  0.00    -0.504 OA
ATOM     15  H   UNL     1      20.326   2.492  28.561  1.00  0.00     0.293 HD
ENDBRANCH   6  14
TORSDOF 4
ENDMDL
MODEL 3
REMARK VINA RESULT:    -4.093      1.692      2.170
REMARK INTER + INTRA:          -4.950
REMARK INTER:                  -4.824
REMARK INTRA:                  -0.126
REMARK UNBOUND:                -0.139
REMARK SMILES O=C([O-])C=Cc1ccc(O)c(O)c1
REMARK SMILES IDX 6 1 13 2 7 3 11 4 8 5 9 6 5 7 4 8 2 9 1 10 3 11 12 12 10 14
REMARK H PARENT 12 13 10 15
REMARK Flexibility Score: inf
ROOT
ATOM      1  C   UNL     1      24.267   4.460  23.945  1.00  0.00    -0.022 A 
ATOM      2  C   UNL     1      25.009   3.710  23.019  1.00  0.00     0.058 A 
ATOM      3  C   UNL     1      24.446   5.857  23.988  1.00  0.00     0.012 A 
ATOM      4  C   UNL     1      25.932   4.334  22.165  1.00  0.00     0.157 A 
ATOM      5  C   UNL     1      25.365   6.479  23.138  1.00  0.00     0.051 A 
ATOM      6  C   UNL     1      26.111   5.725  22.228  1.00  0.00     0.157 A 
ENDROOT
BRANCH   1   7
ATOM      7  C   UNL     1      23.297   3.753  24.818  1.00  0.00     0.010 C 
ATOM      8  C   UNL     1      23.398   3.700  26.154  1.00  0.00     0.025 C 
BRANCH   8   9
ATOM      9  C   UNL     1      22.421   2.978  26.987  1.00  0.00     0.064 C 
ATOM     10  O   UNL     1      21.378   3.545  27.407  1.00  0.00    -0.545 OA
ATOM     11  O   UNL     1      22.656   1.650  27.318  1.00  0.00    -0.545 OA
ENDBRANCH   8   9
ENDBRANCH   1   7
BRANCH   4  12
ATOM     12  O   UNL     1      26.668   3.575  21.256  1.00  0.00    -0.504 OA
ATOM     13  H   UNL     1      27.317   4.005  20.607  1.00  0.00     0.293 HD
ENDBRANCH   4  12
BRANCH   6  14
ATOM     14  O   UNL     1      27.021   6.373  21.394  1.00  0.00    -0.504 OA
ATOM     15  H   UNL     1      28.019   6.218  21.461  1.00  0.00     0.293 HD
ENDBRANCH   6  14
TORSDOF 4
ENDMDL
MODEL 4
REMARK VINA RESULT:    -4.092      1.309      5.889
REMARK INTER + INTRA:          -4.948
REMARK INTER:                  -4.818
REMARK INTRA:                  -0.130
REMARK UNBOUND:                -0.139
REMARK SMILES O=C([O-])C=Cc1ccc(O)c(O)c1
REMARK SMILES IDX 6 1 13 2 7 3 11 4 8 5 9 6 5 7 4 8 2 9 1 10 3 11 12 12 10 14
REMARK H PARENT 12 13 10 15
REMARK Flexibility Score: inf
ROOT
ATOM      1  C   UNL     1      23.617   4.970  24.725  1.00  0.00    -0.022 A 
ATOM      2  C   UNL     1      22.362   4.471  24.337  1.00  0.00     0.058 A 
ATOM      3  C   UNL     1      23.812   5.347  26.068  1.00  0.00     0.012 A 
ATOM      4  C   UNL     1      21.312   4.371  25.262  1.00  0.00     0.157 A 
ATOM      5  C   UNL     1      22.766   5.247  26.990  1.00  0.00     0.051 A 
ATOM      6  C   UNL     1      21.516   4.764  26.594  1.00  0.00     0.157 A 
ENDROOT
BRANCH   1   7
ATOM      7  C   UNL     1      24.696   5.045  23.710  1.00  0.00     0.010 C 
ATOM      8  C   UNL     1      25.007   4.043  22.876  1.00  0.00     0.025 C 
BRANCH   8   9
ATOM      9  C   UNL     1      26.094   4.150  21.888  1.00  0.00     0.064 C 
ATOM     10  O   UNL     1      26.363   3.197  21.110  1.00  0.00    -0.545 OA
ATOM     11  O   UNL     1      26.835   5.322  21.814  1.00  0.00    -0.545 OA
ENDBRANCH   8   9
ENDBRANCH   1   7
BRANCH   4  12
ATOM     12  O   UNL     1      20.070   3.883  24.860  1.00  0.00    -0.504 OA
ATOM     13  H   UNL     1      19.739   2.969  25.148  1.00  0.00     0.293 HD
ENDBRANCH   4  12
BRANCH   6  14
ATOM     14  O   UNL     1      20.492   4.678  27.536  1.00  0.00    -0.504 OA
ATOM     15  H   UNL     1      19.642   4.155  27.362  1.00  0.00     0.293 HD
ENDBRANCH   6  14
TORSDOF 4
ENDMDL
MODEL 5
REMARK VINA RESULT:    -3.933     13.005     15.018
REMARK INTER + INTRA:          -4.762
REMARK INTER:                  -4.633
REMARK INTRA:                  -0.130
REMARK UNBOUND:                -0.139
REMARK SMILES O=C([O-])C=Cc1ccc(O)c(O)c1
REMARK SMILES IDX 6 1 13 2 7 3 11 4 8 5 9 6 5 7 4 8 2 9 1 10 3 11 12 12 10 14
REMARK H PARENT 12 13 10 15
REMARK Flexibility Score: inf
ROOT
ATOM      1  C   UNL     1      16.975  -7.174  26.985  1.00  0.00    -0.022 A 
ATOM      2  C   UNL     1      16.372  -7.122  25.717  1.00  0.00     0.058 A 
ATOM      3  C   UNL     1      17.330  -8.428  27.518  1.00  0.00     0.012 A 
ATOM      4  C   UNL     1      16.104  -8.299  25.001  1.00  0.00     0.157 A 
ATOM      5  C   UNL     1      17.064  -9.601  26.805  1.00  0.00     0.051 A 
ATOM      6  C   UNL     1      16.451  -9.544  25.551  1.00  0.00     0.157 A 
ENDROOT
BRANCH   1   7
ATOM      7  C   UNL     1      17.245  -5.899  27.695  1.00  0.00     0.010 C 
ATOM      8  C   UNL     1      18.444  -5.302  27.725  1.00  0.00     0.025 C 
BRANCH   8   9
ATOM      9  C   UNL     1      18.677  -4.041  28.450  1.00  0.00     0.064 C 
ATOM     10  O   UNL     1      18.199  -3.854  29.601  1.00  0.00    -0.545 OA
ATOM     11  O   UNL     1      19.437  -3.042  27.855  1.00  0.00    -0.545 OA
ENDBRANCH   8   9
ENDBRANCH   1   7
BRANCH   4  12
ATOM     12  O   UNL     1      15.497  -8.233  23.748  1.00  0.00    -0.504 OA
ATOM     13  H   UNL     1      14.564  -8.594  23.590  1.00  0.00     0.293 HD
ENDBRANCH   4  12
BRANCH   6  14
ATOM     14  O   UNL     1      16.197 -10.731  24.864  1.00  0.00    -0.504 OA
ATOM     15  H   UNL     1      16.708 -11.583  25.055  1.00  0.00     0.293 HD
ENDBRANCH   6  14
TORSDOF 4
ENDMDL
MODEL 6
REMARK VINA RESULT:    -3.921      5.218      6.097
REMARK INTER + INTRA:          -4.747
REMARK INTER:                  -4.619
REMARK INTRA:                  -0.128
REMARK UNBOUND:                -0.139
REMARK SMILES O=C([O-])C=Cc1ccc(O)c(O)c1
REMARK SMILES IDX 6 1 13 2 7 3 11 4 8 5 9 6 5 7 4 8 2 9 1 10 3 11 12 12 10 14
REMARK H PARENT 12 13 10 15
REMARK Flexibility Score: inf
ROOT
ATOM      1  C   UNL     1      23.885   1.923  27.377  1.00  0.00    -0.022 A 
ATOM      2  C   UNL     1      23.177   2.319  26.230  1.00  0.00     0.058 A 
ATOM      3  C   UNL     1      25.111   2.552  27.670  1.00  0.00     0.012 A 
ATOM      4  C   UNL     1      23.691   3.305  25.374  1.00  0.00     0.157 A 
ATOM      5  C   UNL     1      25.624   3.535  26.817  1.00  0.00     0.051 A 
ATOM      6  C   UNL     1      24.922   3.913  25.669  1.00  0.00     0.157 A 
ENDROOT
BRANCH   1   7
ATOM      7  C   UNL     1      23.292   0.883  28.254  1.00  0.00     0.010 C 
ATOM      8  C   UNL     1      23.924  -0.246  28.602  1.00  0.00     0.025 C 
BRANCH   8   9
ATOM      9  C   UNL     1      23.300  -1.263  29.466  1.00  0.00     0.064 C 
ATOM     10  O   UNL     1      22.224  -1.828  29.134  1.00  0.00    -0.545 OA
ATOM     11  O   UNL     1      23.907  -1.603  30.667  1.00  0.00    -0.545 OA
ENDBRANCH   8   9
ENDBRANCH   1   7
BRANCH   4  12
ATOM     12  O   UNL     1      22.982   3.680  24.234  1.00  0.00    -0.504 OA
ATOM     13  H   UNL     1      23.020   4.626  23.872  1.00  0.00     0.293 HD
ENDBRANCH   4  12
BRANCH   6  14
ATOM     14  O   UNL     1      25.459   4.896  24.838  1.00  0.00    -0.504 OA
ATOM     15  H   UNL     1      26.246   5.466  25.118  1.00  0.00     0.293 HD
ENDBRANCH   6  14
TORSDOF 4
ENDMDL
MODEL 7
REMARK VINA RESULT:    -3.868     11.840     13.938
REMARK INTER + INTRA:          -4.686
REMARK INTER:                  -4.558
REMARK INTRA:                  -0.127
REMARK UNBOUND:                -0.139
REMARK SMILES O=C([O-])C=Cc1ccc(O)c(O)c1
REMARK SMILES IDX 6 1 13 2 7 3 11 4 8 5 9 6 5 7 4 8 2 9 1 10 3 11 12 12 10 14
REMARK H PARENT 12 13 10 15
REMARK Flexibility Score: inf
ROOT
ATOM      1  C   UNL     1      17.265  -5.826  27.671  1.00  0.00    -0.022 A 
ATOM      2  C   UNL     1      18.646  -5.568  27.675  1.00  0.00     0.058 A 
ATOM      3  C   UNL     1      16.396  -4.888  28.263  1.00  0.00     0.012 A 
ATOM      4  C   UNL     1      19.158  -4.410  28.279  1.00  0.00     0.157 A 
ATOM      5  C   UNL     1      16.906  -3.733  28.864  1.00  0.00     0.051 A 
ATOM      6  C   UNL     1      18.283  -3.490  28.878  1.00  0.00     0.157 A 
ENDROOT
BRANCH   1   7
ATOM      7  C   UNL     1      16.775  -7.061  27.010  1.00  0.00     0.010 C 
ATOM      8  C   UNL     1      16.362  -7.111  25.736  1.00  0.00     0.025 C 
BRANCH   8   9
ATOM      9  C   UNL     1      15.871  -8.354  25.116  1.00  0.00     0.064 C 
ATOM     10  O   UNL     1      14.834  -8.928  25.542  1.00  0.00    -0.545 OA
ATOM     11  O   UNL     1      16.564  -8.901  24.045  1.00  0.00    -0.545 OA
ENDBRANCH   8   9
ENDBRANCH   1   7
BRANCH   4  12
ATOM     12  O   UNL     1      20.532  -4.172  28.283  1.00  0.00    -0.504 OA
ATOM     13  H   UNL     1      21.170  -4.753  28.814  1.00  0.00     0.293 HD
ENDBRANCH   4  12
BRANCH   6  14
ATOM     14  O   UNL     1      18.761  -2.331  29.487  1.00  0.00    -0.504 OA
ATOM     15  H   UNL     1      19.266  -2.352  30.364  1.00  0.00     0.293 HD
ENDBRANCH   6  14
TORSDOF 4
ENDMDL
MODEL 8
REMARK VINA RESULT:    -3.799     11.504     13.373
REMARK INTER + INTRA:          -4.604
REMARK INTER:                  -4.472
REMARK INTRA:                  -0.132
REMARK UNBOUND:                -0.139
REMARK SMILES O=C([O-])C=Cc1ccc(O)c(O)c1
REMARK SMILES IDX 6 1 13 2 7 3 11 4 8 5 9 6 5 7 4 8 2 9 1 10 3 11 12 12 10 14
REMARK H PARENT 12 13 10 15
REMARK Flexibility Score: inf
ROOT
ATOM      1  C   UNL     1      17.317  -4.727  28.326  1.00  0.00    -0.022 A 
ATOM      2  C   UNL     1      18.428  -5.536  28.034  1.00  0.00     0.058 A 
ATOM      3  C   UNL     1      17.533  -3.391  28.717  1.00  0.00     0.012 A 
ATOM      4  C   UNL     1      19.732  -5.034  28.152  1.00  0.00     0.157 A 
ATOM      5  C   UNL     1      18.833  -2.889  28.834  1.00  0.00     0.051 A 
ATOM      6  C   UNL     1      19.934  -3.704  28.557  1.00  0.00     0.157 A 
ENDROOT
BRANCH   1   7
ATOM      7  C   UNL     1      15.958  -5.304  28.176  1.00  0.00     0.010 C 
ATOM      8  C   UNL     1      15.722  -6.604  27.949  1.00  0.00     0.025 C 
BRANCH   8   9
ATOM      9  C   UNL     1      14.358  -7.140  27.795  1.00  0.00     0.064 C 
ATOM     10  O   UNL     1      14.067  -7.917  26.847  1.00  0.00    -0.545 OA
ATOM     11  O   UNL     1      13.377  -6.781  28.709  1.00  0.00    -0.545 OA
ENDBRANCH   8   9
ENDBRANCH   1   7
BRANCH   4  12
ATOM     12  O   UNL     1      20.825  -5.851  27.868  1.00  0.00    -0.504 OA
ATOM     13  H   UNL     1      21.733  -5.689  28.287  1.00  0.00     0.293 HD
ENDBRANCH   4  12
BRANCH   6  14
ATOM     14  O   UNL     1      21.219  -3.177  28.684  1.00  0.00    -0.504 OA
ATOM     15  H   UNL     1      21.744  -3.240  29.547  1.00  0.00     0.293 HD
ENDBRANCH   6  14
TORSDOF 4
ENDMDL
MODEL 9
REMARK VINA RESULT:    -3.788      2.622      3.764
REMARK INTER + INTRA:          -4.591
REMARK INTER:                  -4.452
REMARK INTRA:                  -0.139
REMARK UNBOUND:                -0.139
REMARK SMILES O=C([O-])C=Cc1ccc(O)c(O)c1
REMARK SMILES IDX 6 1 13 2 7 3 11 4 8 5 9 6 5 7 4 8 2 9 1 10 3 11 12 12 10 14
REMARK H PARENT 12 13 10 15
REMARK Flexibility Score: inf
ROOT
ATOM      1  C   UNL     1      21.982   4.454  25.840  1.00  0.00    -0.022 A 
ATOM      2  C   UNL     1      22.588   3.302  26.369  1.00  0.00     0.058 A 
ATOM      3  C   UNL     1      22.585   5.097  24.741  1.00  0.00     0.012 A 
ATOM      4  C   UNL     1      23.788   2.812  25.831  1.00  0.00     0.157 A 
ATOM      5  C   UNL     1      23.780   4.608  24.205  1.00  0.00     0.051 A 
ATOM      6  C   UNL     1      24.386   3.470  24.745  1.00  0.00     0.157 A 
ENDROOT
BRANCH   1   7
ATOM      7  C   UNL     1      20.709   4.926  26.440  1.00  0.00     0.010 C 
ATOM      8  C   UNL     1      20.100   6.068  26.093  1.00  0.00     0.025 C 
BRANCH   8   9
ATOM      9  C   UNL     1      18.842   6.510  26.719  1.00  0.00     0.064 C 
ATOM     10  O   UNL     1      17.965   7.125  26.056  1.00  0.00    -0.545 OA
ATOM     11  O   UNL     1      18.619   6.245  28.064  1.00  0.00    -0.545 OA
ENDBRANCH   8   9
ENDBRANCH   1   7
BRANCH   4  12
ATOM     12  O   UNL     1      24.383   1.673  26.372  1.00  0.00    -0.504 OA
ATOM     13  H   UNL     1      25.195   1.244  25.945  1.00  0.00     0.293 HD
ENDBRANCH   4  12
BRANCH   6  14
ATOM     14  O   UNL     1      25.578   3.007  24.189  1.00  0.00    -0.504 OA
ATOM     15  H   UNL     1      26.365   2.725  24.760  1.00  0.00     0.293 HD
ENDBRANCH   6  14
TORSDOF 4
ENDMDL
