MODEL 1
REMARK VINA RESULT:    -7.151      0.000      0.000
REMARK INTER + INTRA:          -7.360
REMARK INTER:                  -7.360
REMARK INTRA:                   0.000
REMARK UNBOUND:                 0.000
REMARK SMILES C[C@H]1CC[C@@]2(OC1)O[C@@H]1C[C@H]3[C@@H]4CC=C5C[C@@H](O)CC[C@@]5(C)[C@H]4CC[C@@]3(C)[C@@H]1[C@H]2C
REMARK SMILES IDX 1 1 2 2 3 3 4 4 5 5 29 6 28 7 9 8 8 9 10 10 11 11 26 12
REMARK SMILES IDX 25 13 24 14 23 15 12 16 13 17 14 18 15 19 21 20 20 21 19 22
REMARK SMILES IDX 17 23 16 24 22 25 27 26 30 27 6 28 7 29 18 30
REMARK H PARENT 18 31
REMARK Flexibility Score: inf
ROOT
ATOM      1  C   UNL     1      13.265  20.492  24.557  1.00  0.00     0.010 C 
ATOM      2  C   UNL     1      12.257  19.751  23.664  1.00  0.00     0.012 C 
ATOM      3  C   UNL     1      11.499  18.660  24.436  1.00  0.00     0.011 C 
ATOM      4  C   UNL     1      10.447  19.267  25.369  1.00  0.00     0.066 C 
ATOM      5  C   UNL     1       9.553  20.288  24.609  1.00  0.00     0.171 C 
ATOM      6  C   UNL     1       8.518  21.035  25.514  1.00  0.00     0.052 C 
ATOM      7  C   UNL     1       7.172  20.666  24.895  1.00  0.00     0.033 C 
ATOM      8  C   UNL     1       7.500  19.451  24.085  1.00  0.00     0.126 C 
ATOM      9  O   UNL     1       8.816  19.592  23.611  1.00  0.00    -0.346 OA
ATOM     10  C   UNL     1       6.491  19.400  22.941  1.00  0.00     0.037 C 
ATOM     11  C   UNL     1       5.765  20.763  22.883  1.00  0.00     0.002 C 
ATOM     12  C   UNL     1       6.508  21.679  23.908  1.00  0.00    -0.024 C 
ATOM     13  C   UNL     1       5.542  22.614  24.698  1.00  0.00     0.008 C 
ATOM     14  C   UNL     1       4.442  23.183  23.804  1.00  0.00     0.005 C 
ATOM     15  C   UNL     1       3.573  22.071  23.141  1.00  0.00     0.003 C 
ATOM     16  C   UNL     1       4.239  20.664  23.174  1.00  0.00     0.000 C 
ATOM     17  C   UNL     1       3.494  19.795  22.142  1.00  0.00     0.031 C 
ATOM     18  C   UNL     1       2.025  19.747  22.455  1.00  0.00    -0.027 C 
ATOM     19  C   UNL     1       1.369  20.742  23.097  1.00  0.00    -0.065 C 
ATOM     20  C   UNL     1       2.072  22.007  23.626  1.00  0.00    -0.008 C 
ATOM     21  C   UNL     1       1.968  21.974  25.185  1.00  0.00     0.014 C 
ATOM     22  C   UNL     1       0.540  21.697  25.707  1.00  0.00     0.033 C 
ATOM     23  C   UNL     1      -0.076  20.426  25.099  1.00  0.00     0.118 C 
ATOM     24  C   UNL     1      -0.048  20.484  23.564  1.00  0.00     0.063 C 
ATOM     25  C   UNL     1       1.337  23.255  23.067  1.00  0.00     0.016 C 
ATOM     26  C   UNL     1       7.527  22.550  23.115  1.00  0.00     0.012 C 
ATOM     27  C   UNL     1       8.542  20.681  27.016  1.00  0.00     0.014 C 
ATOM     28  O   UNL     1      10.378  21.278  24.002  1.00  0.00    -0.349 OA
ATOM     29  C   UNL     1      11.253  20.727  23.031  1.00  0.00     0.167 C 
ENDROOT
BRANCH  23  30
ATOM     30  O   UNL     1       0.625  19.299  25.560  1.00  0.00    -0.393 OA
ATOM     31  H   UNL     1       1.342  19.118  24.898  1.00  0.00     0.210 HD
ENDBRANCH  23  30
TORSDOF 1
ENDMDL
MODEL 2
REMARK VINA RESULT:    -6.961      4.396      8.070
REMARK INTER + INTRA:          -7.165
REMARK INTER:                  -7.165
REMARK INTRA:                   0.000
REMARK UNBOUND:                 0.000
REMARK SMILES C[C@H]1CC[C@@]2(OC1)O[C@@H]1C[C@H]3[C@@H]4CC=C5C[C@@H](O)CC[C@@]5(C)[C@H]4CC[C@@]3(C)[C@@H]1[C@H]2C
REMARK SMILES IDX 1 1 2 2 3 3 4 4 5 5 29 6 28 7 9 8 8 9 10 10 11 11 26 12
REMARK SMILES IDX 25 13 24 14 23 15 12 16 13 17 14 18 15 19 21 20 20 21 19 22
REMARK SMILES IDX 17 23 16 24 22 25 27 26 30 27 6 28 7 29 18 30
REMARK H PARENT 18 31
REMARK Flexibility Score: inf
ROOT
ATOM      1  C   UNL     1      20.125  22.987  27.726  1.00  0.00     0.010 C 
ATOM      2  C   UNL     1      19.258  21.875  28.338  1.00  0.00     0.012 C 
ATOM      3  C   UNL     1      18.268  22.424  29.378  1.00  0.00     0.011 C 
ATOM      4  C   UNL     1      17.106  23.161  28.706  1.00  0.00     0.066 C 
ATOM      5  C   UNL     1      16.475  22.293  27.580  1.00  0.00     0.171 C 
ATOM      6  C   UNL     1      15.347  23.013  26.769  1.00  0.00     0.052 C 
ATOM      7  C   UNL     1      14.127  22.122  26.987  1.00  0.00     0.033 C 
ATOM      8  C   UNL     1      14.506  21.330  28.201  1.00  0.00     0.126 C 
ATOM      9  O   UNL     1      15.897  21.134  28.169  1.00  0.00    -0.346 OA
ATOM     10  C   UNL     1      13.748  20.008  28.117  1.00  0.00     0.037 C 
ATOM     11  C   UNL     1      13.169  19.879  26.690  1.00  0.00     0.002 C 
ATOM     12  C   UNL     1      13.765  21.076  25.884  1.00  0.00    -0.024 C 
ATOM     13  C   UNL     1      12.744  21.707  24.889  1.00  0.00     0.008 C 
ATOM     14  C   UNL     1      11.900  20.644  24.188  1.00  0.00     0.005 C 
ATOM     15  C   UNL     1      11.091  19.765  25.190  1.00  0.00     0.003 C 
ATOM     16  C   UNL     1      11.613  19.856  26.653  1.00  0.00     0.000 C 
ATOM     17  C   UNL     1      11.019  18.653  27.413  1.00  0.00     0.031 C 
ATOM     18  C   UNL     1       9.519  18.666  27.331  1.00  0.00    -0.027 C 
ATOM     19  C   UNL     1       8.835  19.217  26.301  1.00  0.00    -0.065 C 
ATOM     20  C   UNL     1       9.523  19.940  25.127  1.00  0.00    -0.008 C 
ATOM     21  C   UNL     1       9.104  21.443  25.203  1.00  0.00     0.014 C 
ATOM     22  C   UNL     1       7.582  21.657  25.361  1.00  0.00     0.033 C 
ATOM     23  C   UNL     1       6.993  20.874  26.546  1.00  0.00     0.118 C 
ATOM     24  C   UNL     1       7.336  19.380  26.439  1.00  0.00     0.063 C 
ATOM     25  C   UNL     1       9.026  19.312  23.797  1.00  0.00     0.016 C 
ATOM     26  C   UNL     1      14.995  20.548  25.086  1.00  0.00     0.012 C 
ATOM     27  C   UNL     1      15.036  24.469  27.174  1.00  0.00     0.014 C 
ATOM     28  O   UNL     1      17.487  21.914  26.652  1.00  0.00    -0.349 OA
ATOM     29  C   UNL     1      18.490  21.107  27.251  1.00  0.00     0.167 C 
ENDROOT
BRANCH  23  30
ATOM     30  O   UNL     1       7.487  21.405  27.749  1.00  0.00    -0.393 OA
ATOM     31  H   UNL     1       7.852  20.642  28.270  1.00  0.00     0.210 HD
ENDBRANCH  23  30
TORSDOF 1
ENDMDL
MODEL 3
REMARK VINA RESULT:    -6.912      1.526      2.059
REMARK INTER + INTRA:          -7.114
REMARK INTER:                  -7.114
REMARK INTRA:                   0.000
REMARK UNBOUND:                 0.000
REMARK SMILES C[C@H]1CC[C@@]2(OC1)O[C@@H]1C[C@H]3[C@@H]4CC=C5C[C@@H](O)CC[C@@]5(C)[C@H]4CC[C@@]3(C)[C@@H]1[C@H]2C
REMARK SMILES IDX 1 1 2 2 3 3 4 4 5 5 29 6 28 7 9 8 8 9 10 10 11 11 26 12
REMARK SMILES IDX 25 13 24 14 23 15 12 16 13 17 14 18 15 19 21 20 20 21 19 22
REMARK SMILES IDX 17 23 16 24 22 25 27 26 30 27 6 28 7 29 18 30
REMARK H PARENT 18 31
REMARK Flexibility Score: inf
ROOT
ATOM      1  C   UNL     1      13.636  21.020  27.595  1.00  0.00     0.010 C 
ATOM      2  C   UNL     1      12.905  19.936  26.787  1.00  0.00     0.012 C 
ATOM      3  C   UNL     1      11.821  19.232  27.618  1.00  0.00     0.011 C 
ATOM      4  C   UNL     1      10.592  20.128  27.805  1.00  0.00     0.066 C 
ATOM      5  C   UNL     1      10.115  20.707  26.443  1.00  0.00     0.171 C 
ATOM      6  C   UNL     1       8.927  21.719  26.555  1.00  0.00     0.052 C 
ATOM      7  C   UNL     1       7.829  21.074  25.714  1.00  0.00     0.033 C 
ATOM      8  C   UNL     1       8.271  19.647  25.626  1.00  0.00     0.126 C 
ATOM      9  O   UNL     1       9.677  19.632  25.620  1.00  0.00    -0.346 OA
ATOM     10  C   UNL     1       7.697  19.087  24.327  1.00  0.00     0.037 C 
ATOM     11  C   UNL     1       7.183  20.275  23.482  1.00  0.00     0.002 C 
ATOM     12  C   UNL     1       7.641  21.561  24.241  1.00  0.00    -0.024 C 
ATOM     13  C   UNL     1       6.576  22.699  24.204  1.00  0.00     0.008 C 
ATOM     14  C   UNL     1       5.900  22.804  22.838  1.00  0.00     0.005 C 
ATOM     15  C   UNL     1       5.184  21.483  22.421  1.00  0.00     0.003 C 
ATOM     16  C   UNL     1       5.644  20.244  23.242  1.00  0.00     0.000 C 
ATOM     17  C   UNL     1       5.191  18.997  22.458  1.00  0.00     0.031 C 
ATOM     18  C   UNL     1       3.705  19.024  22.236  1.00  0.00    -0.027 C 
ATOM     19  C   UNL     1       2.986  20.168  22.158  1.00  0.00    -0.065 C 
ATOM     20  C   UNL     1       3.609  21.566  22.342  1.00  0.00    -0.008 C 
ATOM     21  C   UNL     1       2.994  22.176  23.643  1.00  0.00     0.014 C 
ATOM     22  C   UNL     1       1.453  22.082  23.705  1.00  0.00     0.033 C 
ATOM     23  C   UNL     1       0.937  20.651  23.486  1.00  0.00     0.118 C 
ATOM     24  C   UNL     1       1.476  20.070  22.169  1.00  0.00     0.063 C 
ATOM     25  C   UNL     1       3.239  22.441  21.114  1.00  0.00     0.016 C 
ATOM     26  C   UNL     1       8.952  22.067  23.570  1.00  0.00     0.012 C 
ATOM     27  C   UNL     1       8.416  22.018  27.980  1.00  0.00     0.014 C 
ATOM     28  O   UNL     1      11.196  21.390  25.814  1.00  0.00    -0.349 OA
ATOM     29  C   UNL     1      12.277  20.522  25.512  1.00  0.00     0.167 C 
ENDROOT
BRANCH  23  30
ATOM     30  O   UNL     1       1.320  19.844  24.570  1.00  0.00    -0.393 OA
ATOM     31  H   UNL     1       0.487  19.452  24.944  1.00  0.00     0.210 HD
ENDBRANCH  23  30
TORSDOF 1
ENDMDL
MODEL 4
REMARK VINA RESULT:    -6.805      2.234      9.245
REMARK INTER + INTRA:          -7.004
REMARK INTER:                  -7.004
REMARK INTRA:                   0.000
REMARK UNBOUND:                 0.000
REMARK SMILES C[C@H]1CC[C@@]2(OC1)O[C@@H]1C[C@H]3[C@@H]4CC=C5C[C@@H](O)CC[C@@]5(C)[C@H]4CC[C@@]3(C)[C@@H]1[C@H]2C
REMARK SMILES IDX 1 1 2 2 3 3 4 4 5 5 29 6 28 7 9 8 8 9 10 10 11 11 26 12
REMARK SMILES IDX 25 13 24 14 23 15 12 16 13 17 14 18 15 19 21 20 20 21 19 22
REMARK SMILES IDX 17 23 16 24 22 25 27 26 30 27 6 28 7 29 18 30
REMARK H PARENT 18 31
REMARK Flexibility Score: inf
ROOT
ATOM      1  C   UNL     1       2.873  19.627  22.874  1.00  0.00     0.010 C 
ATOM      2  C   UNL     1       3.811  20.695  22.290  1.00  0.00     0.012 C 
ATOM      3  C   UNL     1       4.180  21.767  23.328  1.00  0.00     0.011 C 
ATOM      4  C   UNL     1       5.189  21.230  24.348  1.00  0.00     0.066 C 
ATOM      5  C   UNL     1       6.393  20.553  23.634  1.00  0.00     0.171 C 
ATOM      6  C   UNL     1       7.422  19.883  24.605  1.00  0.00     0.052 C 
ATOM      7  C   UNL     1       8.727  20.612  24.299  1.00  0.00     0.033 C 
ATOM      8  C   UNL     1       8.260  21.858  23.613  1.00  0.00     0.126 C 
ATOM      9  O   UNL     1       7.096  21.541  22.892  1.00  0.00    -0.346 OA
ATOM     10  C   UNL     1       9.392  22.303  22.692  1.00  0.00     0.037 C 
ATOM     11  C   UNL     1      10.406  21.142  22.585  1.00  0.00     0.002 C 
ATOM     12  C   UNL     1       9.743  19.935  23.323  1.00  0.00    -0.024 C 
ATOM     13  C   UNL     1      10.764  19.090  24.143  1.00  0.00     0.008 C 
ATOM     14  C   UNL     1      12.086  18.912  23.399  1.00  0.00     0.005 C 
ATOM     15  C   UNL     1      12.772  20.271  23.062  1.00  0.00     0.003 C 
ATOM     16  C   UNL     1      11.810  21.491  23.161  1.00  0.00     0.000 C 
ATOM     17  C   UNL     1      12.487  22.654  22.411  1.00  0.00     0.031 C 
ATOM     18  C   UNL     1      13.843  22.938  22.991  1.00  0.00    -0.027 C 
ATOM     19  C   UNL     1      14.602  21.999  23.603  1.00  0.00    -0.065 C 
ATOM     20  C   UNL     1      14.130  20.548  23.819  1.00  0.00    -0.008 C 
ATOM     21  C   UNL     1      13.988  20.334  25.360  1.00  0.00     0.014 C 
ATOM     22  C   UNL     1      15.222  20.796  26.168  1.00  0.00     0.033 C 
ATOM     23  C   UNL     1      15.621  22.248  25.860  1.00  0.00     0.118 C 
ATOM     24  C   UNL     1      15.838  22.449  24.352  1.00  0.00     0.063 C 
ATOM     25  C   UNL     1      15.202  19.585  23.241  1.00  0.00     0.016 C 
ATOM     26  C   UNL     1       9.077  19.027  22.247  1.00  0.00     0.012 C 
ATOM     27  C   UNL     1       7.094  19.963  26.111  1.00  0.00     0.014 C 
ATOM     28  O   UNL     1       5.913  19.537  22.758  1.00  0.00    -0.349 OA
ATOM     29  C   UNL     1       5.093  20.061  21.726  1.00  0.00     0.167 C 
ENDROOT
BRANCH  23  30
ATOM     30  O   UNL     1      14.624  23.118  26.332  1.00  0.00    -0.393 OA
ATOM     31  H   UNL     1      14.026  22.579  26.914  1.00  0.00     0.210 HD
ENDBRANCH  23  30
TORSDOF 1
ENDMDL
MODEL 5
REMARK VINA RESULT:    -6.798      2.371      8.419
REMARK INTER + INTRA:          -6.997
REMARK INTER:                  -6.997
REMARK INTRA:                   0.000
REMARK UNBOUND:                 0.000
REMARK SMILES C[C@H]1CC[C@@]2(OC1)O[C@@H]1C[C@H]3[C@@H]4CC=C5C[C@@H](O)CC[C@@]5(C)[C@H]4CC[C@@]3(C)[C@@H]1[C@H]2C
REMARK SMILES IDX 1 1 2 2 3 3 4 4 5 5 29 6 28 7 9 8 8 9 10 10 11 11 26 12
REMARK SMILES IDX 25 13 24 14 23 15 12 16 13 17 14 18 15 19 21 20 20 21 19 22
REMARK SMILES IDX 17 23 16 24 22 25 27 26 30 27 6 28 7 29 18 30
REMARK H PARENT 18 31
REMARK Flexibility Score: inf
ROOT
ATOM      1  C   UNL     1       1.837  22.285  21.758  1.00  0.00     0.010 C 
ATOM      2  C   UNL     1       2.508  20.993  22.253  1.00  0.00     0.012 C 
ATOM      3  C   UNL     1       3.719  20.606  21.388  1.00  0.00     0.011 C 
ATOM      4  C   UNL     1       4.920  21.513  21.674  1.00  0.00     0.066 C 
ATOM      5  C   UNL     1       5.195  21.604  23.202  1.00  0.00     0.171 C 
ATOM      6  C   UNL     1       6.342  22.595  23.590  1.00  0.00     0.052 C 
ATOM      7  C   UNL     1       7.353  21.706  24.310  1.00  0.00     0.033 C 
ATOM      8  C   UNL     1       6.966  20.331  23.862  1.00  0.00     0.126 C 
ATOM      9  O   UNL     1       5.573  20.316  23.674  1.00  0.00    -0.346 OA
ATOM     10  C   UNL     1       7.396  19.371  24.967  1.00  0.00     0.037 C 
ATOM     11  C   UNL     1       7.746  20.208  26.218  1.00  0.00     0.002 C 
ATOM     12  C   UNL     1       7.331  21.674  25.873  1.00  0.00    -0.024 C 
ATOM     13  C   UNL     1       8.331  22.734  26.426  1.00  0.00     0.008 C 
ATOM     14  C   UNL     1       8.824  22.377  27.826  1.00  0.00     0.005 C 
ATOM     15  C   UNL     1       9.540  20.993  27.876  1.00  0.00     0.003 C 
ATOM     16  C   UNL     1       9.242  20.098  26.637  1.00  0.00     0.000 C 
ATOM     17  C   UNL     1       9.647  18.661  27.019  1.00  0.00     0.031 C 
ATOM     18  C   UNL     1      11.090  18.612  27.434  1.00  0.00    -0.027 C 
ATOM     19  C   UNL     1      11.742  19.664  27.982  1.00  0.00    -0.065 C 
ATOM     20  C   UNL     1      11.087  21.043  28.188  1.00  0.00    -0.008 C 
ATOM     21  C   UNL     1      11.834  22.052  27.257  1.00  0.00     0.014 C 
ATOM     22  C   UNL     1      13.373  21.984  27.373  1.00  0.00     0.033 C 
ATOM     23  C   UNL     1      13.920  20.561  27.174  1.00  0.00     0.118 C 
ATOM     24  C   UNL     1      13.245  19.575  28.141  1.00  0.00     0.063 C 
ATOM     25  C   UNL     1      11.260  21.459  29.674  1.00  0.00     0.016 C 
ATOM     26  C   UNL     1       5.925  21.928  26.491  1.00  0.00     0.012 C 
ATOM     27  C   UNL     1       7.015  23.352  22.426  1.00  0.00     0.014 C 
ATOM     28  O   UNL     1       4.014  22.039  23.870  1.00  0.00    -0.349 OA
ATOM     29  C   UNL     1       2.943  21.120  23.721  1.00  0.00     0.167 C 
ENDROOT
BRANCH  23  30
ATOM     30  O   UNL     1      13.712  20.162  25.844  1.00  0.00    -0.393 OA
ATOM     31  H   UNL     1      14.477  19.578  25.597  1.00  0.00     0.210 HD
ENDBRANCH  23  30
TORSDOF 1
ENDMDL
MODEL 6
REMARK VINA RESULT:    -6.732      2.246      8.871
REMARK INTER + INTRA:          -6.928
REMARK INTER:                  -6.928
REMARK INTRA:                   0.000
REMARK UNBOUND:                 0.000
REMARK SMILES C[C@H]1CC[C@@]2(OC1)O[C@@H]1C[C@H]3[C@@H]4CC=C5C[C@@H](O)CC[C@@]5(C)[C@H]4CC[C@@]3(C)[C@@H]1[C@H]2C
REMARK SMILES IDX 1 1 2 2 3 3 4 4 5 5 29 6 28 7 9 8 8 9 10 10 11 11 26 12
REMARK SMILES IDX 25 13 24 14 23 15 12 16 13 17 14 18 15 19 21 20 20 21 19 22
REMARK SMILES IDX 17 23 16 24 22 25 27 26 30 27 6 28 7 29 18 30
REMARK H PARENT 18 31
REMARK Flexibility Score: inf
ROOT
ATOM      1  C   UNL     1       2.526  20.032  22.174  1.00  0.00     0.010 C 
ATOM      2  C   UNL     1       3.890  19.650  21.577  1.00  0.00     0.012 C 
ATOM      3  C   UNL     1       4.676  20.883  21.103  1.00  0.00     0.011 C 
ATOM      4  C   UNL     1       5.250  21.666  22.288  1.00  0.00     0.066 C 
ATOM      5  C   UNL     1       6.014  20.723  23.259  1.00  0.00     0.171 C 
ATOM      6  C   UNL     1       6.544  21.425  24.554  1.00  0.00     0.052 C 
ATOM      7  C   UNL     1       8.053  21.204  24.487  1.00  0.00     0.033 C 
ATOM      8  C   UNL     1       8.278  20.873  23.044  1.00  0.00     0.126 C 
ATOM      9  O   UNL     1       7.142  20.186  22.579  1.00  0.00    -0.346 OA
ATOM     10  C   UNL     1       9.528  20.001  22.983  1.00  0.00     0.037 C 
ATOM     11  C   UNL     1       9.863  19.544  24.421  1.00  0.00     0.002 C 
ATOM     12  C   UNL     1       8.666  20.021  25.304  1.00  0.00    -0.024 C 
ATOM     13  C   UNL     1       9.112  20.536  26.705  1.00  0.00     0.008 C 
ATOM     14  C   UNL     1      10.221  19.673  27.304  1.00  0.00     0.005 C 
ATOM     15  C   UNL     1      11.491  19.619  26.402  1.00  0.00     0.003 C 
ATOM     16  C   UNL     1      11.231  20.079  24.939  1.00  0.00     0.000 C 
ATOM     17  C   UNL     1      12.420  19.578  24.096  1.00  0.00     0.031 C 
ATOM     18  C   UNL     1      13.715  20.106  24.646  1.00  0.00    -0.027 C 
ATOM     19  C   UNL     1      13.897  20.417  25.951  1.00  0.00    -0.065 C 
ATOM     20  C   UNL     1      12.775  20.315  27.003  1.00  0.00    -0.008 C 
ATOM     21  C   UNL     1      12.471  21.767  27.494  1.00  0.00     0.014 C 
ATOM     22  C   UNL     1      13.733  22.566  27.891  1.00  0.00     0.033 C 
ATOM     23  C   UNL     1      14.796  22.585  26.781  1.00  0.00     0.118 C 
ATOM     24  C   UNL     1      15.158  21.156  26.345  1.00  0.00     0.063 C 
ATOM     25  C   UNL     1      13.280  19.445  28.186  1.00  0.00     0.016 C 
ATOM     26  C   UNL     1       7.700  18.812  25.488  1.00  0.00     0.012 C 
ATOM     27  C   UNL     1       6.220  22.927  24.699  1.00  0.00     0.014 C 
ATOM     28  O   UNL     1       5.150  19.668  23.673  1.00  0.00    -0.349 OA
ATOM     29  C   UNL     1       4.736  18.856  22.585  1.00  0.00     0.167 C 
ENDROOT
BRANCH  23  30
ATOM     30  O   UNL     1      14.317  23.324  25.686  1.00  0.00    -0.393 OA
ATOM     31  H   UNL     1      14.881  24.140  25.624  1.00  0.00     0.210 HD
ENDBRANCH  23  30
TORSDOF 1
ENDMDL
MODEL 7
REMARK VINA RESULT:    -6.601      2.704      8.475
REMARK INTER + INTRA:          -6.794
REMARK INTER:                  -6.794
REMARK INTRA:                   0.000
REMARK UNBOUND:                 0.000
REMARK SMILES C[C@H]1CC[C@@]2(OC1)O[C@@H]1C[C@H]3[C@@H]4CC=C5C[C@@H](O)CC[C@@]5(C)[C@H]4CC[C@@]3(C)[C@@H]1[C@H]2C
REMARK SMILES IDX 1 1 2 2 3 3 4 4 5 5 29 6 28 7 9 8 8 9 10 10 11 11 26 12
REMARK SMILES IDX 25 13 24 14 23 15 12 16 13 17 14 18 15 19 21 20 20 21 19 22
REMARK SMILES IDX 17 23 16 24 22 25 27 26 30 27 6 28 7 29 18 30
REMARK H PARENT 18 31
REMARK Flexibility Score: inf
ROOT
ATOM      1  C   UNL     1       3.155  19.625  20.467  1.00  0.00     0.010 C 
ATOM      2  C   UNL     1       3.247  19.958  21.965  1.00  0.00     0.012 C 
ATOM      3  C   UNL     1       3.673  18.740  22.800  1.00  0.00     0.011 C 
ATOM      4  C   UNL     1       5.166  18.442  22.626  1.00  0.00     0.066 C 
ATOM      5  C   UNL     1       6.017  19.726  22.838  1.00  0.00     0.171 C 
ATOM      6  C   UNL     1       7.548  19.533  22.575  1.00  0.00     0.052 C 
ATOM      7  C   UNL     1       8.188  19.898  23.912  1.00  0.00     0.033 C 
ATOM      8  C   UNL     1       7.044  19.783  24.871  1.00  0.00     0.126 C 
ATOM      9  O   UNL     1       5.872  20.150  24.188  1.00  0.00    -0.346 OA
ATOM     10  C   UNL     1       7.344  20.733  26.028  1.00  0.00     0.037 C 
ATOM     11  C   UNL     1       8.509  21.654  25.600  1.00  0.00     0.002 C 
ATOM     12  C   UNL     1       8.760  21.341  24.090  1.00  0.00    -0.024 C 
ATOM     13  C   UNL     1      10.273  21.348  23.713  1.00  0.00     0.008 C 
ATOM     14  C   UNL     1      11.029  22.479  24.406  1.00  0.00     0.005 C 
ATOM     15  C   UNL     1      10.938  22.397  25.961  1.00  0.00     0.003 C 
ATOM     16  C   UNL     1       9.791  21.473  26.465  1.00  0.00     0.000 C 
ATOM     17  C   UNL     1       9.559  21.820  27.948  1.00  0.00     0.031 C 
ATOM     18  C   UNL     1      10.828  21.649  28.735  1.00  0.00    -0.027 C 
ATOM     19  C   UNL     1      12.061  21.786  28.195  1.00  0.00    -0.065 C 
ATOM     20  C   UNL     1      12.296  22.080  26.701  1.00  0.00    -0.008 C 
ATOM     21  C   UNL     1      13.010  20.831  26.092  1.00  0.00     0.014 C 
ATOM     22  C   UNL     1      14.230  20.351  26.911  1.00  0.00     0.033 C 
ATOM     23  C   UNL     1      13.891  20.110  28.392  1.00  0.00     0.118 C 
ATOM     24  C   UNL     1      13.258  21.362  29.019  1.00  0.00     0.063 C 
ATOM     25  C   UNL     1      13.209  23.330  26.577  1.00  0.00     0.016 C 
ATOM     26  C   UNL     1       8.020  22.423  23.250  1.00  0.00     0.012 C 
ATOM     27  C   UNL     1       7.992  18.125  22.125  1.00  0.00     0.014 C 
ATOM     28  O   UNL     1       5.561  20.747  21.956  1.00  0.00    -0.349 OA
ATOM     29  C   UNL     1       4.218  21.122  22.217  1.00  0.00     0.167 C 
ENDROOT
BRANCH  23  30
ATOM     30  O   UNL     1      13.020  19.014  28.500  1.00  0.00    -0.393 OA
ATOM     31  H   UNL     1      13.212  18.418  27.728  1.00  0.00     0.210 HD
ENDBRANCH  23  30
TORSDOF 1
ENDMDL
MODEL 8
REMARK VINA RESULT:    -6.600      3.648      7.362
REMARK INTER + INTRA:          -6.793
REMARK INTER:                  -6.793
REMARK INTRA:                   0.000
REMARK UNBOUND:                 0.000
REMARK SMILES C[C@H]1CC[C@@]2(OC1)O[C@@H]1C[C@H]3[C@@H]4CC=C5C[C@@H](O)CC[C@@]5(C)[C@H]4CC[C@@]3(C)[C@@H]1[C@H]2C
REMARK SMILES IDX 1 1 2 2 3 3 4 4 5 5 29 6 28 7 9 8 8 9 10 10 11 11 26 12
REMARK SMILES IDX 25 13 24 14 23 15 12 16 13 17 14 18 15 19 21 20 20 21 19 22
REMARK SMILES IDX 17 23 16 24 22 25 27 26 30 27 6 28 7 29 18 30
REMARK H PARENT 18 31
REMARK Flexibility Score: inf
ROOT
ATOM      1  C   UNL     1      19.343  21.540  27.716  1.00  0.00     0.010 C 
ATOM      2  C   UNL     1      18.182  22.525  27.924  1.00  0.00     0.012 C 
ATOM      3  C   UNL     1      17.733  23.172  26.604  1.00  0.00     0.011 C 
ATOM      4  C   UNL     1      16.935  22.186  25.744  1.00  0.00     0.066 C 
ATOM      5  C   UNL     1      15.805  21.514  26.574  1.00  0.00     0.171 C 
ATOM      6  C   UNL     1      15.007  20.413  25.800  1.00  0.00     0.052 C 
ATOM      7  C   UNL     1      13.571  20.930  25.825  1.00  0.00     0.033 C 
ATOM      8  C   UNL     1      13.745  22.384  26.135  1.00  0.00     0.126 C 
ATOM      9  O   UNL     1      14.872  22.514  26.966  1.00  0.00    -0.346 OA
ATOM     10  C   UNL     1      12.471  22.839  26.839  1.00  0.00     0.037 C 
ATOM     11  C   UNL     1      11.669  21.579  27.238  1.00  0.00     0.002 C 
ATOM     12  C   UNL     1      12.600  20.368  26.913  1.00  0.00    -0.024 C 
ATOM     13  C   UNL     1      11.825  19.146  26.334  1.00  0.00     0.008 C 
ATOM     14  C   UNL     1      10.489  18.929  27.042  1.00  0.00     0.005 C 
ATOM     15  C   UNL     1       9.548  20.167  26.939  1.00  0.00     0.003 C 
ATOM     16  C   UNL     1      10.288  21.474  26.528  1.00  0.00     0.000 C 
ATOM     17  C   UNL     1       9.349  22.645  26.877  1.00  0.00     0.031 C 
ATOM     18  C   UNL     1       8.026  22.487  26.183  1.00  0.00    -0.027 C 
ATOM     19  C   UNL     1       7.505  21.285  25.841  1.00  0.00    -0.065 C 
ATOM     20  C   UNL     1       8.242  19.953  26.078  1.00  0.00    -0.008 C 
ATOM     21  C   UNL     1       8.565  19.349  24.674  1.00  0.00     0.014 C 
ATOM     22  C   UNL     1       7.353  19.318  23.716  1.00  0.00     0.033 C 
ATOM     23  C   UNL     1       6.679  20.692  23.569  1.00  0.00     0.118 C 
ATOM     24  C   UNL     1       6.287  21.259  24.943  1.00  0.00     0.063 C 
ATOM     25  C   UNL     1       7.303  18.999  26.867  1.00  0.00     0.016 C 
ATOM     26  C   UNL     1      13.308  19.944  28.234  1.00  0.00     0.012 C 
ATOM     27  C   UNL     1      15.459  20.132  24.351  1.00  0.00     0.014 C 
ATOM     28  O   UNL     1      16.368  20.896  27.727  1.00  0.00    -0.349 OA
ATOM     29  C   UNL     1      16.982  21.837  28.595  1.00  0.00     0.167 C 
ENDROOT
BRANCH  23  30
ATOM     30  O   UNL     1       7.550  21.572  22.906  1.00  0.00    -0.393 OA
ATOM     31  H   UNL     1       8.300  21.757  23.530  1.00  0.00     0.210 HD
ENDBRANCH  23  30
TORSDOF 1
ENDMDL
MODEL 9
REMARK VINA RESULT:    -6.423      4.347     10.857
REMARK INTER + INTRA:          -6.611
REMARK INTER:                  -6.611
REMARK INTRA:                   0.000
REMARK UNBOUND:                 0.000
REMARK SMILES C[C@H]1CC[C@@]2(OC1)O[C@@H]1C[C@H]3[C@@H]4CC=C5C[C@@H](O)CC[C@@]5(C)[C@H]4CC[C@@]3(C)[C@@H]1[C@H]2C
REMARK SMILES IDX 1 1 2 2 3 3 4 4 5 5 29 6 28 7 9 8 8 9 10 10 11 11 26 12
REMARK SMILES IDX 25 13 24 14 23 15 12 16 13 17 14 18 15 19 21 20 20 21 19 22
REMARK SMILES IDX 17 23 16 24 22 25 27 26 30 27 6 28 7 29 18 30
REMARK H PARENT 18 31
REMARK Flexibility Score: inf
ROOT
ATOM      1  C   UNL     1       7.334  18.085  22.885  1.00  0.00     0.010 C 
ATOM      2  C   UNL     1       7.733  19.564  23.005  1.00  0.00     0.012 C 
ATOM      3  C   UNL     1       7.486  20.113  24.420  1.00  0.00     0.011 C 
ATOM      4  C   UNL     1       8.538  19.598  25.408  1.00  0.00     0.066 C 
ATOM      5  C   UNL     1       9.974  19.813  24.852  1.00  0.00     0.171 C 
ATOM      6  C   UNL     1      11.108  19.219  25.752  1.00  0.00     0.052 C 
ATOM      7  C   UNL     1      11.963  20.435  26.098  1.00  0.00     0.033 C 
ATOM      8  C   UNL     1      11.042  21.581  25.812  1.00  0.00     0.126 C 
ATOM      9  O   UNL     1      10.214  21.210  24.739  1.00  0.00    -0.346 OA
ATOM     10  C   UNL     1      11.924  22.775  25.459  1.00  0.00     0.037 C 
ATOM     11  C   UNL     1      13.359  22.255  25.216  1.00  0.00     0.002 C 
ATOM     12  C   UNL     1      13.254  20.697  25.257  1.00  0.00    -0.024 C 
ATOM     13  C   UNL     1      14.473  20.024  25.958  1.00  0.00     0.008 C 
ATOM     14  C   UNL     1      15.790  20.703  25.587  1.00  0.00     0.005 C 
ATOM     15  C   UNL     1      15.812  22.215  25.966  1.00  0.00     0.003 C 
ATOM     16  C   UNL     1      14.398  22.805  26.237  1.00  0.00     0.000 C 
ATOM     17  C   UNL     1      14.536  24.339  26.173  1.00  0.00     0.031 C 
ATOM     18  C   UNL     1      15.562  24.818  27.161  1.00  0.00    -0.027 C 
ATOM     19  C   UNL     1      16.608  24.064  27.571  1.00  0.00    -0.065 C 
ATOM     20  C   UNL     1      16.827  22.610  27.109  1.00  0.00    -0.008 C 
ATOM     21  C   UNL     1      16.668  21.697  28.367  1.00  0.00     0.014 C 
ATOM     22  C   UNL     1      17.485  22.174  29.589  1.00  0.00     0.033 C 
ATOM     23  C   UNL     1      17.208  23.643  29.950  1.00  0.00     0.118 C 
ATOM     24  C   UNL     1      17.437  24.558  28.737  1.00  0.00     0.063 C 
ATOM     25  C   UNL     1      18.264  22.482  26.535  1.00  0.00     0.016 C 
ATOM     26  C   UNL     1      13.166  20.187  23.787  1.00  0.00     0.012 C 
ATOM     27  C   UNL     1      10.652  18.492  27.035  1.00  0.00     0.014 C 
ATOM     28  O   UNL     1      10.083  19.196  23.572  1.00  0.00    -0.349 OA
ATOM     29  C   UNL     1       9.205  19.777  22.620  1.00  0.00     0.167 C 
ENDROOT
BRANCH  23  30
ATOM     30  O   UNL     1      15.889  23.769  30.417  1.00  0.00    -0.393 OA
ATOM     31  H   UNL     1      15.823  23.221  31.242  1.00  0.00     0.210 HD
ENDBRANCH  23  30
TORSDOF 1
ENDMDL
