MODEL 1
REMARK VINA RESULT:    -3.938      0.000      0.000
REMARK INTER + INTRA:          -6.055
REMARK INTER:                  -5.550
REMARK INTRA:                  -0.505
REMARK UNBOUND:                -0.505
REMARK SMILES CCCCCCCCC(=O)[O-]
REMARK SMILES IDX 6 1 7 2 8 3 9 4 10 5 11 6 5 7 4 8 3 9 2 10 1 11
REMARK H PARENT
REMARK Flexibility Score: inf
ROOT
ATOM      1  C   UNL     1      12.484  31.320  27.279  1.00  0.00     0.000 C 
ENDROOT
BRANCH   1   2
ATOM      2  C   UNL     1      12.942  30.599  28.556  1.00  0.00     0.006 C 
BRANCH   2   3
ATOM      3  C   UNL     1      11.842  30.533  29.624  1.00  0.00     0.053 C 
BRANCH   3   4
ATOM      4  C   UNL     1      11.896  31.742  30.504  1.00  0.00     0.041 C 
ATOM      5  O   UNL     1      12.658  31.762  31.506  1.00  0.00    -0.550 OA
ATOM      6  O   UNL     1      11.141  32.865  30.189  1.00  0.00    -0.550 OA
ENDBRANCH   3   4
ENDBRANCH   2   3
ENDBRANCH   1   2
BRANCH   1   7
ATOM      7  C   UNL     1      11.066  30.915  26.847  1.00  0.00     0.000 C 
BRANCH   7   8
ATOM      8  C   UNL     1      10.183  32.153  26.627  1.00  0.00    -0.000 C 
BRANCH   8   9
ATOM      9  C   UNL     1       9.671  32.255  25.175  1.00  0.00    -0.000 C 
BRANCH   9  10
ATOM     10  C   UNL     1      10.402  33.317  24.338  1.00  0.00    -0.003 C 
ATOM     11  C   UNL     1      11.204  34.302  25.186  1.00  0.00     0.004 C 
ENDBRANCH   9  10
ENDBRANCH   8   9
ENDBRANCH   7   8
ENDBRANCH   1   7
TORSDOF 7
ENDMDL
MODEL 2
REMARK VINA RESULT:    -3.936      2.934      5.112
REMARK INTER + INTRA:          -6.051
REMARK INTER:                  -5.403
REMARK INTRA:                  -0.648
REMARK UNBOUND:                -0.505
REMARK SMILES CCCCCCCCC(=O)[O-]
REMARK SMILES IDX 6 1 7 2 8 3 9 4 10 5 11 6 5 7 4 8 3 9 2 10 1 11
REMARK H PARENT
REMARK Flexibility Score: inf
ROOT
ATOM      1  C   UNL     1      11.563  30.784  27.078  1.00  0.00     0.000 C 
ENDROOT
BRANCH   1   2
ATOM      2  C   UNL     1      10.487  31.861  26.874  1.00  0.00     0.006 C 
BRANCH   2   3
ATOM      3  C   UNL     1      11.083  33.255  26.641  1.00  0.00     0.053 C 
BRANCH   3   4
ATOM      4  C   UNL     1      10.779  33.728  25.254  1.00  0.00     0.041 C 
ATOM      5  O   UNL     1      11.263  34.811  24.834  1.00  0.00    -0.550 OA
ATOM      6  O   UNL     1      10.000  32.947  24.410  1.00  0.00    -0.550 OA
ENDBRANCH   3   4
ENDBRANCH   2   3
ENDBRANCH   1   2
BRANCH   1   7
ATOM      7  C   UNL     1      12.936  31.377  27.427  1.00  0.00     0.000 C 
BRANCH   7   8
ATOM      8  C   UNL     1      13.387  30.936  28.828  1.00  0.00    -0.000 C 
BRANCH   8   9
ATOM      9  C   UNL     1      12.198  30.531  29.724  1.00  0.00    -0.000 C 
BRANCH   9  10
ATOM     10  C   UNL     1      11.794  31.616  30.737  1.00  0.00    -0.003 C 
ATOM     11  C   UNL     1      10.282  31.794  30.853  1.00  0.00     0.004 C 
ENDBRANCH   9  10
ENDBRANCH   8   9
ENDBRANCH   7   8
ENDBRANCH   1   7
TORSDOF 7
ENDMDL
MODEL 3
REMARK VINA RESULT:    -3.931     10.288     11.335
REMARK INTER + INTRA:          -6.045
REMARK INTER:                  -5.549
REMARK INTRA:                  -0.496
REMARK UNBOUND:                -0.505
REMARK SMILES CCCCCCCCC(=O)[O-]
REMARK SMILES IDX 6 1 7 2 8 3 9 4 10 5 11 6 5 7 4 8 3 9 2 10 1 11
REMARK H PARENT
REMARK Flexibility Score: inf
ROOT
ATOM      1  C   UNL     1       4.399  30.142  18.318  1.00  0.00     0.000 C 
ENDROOT
BRANCH   1   2
ATOM      2  C   UNL     1       5.685  30.224  17.483  1.00  0.00     0.006 C 
BRANCH   2   3
ATOM      3  C   UNL     1       6.926  30.517  18.337  1.00  0.00     0.053 C 
BRANCH   3   4
ATOM      4  C   UNL     1       7.629  29.244  18.692  1.00  0.00     0.041 C 
ATOM      5  O   UNL     1       7.237  28.556  19.670  1.00  0.00    -0.550 OA
ATOM      6  O   UNL     1       8.686  28.795  17.911  1.00  0.00    -0.550 OA
ENDBRANCH   3   4
ENDBRANCH   2   3
ENDBRANCH   1   2
BRANCH   1   7
ATOM      7  C   UNL     1       4.231  31.338  19.266  1.00  0.00     0.000 C 
BRANCH   7   8
ATOM      8  C   UNL     1       3.343  32.421  18.636  1.00  0.00    -0.000 C 
BRANCH   8   9
ATOM      9  C   UNL     1       4.165  33.615  18.106  1.00  0.00    -0.000 C 
BRANCH   9  10
ATOM     10  C   UNL     1       4.352  34.739  19.138  1.00  0.00    -0.003 C 
ATOM     11  C   UNL     1       5.747  34.755  19.761  1.00  0.00     0.004 C 
ENDBRANCH   9  10
ENDBRANCH   8   9
ENDBRANCH   7   8
ENDBRANCH   1   7
TORSDOF 7
ENDMDL
MODEL 4
REMARK VINA RESULT:    -3.928      2.885      5.076
REMARK INTER + INTRA:          -6.040
REMARK INTER:                  -5.383
REMARK INTRA:                  -0.657
REMARK UNBOUND:                -0.505
REMARK SMILES CCCCCCCCC(=O)[O-]
REMARK SMILES IDX 6 1 7 2 8 3 9 4 10 5 11 6 5 7 4 8 3 9 2 10 1 11
REMARK H PARENT
REMARK Flexibility Score: inf
ROOT
ATOM      1  C   UNL     1       9.877  31.526  28.403  1.00  0.00     0.000 C 
ENDROOT
BRANCH   1   2
ATOM      2  C   UNL     1      10.025  31.853  26.910  1.00  0.00     0.006 C 
BRANCH   2   3
ATOM      3  C   UNL     1      11.153  32.856  26.634  1.00  0.00     0.053 C 
BRANCH   3   4
ATOM      4  C   UNL     1      10.843  33.667  25.415  1.00  0.00     0.041 C 
ATOM      5  O   UNL     1      11.336  34.817  25.277  1.00  0.00    -0.550 OA
ATOM      6  O   UNL     1      10.047  33.133  24.409  1.00  0.00    -0.550 OA
ENDBRANCH   3   4
ENDBRANCH   2   3
ENDBRANCH   1   2
BRANCH   1   7
ATOM      7  C   UNL     1      10.473  32.614  29.309  1.00  0.00     0.000 C 
BRANCH   7   8
ATOM      8  C   UNL     1      10.841  32.042  30.687  1.00  0.00    -0.000 C 
BRANCH   8   9
ATOM      9  C   UNL     1      12.157  31.237  30.654  1.00  0.00    -0.000 C 
BRANCH   9  10
ATOM     10  C   UNL     1      13.243  31.871  29.768  1.00  0.00    -0.003 C 
ATOM     11  C   UNL     1      13.700  30.956  28.634  1.00  0.00     0.004 C 
ENDBRANCH   9  10
ENDBRANCH   8   9
ENDBRANCH   7   8
ENDBRANCH   1   7
TORSDOF 7
ENDMDL
MODEL 5
REMARK VINA RESULT:    -3.879      3.235      5.202
REMARK INTER + INTRA:          -5.972
REMARK INTER:                  -5.259
REMARK INTRA:                  -0.712
REMARK UNBOUND:                -0.505
REMARK SMILES CCCCCCCCC(=O)[O-]
REMARK SMILES IDX 6 1 7 2 8 3 9 4 10 5 11 6 5 7 4 8 3 9 2 10 1 11
REMARK H PARENT
REMARK Flexibility Score: inf
ROOT
ATOM      1  C   UNL     1      10.373  32.861  27.968  1.00  0.00     0.000 C 
ENDROOT
BRANCH   1   2
ATOM      2  C   UNL     1      11.301  33.058  26.761  1.00  0.00     0.006 C 
BRANCH   2   3
ATOM      3  C   UNL     1      11.010  32.070  25.624  1.00  0.00     0.053 C 
BRANCH   3   4
ATOM      4  C   UNL     1      10.602  32.804  24.385  1.00  0.00     0.041 C 
ATOM      5  O   UNL     1       9.574  33.531  24.388  1.00  0.00    -0.550 OA
ATOM      6  O   UNL     1      11.387  32.724  23.241  1.00  0.00    -0.550 OA
ENDBRANCH   3   4
ENDBRANCH   2   3
ENDBRANCH   1   2
BRANCH   1   7
ATOM      7  C   UNL     1       9.893  31.410  28.116  1.00  0.00     0.000 C 
BRANCH   7   8
ATOM      8  C   UNL     1      10.140  30.890  29.540  1.00  0.00    -0.000 C 
BRANCH   8   9
ATOM      9  C   UNL     1      11.624  30.992  29.950  1.00  0.00    -0.000 C 
BRANCH   9  10
ATOM     10  C   UNL     1      12.570  30.191  29.040  1.00  0.00    -0.003 C 
ATOM     11  C   UNL     1      13.795  30.988  28.599  1.00  0.00     0.004 C 
ENDBRANCH   9  10
ENDBRANCH   8   9
ENDBRANCH   7   8
ENDBRANCH   1   7
TORSDOF 7
ENDMDL
MODEL 6
REMARK VINA RESULT:    -3.849      1.219      1.818
REMARK INTER + INTRA:          -5.930
REMARK INTER:                  -5.282
REMARK INTRA:                  -0.647
REMARK UNBOUND:                -0.505
REMARK SMILES CCCCCCCCC(=O)[O-]
REMARK SMILES IDX 6 1 7 2 8 3 9 4 10 5 11 6 5 7 4 8 3 9 2 10 1 11
REMARK H PARENT
REMARK Flexibility Score: inf
ROOT
ATOM      1  C   UNL     1      11.308  30.625  26.151  1.00  0.00     0.000 C 
ENDROOT
BRANCH   1   2
ATOM      2  C   UNL     1      11.384  31.486  27.420  1.00  0.00     0.006 C 
BRANCH   2   3
ATOM      3  C   UNL     1      12.826  31.748  27.871  1.00  0.00     0.053 C 
BRANCH   3   4
ATOM      4  C   UNL     1      12.934  31.645  29.361  1.00  0.00     0.041 C 
ATOM      5  O   UNL     1      11.922  31.354  30.051  1.00  0.00    -0.550 OA
ATOM      6  O   UNL     1      14.164  31.822  29.981  1.00  0.00    -0.550 OA
ENDBRANCH   3   4
ENDBRANCH   2   3
ENDBRANCH   1   2
BRANCH   1   7
ATOM      7  C   UNL     1      10.036  30.890  25.331  1.00  0.00     0.000 C 
BRANCH   7   8
ATOM      8  C   UNL     1       9.482  32.295  25.613  1.00  0.00    -0.000 C 
BRANCH   8   9
ATOM      9  C   UNL     1       9.696  33.257  24.426  1.00  0.00    -0.000 C 
BRANCH   9  10
ATOM     10  C   UNL     1      11.094  33.897  24.399  1.00  0.00    -0.003 C 
ATOM     11  C   UNL     1      11.416  34.689  25.665  1.00  0.00     0.004 C 
ENDBRANCH   9  10
ENDBRANCH   8   9
ENDBRANCH   7   8
ENDBRANCH   1   7
TORSDOF 7
ENDMDL
MODEL 7
REMARK VINA RESULT:    -3.798     10.112     11.699
REMARK INTER + INTRA:          -5.857
REMARK INTER:                  -5.247
REMARK INTRA:                  -0.610
REMARK UNBOUND:                -0.505
REMARK SMILES CCCCCCCCC(=O)[O-]
REMARK SMILES IDX 6 1 7 2 8 3 9 4 10 5 11 6 5 7 4 8 3 9 2 10 1 11
REMARK H PARENT
REMARK Flexibility Score: inf
ROOT
ATOM      1  C   UNL     1       2.600  30.351  18.043  1.00  0.00     0.000 C 
ENDROOT
BRANCH   1   2
ATOM      2  C   UNL     1       3.736  29.705  18.850  1.00  0.00     0.006 C 
BRANCH   2   3
ATOM      3  C   UNL     1       4.004  30.428  20.176  1.00  0.00     0.053 C 
BRANCH   3   4
ATOM      4  C   UNL     1       4.306  29.440  21.258  1.00  0.00     0.041 C 
ATOM      5  O   UNL     1       5.447  28.914  21.335  1.00  0.00    -0.550 OA
ATOM      6  O   UNL     1       3.341  29.136  22.210  1.00  0.00    -0.550 OA
ENDBRANCH   3   4
ENDBRANCH   2   3
ENDBRANCH   1   2
BRANCH   1   7
ATOM      7  C   UNL     1       3.040  31.635  17.325  1.00  0.00     0.000 C 
BRANCH   7   8
ATOM      8  C   UNL     1       2.078  32.794  17.628  1.00  0.00    -0.000 C 
BRANCH   8   9
ATOM      9  C   UNL     1       2.746  33.904  18.466  1.00  0.00    -0.000 C 
BRANCH   9  10
ATOM     10  C   UNL     1       4.280  33.912  18.366  1.00  0.00    -0.003 C 
ATOM     11  C   UNL     1       4.966  34.193  19.701  1.00  0.00     0.004 C 
ENDBRANCH   9  10
ENDBRANCH   8   9
ENDBRANCH   7   8
ENDBRANCH   1   7
TORSDOF 7
ENDMDL
MODEL 8
REMARK VINA RESULT:    -3.708      1.888      2.426
REMARK INTER + INTRA:          -5.730
REMARK INTER:                  -5.094
REMARK INTRA:                  -0.636
REMARK UNBOUND:                -0.505
REMARK SMILES CCCCCCCCC(=O)[O-]
REMARK SMILES IDX 6 1 7 2 8 3 9 4 10 5 11 6 5 7 4 8 3 9 2 10 1 11
REMARK H PARENT
REMARK Flexibility Score: inf
ROOT
ATOM      1  C   UNL     1      10.060  29.588  27.592  1.00  0.00     0.000 C 
ENDROOT
BRANCH   1   2
ATOM      2  C   UNL     1      11.321  29.865  28.423  1.00  0.00     0.006 C 
BRANCH   2   3
ATOM      3  C   UNL     1      11.816  31.310  28.282  1.00  0.00     0.053 C 
BRANCH   3   4
ATOM      4  C   UNL     1      13.244  31.418  28.717  1.00  0.00     0.041 C 
ATOM      5  O   UNL     1      14.170  31.050  27.947  1.00  0.00    -0.550 OA
ATOM      6  O   UNL     1      13.554  31.969  29.953  1.00  0.00    -0.550 OA
ENDBRANCH   3   4
ENDBRANCH   2   3
ENDBRANCH   1   2
BRANCH   1   7
ATOM      7  C   UNL     1       9.218  30.851  27.354  1.00  0.00     0.000 C 
BRANCH   7   8
ATOM      8  C   UNL     1       8.922  31.042  25.859  1.00  0.00    -0.000 C 
BRANCH   8   9
ATOM      9  C   UNL     1       9.522  32.353  25.308  1.00  0.00    -0.000 C 
BRANCH   9  10
ATOM     10  C   UNL     1      10.793  32.144  24.469  1.00  0.00    -0.003 C 
ATOM     11  C   UNL     1      11.068  30.675  24.155  1.00  0.00     0.004 C 
ENDBRANCH   9  10
ENDBRANCH   8   9
ENDBRANCH   7   8
ENDBRANCH   1   7
TORSDOF 7
ENDMDL
MODEL 9
REMARK VINA RESULT:    -3.705      3.279      5.199
REMARK INTER + INTRA:          -5.726
REMARK INTER:                  -4.961
REMARK INTRA:                  -0.765
REMARK UNBOUND:                -0.505
REMARK SMILES CCCCCCCCC(=O)[O-]
REMARK SMILES IDX 6 1 7 2 8 3 9 4 10 5 11 6 5 7 4 8 3 9 2 10 1 11
REMARK H PARENT
REMARK Flexibility Score: inf
ROOT
ATOM      1  C   UNL     1      11.126  33.071  26.151  1.00  0.00     0.000 C 
ENDROOT
BRANCH   1   2
ATOM      2  C   UNL     1       9.938  32.641  25.277  1.00  0.00     0.006 C 
BRANCH   2   3
ATOM      3  C   UNL     1      10.087  31.211  24.740  1.00  0.00     0.053 C 
BRANCH   3   4
ATOM      4  C   UNL     1      11.409  31.044  24.060  1.00  0.00     0.041 C 
ATOM      5  O   UNL     1      12.265  30.246  24.525  1.00  0.00    -0.550 OA
ATOM      6  O   UNL     1      11.678  31.734  22.885  1.00  0.00    -0.550 OA
ENDBRANCH   3   4
ENDBRANCH   2   3
ENDBRANCH   1   2
BRANCH   1   7
ATOM      7  C   UNL     1      10.944  32.690  27.627  1.00  0.00     0.000 C 
BRANCH   7   8
ATOM      8  C   UNL     1      12.035  31.708  28.081  1.00  0.00    -0.000 C 
BRANCH   8   9
ATOM      9  C   UNL     1      11.448  30.472  28.795  1.00  0.00    -0.000 C 
BRANCH   9  10
ATOM     10  C   UNL     1      10.730  29.498  27.846  1.00  0.00    -0.003 C 
ATOM     11  C   UNL     1       9.217  29.469  28.051  1.00  0.00     0.004 C 
ENDBRANCH   9  10
ENDBRANCH   8   9
ENDBRANCH   7   8
ENDBRANCH   1   7
TORSDOF 7
ENDMDL
