MODEL 1
REMARK VINA RESULT:    -5.548      0.000      0.000
REMARK INTER + INTRA:          -6.411
REMARK INTER:                  -6.359
REMARK INTRA:                  -0.052
REMARK UNBOUND:                -0.052
REMARK SMILES O=C([O-])c1cc(O)c(O)c(O)c1
REMARK SMILES IDX 4 1 5 2 12 3 6 4 10 5 8 6 2 7 1 8 3 9 7 10 11 12 9 14
REMARK H PARENT 7 11 11 13 9 15
REMARK Flexibility Score: inf
ROOT
ATOM      1  C   UNL     1      -9.508 -19.846  -6.443  1.00  0.00     0.005 A 
ATOM      2  C   UNL     1     -10.269 -18.865  -7.095  1.00  0.00     0.060 A 
ATOM      3  C   UNL     1     -10.140 -20.701  -5.527  1.00  0.00     0.060 A 
ATOM      4  C   UNL     1     -11.640 -18.730  -6.845  1.00  0.00     0.162 A 
ATOM      5  C   UNL     1     -11.508 -20.580  -5.265  1.00  0.00     0.162 A 
ATOM      6  C   UNL     1     -12.271 -19.596  -5.920  1.00  0.00     0.200 A 
ENDROOT
BRANCH   1   7
ATOM      7  C   UNL     1      -8.059 -19.975  -6.720  1.00  0.00     0.072 C 
ATOM      8  O   UNL     1      -7.436 -21.020  -6.396  1.00  0.00    -0.545 OA
ATOM      9  O   UNL     1      -7.366 -18.943  -7.342  1.00  0.00    -0.545 OA
ENDBRANCH   1   7
BRANCH   4  10
ATOM     10  O   UNL     1     -12.329 -17.729  -7.534  1.00  0.00    -0.504 OA
ATOM     11  H   UNL     1     -11.979 -16.792  -7.671  1.00  0.00     0.293 HD
ENDBRANCH   4  10
BRANCH   5  12
ATOM     12  O   UNL     1     -12.093 -21.452  -4.347  1.00  0.00    -0.504 OA
ATOM     13  H   UNL     1     -12.174 -21.227  -3.363  1.00  0.00     0.293 HD
ENDBRANCH   5  12
BRANCH   6  14
ATOM     14  O   UNL     1     -13.635 -19.509  -5.629  1.00  0.00    -0.502 OA
ATOM     15  H   UNL     1     -14.369 -19.769  -6.270  1.00  0.00     0.293 HD
ENDBRANCH   6  14
TORSDOF 4
ENDMDL
MODEL 2
REMARK VINA RESULT:    -5.529      0.056      2.445
REMARK INTER + INTRA:          -6.390
REMARK INTER:                  -6.338
REMARK INTRA:                  -0.052
REMARK UNBOUND:                -0.052
REMARK SMILES O=C([O-])c1cc(O)c(O)c(O)c1
REMARK SMILES IDX 4 1 5 2 12 3 6 4 10 5 8 6 2 7 1 8 3 9 7 10 11 12 9 14
REMARK H PARENT 7 11 11 13 9 15
REMARK Flexibility Score: inf
ROOT
ATOM      1  C   UNL     1      -9.493 -19.837  -6.456  1.00  0.00     0.005 A 
ATOM      2  C   UNL     1     -10.120 -20.695  -5.540  1.00  0.00     0.060 A 
ATOM      3  C   UNL     1     -10.261 -18.861  -7.110  1.00  0.00     0.060 A 
ATOM      4  C   UNL     1     -11.490 -20.588  -5.272  1.00  0.00     0.162 A 
ATOM      5  C   UNL     1     -11.630 -18.740  -6.854  1.00  0.00     0.162 A 
ATOM      6  C   UNL     1     -12.258 -19.600  -5.935  1.00  0.00     0.200 A 
ENDROOT
BRANCH   1   7
ATOM      7  C   UNL     1      -8.044 -19.964  -6.728  1.00  0.00     0.072 C 
ATOM      8  O   UNL     1      -7.438 -21.042  -6.486  1.00  0.00    -0.545 OA
ATOM      9  O   UNL     1      -7.329 -18.895  -7.256  1.00  0.00    -0.545 OA
ENDBRANCH   1   7
BRANCH   4  10
ATOM     10  O   UNL     1     -12.041 -21.478  -4.348  1.00  0.00    -0.504 OA
ATOM     11  H   UNL     1     -13.032 -21.595  -4.194  1.00  0.00     0.293 HD
ENDBRANCH   4  10
BRANCH   5  12
ATOM     12  O   UNL     1     -12.351 -17.754  -7.527  1.00  0.00    -0.504 OA
ATOM     13  H   UNL     1     -11.923 -17.140  -8.209  1.00  0.00     0.293 HD
ENDBRANCH   5  12
BRANCH   6  14
ATOM     14  O   UNL     1     -13.628 -19.445  -5.709  1.00  0.00    -0.502 OA
ATOM     15  H   UNL     1     -14.136 -18.589  -5.869  1.00  0.00     0.293 HD
ENDBRANCH   6  14
TORSDOF 4
ENDMDL
MODEL 3
REMARK VINA RESULT:    -5.338     14.023     14.470
REMARK INTER + INTRA:          -6.171
REMARK INTER:                  -6.118
REMARK INTRA:                  -0.053
REMARK UNBOUND:                -0.052
REMARK SMILES O=C([O-])c1cc(O)c(O)c(O)c1
REMARK SMILES IDX 4 1 5 2 12 3 6 4 10 5 8 6 2 7 1 8 3 9 7 10 11 12 9 14
REMARK H PARENT 7 11 11 13 9 15
REMARK Flexibility Score: inf
ROOT
ATOM      1  C   UNL     1     -15.044 -10.264 -15.957  1.00  0.00     0.005 A 
ATOM      2  C   UNL     1     -15.406  -9.738 -14.708  1.00  0.00     0.060 A 
ATOM      3  C   UNL     1     -16.012 -10.940 -16.716  1.00  0.00     0.060 A 
ATOM      4  C   UNL     1     -16.710  -9.877 -14.216  1.00  0.00     0.162 A 
ATOM      5  C   UNL     1     -17.318 -11.088 -16.241  1.00  0.00     0.162 A 
ATOM      6  C   UNL     1     -17.680 -10.559 -14.988  1.00  0.00     0.200 A 
ENDROOT
BRANCH   1   7
ATOM      7  C   UNL     1     -13.662 -10.108 -16.462  1.00  0.00     0.072 C 
ATOM      8  O   UNL     1     -13.343 -10.540 -17.601  1.00  0.00    -0.545 OA
ATOM      9  O   UNL     1     -12.694  -9.481 -15.685  1.00  0.00    -0.545 OA
ENDBRANCH   1   7
BRANCH   4  10
ATOM     10  O   UNL     1     -16.992  -9.326 -12.964  1.00  0.00    -0.504 OA
ATOM     11  H   UNL     1     -16.740  -9.755 -12.086  1.00  0.00     0.293 HD
ENDBRANCH   4  10
BRANCH   5  12
ATOM     12  O   UNL     1     -18.245 -11.767 -17.031  1.00  0.00    -0.504 OA
ATOM     13  H   UNL     1     -18.854 -12.484 -16.656  1.00  0.00     0.293 HD
ENDBRANCH   5  12
BRANCH   6  14
ATOM     14  O   UNL     1     -18.996 -10.730 -14.550  1.00  0.00    -0.502 OA
ATOM     15  H   UNL     1     -19.773 -10.165 -14.855  1.00  0.00     0.293 HD
ENDBRANCH   6  14
TORSDOF 4
ENDMDL
MODEL 4
REMARK VINA RESULT:    -5.309     14.259     14.537
REMARK INTER + INTRA:          -6.137
REMARK INTER:                  -6.084
REMARK INTRA:                  -0.052
REMARK UNBOUND:                -0.052
REMARK SMILES O=C([O-])c1cc(O)c(O)c(O)c1
REMARK SMILES IDX 4 1 5 2 12 3 6 4 10 5 8 6 2 7 1 8 3 9 7 10 11 12 9 14
REMARK H PARENT 7 11 11 13 9 15
REMARK Flexibility Score: inf
ROOT
ATOM      1  C   UNL     1     -15.029 -10.139 -16.028  1.00  0.00     0.005 A 
ATOM      2  C   UNL     1     -15.961 -10.887 -16.762  1.00  0.00     0.060 A 
ATOM      3  C   UNL     1     -15.420  -9.582 -14.800  1.00  0.00     0.060 A 
ATOM      4  C   UNL     1     -17.264 -11.084 -16.288  1.00  0.00     0.162 A 
ATOM      5  C   UNL     1     -16.716  -9.768 -14.312  1.00  0.00     0.162 A 
ATOM      6  C   UNL     1     -17.650 -10.519 -15.049  1.00  0.00     0.200 A 
ENDROOT
BRANCH   1   7
ATOM      7  C   UNL     1     -13.656  -9.940 -16.543  1.00  0.00     0.072 C 
ATOM      8  O   UNL     1     -13.233 -10.619 -17.516  1.00  0.00    -0.545 OA
ATOM      9  O   UNL     1     -12.813  -9.000 -15.962  1.00  0.00    -0.545 OA
ENDBRANCH   1   7
BRANCH   4  10
ATOM     10  O   UNL     1     -18.133 -11.840 -17.077  1.00  0.00    -0.504 OA
ATOM     11  H   UNL     1     -19.128 -11.681 -17.137  1.00  0.00     0.293 HD
ENDBRANCH   4  10
BRANCH   5  12
ATOM     12  O   UNL     1     -17.059  -9.196 -13.087  1.00  0.00    -0.504 OA
ATOM     13  H   UNL     1     -16.716  -9.558 -12.205  1.00  0.00     0.293 HD
ENDBRANCH   5  12
BRANCH   6  14
ATOM     14  O   UNL     1     -18.935 -10.681 -14.525  1.00  0.00    -0.502 OA
ATOM     15  H   UNL     1     -19.165 -11.307 -13.769  1.00  0.00     0.293 HD
ENDBRANCH   6  14
TORSDOF 4
ENDMDL
MODEL 5
REMARK VINA RESULT:    -5.263      2.261      4.492
REMARK INTER + INTRA:          -6.085
REMARK INTER:                  -6.033
REMARK INTRA:                  -0.052
REMARK UNBOUND:                -0.052
REMARK SMILES O=C([O-])c1cc(O)c(O)c(O)c1
REMARK SMILES IDX 4 1 5 2 12 3 6 4 10 5 8 6 2 7 1 8 3 9 7 10 11 12 9 14
REMARK H PARENT 7 11 11 13 9 15
REMARK Flexibility Score: inf
ROOT
ATOM      1  C   UNL     1     -13.248 -20.388  -7.460  1.00  0.00     0.005 A 
ATOM      2  C   UNL     1     -12.052 -20.074  -8.122  1.00  0.00     0.060 A 
ATOM      3  C   UNL     1     -13.205 -20.717  -6.096  1.00  0.00     0.060 A 
ATOM      4  C   UNL     1     -10.827 -20.085  -7.443  1.00  0.00     0.162 A 
ATOM      5  C   UNL     1     -11.991 -20.733  -5.403  1.00  0.00     0.162 A 
ATOM      6  C   UNL     1     -10.792 -20.417  -6.068  1.00  0.00     0.200 A 
ENDROOT
BRANCH   1   7
ATOM      7  C   UNL     1     -14.534 -20.373  -8.192  1.00  0.00     0.072 C 
ATOM      8  O   UNL     1     -14.558 -20.478  -9.447  1.00  0.00    -0.545 OA
ATOM      9  O   UNL     1     -15.736 -20.243  -7.505  1.00  0.00    -0.545 OA
ENDBRANCH   1   7
BRANCH   4  10
ATOM     10  O   UNL     1      -9.680 -19.761  -8.172  1.00  0.00    -0.504 OA
ATOM     11  H   UNL     1      -9.490 -18.845  -8.552  1.00  0.00     0.293 HD
ENDBRANCH   4  10
BRANCH   5  12
ATOM     12  O   UNL     1     -11.998 -21.065  -4.049  1.00  0.00    -0.504 OA
ATOM     13  H   UNL     1     -11.230 -21.558  -3.609  1.00  0.00     0.293 HD
ENDBRANCH   5  12
BRANCH   6  14
ATOM     14  O   UNL     1      -9.600 -20.444  -5.338  1.00  0.00    -0.502 OA
ATOM     15  H   UNL     1      -9.497 -20.884  -4.436  1.00  0.00     0.293 HD
ENDBRANCH   6  14
TORSDOF 4
ENDMDL
MODEL 6
REMARK VINA RESULT:    -5.240      2.246      4.940
REMARK INTER + INTRA:          -6.059
REMARK INTER:                  -6.007
REMARK INTRA:                  -0.052
REMARK UNBOUND:                -0.052
REMARK SMILES O=C([O-])c1cc(O)c(O)c(O)c1
REMARK SMILES IDX 4 1 5 2 12 3 6 4 10 5 8 6 2 7 1 8 3 9 7 10 11 12 9 14
REMARK H PARENT 7 11 11 13 9 15
REMARK Flexibility Score: inf
ROOT
ATOM      1  C   UNL     1     -13.225 -20.386  -7.472  1.00  0.00     0.005 A 
ATOM      2  C   UNL     1     -13.193 -20.716  -6.109  1.00  0.00     0.060 A 
ATOM      3  C   UNL     1     -12.023 -20.067  -8.124  1.00  0.00     0.060 A 
ATOM      4  C   UNL     1     -11.986 -20.733  -5.399  1.00  0.00     0.162 A 
ATOM      5  C   UNL     1     -10.810 -20.079  -7.430  1.00  0.00     0.162 A 
ATOM      6  C   UNL     1     -10.778 -20.411  -6.063  1.00  0.00     0.200 A 
ENDROOT
BRANCH   1   7
ATOM      7  C   UNL     1     -14.509 -20.373  -8.208  1.00  0.00     0.072 C 
ATOM      8  O   UNL     1     -14.530 -20.487  -9.462  1.00  0.00    -0.545 OA
ATOM      9  O   UNL     1     -15.712 -20.237  -7.525  1.00  0.00    -0.545 OA
ENDBRANCH   1   7
BRANCH   4  10
ATOM     10  O   UNL     1     -12.036 -21.071  -4.045  1.00  0.00    -0.504 OA
ATOM     11  H   UNL     1     -11.672 -20.493  -3.302  1.00  0.00     0.293 HD
ENDBRANCH   4  10
BRANCH   5  12
ATOM     12  O   UNL     1      -9.642 -19.756  -8.120  1.00  0.00    -0.504 OA
ATOM     13  H   UNL     1      -8.953 -20.454  -8.375  1.00  0.00     0.293 HD
ENDBRANCH   5  12
BRANCH   6  14
ATOM     14  O   UNL     1      -9.545 -20.410  -5.407  1.00  0.00    -0.502 OA
ATOM     15  H   UNL     1      -9.305 -19.787  -4.651  1.00  0.00     0.293 HD
ENDBRANCH   6  14
TORSDOF 4
ENDMDL
MODEL 7
REMARK VINA RESULT:    -5.202      2.132      2.418
REMARK INTER + INTRA:          -6.014
REMARK INTER:                  -5.968
REMARK INTRA:                  -0.046
REMARK UNBOUND:                -0.052
REMARK SMILES O=C([O-])c1cc(O)c(O)c(O)c1
REMARK SMILES IDX 4 1 5 2 12 3 6 4 10 5 8 6 2 7 1 8 3 9 7 10 11 12 9 14
REMARK H PARENT 7 11 11 13 9 15
REMARK Flexibility Score: inf
ROOT
ATOM      1  C   UNL     1     -11.086 -19.998  -7.006  1.00  0.00     0.005 A 
ATOM      2  C   UNL     1     -11.582 -20.418  -8.248  1.00  0.00     0.060 A 
ATOM      3  C   UNL     1     -11.963 -19.921  -5.912  1.00  0.00     0.060 A 
ATOM      4  C   UNL     1     -12.931 -20.760  -8.408  1.00  0.00     0.162 A 
ATOM      5  C   UNL     1     -13.312 -20.258  -6.054  1.00  0.00     0.162 A 
ATOM      6  C   UNL     1     -13.809 -20.681  -7.301  1.00  0.00     0.200 A 
ENDROOT
BRANCH   1   7
ATOM      7  C   UNL     1      -9.657 -19.640  -6.854  1.00  0.00     0.072 C 
ATOM      8  O   UNL     1      -8.905 -20.312  -6.100  1.00  0.00    -0.545 OA
ATOM      9  O   UNL     1      -9.125 -18.557  -7.543  1.00  0.00    -0.545 OA
ENDBRANCH   1   7
BRANCH   4  10
ATOM     10  O   UNL     1     -13.350 -21.169  -9.676  1.00  0.00    -0.504 OA
ATOM     11  H   UNL     1     -13.961 -21.954  -9.846  1.00  0.00     0.293 HD
ENDBRANCH   4  10
BRANCH   5  12
ATOM     12  O   UNL     1     -14.145 -20.167  -4.940  1.00  0.00    -0.504 OA
ATOM     13  H   UNL     1     -14.601 -19.302  -4.674  1.00  0.00     0.293 HD
ENDBRANCH   5  12
BRANCH   6  14
ATOM     14  O   UNL     1     -15.164 -21.008  -7.400  1.00  0.00    -0.502 OA
ATOM     15  H   UNL     1     -15.918 -20.349  -7.273  1.00  0.00     0.293 HD
ENDBRANCH   6  14
TORSDOF 4
ENDMDL
MODEL 8
REMARK VINA RESULT:    -5.191      3.278      4.256
REMARK INTER + INTRA:          -6.002
REMARK INTER:                  -5.954
REMARK INTRA:                  -0.048
REMARK UNBOUND:                -0.052
REMARK SMILES O=C([O-])c1cc(O)c(O)c(O)c1
REMARK SMILES IDX 4 1 5 2 12 3 6 4 10 5 8 6 2 7 1 8 3 9 7 10 11 12 9 14
REMARK H PARENT 7 11 11 13 9 15
REMARK Flexibility Score: inf
ROOT
ATOM      1  C   UNL     1     -12.321 -21.110  -8.983  1.00  0.00     0.005 A 
ATOM      2  C   UNL     1     -13.549 -20.919  -8.332  1.00  0.00     0.060 A 
ATOM      3  C   UNL     1     -11.190 -20.420  -8.520  1.00  0.00     0.060 A 
ATOM      4  C   UNL     1     -13.657 -20.056  -7.235  1.00  0.00     0.162 A 
ATOM      5  C   UNL     1     -11.280 -19.554  -7.426  1.00  0.00     0.162 A 
ATOM      6  C   UNL     1     -12.512 -19.364  -6.773  1.00  0.00     0.200 A 
ENDROOT
BRANCH   1   7
ATOM      7  C   UNL     1     -12.224 -22.026 -10.142  1.00  0.00     0.072 C 
ATOM      8  O   UNL     1     -11.686 -21.646 -11.216  1.00  0.00    -0.545 OA
ATOM      9  O   UNL     1     -12.724 -23.321 -10.061  1.00  0.00    -0.545 OA
ENDBRANCH   1   7
BRANCH   4  10
ATOM     10  O   UNL     1     -14.914 -19.919  -6.641  1.00  0.00    -0.504 OA
ATOM     11  H   UNL     1     -15.761 -20.329  -7.005  1.00  0.00     0.293 HD
ENDBRANCH   4  10
BRANCH   5  12
ATOM     12  O   UNL     1     -10.130 -18.890  -7.002  1.00  0.00    -0.504 OA
ATOM     13  H   UNL     1     -10.057 -17.880  -7.000  1.00  0.00     0.293 HD
ENDBRANCH   5  12
BRANCH   6  14
ATOM     14  O   UNL     1     -12.559 -18.489  -5.684  1.00  0.00    -0.502 OA
ATOM     15  H   UNL     1     -13.344 -18.406  -5.056  1.00  0.00     0.293 HD
ENDBRANCH   6  14
TORSDOF 4
ENDMDL
MODEL 9
REMARK VINA RESULT:    -5.170      2.088      3.002
REMARK INTER + INTRA:          -5.978
REMARK INTER:                  -5.932
REMARK INTRA:                  -0.046
REMARK UNBOUND:                -0.052
REMARK SMILES O=C([O-])c1cc(O)c(O)c(O)c1
REMARK SMILES IDX 4 1 5 2 12 3 6 4 10 5 8 6 2 7 1 8 3 9 7 10 11 12 9 14
REMARK H PARENT 7 11 11 13 9 15
REMARK Flexibility Score: inf
ROOT
ATOM      1  C   UNL     1     -10.880 -20.058  -7.005  1.00  0.00     0.005 A 
ATOM      2  C   UNL     1     -11.735 -20.036  -5.893  1.00  0.00     0.060 A 
ATOM      3  C   UNL     1     -11.395 -20.448  -8.251  1.00  0.00     0.060 A 
ATOM      4  C   UNL     1     -13.084 -20.393  -6.012  1.00  0.00     0.162 A 
ATOM      5  C   UNL     1     -12.738 -20.807  -8.388  1.00  0.00     0.162 A 
ATOM      6  C   UNL     1     -13.596 -20.783  -7.273  1.00  0.00     0.200 A 
ENDROOT
BRANCH   1   7
ATOM      7  C   UNL     1      -9.457 -19.679  -6.861  1.00  0.00     0.072 C 
ATOM      8  O   UNL     1      -9.005 -18.654  -7.439  1.00  0.00    -0.545 OA
ATOM      9  O   UNL     1      -8.597 -20.447  -6.084  1.00  0.00    -0.545 OA
ENDBRANCH   1   7
BRANCH   4  10
ATOM     10  O   UNL     1     -13.871 -20.345  -4.859  1.00  0.00    -0.504 OA
ATOM     11  H   UNL     1     -13.735 -20.941  -4.055  1.00  0.00     0.293 HD
ENDBRANCH   4  10
BRANCH   5  12
ATOM     12  O   UNL     1     -13.205 -21.186  -9.647  1.00  0.00    -0.504 OA
ATOM     13  H   UNL     1     -12.924 -20.708 -10.495  1.00  0.00     0.293 HD
ENDBRANCH   5  12
BRANCH   6  14
ATOM     14  O   UNL     1     -14.932 -21.150  -7.453  1.00  0.00    -0.502 OA
ATOM     15  H   UNL     1     -15.685 -20.868  -6.844  1.00  0.00     0.293 HD
ENDBRANCH   6  14
TORSDOF 4
ENDMDL
