MODEL 1
REMARK VINA RESULT:    -5.683      0.000      0.000
REMARK INTER + INTRA:          -6.181
REMARK INTER:                  -6.181
REMARK INTRA:                   0.000
REMARK UNBOUND:                 0.000
REMARK SMILES Cc1cc(O)c2c(c1)C(=O)c1cc(O)cc(O)c1C2=O
REMARK SMILES IDX 1 1 2 2 8 3 7 4 6 5 4 6 3 7 19 8 20 9 18 10 11 11 9 12 10 13
REMARK SMILES IDX 12 14 13 15 15 16 16 17 5 18 17 20 14 22
REMARK H PARENT 5 19 17 21 14 23
REMARK Flexibility Score: inf
ROOT
ATOM      1  C   UNL     1      10.875  45.502  36.617  1.00  0.00     0.044 C 
ATOM      2  C   UNL     1      11.601  45.077  35.374  1.00  0.00    -0.047 A 
ATOM      3  C   UNL     1      12.745  45.766  34.956  1.00  0.00     0.016 A 
ATOM      4  C   UNL     1      13.456  45.349  33.818  1.00  0.00     0.038 A 
ATOM      5  C   UNL     1      13.033  44.208  33.102  1.00  0.00     0.076 A 
ATOM      6  C   UNL     1      11.847  43.539  33.504  1.00  0.00     0.127 A 
ATOM      7  C   UNL     1      11.167  43.961  34.650  1.00  0.00     0.050 A 
ATOM      8  C   UNL     1      13.894  43.713  31.996  1.00  0.00     0.201 C 
ATOM      9  O   UNL     1      13.917  42.484  31.721  1.00  0.00    -0.288 OA
ATOM     10  C   UNL     1      14.862  44.634  31.347  1.00  0.00     0.076 A 
ATOM     11  C   UNL     1      15.283  45.775  32.066  1.00  0.00     0.041 A 
ATOM     12  C   UNL     1      14.649  46.105  33.364  1.00  0.00     0.194 C 
ATOM     13  O   UNL     1      15.107  47.046  34.069  1.00  0.00    -0.289 OA
ATOM     14  C   UNL     1      16.299  46.594  31.545  1.00  0.00     0.059 A 
ATOM     15  C   UNL     1      16.887  46.298  30.312  1.00  0.00     0.120 A 
ATOM     16  C   UNL     1      16.445  45.196  29.581  1.00  0.00     0.093 A 
ATOM     17  C   UNL     1      15.422  44.376  30.068  1.00  0.00     0.131 A 
ENDROOT
BRANCH   6  18
ATOM     18  O   UNL     1      11.295  42.481  32.780  1.00  0.00    -0.507 OA
ATOM     19  H   UNL     1      10.576  41.870  33.142  1.00  0.00     0.293 HD
ENDBRANCH   6  18
BRANCH  17  20
ATOM     20  O   UNL     1      14.971  43.346  29.239  1.00  0.00    -0.507 OA
ATOM     21  H   UNL     1      15.172  42.369  29.402  1.00  0.00     0.293 HD
ENDBRANCH  17  20
BRANCH  15  22
ATOM     22  O   UNL     1      17.902  47.100  29.798  1.00  0.00    -0.508 OA
ATOM     23  H   UNL     1      17.929  48.099  29.971  1.00  0.00     0.293 HD
ENDBRANCH  15  22
TORSDOF 3
ENDMDL
MODEL 2
REMARK VINA RESULT:    -5.445      4.169      7.675
REMARK INTER + INTRA:          -5.922
REMARK INTER:                  -5.922
REMARK INTRA:                   0.000
REMARK UNBOUND:                 0.000
REMARK SMILES Cc1cc(O)c2c(c1)C(=O)c1cc(O)cc(O)c1C2=O
REMARK SMILES IDX 1 1 2 2 8 3 7 4 6 5 4 6 3 7 19 8 20 9 18 10 11 11 9 12 10 13
REMARK SMILES IDX 12 14 13 15 15 16 16 17 5 18 17 20 14 22
REMARK H PARENT 5 19 17 21 14 23
REMARK Flexibility Score: inf
ROOT
ATOM      1  C   UNL     1      15.837  54.059  27.423  1.00  0.00     0.044 C 
ATOM      2  C   UNL     1      16.162  52.661  27.861  1.00  0.00    -0.047 A 
ATOM      3  C   UNL     1      15.456  52.071  28.915  1.00  0.00     0.016 A 
ATOM      4  C   UNL     1      15.723  50.748  29.304  1.00  0.00     0.038 A 
ATOM      5  C   UNL     1      16.694  49.992  28.609  1.00  0.00     0.076 A 
ATOM      6  C   UNL     1      17.438  50.610  27.570  1.00  0.00     0.127 A 
ATOM      7  C   UNL     1      17.141  51.922  27.189  1.00  0.00     0.050 A 
ATOM      8  C   UNL     1      16.843  48.554  28.953  1.00  0.00     0.201 C 
ATOM      9  O   UNL     1      17.211  47.733  28.071  1.00  0.00    -0.288 OA
ATOM     10  C   UNL     1      16.376  48.059  30.274  1.00  0.00     0.076 A 
ATOM     11  C   UNL     1      15.406  48.818  30.966  1.00  0.00     0.041 A 
ATOM     12  C   UNL     1      14.993  50.141  30.443  1.00  0.00     0.194 C 
ATOM     13  O   UNL     1      14.037  50.764  30.984  1.00  0.00    -0.289 OA
ATOM     14  C   UNL     1      14.839  48.315  32.150  1.00  0.00     0.059 A 
ATOM     15  C   UNL     1      15.240  47.076  32.657  1.00  0.00     0.120 A 
ATOM     16  C   UNL     1      16.226  46.344  31.999  1.00  0.00     0.093 A 
ATOM     17  C   UNL     1      16.820  46.831  30.830  1.00  0.00     0.131 A 
ENDROOT
BRANCH   6  18
ATOM     18  O   UNL     1      18.496  49.974  26.919  1.00  0.00    -0.507 OA
ATOM     19  H   UNL     1      18.431  49.048  26.519  1.00  0.00     0.293 HD
ENDBRANCH   6  18
BRANCH  17  20
ATOM     20  O   UNL     1      17.864  46.085  30.278  1.00  0.00    -0.507 OA
ATOM     21  H   UNL     1      18.115  46.114  29.299  1.00  0.00     0.293 HD
ENDBRANCH  17  20
BRANCH  15  22
ATOM     22  O   UNL     1      14.671  46.569  33.823  1.00  0.00    -0.508 OA
ATOM     23  H   UNL     1      14.162  45.692  33.828  1.00  0.00     0.293 HD
ENDBRANCH  15  22
TORSDOF 3
ENDMDL
MODEL 3
REMARK VINA RESULT:    -5.167      1.918      5.780
REMARK INTER + INTRA:          -5.620
REMARK INTER:                  -5.620
REMARK INTRA:                   0.000
REMARK UNBOUND:                 0.000
REMARK SMILES Cc1cc(O)c2c(c1)C(=O)c1cc(O)cc(O)c1C2=O
REMARK SMILES IDX 1 1 2 2 8 3 7 4 6 5 4 6 3 7 19 8 20 9 18 10 11 11 9 12 10 13
REMARK SMILES IDX 12 14 13 15 15 16 16 17 5 18 17 20 14 22
REMARK H PARENT 5 19 17 21 14 23
REMARK Flexibility Score: inf
ROOT
ATOM      1  C   UNL     1      17.382  49.250  28.230  1.00  0.00     0.044 C 
ATOM      2  C   UNL     1      16.864  48.073  29.005  1.00  0.00    -0.047 A 
ATOM      3  C   UNL     1      15.887  48.254  29.991  1.00  0.00     0.016 A 
ATOM      4  C   UNL     1      15.365  47.154  30.692  1.00  0.00     0.038 A 
ATOM      5  C   UNL     1      15.806  45.848  30.382  1.00  0.00     0.076 A 
ATOM      6  C   UNL     1      16.829  45.675  29.413  1.00  0.00     0.127 A 
ATOM      7  C   UNL     1      17.319  46.783  28.716  1.00  0.00     0.050 A 
ATOM      8  C   UNL     1      15.124  44.702  31.039  1.00  0.00     0.201 C 
ATOM      9  O   UNL     1      15.038  43.597  30.440  1.00  0.00    -0.288 OA
ATOM     10  C   UNL     1      14.384  44.914  32.309  1.00  0.00     0.076 A 
ATOM     11  C   UNL     1      13.945  46.222  32.616  1.00  0.00     0.041 A 
ATOM     12  C   UNL     1      14.354  47.358  31.757  1.00  0.00     0.194 C 
ATOM     13  O   UNL     1      13.862  48.504  31.950  1.00  0.00    -0.289 OA
ATOM     14  C   UNL     1      13.125  46.439  33.736  1.00  0.00     0.059 A 
ATOM     15  C   UNL     1      12.752  45.373  34.560  1.00  0.00     0.120 A 
ATOM     16  C   UNL     1      13.217  44.089  34.284  1.00  0.00     0.093 A 
ATOM     17  C   UNL     1      14.050  43.848  33.186  1.00  0.00     0.131 A 
ENDROOT
BRANCH   6  18
ATOM     18  O   UNL     1      17.405  44.433  29.138  1.00  0.00    -0.507 OA
ATOM     19  H   UNL     1      16.970  43.551  29.370  1.00  0.00     0.293 HD
ENDBRANCH   6  18
BRANCH  17  20
ATOM     20  O   UNL     1      14.550  42.554  33.026  1.00  0.00    -0.507 OA
ATOM     21  H   UNL     1      14.004  41.719  33.193  1.00  0.00     0.293 HD
ENDBRANCH  17  20
BRANCH  15  22
ATOM     22  O   UNL     1      11.929  45.583  35.664  1.00  0.00    -0.508 OA
ATOM     23  H   UNL     1      11.616  46.511  35.924  1.00  0.00     0.293 HD
ENDBRANCH  15  22
TORSDOF 3
ENDMDL
MODEL 4
REMARK VINA RESULT:    -5.091      3.251      5.150
REMARK INTER + INTRA:          -5.538
REMARK INTER:                  -5.538
REMARK INTRA:                   0.000
REMARK UNBOUND:                 0.000
REMARK SMILES Cc1cc(O)c2c(c1)C(=O)c1cc(O)cc(O)c1C2=O
REMARK SMILES IDX 1 1 2 2 8 3 7 4 6 5 4 6 3 7 19 8 20 9 18 10 11 11 9 12 10 13
REMARK SMILES IDX 12 14 13 15 15 16 16 17 5 18 17 20 14 22
REMARK H PARENT 5 19 17 21 14 23
REMARK Flexibility Score: inf
ROOT
ATOM      1  C   UNL     1      13.901  46.196  33.889  1.00  0.00     0.044 C 
ATOM      2  C   UNL     1      14.609  46.407  32.583  1.00  0.00    -0.047 A 
ATOM      3  C   UNL     1      14.912  47.702  32.146  1.00  0.00     0.016 A 
ATOM      4  C   UNL     1      15.612  47.907  30.946  1.00  0.00     0.038 A 
ATOM      5  C   UNL     1      16.041  46.799  30.182  1.00  0.00     0.076 A 
ATOM      6  C   UNL     1      15.693  45.490  30.606  1.00  0.00     0.127 A 
ATOM      7  C   UNL     1      15.012  45.310  31.814  1.00  0.00     0.050 A 
ATOM      8  C   UNL     1      16.905  47.053  29.000  1.00  0.00     0.201 C 
ATOM      9  O   UNL     1      17.752  46.191  28.645  1.00  0.00    -0.288 OA
ATOM     10  C   UNL     1      16.902  48.393  28.358  1.00  0.00     0.076 A 
ATOM     11  C   UNL     1      16.471  49.499  29.125  1.00  0.00     0.041 A 
ATOM     12  C   UNL     1      15.900  49.284  30.475  1.00  0.00     0.194 C 
ATOM     13  O   UNL     1      15.634  50.272  31.213  1.00  0.00    -0.289 OA
ATOM     14  C   UNL     1      16.584  50.799  28.602  1.00  0.00     0.059 A 
ATOM     15  C   UNL     1      17.104  51.005  27.321  1.00  0.00     0.120 A 
ATOM     16  C   UNL     1      17.492  49.913  26.547  1.00  0.00     0.093 A 
ATOM     17  C   UNL     1      17.372  48.608  27.036  1.00  0.00     0.131 A 
ENDROOT
BRANCH   6  18
ATOM     18  O   UNL     1      15.972  44.352  29.848  1.00  0.00    -0.507 OA
ATOM     19  H   UNL     1      16.184  44.376  28.860  1.00  0.00     0.293 HD
ENDBRANCH   6  18
BRANCH  17  20
ATOM     20  O   UNL     1      17.694  47.562  26.169  1.00  0.00    -0.507 OA
ATOM     21  H   UNL     1      18.219  46.744  26.450  1.00  0.00     0.293 HD
ENDBRANCH  17  20
BRANCH  15  22
ATOM     22  O   UNL     1      17.229  52.292  26.804  1.00  0.00    -0.508 OA
ATOM     23  H   UNL     1      16.498  52.710  26.239  1.00  0.00     0.293 HD
ENDBRANCH  15  22
TORSDOF 3
ENDMDL
MODEL 5
REMARK VINA RESULT:    -5.074      2.301      4.106
REMARK INTER + INTRA:          -5.519
REMARK INTER:                  -5.519
REMARK INTRA:                   0.000
REMARK UNBOUND:                 0.000
REMARK SMILES Cc1cc(O)c2c(c1)C(=O)c1cc(O)cc(O)c1C2=O
REMARK SMILES IDX 1 1 2 2 8 3 7 4 6 5 4 6 3 7 19 8 20 9 18 10 11 11 9 12 10 13
REMARK SMILES IDX 12 14 13 15 15 16 16 17 5 18 17 20 14 22
REMARK H PARENT 5 19 17 21 14 23
REMARK Flexibility Score: inf
ROOT
ATOM      1  C   UNL     1      14.184  41.765  33.163  1.00  0.00     0.044 C 
ATOM      2  C   UNL     1      14.161  43.241  32.891  1.00  0.00    -0.047 A 
ATOM      3  C   UNL     1      14.963  43.784  31.881  1.00  0.00     0.016 A 
ATOM      4  C   UNL     1      14.916  45.158  31.591  1.00  0.00     0.038 A 
ATOM      5  C   UNL     1      14.033  45.999  32.304  1.00  0.00     0.076 A 
ATOM      6  C   UNL     1      13.255  45.451  33.357  1.00  0.00     0.127 A 
ATOM      7  C   UNL     1      13.305  44.078  33.615  1.00  0.00     0.050 A 
ATOM      8  C   UNL     1      13.906  47.414  31.867  1.00  0.00     0.201 C 
ATOM      9  O   UNL     1      12.815  48.024  32.028  1.00  0.00    -0.288 OA
ATOM     10  C   UNL     1      14.994  48.043  31.076  1.00  0.00     0.076 A 
ATOM     11  C   UNL     1      15.876  47.198  30.365  1.00  0.00     0.041 A 
ATOM     12  C   UNL     1      15.793  45.730  30.540  1.00  0.00     0.194 C 
ATOM     13  O   UNL     1      16.488  44.967  29.814  1.00  0.00    -0.289 OA
ATOM     14  C   UNL     1      16.830  47.756  29.497  1.00  0.00     0.059 A 
ATOM     15  C   UNL     1      16.925  49.143  29.343  1.00  0.00     0.120 A 
ATOM     16  C   UNL     1      16.084  49.980  30.075  1.00  0.00     0.093 A 
ATOM     17  C   UNL     1      15.138  49.451  30.960  1.00  0.00     0.131 A 
ENDROOT
BRANCH   6  18
ATOM     18  O   UNL     1      12.452  46.234  34.188  1.00  0.00    -0.507 OA
ATOM     19  H   UNL     1      11.602  46.686  33.880  1.00  0.00     0.293 HD
ENDBRANCH   6  18
BRANCH  17  20
ATOM     20  O   UNL     1      14.395  50.352  31.725  1.00  0.00    -0.507 OA
ATOM     21  H   UNL     1      14.160  50.201  32.696  1.00  0.00     0.293 HD
ENDBRANCH  17  20
BRANCH  15  22
ATOM     22  O   UNL     1      17.861  49.698  28.475  1.00  0.00    -0.508 OA
ATOM     23  H   UNL     1      17.581  50.281  27.694  1.00  0.00     0.293 HD
ENDBRANCH  15  22
TORSDOF 3
ENDMDL
MODEL 6
REMARK VINA RESULT:    -5.010      1.809      5.523
REMARK INTER + INTRA:          -5.449
REMARK INTER:                  -5.449
REMARK INTRA:                   0.000
REMARK UNBOUND:                 0.000
REMARK SMILES Cc1cc(O)c2c(c1)C(=O)c1cc(O)cc(O)c1C2=O
REMARK SMILES IDX 1 1 2 2 8 3 7 4 6 5 4 6 3 7 19 8 20 9 18 10 11 11 9 12 10 13
REMARK SMILES IDX 12 14 13 15 15 16 16 17 5 18 17 20 14 22
REMARK H PARENT 5 19 17 21 14 23
REMARK Flexibility Score: inf
ROOT
ATOM      1  C   UNL     1      16.180  50.480  30.391  1.00  0.00     0.044 C 
ATOM      2  C   UNL     1      15.991  49.011  30.636  1.00  0.00    -0.047 A 
ATOM      3  C   UNL     1      14.815  48.542  31.230  1.00  0.00     0.016 A 
ATOM      4  C   UNL     1      14.610  47.165  31.424  1.00  0.00     0.038 A 
ATOM      5  C   UNL     1      15.587  46.241  30.991  1.00  0.00     0.076 A 
ATOM      6  C   UNL     1      16.798  46.725  30.431  1.00  0.00     0.127 A 
ATOM      7  C   UNL     1      16.970  48.098  30.231  1.00  0.00     0.050 A 
ATOM      8  C   UNL     1      15.269  44.791  31.079  1.00  0.00     0.201 C 
ATOM      9  O   UNL     1      15.770  43.988  30.247  1.00  0.00    -0.288 OA
ATOM     10  C   UNL     1      14.222  44.321  32.021  1.00  0.00     0.076 A 
ATOM     11  C   UNL     1      13.247  45.249  32.452  1.00  0.00     0.041 A 
ATOM     12  C   UNL     1      13.375  46.679  32.083  1.00  0.00     0.194 C 
ATOM     13  O   UNL     1      12.444  47.486  32.355  1.00  0.00    -0.289 OA
ATOM     14  C   UNL     1      12.162  44.813  33.231  1.00  0.00     0.059 A 
ATOM     15  C   UNL     1      12.047  43.468  33.597  1.00  0.00     0.120 A 
ATOM     16  C   UNL     1      13.029  42.558  33.209  1.00  0.00     0.093 A 
ATOM     17  C   UNL     1      14.129  42.971  32.449  1.00  0.00     0.131 A 
ENDROOT
BRANCH   6  18
ATOM     18  O   UNL     1      17.861  45.886  30.092  1.00  0.00    -0.507 OA
ATOM     19  H   UNL     1      18.580  45.604  30.743  1.00  0.00     0.293 HD
ENDBRANCH   6  18
BRANCH  17  20
ATOM     20  O   UNL     1      15.116  42.022  32.176  1.00  0.00    -0.507 OA
ATOM     21  H   UNL     1      15.442  41.344  32.851  1.00  0.00     0.293 HD
ENDBRANCH  17  20
BRANCH  15  22
ATOM     22  O   UNL     1      10.967  43.029  34.359  1.00  0.00    -0.508 OA
ATOM     23  H   UNL     1      10.011  43.155  34.046  1.00  0.00     0.293 HD
ENDBRANCH  15  22
TORSDOF 3
ENDMDL
MODEL 7
REMARK VINA RESULT:    -4.957      1.927      4.237
REMARK INTER + INTRA:          -5.392
REMARK INTER:                  -5.392
REMARK INTRA:                   0.000
REMARK UNBOUND:                 0.000
REMARK SMILES Cc1cc(O)c2c(c1)C(=O)c1cc(O)cc(O)c1C2=O
REMARK SMILES IDX 1 1 2 2 8 3 7 4 6 5 4 6 3 7 19 8 20 9 18 10 11 11 9 12 10 13
REMARK SMILES IDX 12 14 13 15 15 16 16 17 5 18 17 20 14 22
REMARK H PARENT 5 19 17 21 14 23
REMARK Flexibility Score: inf
ROOT
ATOM      1  C   UNL     1      12.755  45.470  34.990  1.00  0.00     0.044 C 
ATOM      2  C   UNL     1      13.635  45.464  33.774  1.00  0.00    -0.047 A 
ATOM      3  C   UNL     1      13.793  44.292  33.026  1.00  0.00     0.016 A 
ATOM      4  C   UNL     1      14.580  44.287  31.862  1.00  0.00     0.038 A 
ATOM      5  C   UNL     1      15.197  45.480  31.423  1.00  0.00     0.076 A 
ATOM      6  C   UNL     1      15.069  46.655  32.211  1.00  0.00     0.127 A 
ATOM      7  C   UNL     1      14.266  46.639  33.355  1.00  0.00     0.050 A 
ATOM      8  C   UNL     1      15.896  45.469  30.111  1.00  0.00     0.201 C 
ATOM      9  O   UNL     1      15.949  46.520  29.420  1.00  0.00    -0.288 OA
ATOM     10  C   UNL     1      16.361  44.181  29.535  1.00  0.00     0.076 A 
ATOM     11  C   UNL     1      15.743  42.990  29.977  1.00  0.00     0.041 A 
ATOM     12  C   UNL     1      14.768  43.034  31.092  1.00  0.00     0.194 C 
ATOM     13  O   UNL     1      14.119  41.997  31.404  1.00  0.00    -0.289 OA
ATOM     14  C   UNL     1      16.057  41.768  29.358  1.00  0.00     0.059 A 
ATOM     15  C   UNL     1      16.990  41.719  28.318  1.00  0.00     0.120 A 
ATOM     16  C   UNL     1      17.633  42.886  27.908  1.00  0.00     0.093 A 
ATOM     17  C   UNL     1      17.352  44.112  28.520  1.00  0.00     0.131 A 
ENDROOT
BRANCH   6  18
ATOM     18  O   UNL     1      15.746  47.839  31.914  1.00  0.00    -0.507 OA
ATOM     19  H   UNL     1      16.147  48.445  32.615  1.00  0.00     0.293 HD
ENDBRANCH   6  18
BRANCH  17  20
ATOM     20  O   UNL     1      18.100  45.221  28.119  1.00  0.00    -0.507 OA
ATOM     21  H   UNL     1      18.154  46.081  28.647  1.00  0.00     0.293 HD
ENDBRANCH  17  20
BRANCH  15  22
ATOM     22  O   UNL     1      17.296  40.512  27.694  1.00  0.00    -0.508 OA
ATOM     23  H   UNL     1      17.107  40.361  26.709  1.00  0.00     0.293 HD
ENDBRANCH  15  22
TORSDOF 3
ENDMDL
MODEL 8
REMARK VINA RESULT:    -4.930      9.491     11.840
REMARK INTER + INTRA:          -5.362
REMARK INTER:                  -5.362
REMARK INTRA:                   0.000
REMARK UNBOUND:                 0.000
REMARK SMILES Cc1cc(O)c2c(c1)C(=O)c1cc(O)cc(O)c1C2=O
REMARK SMILES IDX 1 1 2 2 8 3 7 4 6 5 4 6 3 7 19 8 20 9 18 10 11 11 9 12 10 13
REMARK SMILES IDX 12 14 13 15 15 16 16 17 5 18 17 20 14 22
REMARK H PARENT 5 19 17 21 14 23
REMARK Flexibility Score: inf
ROOT
ATOM      1  C   UNL     1      16.837  60.125  33.680  1.00  0.00     0.044 C 
ATOM      2  C   UNL     1      16.544  59.031  32.695  1.00  0.00    -0.047 A 
ATOM      3  C   UNL     1      16.179  57.757  33.146  1.00  0.00     0.016 A 
ATOM      4  C   UNL     1      15.861  56.739  32.232  1.00  0.00     0.038 A 
ATOM      5  C   UNL     1      15.881  57.006  30.845  1.00  0.00     0.076 A 
ATOM      6  C   UNL     1      16.295  58.286  30.392  1.00  0.00     0.127 A 
ATOM      7  C   UNL     1      16.589  59.289  31.321  1.00  0.00     0.050 A 
ATOM      8  C   UNL     1      15.396  55.948  29.919  1.00  0.00     0.201 C 
ATOM      9  O   UNL     1      14.858  56.271  28.826  1.00  0.00    -0.288 OA
ATOM     10  C   UNL     1      15.373  54.532  30.364  1.00  0.00     0.076 A 
ATOM     11  C   UNL     1      15.354  54.269  31.753  1.00  0.00     0.041 A 
ATOM     12  C   UNL     1      15.506  55.383  32.717  1.00  0.00     0.194 C 
ATOM     13  O   UNL     1      15.362  55.172  33.953  1.00  0.00    -0.289 OA
ATOM     14  C   UNL     1      15.193  52.950  32.212  1.00  0.00     0.059 A 
ATOM     15  C   UNL     1      15.068  51.893  31.305  1.00  0.00     0.120 A 
ATOM     16  C   UNL     1      15.128  52.145  29.936  1.00  0.00     0.093 A 
ATOM     17  C   UNL     1      15.307  53.445  29.453  1.00  0.00     0.131 A 
ENDROOT
BRANCH   6  18
ATOM     18  O   UNL     1      16.460  58.591  29.040  1.00  0.00    -0.507 OA
ATOM     19  H   UNL     1      15.846  59.209  28.528  1.00  0.00     0.293 HD
ENDBRANCH   6  18
BRANCH  17  20
ATOM     20  O   UNL     1      15.449  53.607  28.073  1.00  0.00    -0.507 OA
ATOM     21  H   UNL     1      15.395  54.502  27.606  1.00  0.00     0.293 HD
ENDBRANCH  17  20
BRANCH  15  22
ATOM     22  O   UNL     1      14.896  50.587  31.757  1.00  0.00    -0.508 OA
ATOM     23  H   UNL     1      15.688  49.985  31.954  1.00  0.00     0.293 HD
ENDBRANCH  15  22
TORSDOF 3
ENDMDL
MODEL 9
REMARK VINA RESULT:    -4.826      8.932     10.991
REMARK INTER + INTRA:          -5.249
REMARK INTER:                  -5.249
REMARK INTRA:                   0.000
REMARK UNBOUND:                 0.000
REMARK SMILES Cc1cc(O)c2c(c1)C(=O)c1cc(O)cc(O)c1C2=O
REMARK SMILES IDX 1 1 2 2 8 3 7 4 6 5 4 6 3 7 19 8 20 9 18 10 11 11 9 12 10 13
REMARK SMILES IDX 12 14 13 15 15 16 16 17 5 18 17 20 14 22
REMARK H PARENT 5 19 17 21 14 23
REMARK Flexibility Score: inf
ROOT
ATOM      1  C   UNL     1      14.775  52.964  35.371  1.00  0.00     0.044 C 
ATOM      2  C   UNL     1      14.973  53.854  34.179  1.00  0.00    -0.047 A 
ATOM      3  C   UNL     1      15.078  53.303  32.898  1.00  0.00     0.016 A 
ATOM      4  C   UNL     1      15.220  54.131  31.771  1.00  0.00     0.038 A 
ATOM      5  C   UNL     1      15.230  55.535  31.927  1.00  0.00     0.076 A 
ATOM      6  C   UNL     1      15.168  56.088  33.233  1.00  0.00     0.127 A 
ATOM      7  C   UNL     1      15.008  55.244  34.336  1.00  0.00     0.050 A 
ATOM      8  C   UNL     1      15.233  56.377  30.701  1.00  0.00     0.201 C 
ATOM      9  O   UNL     1      14.685  57.512  30.719  1.00  0.00    -0.288 OA
ATOM     10  C   UNL     1      15.708  55.807  29.415  1.00  0.00     0.076 A 
ATOM     11  C   UNL     1      15.697  54.401  29.264  1.00  0.00     0.041 A 
ATOM     12  C   UNL     1      15.363  53.537  30.420  1.00  0.00     0.194 C 
ATOM     13  O   UNL     1      15.227  52.293  30.260  1.00  0.00    -0.289 OA
ATOM     14  C   UNL     1      16.007  53.830  28.018  1.00  0.00     0.059 A 
ATOM     15  C   UNL     1      16.342  54.641  26.930  1.00  0.00     0.120 A 
ATOM     16  C   UNL     1      16.394  56.025  27.086  1.00  0.00     0.093 A 
ATOM     17  C   UNL     1      16.108  56.618  28.321  1.00  0.00     0.131 A 
ENDROOT
BRANCH   6  18
ATOM     18  O   UNL     1      15.295  57.455  33.481  1.00  0.00    -0.507 OA
ATOM     19  H   UNL     1      15.515  58.135  32.766  1.00  0.00     0.293 HD
ENDBRANCH   6  18
BRANCH  17  20
ATOM     20  O   UNL     1      16.269  58.001  28.425  1.00  0.00    -0.507 OA
ATOM     21  H   UNL     1      15.671  58.670  27.961  1.00  0.00     0.293 HD
ENDBRANCH  17  20
BRANCH  15  22
ATOM     22  O   UNL     1      16.638  54.079  25.690  1.00  0.00    -0.508 OA
ATOM     23  H   UNL     1      16.998  54.639  24.925  1.00  0.00     0.293 HD
ENDBRANCH  15  22
TORSDOF 3
ENDMDL
