MODEL 1
REMARK VINA RESULT:    -3.981      0.000      0.000
REMARK INTER + INTRA:          -4.098
REMARK INTER:                  -4.098
REMARK INTRA:                   0.000
REMARK UNBOUND:                 0.000
REMARK SMILES Nc1ncnc2nc[nH]c12
REMARK SMILES IDX 8 1 7 2 6 3 5 4 4 5 3 6 2 7 10 8 9 9 1 11
REMARK H PARENT 9 10 1 12 1 13
REMARK Flexibility Score: inf
ROOT
ATOM      1  C   UNL     1     -11.483   4.100  31.105  1.00  0.00     0.199 A 
ATOM      2  N   UNL     1     -12.270   3.828  30.028  1.00  0.00    -0.217 NA
ATOM      3  C   UNL     1     -12.580   2.535  30.220  1.00  0.00     0.182 A 
ATOM      4  N   UNL     1     -13.355   1.763  29.423  1.00  0.00    -0.215 NA
ATOM      5  C   UNL     1     -13.559   0.460  29.786  1.00  0.00     0.226 A 
ATOM      6  N   UNL     1     -12.989  -0.041  30.930  1.00  0.00    -0.217 NA
ATOM      7  C   UNL     1     -12.206   0.737  31.735  1.00  0.00     0.152 A 
ATOM      8  C   UNL     1     -12.009   2.060  31.352  1.00  0.00     0.127 A 
ATOM      9  N   UNL     1     -11.304   3.039  31.933  1.00  0.00    -0.340 N 
ATOM     10  H   UNL     1     -10.746   3.008  32.813  1.00  0.00     0.168 HD
ENDROOT
BRANCH   7  11
ATOM     11  N   UNL     1     -11.623   0.194  32.920  1.00  0.00    -0.382 N 
ATOM     12  H   UNL     1     -11.824   0.598  33.861  1.00  0.00     0.158 HD
ATOM     13  H   UNL     1     -10.979  -0.627  32.858  1.00  0.00     0.158 HD
ENDBRANCH   7  11
TORSDOF 1
ENDMDL
MODEL 2
REMARK VINA RESULT:    -3.976     13.594     15.252
REMARK INTER + INTRA:          -4.093
REMARK INTER:                  -4.093
REMARK INTRA:                   0.000
REMARK UNBOUND:                 0.000
REMARK SMILES Nc1ncnc2nc[nH]c12
REMARK SMILES IDX 8 1 7 2 6 3 5 4 4 5 3 6 2 7 10 8 9 9 1 11
REMARK H PARENT 9 10 1 12 1 13
REMARK Flexibility Score: inf
ROOT
ATOM      1  C   UNL     1      -9.219   8.392  19.879  1.00  0.00     0.199 A 
ATOM      2  N   UNL     1     -10.294   8.611  19.073  1.00  0.00    -0.217 NA
ATOM      3  C   UNL     1     -10.220   9.934  18.851  1.00  0.00     0.182 A 
ATOM      4  N   UNL     1     -11.067  10.675  18.097  1.00  0.00    -0.215 NA
ATOM      5  C   UNL     1     -10.826  12.017  17.987  1.00  0.00     0.226 A 
ATOM      6  N   UNL     1      -9.754  12.587  18.626  1.00  0.00    -0.217 NA
ATOM      7  C   UNL     1      -8.900  11.840  19.387  1.00  0.00     0.152 A 
ATOM      8  C   UNL     1      -9.157  10.476  19.489  1.00  0.00     0.127 A 
ATOM      9  N   UNL     1      -8.504   9.514  20.151  1.00  0.00    -0.340 N 
ATOM     10  H   UNL     1      -7.647   9.593  20.741  1.00  0.00     0.168 HD
ENDROOT
BRANCH   7  11
ATOM     11  N   UNL     1      -7.790  12.455  20.043  1.00  0.00    -0.382 N 
ATOM     12  H   UNL     1      -6.863  12.549  19.574  1.00  0.00     0.158 HD
ATOM     13  H   UNL     1      -7.896  12.824  21.015  1.00  0.00     0.158 HD
ENDBRANCH   7  11
TORSDOF 1
ENDMDL
MODEL 3
REMARK VINA RESULT:    -3.963      0.672      2.773
REMARK INTER + INTRA:          -4.079
REMARK INTER:                  -4.079
REMARK INTRA:                   0.000
REMARK UNBOUND:                 0.000
REMARK SMILES Nc1ncnc2nc[nH]c12
REMARK SMILES IDX 8 1 7 2 6 3 5 4 4 5 3 6 2 7 10 8 9 9 1 11
REMARK H PARENT 9 10 1 12 1 13
REMARK Flexibility Score: inf
ROOT
ATOM      1  C   UNL     1     -13.860   0.794  29.123  1.00  0.00     0.199 A 
ATOM      2  N   UNL     1     -13.565   2.110  28.942  1.00  0.00    -0.217 NA
ATOM      3  C   UNL     1     -12.804   2.383  30.014  1.00  0.00     0.182 A 
ATOM      4  N   UNL     1     -12.238   3.574  30.322  1.00  0.00    -0.215 NA
ATOM      5  C   UNL     1     -11.490   3.658  31.464  1.00  0.00     0.226 A 
ATOM      6  N   UNL     1     -11.323   2.559  32.269  1.00  0.00    -0.217 NA
ATOM      7  C   UNL     1     -11.893   1.357  31.960  1.00  0.00     0.152 A 
ATOM      8  C   UNL     1     -12.650   1.287  30.794  1.00  0.00     0.127 A 
ATOM      9  N   UNL     1     -13.315   0.262  30.247  1.00  0.00    -0.340 N 
ATOM     10  H   UNL     1     -13.402  -0.719  30.592  1.00  0.00     0.168 HD
ENDROOT
BRANCH   7  11
ATOM     11  N   UNL     1     -11.705   0.226  32.812  1.00  0.00    -0.382 N 
ATOM     12  H   UNL     1     -12.461  -0.478  32.959  1.00  0.00     0.158 HD
ATOM     13  H   UNL     1     -10.794   0.090  33.306  1.00  0.00     0.158 HD
ENDBRANCH   7  11
TORSDOF 1
ENDMDL
MODEL 4
REMARK VINA RESULT:    -3.940     10.961     11.490
REMARK INTER + INTRA:          -4.055
REMARK INTER:                  -4.055
REMARK INTRA:                   0.000
REMARK UNBOUND:                 0.000
REMARK SMILES Nc1ncnc2nc[nH]c12
REMARK SMILES IDX 8 1 7 2 6 3 5 4 4 5 3 6 2 7 10 8 9 9 1 11
REMARK H PARENT 9 10 1 12 1 13
REMARK Flexibility Score: inf
ROOT
ATOM      1  C   UNL     1      -2.937   3.651  26.533  1.00  0.00     0.199 A 
ATOM      2  N   UNL     1      -2.057   3.475  27.556  1.00  0.00    -0.217 NA
ATOM      3  C   UNL     1      -1.697   2.189  27.406  1.00  0.00     0.182 A 
ATOM      4  N   UNL     1      -0.824   1.499  28.177  1.00  0.00    -0.215 NA
ATOM      5  C   UNL     1      -0.583   0.189  27.865  1.00  0.00     0.226 A 
ATOM      6  N   UNL     1      -1.213  -0.400  26.798  1.00  0.00    -0.217 NA
ATOM      7  C   UNL     1      -2.095   0.295  26.020  1.00  0.00     0.152 A 
ATOM      8  C   UNL     1      -2.329   1.627  26.349  1.00  0.00     0.127 A 
ATOM      9  N   UNL     1      -3.125   2.539  25.777  1.00  0.00    -0.340 N 
ATOM     10  H   UNL     1      -3.748   2.433  24.947  1.00  0.00     0.168 HD
ENDROOT
BRANCH   7  11
ATOM     11  N   UNL     1      -2.739  -0.339  24.914  1.00  0.00    -0.382 N 
ATOM     12  H   UNL     1      -2.343  -0.286  23.950  1.00  0.00     0.158 HD
ATOM     13  H   UNL     1      -3.627  -0.869  25.060  1.00  0.00     0.158 HD
ENDBRANCH   7  11
TORSDOF 1
ENDMDL
MODEL 5
REMARK VINA RESULT:    -3.894      1.140      2.968
REMARK INTER + INTRA:          -4.008
REMARK INTER:                  -4.008
REMARK INTRA:                   0.000
REMARK UNBOUND:                 0.000
REMARK SMILES Nc1ncnc2nc[nH]c12
REMARK SMILES IDX 8 1 7 2 6 3 5 4 4 5 3 6 2 7 10 8 9 9 1 11
REMARK H PARENT 9 10 1 12 1 13
REMARK Flexibility Score: inf
ROOT
ATOM      1  C   UNL     1     -11.926   0.415  32.383  1.00  0.00     0.199 A 
ATOM      2  N   UNL     1     -12.691  -0.283  31.500  1.00  0.00    -0.217 NA
ATOM      3  C   UNL     1     -12.980   0.647  30.575  1.00  0.00     0.182 A 
ATOM      4  N   UNL     1     -13.727   0.471  29.459  1.00  0.00    -0.215 NA
ATOM      5  C   UNL     1     -13.912   1.544  28.631  1.00  0.00     0.226 A 
ATOM      6  N   UNL     1     -13.351   2.760  28.931  1.00  0.00    -0.217 NA
ATOM      7  C   UNL     1     -12.598   2.938  30.056  1.00  0.00     0.152 A 
ATOM      8  C   UNL     1     -12.418   1.837  30.888  1.00  0.00     0.127 A 
ATOM      9  N   UNL     1     -11.742   1.715  32.037  1.00  0.00    -0.340 N 
ATOM     10  H   UNL     1     -11.197   2.439  32.554  1.00  0.00     0.168 HD
ENDROOT
BRANCH   7  11
ATOM     11  N   UNL     1     -12.023   4.213  30.347  1.00  0.00    -0.382 N 
ATOM     12  H   UNL     1     -12.178   4.683  31.266  1.00  0.00     0.158 HD
ATOM     13  H   UNL     1     -11.433   4.696  29.634  1.00  0.00     0.158 HD
ENDBRANCH   7  11
TORSDOF 1
ENDMDL
MODEL 6
REMARK VINA RESULT:    -3.851     10.196     10.620
REMARK INTER + INTRA:          -3.963
REMARK INTER:                  -3.963
REMARK INTRA:                   0.000
REMARK UNBOUND:                 0.000
REMARK SMILES Nc1ncnc2nc[nH]c12
REMARK SMILES IDX 8 1 7 2 6 3 5 4 4 5 3 6 2 7 10 8 9 9 1 11
REMARK H PARENT 9 10 1 12 1 13
REMARK Flexibility Score: inf
ROOT
ATOM      1  C   UNL     1      -3.819  -0.445  30.413  1.00  0.00     0.199 A 
ATOM      2  N   UNL     1      -4.484  -0.407  29.226  1.00  0.00    -0.217 NA
ATOM      3  C   UNL     1      -3.499  -0.138  28.354  1.00  0.00     0.182 A 
ATOM      4  N   UNL     1      -3.623   0.007  27.013  1.00  0.00    -0.215 NA
ATOM      5  C   UNL     1      -2.498   0.280  26.286  1.00  0.00     0.226 A 
ATOM      6  N   UNL     1      -1.280   0.401  26.907  1.00  0.00    -0.217 NA
ATOM      7  C   UNL     1      -1.153   0.255  28.260  1.00  0.00     0.152 A 
ATOM      8  C   UNL     1      -2.307  -0.023  28.985  1.00  0.00     0.127 A 
ATOM      9  N   UNL     1      -2.485  -0.214  30.299  1.00  0.00    -0.340 N 
ATOM     10  H   UNL     1      -1.777  -0.194  31.064  1.00  0.00     0.168 HD
ENDROOT
BRANCH   7  11
ATOM     11  N   UNL     1       0.125   0.385  28.884  1.00  0.00    -0.382 N 
ATOM     12  H   UNL     1       0.526   1.320  29.116  1.00  0.00     0.158 HD
ATOM     13  H   UNL     1       0.681  -0.468  29.120  1.00  0.00     0.158 HD
ENDBRANCH   7  11
TORSDOF 1
ENDMDL
MODEL 7
REMARK VINA RESULT:    -3.851     10.546     11.048
REMARK INTER + INTRA:          -3.963
REMARK INTER:                  -3.963
REMARK INTRA:                   0.000
REMARK UNBOUND:                 0.000
REMARK SMILES Nc1ncnc2nc[nH]c12
REMARK SMILES IDX 8 1 7 2 6 3 5 4 4 5 3 6 2 7 10 8 9 9 1 11
REMARK H PARENT 9 10 1 12 1 13
REMARK Flexibility Score: inf
ROOT
ATOM      1  C   UNL     1      -0.269   0.386  28.628  1.00  0.00     0.199 A 
ATOM      2  N   UNL     1      -1.156   1.227  29.224  1.00  0.00    -0.217 NA
ATOM      3  C   UNL     1      -2.156   1.271  28.328  1.00  0.00     0.182 A 
ATOM      4  N   UNL     1      -3.307   1.977  28.435  1.00  0.00    -0.215 NA
ATOM      5  C   UNL     1      -4.212   1.895  27.413  1.00  0.00     0.226 A 
ATOM      6  N   UNL     1      -3.951   1.115  26.314  1.00  0.00    -0.217 NA
ATOM      7  C   UNL     1      -2.791   0.403  26.205  1.00  0.00     0.152 A 
ATOM      8  C   UNL     1      -1.881   0.496  27.253  1.00  0.00     0.127 A 
ATOM      9  N   UNL     1      -0.683  -0.078  27.420  1.00  0.00    -0.340 N 
ATOM     10  H   UNL     1      -0.176  -0.730  26.783  1.00  0.00     0.168 HD
ENDROOT
BRANCH   7  11
ATOM     11  N   UNL     1      -2.542  -0.402  25.052  1.00  0.00    -0.382 N 
ATOM     12  H   UNL     1      -1.952  -1.261  25.104  1.00  0.00     0.158 HD
ATOM     13  H   UNL     1      -2.954  -0.136  24.129  1.00  0.00     0.158 HD
ENDBRANCH   7  11
TORSDOF 1
ENDMDL
MODEL 8
REMARK VINA RESULT:    -3.829     11.422     12.220
REMARK INTER + INTRA:          -3.941
REMARK INTER:                  -3.941
REMARK INTRA:                   0.000
REMARK UNBOUND:                 0.000
REMARK SMILES Nc1ncnc2nc[nH]c12
REMARK SMILES IDX 8 1 7 2 6 3 5 4 4 5 3 6 2 7 10 8 9 9 1 11
REMARK H PARENT 9 10 1 12 1 13
REMARK Flexibility Score: inf
ROOT
ATOM      1  C   UNL     1      -2.202  -0.193  25.742  1.00  0.00     0.199 A 
ATOM      2  N   UNL     1      -1.402  -0.762  26.684  1.00  0.00    -0.217 NA
ATOM      3  C   UNL     1      -1.026   0.298  27.419  1.00  0.00     0.182 A 
ATOM      4  N   UNL     1      -0.214   0.284  28.502  1.00  0.00    -0.215 NA
ATOM      5  C   UNL     1       0.055   1.473  29.123  1.00  0.00     0.226 A 
ATOM      6  N   UNL     1      -0.490   2.642  28.655  1.00  0.00    -0.217 NA
ATOM      7  C   UNL     1      -1.310   2.657  27.562  1.00  0.00     0.152 A 
ATOM      8  C   UNL     1      -1.574   1.440  26.941  1.00  0.00     0.127 A 
ATOM      9  N   UNL     1      -2.327   1.153  25.872  1.00  0.00    -0.340 N 
ATOM     10  H   UNL     1      -2.883   1.800  25.273  1.00  0.00     0.168 HD
ENDROOT
BRANCH   7  11
ATOM     11  N   UNL     1      -1.866   3.886  27.093  1.00  0.00    -0.382 N 
ATOM     12  H   UNL     1      -1.700   4.786  27.594  1.00  0.00     0.158 HD
ATOM     13  H   UNL     1      -2.455   3.898  26.229  1.00  0.00     0.158 HD
ENDBRANCH   7  11
TORSDOF 1
ENDMDL
MODEL 9
REMARK VINA RESULT:    -3.815      1.065      3.026
REMARK INTER + INTRA:          -3.926
REMARK INTER:                  -3.926
REMARK INTRA:                   0.000
REMARK UNBOUND:                 0.000
REMARK SMILES Nc1ncnc2nc[nH]c12
REMARK SMILES IDX 8 1 7 2 6 3 5 4 4 5 3 6 2 7 10 8 9 9 1 11
REMARK H PARENT 9 10 1 12 1 13
REMARK Flexibility Score: inf
ROOT
ATOM      1  C   UNL     1     -13.807   1.594  28.553  1.00  0.00     0.199 A 
ATOM      2  N   UNL     1     -13.777   0.398  29.203  1.00  0.00    -0.217 NA
ATOM      3  C   UNL     1     -13.055   0.685  30.298  1.00  0.00     0.182 A 
ATOM      4  N   UNL     1     -12.724  -0.170  31.295  1.00  0.00    -0.215 NA
ATOM      5  C   UNL     1     -11.978   0.310  32.336  1.00  0.00     0.226 A 
ATOM      6  N   UNL     1     -11.581   1.623  32.361  1.00  0.00    -0.217 NA
ATOM      7  C   UNL     1     -11.913   2.487  31.356  1.00  0.00     0.152 A 
ATOM      8  C   UNL     1     -12.673   1.984  30.304  1.00  0.00     0.127 A 
ATOM      9  N   UNL     1     -13.140   2.584  29.202  1.00  0.00    -0.340 N 
ATOM     10  H   UNL     1     -13.026   3.576  28.901  1.00  0.00     0.168 HD
ENDROOT
BRANCH   7  11
ATOM     11  N   UNL     1     -11.489   3.850  31.403  1.00  0.00    -0.382 N 
ATOM     12  H   UNL     1     -11.035   4.308  30.583  1.00  0.00     0.158 HD
ATOM     13  H   UNL     1     -11.630   4.412  32.272  1.00  0.00     0.158 HD
ENDBRANCH   7  11
TORSDOF 1
ENDMDL
