MODEL 1
REMARK VINA RESULT:    -5.498      0.000      0.000
REMARK INTER + INTRA:          -6.238
REMARK INTER:                  -5.819
REMARK INTRA:                  -0.419
REMARK UNBOUND:                -0.419
REMARK SMILES C=C(C)[C@H]1CC[C@H](C)[C@@]12CC=C(C)CC2
REMARK SMILES IDX 8 1 7 2 6 3 5 4 4 5 9 6 15 7 14 8 12 9 11 10 10 11 13 12
REMARK SMILES IDX 2 13 1 14 3 15
REMARK H PARENT
REMARK Flexibility Score: inf
ROOT
ATOM      1  C   UNL     1     -39.413 -46.383  28.879  1.00  0.00     0.008 C 
ATOM      2  C   UNL     1     -39.826 -47.629  28.060  1.00  0.00    -0.007 C 
ATOM      3  C   UNL     1     -39.743 -48.879  28.952  1.00  0.00     0.004 C 
ATOM      4  C   UNL     1     -41.144 -49.120  29.512  1.00  0.00     0.009 C 
ATOM      5  C   UNL     1     -42.083 -48.157  28.764  1.00  0.00     0.021 C 
ATOM      6  C   UNL     1     -41.297 -47.636  27.519  1.00  0.00    -0.017 C 
ATOM      7  C   UNL     1     -41.840 -46.213  27.070  1.00  0.00     0.012 C 
ATOM      8  C   UNL     1     -42.160 -46.096  25.571  1.00  0.00     0.031 C 
ATOM      9  C   UNL     1     -42.997 -47.272  25.132  1.00  0.00    -0.077 C 
ATOM     10  C   UNL     1     -42.601 -48.498  25.496  1.00  0.00    -0.027 C 
ATOM     11  C   UNL     1     -41.353 -48.655  26.320  1.00  0.00     0.035 C 
ATOM     12  C   UNL     1     -44.272 -47.083  24.359  1.00  0.00     0.039 C 
ENDROOT
BRANCH   5  13
ATOM     13  C   UNL     1     -43.500 -48.689  28.517  1.00  0.00    -0.077 C 
ATOM     14  C   UNL     1     -43.780 -50.001  28.416  1.00  0.00     0.008 C 
ATOM     15  C   UNL     1     -44.649 -47.718  28.405  1.00  0.00     0.039 C 
ENDBRANCH   5  13
TORSDOF 1
ENDMDL
MODEL 2
REMARK VINA RESULT:    -5.478      8.163     11.726
REMARK INTER + INTRA:          -6.217
REMARK INTER:                  -5.799
REMARK INTRA:                  -0.418
REMARK UNBOUND:                -0.419
REMARK SMILES C=C(C)[C@H]1CC[C@H](C)[C@@]12CC=C(C)CC2
REMARK SMILES IDX 8 1 7 2 6 3 5 4 4 5 9 6 15 7 14 8 12 9 11 10 10 11 13 12
REMARK SMILES IDX 2 13 1 14 3 15
REMARK H PARENT
REMARK Flexibility Score: inf
ROOT
ATOM      1  C   UNL     1     -54.850 -46.609  21.734  1.00  0.00     0.008 C 
ATOM      2  C   UNL     1     -54.161 -47.761  22.502  1.00  0.00    -0.007 C 
ATOM      3  C   UNL     1     -54.283 -49.063  21.693  1.00  0.00     0.004 C 
ATOM      4  C   UNL     1     -52.997 -49.203  20.879  1.00  0.00     0.009 C 
ATOM      5  C   UNL     1     -52.038 -48.114  21.391  1.00  0.00     0.021 C 
ATOM      6  C   UNL     1     -52.621 -47.599  22.745  1.00  0.00    -0.017 C 
ATOM      7  C   UNL     1     -52.153 -46.108  23.024  1.00  0.00     0.012 C 
ATOM      8  C   UNL     1     -51.565 -45.875  24.426  1.00  0.00     0.031 C 
ATOM      9  C   UNL     1     -50.543 -46.939  24.737  1.00  0.00    -0.077 C 
ATOM     10  C   UNL     1     -50.872 -48.217  24.504  1.00  0.00    -0.027 C 
ATOM     11  C   UNL     1     -52.232 -48.537  23.947  1.00  0.00     0.035 C 
ATOM     12  C   UNL     1     -49.170 -46.588  25.236  1.00  0.00     0.039 C 
ENDROOT
BRANCH   5  13
ATOM     13  C   UNL     1     -50.553 -48.495  21.375  1.00  0.00    -0.077 C 
ATOM     14  C   UNL     1     -50.124 -49.766  21.477  1.00  0.00     0.008 C 
ATOM     15  C   UNL     1     -49.511 -47.416  21.214  1.00  0.00     0.039 C 
ENDBRANCH   5  13
TORSDOF 1
ENDMDL
MODEL 3
REMARK VINA RESULT:    -5.469      1.389      3.552
REMARK INTER + INTRA:          -6.208
REMARK INTER:                  -5.794
REMARK INTRA:                  -0.414
REMARK UNBOUND:                -0.419
REMARK SMILES C=C(C)[C@H]1CC[C@H](C)[C@@]12CC=C(C)CC2
REMARK SMILES IDX 8 1 7 2 6 3 5 4 4 5 9 6 15 7 14 8 12 9 11 10 10 11 13 12
REMARK SMILES IDX 2 13 1 14 3 15
REMARK H PARENT
REMARK Flexibility Score: inf
ROOT
ATOM      1  C   UNL     1     -42.120 -51.709  29.281  1.00  0.00     0.008 C 
ATOM      2  C   UNL     1     -42.444 -50.264  29.729  1.00  0.00    -0.007 C 
ATOM      3  C   UNL     1     -41.204 -49.643  30.393  1.00  0.00     0.004 C 
ATOM      4  C   UNL     1     -40.470 -48.851  29.311  1.00  0.00     0.009 C 
ATOM      5  C   UNL     1     -41.403 -48.820  28.087  1.00  0.00     0.021 C 
ATOM      6  C   UNL     1     -42.816 -49.260  28.585  1.00  0.00    -0.017 C 
ATOM      7  C   UNL     1     -43.654 -49.896  27.397  1.00  0.00     0.012 C 
ATOM      8  C   UNL     1     -45.073 -49.325  27.239  1.00  0.00     0.031 C 
ATOM      9  C   UNL     1     -45.025 -47.818  27.256  1.00  0.00    -0.077 C 
ATOM     10  C   UNL     1     -44.316 -47.221  28.224  1.00  0.00    -0.027 C 
ATOM     11  C   UNL     1     -43.605 -48.067  29.244  1.00  0.00     0.035 C 
ATOM     12  C   UNL     1     -45.696 -46.998  26.191  1.00  0.00     0.039 C 
ENDROOT
BRANCH   5  13
ATOM     13  C   UNL     1     -41.331 -47.539  27.247  1.00  0.00    -0.077 C 
ATOM     14  C   UNL     1     -40.927 -46.358  27.749  1.00  0.00     0.008 C 
ATOM     15  C   UNL     1     -41.700 -47.588  25.785  1.00  0.00     0.039 C 
ENDBRANCH   5  13
TORSDOF 1
ENDMDL
MODEL 4
REMARK VINA RESULT:    -5.381      1.448      3.692
REMARK INTER + INTRA:          -6.115
REMARK INTER:                  -5.722
REMARK INTRA:                  -0.392
REMARK UNBOUND:                -0.419
REMARK SMILES C=C(C)[C@H]1CC[C@H](C)[C@@]12CC=C(C)CC2
REMARK SMILES IDX 8 1 7 2 6 3 5 4 4 5 9 6 15 7 14 8 12 9 11 10 10 11 13 12
REMARK SMILES IDX 2 13 1 14 3 15
REMARK H PARENT
REMARK Flexibility Score: inf
ROOT
ATOM      1  C   UNL     1     -39.438 -48.316  28.145  1.00  0.00     0.008 C 
ATOM      2  C   UNL     1     -40.732 -47.471  28.089  1.00  0.00    -0.007 C 
ATOM      3  C   UNL     1     -40.797 -46.721  26.748  1.00  0.00     0.004 C 
ATOM      4  C   UNL     1     -41.638 -47.576  25.801  1.00  0.00     0.009 C 
ATOM      5  C   UNL     1     -42.252 -48.698  26.657  1.00  0.00     0.021 C 
ATOM      6  C   UNL     1     -42.077 -48.274  28.149  1.00  0.00    -0.017 C 
ATOM      7  C   UNL     1     -42.039 -49.551  29.092  1.00  0.00     0.012 C 
ATOM      8  C   UNL     1     -42.982 -49.478  30.305  1.00  0.00     0.031 C 
ATOM      9  C   UNL     1     -44.357 -49.047  29.860  1.00  0.00    -0.077 C 
ATOM     10  C   UNL     1     -44.453 -47.987  29.047  1.00  0.00    -0.027 C 
ATOM     11  C   UNL     1     -43.201 -47.275  28.613  1.00  0.00     0.035 C 
ATOM     12  C   UNL     1     -45.587 -49.812  30.260  1.00  0.00     0.039 C 
ENDROOT
BRANCH   5  13
ATOM     13  C   UNL     1     -43.652 -49.154  26.226  1.00  0.00    -0.077 C 
ATOM     14  C   UNL     1     -44.132 -50.383  26.488  1.00  0.00     0.008 C 
ATOM     15  C   UNL     1     -44.556 -48.191  25.499  1.00  0.00     0.039 C 
ENDBRANCH   5  13
TORSDOF 1
ENDMDL
MODEL 5
REMARK VINA RESULT:    -5.318      8.555     11.378
REMARK INTER + INTRA:          -6.048
REMARK INTER:                  -5.652
REMARK INTRA:                  -0.396
REMARK UNBOUND:                -0.419
REMARK SMILES C=C(C)[C@H]1CC[C@H](C)[C@@]12CC=C(C)CC2
REMARK SMILES IDX 8 1 7 2 6 3 5 4 4 5 9 6 15 7 14 8 12 9 11 10 10 11 13 12
REMARK SMILES IDX 2 13 1 14 3 15
REMARK H PARENT
REMARK Flexibility Score: inf
ROOT
ATOM      1  C   UNL     1     -54.774 -48.258  21.812  1.00  0.00     0.008 C 
ATOM      2  C   UNL     1     -53.531 -47.349  21.953  1.00  0.00    -0.007 C 
ATOM      3  C   UNL     1     -53.541 -46.677  23.336  1.00  0.00     0.004 C 
ATOM      4  C   UNL     1     -52.677 -47.538  24.256  1.00  0.00     0.009 C 
ATOM      5  C   UNL     1     -51.980 -48.572  23.355  1.00  0.00     0.021 C 
ATOM      6  C   UNL     1     -52.142 -48.072  21.884  1.00  0.00    -0.017 C 
ATOM      7  C   UNL     1     -52.084 -49.292  20.870  1.00  0.00     0.012 C 
ATOM      8  C   UNL     1     -51.117 -49.096  19.691  1.00  0.00     0.031 C 
ATOM      9  C   UNL     1     -49.780 -48.618  20.197  1.00  0.00    -0.077 C 
ATOM     10  C   UNL     1     -49.764 -47.603  21.072  1.00  0.00    -0.027 C 
ATOM     11  C   UNL     1     -51.064 -46.988  21.510  1.00  0.00     0.035 C 
ATOM     12  C   UNL     1     -48.500 -49.289  19.789  1.00  0.00     0.039 C 
ENDROOT
BRANCH   5  13
ATOM     13  C   UNL     1     -50.568 -48.976  23.799  1.00  0.00    -0.077 C 
ATOM     14  C   UNL     1     -50.014 -50.160  23.482  1.00  0.00     0.008 C 
ATOM     15  C   UNL     1     -49.737 -48.007  24.602  1.00  0.00     0.039 C 
ENDBRANCH   5  13
TORSDOF 1
ENDMDL
MODEL 6
REMARK VINA RESULT:    -5.308      8.026     11.558
REMARK INTER + INTRA:          -6.037
REMARK INTER:                  -5.656
REMARK INTRA:                  -0.381
REMARK UNBOUND:                -0.419
REMARK SMILES C=C(C)[C@H]1CC[C@H](C)[C@@]12CC=C(C)CC2
REMARK SMILES IDX 8 1 7 2 6 3 5 4 4 5 9 6 15 7 14 8 12 9 11 10 10 11 13 12
REMARK SMILES IDX 2 13 1 14 3 15
REMARK H PARENT
REMARK Flexibility Score: inf
ROOT
ATOM      1  C   UNL     1     -51.856 -51.449  20.229  1.00  0.00     0.008 C 
ATOM      2  C   UNL     1     -51.669 -49.927  20.034  1.00  0.00    -0.007 C 
ATOM      3  C   UNL     1     -52.995 -49.303  19.568  1.00  0.00     0.004 C 
ATOM      4  C   UNL     1     -53.704 -48.780  20.817  1.00  0.00     0.009 C 
ATOM      5  C   UNL     1     -52.690 -48.888  21.969  1.00  0.00     0.021 C 
ATOM      6  C   UNL     1     -51.288 -49.113  21.318  1.00  0.00    -0.017 C 
ATOM      7  C   UNL     1     -50.323 -49.878  22.320  1.00  0.00     0.012 C 
ATOM      8  C   UNL     1     -48.941 -49.228  22.497  1.00  0.00     0.031 C 
ATOM      9  C   UNL     1     -49.099 -47.751  22.757  1.00  0.00    -0.077 C 
ATOM     10  C   UNL     1     -49.916 -47.053  21.957  1.00  0.00    -0.027 C 
ATOM     11  C   UNL     1     -50.637 -47.761  20.843  1.00  0.00     0.035 C 
ATOM     12  C   UNL     1     -48.413 -47.080  23.914  1.00  0.00     0.039 C 
ENDROOT
BRANCH   5  13
ATOM     13  C   UNL     1     -52.792 -47.787  23.032  1.00  0.00    -0.077 C 
ATOM     14  C   UNL     1     -52.353 -47.947  24.293  1.00  0.00     0.008 C 
ATOM     15  C   UNL     1     -53.382 -46.449  22.661  1.00  0.00     0.039 C 
ENDBRANCH   5  13
TORSDOF 1
ENDMDL
MODEL 7
REMARK VINA RESULT:    -5.243      7.667     11.390
REMARK INTER + INTRA:          -5.968
REMARK INTER:                  -5.573
REMARK INTRA:                  -0.395
REMARK UNBOUND:                -0.419
REMARK SMILES C=C(C)[C@H]1CC[C@H](C)[C@@]12CC=C(C)CC2
REMARK SMILES IDX 8 1 7 2 6 3 5 4 4 5 9 6 15 7 14 8 12 9 11 10 10 11 13 12
REMARK SMILES IDX 2 13 1 14 3 15
REMARK H PARENT
REMARK Flexibility Score: inf
ROOT
ATOM      1  C   UNL     1     -53.896 -46.793  22.310  1.00  0.00     0.008 C 
ATOM      2  C   UNL     1     -53.094 -48.088  22.575  1.00  0.00    -0.007 C 
ATOM      3  C   UNL     1     -53.714 -49.248  21.780  1.00  0.00     0.004 C 
ATOM      4  C   UNL     1     -52.934 -49.358  20.471  1.00  0.00     0.009 C 
ATOM      5  C   UNL     1     -51.720 -48.423  20.609  1.00  0.00     0.021 C 
ATOM      6  C   UNL     1     -51.593 -48.069  22.124  1.00  0.00    -0.017 C 
ATOM      7  C   UNL     1     -50.867 -46.669  22.312  1.00  0.00     0.012 C 
ATOM      8  C   UNL     1     -49.708 -46.681  23.323  1.00  0.00     0.031 C 
ATOM      9  C   UNL     1     -48.794 -47.847  23.042  1.00  0.00    -0.077 C 
ATOM     10  C   UNL     1     -49.349 -49.052  22.855  1.00  0.00    -0.027 C 
ATOM     11  C   UNL     1     -50.844 -49.195  22.931  1.00  0.00     0.035 C 
ATOM     12  C   UNL     1     -47.308 -47.667  22.913  1.00  0.00     0.039 C 
ENDROOT
BRANCH   5  13
ATOM     13  C   UNL     1     -50.447 -48.900  19.899  1.00  0.00    -0.077 C 
ATOM     14  C   UNL     1     -49.491 -48.056  19.469  1.00  0.00     0.008 C 
ATOM     15  C   UNL     1     -50.222 -50.377  19.688  1.00  0.00     0.039 C 
ENDBRANCH   5  13
TORSDOF 1
ENDMDL
MODEL 8
REMARK VINA RESULT:    -5.164      2.185      5.007
REMARK INTER + INTRA:          -5.885
REMARK INTER:                  -5.619
REMARK INTRA:                  -0.266
REMARK UNBOUND:                -0.419
REMARK SMILES C=C(C)[C@H]1CC[C@H](C)[C@@]12CC=C(C)CC2
REMARK SMILES IDX 8 1 7 2 6 3 5 4 4 5 9 6 15 7 14 8 12 9 11 10 10 11 13 12
REMARK SMILES IDX 2 13 1 14 3 15
REMARK H PARENT
REMARK Flexibility Score: inf
ROOT
ATOM      1  C   UNL     1     -43.943 -46.366  28.022  1.00  0.00     0.008 C 
ATOM      2  C   UNL     1     -44.194 -47.877  27.808  1.00  0.00    -0.007 C 
ATOM      3  C   UNL     1     -43.191 -48.422  26.778  1.00  0.00     0.004 C 
ATOM      4  C   UNL     1     -42.019 -49.007  27.565  1.00  0.00     0.009 C 
ATOM      5  C   UNL     1     -42.447 -49.012  29.043  1.00  0.00     0.021 C 
ATOM      6  C   UNL     1     -43.992 -48.789  29.066  1.00  0.00    -0.017 C 
ATOM      7  C   UNL     1     -44.440 -48.128  30.438  1.00  0.00     0.012 C 
ATOM      8  C   UNL     1     -45.616 -48.835  31.133  1.00  0.00     0.031 C 
ATOM      9  C   UNL     1     -45.362 -50.320  31.188  1.00  0.00    -0.077 C 
ATOM     10  C   UNL     1     -44.961 -50.933  30.067  1.00  0.00    -0.027 C 
ATOM     11  C   UNL     1     -44.783 -50.127  28.810  1.00  0.00     0.035 C 
ATOM     12  C   UNL     1     -45.490 -51.092  32.471  1.00  0.00     0.039 C 
ENDROOT
BRANCH   5  13
ATOM     13  C   UNL     1     -41.902 -50.180  29.874  1.00  0.00    -0.077 C 
ATOM     14  C   UNL     1     -41.514 -50.046  31.155  1.00  0.00     0.008 C 
ATOM     15  C   UNL     1     -41.814 -51.554  29.257  1.00  0.00     0.039 C 
ENDBRANCH   5  13
TORSDOF 1
ENDMDL
MODEL 9
REMARK VINA RESULT:    -5.077      8.180     11.158
REMARK INTER + INTRA:          -5.792
REMARK INTER:                  -5.379
REMARK INTRA:                  -0.413
REMARK UNBOUND:                -0.419
REMARK SMILES C=C(C)[C@H]1CC[C@H](C)[C@@]12CC=C(C)CC2
REMARK SMILES IDX 8 1 7 2 6 3 5 4 4 5 9 6 15 7 14 8 12 9 11 10 10 11 13 12
REMARK SMILES IDX 2 13 1 14 3 15
REMARK H PARENT
REMARK Flexibility Score: inf
ROOT
ATOM      1  C   UNL     1     -53.566 -48.871  20.382  1.00  0.00     0.008 C 
ATOM      2  C   UNL     1     -52.257 -49.619  20.726  1.00  0.00    -0.007 C 
ATOM      3  C   UNL     1     -51.371 -49.707  19.472  1.00  0.00     0.004 C 
ATOM      4  C   UNL     1     -50.395 -48.533  19.535  1.00  0.00     0.009 C 
ATOM      5  C   UNL     1     -50.557 -47.906  20.931  1.00  0.00     0.021 C 
ATOM      6  C   UNL     1     -51.342 -48.939  21.801  1.00  0.00    -0.017 C 
ATOM      7  C   UNL     1     -52.129 -48.203  22.967  1.00  0.00     0.012 C 
ATOM      8  C   UNL     1     -51.917 -48.811  24.363  1.00  0.00     0.031 C 
ATOM      9  C   UNL     1     -50.444 -49.018  24.613  1.00  0.00    -0.077 C 
ATOM     10  C   UNL     1     -49.720 -49.616  23.658  1.00  0.00    -0.027 C 
ATOM     11  C   UNL     1     -50.395 -50.052  22.387  1.00  0.00     0.035 C 
ATOM     12  C   UNL     1     -49.783 -48.520  25.867  1.00  0.00     0.039 C 
ENDROOT
BRANCH   5  13
ATOM     13  C   UNL     1     -49.275 -47.322  21.536  1.00  0.00    -0.077 C 
ATOM     14  C   UNL     1     -48.049 -47.796  21.245  1.00  0.00     0.008 C 
ATOM     15  C   UNL     1     -49.365 -46.148  22.478  1.00  0.00     0.039 C 
ENDBRANCH   5  13
TORSDOF 1
ENDMDL
