MODEL 1
REMARK VINA RESULT:    -4.449      0.000      0.000
REMARK INTER + INTRA:          -9.300
REMARK INTER:                  -7.830
REMARK INTRA:                  -1.470
REMARK UNBOUND:                -1.470
REMARK SMILES CCCCCCCCCCCCCCC(=O)[O-]
REMARK SMILES IDX 9 1 10 2 11 3 12 4 13 5 14 6 15 7 16 8 17 9 8 10 7 11 6 12
REMARK SMILES IDX 5 13 4 14 3 15 2 16 1 17
REMARK H PARENT
REMARK Flexibility Score: inf
ROOT
ATOM      1  C   UNL     1       8.365  -5.960 -32.786  1.00  0.00     0.000 C 
ENDROOT
BRANCH   1   2
ATOM      2  C   UNL     1       8.367  -4.821 -33.821  1.00  0.00     0.000 C 
BRANCH   2   3
ATOM      3  C   UNL     1       7.244  -3.801 -33.576  1.00  0.00     0.000 C 
BRANCH   3   4
ATOM      4  C   UNL     1       7.460  -2.485 -34.346  1.00  0.00     0.000 C 
BRANCH   4   5
ATOM      5  C   UNL     1       8.822  -2.433 -35.062  1.00  0.00     0.006 C 
BRANCH   5   6
ATOM      6  C   UNL     1       9.889  -1.603 -34.328  1.00  0.00     0.053 C 
BRANCH   6   7
ATOM      7  C   UNL     1      11.222  -1.674 -35.008  1.00  0.00     0.041 C 
ATOM      8  O   UNL     1      12.281  -1.675 -34.326  1.00  0.00    -0.550 OA
ATOM      9  O   UNL     1      11.293  -1.776 -36.392  1.00  0.00    -0.550 OA
ENDBRANCH   6   7
ENDBRANCH   5   6
ENDBRANCH   4   5
ENDBRANCH   3   4
ENDBRANCH   2   3
ENDBRANCH   1   2
BRANCH   1  10
ATOM     10  C   UNL     1       7.387  -5.702 -31.629  1.00  0.00     0.000 C 
BRANCH  10  11
ATOM     11  C   UNL     1       6.444  -6.890 -31.373  1.00  0.00    -0.000 C 
BRANCH  11  12
ATOM     12  C   UNL     1       5.240  -6.912 -32.331  1.00  0.00    -0.000 C 
BRANCH  12  13
ATOM     13  C   UNL     1       5.377  -7.881 -33.523  1.00  0.00    -0.000 C 
BRANCH  13  14
ATOM     14  C   UNL     1       5.596  -7.205 -34.892  1.00  0.00    -0.000 C 
BRANCH  14  15
ATOM     15  C   UNL     1       6.536  -7.964 -35.850  1.00  0.00    -0.000 C 
BRANCH  15  16
ATOM     16  C   UNL     1       6.696  -7.324 -37.241  1.00  0.00    -0.003 C 
ATOM     17  C   UNL     1       7.445  -5.993 -37.201  1.00  0.00     0.004 C 
ENDBRANCH  15  16
ENDBRANCH  14  15
ENDBRANCH  13  14
ENDBRANCH  12  13
ENDBRANCH  11  12
ENDBRANCH  10  11
ENDBRANCH   1  10
TORSDOF 13
ENDMDL
MODEL 2
REMARK VINA RESULT:    -4.280      4.526      6.483
REMARK INTER + INTRA:          -9.001
REMARK INTER:                  -7.003
REMARK INTRA:                  -1.998
REMARK UNBOUND:                -1.470
REMARK SMILES CCCCCCCCCCCCCCC(=O)[O-]
REMARK SMILES IDX 9 1 10 2 11 3 12 4 13 5 14 6 15 7 16 8 17 9 8 10 7 11 6 12
REMARK SMILES IDX 5 13 4 14 3 15 2 16 1 17
REMARK H PARENT
REMARK Flexibility Score: inf
ROOT
ATOM      1  C   UNL     1       8.090  -5.771 -33.139  1.00  0.00     0.000 C 
ENDROOT
BRANCH   1   2
ATOM      2  C   UNL     1       7.574  -5.803 -31.689  1.00  0.00     0.000 C 
BRANCH   2   3
ATOM      3  C   UNL     1       6.302  -6.651 -31.536  1.00  0.00     0.000 C 
BRANCH   3   4
ATOM      4  C   UNL     1       5.488  -6.740 -32.840  1.00  0.00     0.000 C 
BRANCH   4   5
ATOM      5  C   UNL     1       5.047  -8.178 -33.168  1.00  0.00     0.006 C 
BRANCH   5   6
ATOM      6  C   UNL     1       3.714  -8.270 -33.930  1.00  0.00     0.053 C 
BRANCH   6   7
ATOM      7  C   UNL     1       3.192  -9.673 -33.979  1.00  0.00     0.041 C 
ATOM      8  O   UNL     1       3.001 -10.239 -35.089  1.00  0.00    -0.550 OA
ATOM      9  O   UNL     1       2.949 -10.368 -32.801  1.00  0.00    -0.550 OA
ENDBRANCH   6   7
ENDBRANCH   5   6
ENDBRANCH   4   5
ENDBRANCH   3   4
ENDBRANCH   2   3
ENDBRANCH   1   2
BRANCH   1  10
ATOM     10  C   UNL     1       8.265  -4.338 -33.669  1.00  0.00     0.000 C 
BRANCH  10  11
ATOM     11  C   UNL     1       7.100  -3.414 -33.278  1.00  0.00    -0.000 C 
BRANCH  11  12
ATOM     12  C   UNL     1       5.977  -3.392 -34.331  1.00  0.00    -0.000 C 
BRANCH  12  13
ATOM     13  C   UNL     1       6.448  -3.122 -35.774  1.00  0.00    -0.000 C 
BRANCH  13  14
ATOM     14  C   UNL     1       6.355  -4.331 -36.728  1.00  0.00    -0.000 C 
BRANCH  14  15
ATOM     15  C   UNL     1       5.544  -5.526 -36.188  1.00  0.00    -0.000 C 
BRANCH  15  16
ATOM     16  C   UNL     1       5.993  -6.901 -36.713  1.00  0.00    -0.003 C 
ATOM     17  C   UNL     1       7.428  -7.251 -36.320  1.00  0.00     0.004 C 
ENDBRANCH  15  16
ENDBRANCH  14  15
ENDBRANCH  13  14
ENDBRANCH  12  13
ENDBRANCH  11  12
ENDBRANCH  10  11
ENDBRANCH   1  10
TORSDOF 13
ENDMDL
MODEL 3
REMARK VINA RESULT:    -4.218     15.322     17.331
REMARK INTER + INTRA:          -8.893
REMARK INTER:                  -7.347
REMARK INTRA:                  -1.546
REMARK UNBOUND:                -1.470
REMARK SMILES CCCCCCCCCCCCCCC(=O)[O-]
REMARK SMILES IDX 9 1 10 2 11 3 12 4 13 5 14 6 15 7 16 8 17 9 8 10 7 11 6 12
REMARK SMILES IDX 5 13 4 14 3 15 2 16 1 17
REMARK H PARENT
REMARK Flexibility Score: inf
ROOT
ATOM      1  C   UNL     1      18.060  -2.994 -17.967  1.00  0.00     0.000 C 
ENDROOT
BRANCH   1   2
ATOM      2  C   UNL     1      16.722  -3.736 -18.137  1.00  0.00     0.000 C 
BRANCH   2   3
ATOM      3  C   UNL     1      15.636  -2.852 -18.770  1.00  0.00     0.000 C 
BRANCH   3   4
ATOM      4  C   UNL     1      15.592  -2.973 -20.304  1.00  0.00     0.000 C 
BRANCH   4   5
ATOM      5  C   UNL     1      14.208  -2.637 -20.887  1.00  0.00     0.006 C 
BRANCH   5   6
ATOM      6  C   UNL     1      14.021  -3.062 -22.354  1.00  0.00     0.053 C 
BRANCH   6   7
ATOM      7  C   UNL     1      13.919  -4.549 -22.499  1.00  0.00     0.041 C 
ATOM      8  O   UNL     1      14.579  -5.145 -23.391  1.00  0.00    -0.550 OA
ATOM      9  O   UNL     1      13.122  -5.280 -21.627  1.00  0.00    -0.550 OA
ENDBRANCH   6   7
ENDBRANCH   5   6
ENDBRANCH   4   5
ENDBRANCH   3   4
ENDBRANCH   2   3
ENDBRANCH   1   2
BRANCH   1  10
ATOM     10  C   UNL     1      19.271  -3.882 -18.294  1.00  0.00     0.000 C 
BRANCH  10  11
ATOM     11  C   UNL     1      19.017  -5.369 -17.989  1.00  0.00    -0.000 C 
BRANCH  11  12
ATOM     12  C   UNL     1      19.984  -6.304 -18.737  1.00  0.00    -0.000 C 
BRANCH  12  13
ATOM     13  C   UNL     1      20.617  -5.699 -20.007  1.00  0.00    -0.000 C 
BRANCH  13  14
ATOM     14  C   UNL     1      20.386  -6.507 -21.300  1.00  0.00    -0.000 C 
BRANCH  14  15
ATOM     15  C   UNL     1      19.164  -7.447 -21.271  1.00  0.00    -0.000 C 
BRANCH  15  16
ATOM     16  C   UNL     1      17.884  -6.863 -21.896  1.00  0.00    -0.003 C 
ATOM     17  C   UNL     1      16.882  -6.372 -20.851  1.00  0.00     0.004 C 
ENDBRANCH  15  16
ENDBRANCH  14  15
ENDBRANCH  13  14
ENDBRANCH  12  13
ENDBRANCH  11  12
ENDBRANCH  10  11
ENDBRANCH   1  10
TORSDOF 13
ENDMDL
MODEL 4
REMARK VINA RESULT:    -4.198      3.293      5.231
REMARK INTER + INTRA:          -8.859
REMARK INTER:                  -6.968
REMARK INTRA:                  -1.891
REMARK UNBOUND:                -1.470
REMARK SMILES CCCCCCCCCCCCCCC(=O)[O-]
REMARK SMILES IDX 9 1 10 2 11 3 12 4 13 5 14 6 15 7 16 8 17 9 8 10 7 11 6 12
REMARK SMILES IDX 5 13 4 14 3 15 2 16 1 17
REMARK H PARENT
REMARK Flexibility Score: inf
ROOT
ATOM      1  C   UNL     1       4.757  -7.815 -33.398  1.00  0.00     0.000 C 
ENDROOT
BRANCH   1   2
ATOM      2  C   UNL     1       5.749  -7.850 -32.223  1.00  0.00     0.000 C 
BRANCH   2   3
ATOM      3  C   UNL     1       5.839  -6.503 -31.488  1.00  0.00     0.000 C 
BRANCH   3   4
ATOM      4  C   UNL     1       7.267  -5.928 -31.477  1.00  0.00     0.000 C 
BRANCH   4   5
ATOM      5  C   UNL     1       7.464  -4.809 -32.515  1.00  0.00     0.006 C 
BRANCH   5   6
ATOM      6  C   UNL     1       8.241  -5.242 -33.770  1.00  0.00     0.053 C 
BRANCH   6   7
ATOM      7  C   UNL     1       7.327  -5.627 -34.892  1.00  0.00     0.041 C 
ATOM      8  O   UNL     1       6.203  -5.069 -35.012  1.00  0.00    -0.550 OA
ATOM      9  O   UNL     1       7.729  -6.573 -35.825  1.00  0.00    -0.550 OA
ENDBRANCH   6   7
ENDBRANCH   5   6
ENDBRANCH   4   5
ENDBRANCH   3   4
ENDBRANCH   2   3
ENDBRANCH   1   2
BRANCH   1  10
ATOM     10  C   UNL     1       5.207  -8.698 -34.574  1.00  0.00     0.000 C 
BRANCH  10  11
ATOM     11  C   UNL     1       4.467  -8.366 -35.882  1.00  0.00    -0.000 C 
BRANCH  11  12
ATOM     12  C   UNL     1       3.384  -7.289 -35.696  1.00  0.00    -0.000 C 
BRANCH  12  13
ATOM     13  C   UNL     1       1.934  -7.800 -35.820  1.00  0.00    -0.000 C 
BRANCH  13  14
ATOM     14  C   UNL     1       1.030  -7.496 -34.608  1.00  0.00    -0.000 C 
BRANCH  14  15
ATOM     15  C   UNL     1       0.880  -8.655 -33.601  1.00  0.00    -0.000 C 
BRANCH  15  16
ATOM     16  C   UNL     1       1.613  -9.950 -33.992  1.00  0.00    -0.003 C 
ATOM     17  C   UNL     1       2.295 -10.629 -32.804  1.00  0.00     0.004 C 
ENDBRANCH  15  16
ENDBRANCH  14  15
ENDBRANCH  13  14
ENDBRANCH  12  13
ENDBRANCH  11  12
ENDBRANCH  10  11
ENDBRANCH   1  10
TORSDOF 13
ENDMDL
MODEL 5
REMARK VINA RESULT:    -4.192      2.315      4.596
REMARK INTER + INTRA:          -8.847
REMARK INTER:                  -7.073
REMARK INTRA:                  -1.774
REMARK UNBOUND:                -1.470
REMARK SMILES CCCCCCCCCCCCCCC(=O)[O-]
REMARK SMILES IDX 9 1 10 2 11 3 12 4 13 5 14 6 15 7 16 8 17 9 8 10 7 11 6 12
REMARK SMILES IDX 5 13 4 14 3 15 2 16 1 17
REMARK H PARENT
REMARK Flexibility Score: inf
ROOT
ATOM      1  C   UNL     1       5.008  -7.079 -34.578  1.00  0.00     0.000 C 
ENDROOT
BRANCH   1   2
ATOM      2  C   UNL     1       4.628  -7.581 -33.174  1.00  0.00     0.000 C 
BRANCH   2   3
ATOM      3  C   UNL     1       5.858  -7.838 -32.288  1.00  0.00     0.000 C 
BRANCH   3   4
ATOM      4  C   UNL     1       6.086  -6.720 -31.254  1.00  0.00     0.000 C 
BRANCH   4   5
ATOM      5  C   UNL     1       7.381  -5.928 -31.512  1.00  0.00     0.006 C 
BRANCH   5   6
ATOM      6  C   UNL     1       7.230  -4.790 -32.535  1.00  0.00     0.053 C 
BRANCH   6   7
ATOM      7  C   UNL     1       8.251  -4.878 -33.628  1.00  0.00     0.041 C 
ATOM      8  O   UNL     1       8.803  -5.979 -33.891  1.00  0.00    -0.550 OA
ATOM      9  O   UNL     1       8.567  -3.753 -34.378  1.00  0.00    -0.550 OA
ENDBRANCH   6   7
ENDBRANCH   5   6
ENDBRANCH   4   5
ENDBRANCH   3   4
ENDBRANCH   2   3
ENDBRANCH   1   2
BRANCH   1  10
ATOM     10  C   UNL     1       6.096  -7.942 -35.237  1.00  0.00     0.000 C 
BRANCH  10  11
ATOM     11  C   UNL     1       5.768  -8.300 -36.697  1.00  0.00    -0.000 C 
BRANCH  11  12
ATOM     12  C   UNL     1       6.628  -7.522 -37.708  1.00  0.00    -0.000 C 
BRANCH  12  13
ATOM     13  C   UNL     1       7.624  -6.526 -37.081  1.00  0.00    -0.000 C 
BRANCH  13  14
ATOM     14  C   UNL     1       7.419  -5.053 -37.489  1.00  0.00    -0.000 C 
BRANCH  14  15
ATOM     15  C   UNL     1       5.963  -4.663 -37.811  1.00  0.00    -0.000 C 
BRANCH  15  16
ATOM     16  C   UNL     1       5.107  -4.291 -36.587  1.00  0.00    -0.003 C 
ATOM     17  C   UNL     1       5.537  -2.975 -35.938  1.00  0.00     0.004 C 
ENDBRANCH  15  16
ENDBRANCH  14  15
ENDBRANCH  13  14
ENDBRANCH  12  13
ENDBRANCH  11  12
ENDBRANCH  10  11
ENDBRANCH   1  10
TORSDOF 13
ENDMDL
MODEL 6
REMARK VINA RESULT:    -4.174      2.892      5.029
REMARK INTER + INTRA:          -8.815
REMARK INTER:                  -7.097
REMARK INTRA:                  -1.718
REMARK UNBOUND:                -1.470
REMARK SMILES CCCCCCCCCCCCCCC(=O)[O-]
REMARK SMILES IDX 9 1 10 2 11 3 12 4 13 5 14 6 15 7 16 8 17 9 8 10 7 11 6 12
REMARK SMILES IDX 5 13 4 14 3 15 2 16 1 17
REMARK H PARENT
REMARK Flexibility Score: inf
ROOT
ATOM      1  C   UNL     1       6.203  -8.086 -35.392  1.00  0.00     0.000 C 
ENDROOT
BRANCH   1   2
ATOM      2  C   UNL     1       5.324  -8.155 -34.131  1.00  0.00     0.000 C 
BRANCH   2   3
ATOM      3  C   UNL     1       5.383  -6.864 -33.300  1.00  0.00     0.000 C 
BRANCH   3   4
ATOM      4  C   UNL     1       6.140  -7.048 -31.972  1.00  0.00     0.000 C 
BRANCH   4   5
ATOM      5  C   UNL     1       7.133  -5.905 -31.691  1.00  0.00     0.006 C 
BRANCH   5   6
ATOM      6  C   UNL     1       8.114  -5.626 -32.843  1.00  0.00     0.053 C 
BRANCH   6   7
ATOM      7  C   UNL     1       7.951  -4.243 -33.395  1.00  0.00     0.041 C 
ATOM      8  O   UNL     1       8.803  -3.778 -34.199  1.00  0.00    -0.550 OA
ATOM      9  O   UNL     1       6.841  -3.482 -33.051  1.00  0.00    -0.550 OA
ENDBRANCH   6   7
ENDBRANCH   5   6
ENDBRANCH   4   5
ENDBRANCH   3   4
ENDBRANCH   2   3
ENDBRANCH   1   2
BRANCH   1  10
ATOM     10  C   UNL     1       6.352  -6.652 -35.926  1.00  0.00     0.000 C 
BRANCH  10  11
ATOM     11  C   UNL     1       5.351  -6.330 -37.049  1.00  0.00    -0.000 C 
BRANCH  11  12
ATOM     12  C   UNL     1       4.330  -5.252 -36.644  1.00  0.00    -0.000 C 
BRANCH  12  13
ATOM     13  C   UNL     1       2.854  -5.642 -36.865  1.00  0.00    -0.000 C 
BRANCH  13  14
ATOM     14  C   UNL     1       2.505  -7.102 -36.513  1.00  0.00    -0.000 C 
BRANCH  14  15
ATOM     15  C   UNL     1       1.492  -7.270 -35.363  1.00  0.00    -0.000 C 
BRANCH  15  16
ATOM     16  C   UNL     1       1.685  -8.538 -34.511  1.00  0.00    -0.003 C 
ATOM     17  C   UNL     1       1.090  -8.410 -33.109  1.00  0.00     0.004 C 
ENDBRANCH  15  16
ENDBRANCH  14  15
ENDBRANCH  13  14
ENDBRANCH  12  13
ENDBRANCH  11  12
ENDBRANCH  10  11
ENDBRANCH   1  10
TORSDOF 13
ENDMDL
MODEL 7
REMARK VINA RESULT:    -4.150     15.189     17.279
REMARK INTER + INTRA:          -8.774
REMARK INTER:                  -6.928
REMARK INTRA:                  -1.846
REMARK UNBOUND:                -1.470
REMARK SMILES CCCCCCCCCCCCCCC(=O)[O-]
REMARK SMILES IDX 9 1 10 2 11 3 12 4 13 5 14 6 15 7 16 8 17 9 8 10 7 11 6 12
REMARK SMILES IDX 5 13 4 14 3 15 2 16 1 17
REMARK H PARENT
REMARK Flexibility Score: inf
ROOT
ATOM      1  C   UNL     1      17.644  -6.050 -18.360  1.00  0.00     0.000 C 
ENDROOT
BRANCH   1   2
ATOM      2  C   UNL     1      16.357  -6.236 -19.183  1.00  0.00     0.000 C 
BRANCH   2   3
ATOM      3  C   UNL     1      16.176  -5.143 -20.248  1.00  0.00     0.000 C 
BRANCH   3   4
ATOM      4  C   UNL     1      15.682  -5.704 -21.594  1.00  0.00     0.000 C 
BRANCH   4   5
ATOM      5  C   UNL     1      14.659  -4.782 -22.282  1.00  0.00     0.006 C 
BRANCH   5   6
ATOM      6  C   UNL     1      13.427  -4.455 -21.421  1.00  0.00     0.053 C 
BRANCH   6   7
ATOM      7  C   UNL     1      13.238  -2.979 -21.249  1.00  0.00     0.041 C 
ATOM      8  O   UNL     1      14.239  -2.215 -21.195  1.00  0.00    -0.550 OA
ATOM      9  O   UNL     1      11.958  -2.443 -21.183  1.00  0.00    -0.550 OA
ENDBRANCH   6   7
ENDBRANCH   5   6
ENDBRANCH   4   5
ENDBRANCH   3   4
ENDBRANCH   2   3
ENDBRANCH   1   2
BRANCH   1  10
ATOM     10  C   UNL     1      18.193  -4.616 -18.444  1.00  0.00     0.000 C 
BRANCH  10  11
ATOM     11  C   UNL     1      19.700  -4.575 -18.755  1.00  0.00    -0.000 C 
BRANCH  11  12
ATOM     12  C   UNL     1      20.237  -5.920 -19.275  1.00  0.00    -0.000 C 
BRANCH  12  13
ATOM     13  C   UNL     1      21.090  -5.825 -20.557  1.00  0.00    -0.000 C 
BRANCH  13  14
ATOM     14  C   UNL     1      20.592  -6.684 -21.737  1.00  0.00    -0.000 C 
BRANCH  14  15
ATOM     15  C   UNL     1      19.078  -6.975 -21.738  1.00  0.00    -0.000 C 
BRANCH  15  16
ATOM     16  C   UNL     1      18.707  -8.468 -21.757  1.00  0.00    -0.003 C 
ATOM     17  C   UNL     1      18.643  -9.084 -20.359  1.00  0.00     0.004 C 
ENDBRANCH  15  16
ENDBRANCH  14  15
ENDBRANCH  13  14
ENDBRANCH  12  13
ENDBRANCH  11  12
ENDBRANCH  10  11
ENDBRANCH   1  10
TORSDOF 13
ENDMDL
MODEL 8
REMARK VINA RESULT:    -4.127      2.157      4.162
REMARK INTER + INTRA:          -8.734
REMARK INTER:                  -7.225
REMARK INTRA:                  -1.509
REMARK UNBOUND:                -1.470
REMARK SMILES CCCCCCCCCCCCCCC(=O)[O-]
REMARK SMILES IDX 9 1 10 2 11 3 12 4 13 5 14 6 15 7 16 8 17 9 8 10 7 11 6 12
REMARK SMILES IDX 5 13 4 14 3 15 2 16 1 17
REMARK H PARENT
REMARK Flexibility Score: inf
ROOT
ATOM      1  C   UNL     1       3.194  -4.203 -37.015  1.00  0.00     0.000 C 
ENDROOT
BRANCH   1   2
ATOM      2  C   UNL     1       3.827  -2.879 -36.552  1.00  0.00     0.000 C 
BRANCH   2   3
ATOM      3  C   UNL     1       5.331  -3.015 -36.263  1.00  0.00     0.000 C 
BRANCH   3   4
ATOM      4  C   UNL     1       5.630  -3.236 -34.769  1.00  0.00     0.000 C 
BRANCH   4   5
ATOM      5  C   UNL     1       7.073  -3.712 -34.517  1.00  0.00     0.006 C 
BRANCH   5   6
ATOM      6  C   UNL     1       8.025  -2.607 -34.030  1.00  0.00     0.053 C 
BRANCH   6   7
ATOM      7  C   UNL     1       9.069  -2.274 -35.052  1.00  0.00     0.041 C 
ATOM      8  O   UNL     1       8.729  -1.961 -36.224  1.00  0.00    -0.550 OA
ATOM      9  O   UNL     1      10.412  -2.275 -34.701  1.00  0.00    -0.550 OA
ENDBRANCH   6   7
ENDBRANCH   5   6
ENDBRANCH   4   5
ENDBRANCH   3   4
ENDBRANCH   2   3
ENDBRANCH   1   2
BRANCH   1  10
ATOM     10  C   UNL     1       4.241  -5.299 -37.270  1.00  0.00     0.000 C 
BRANCH  10  11
ATOM     11  C   UNL     1       4.139  -6.463 -36.269  1.00  0.00    -0.000 C 
BRANCH  11  12
ATOM     12  C   UNL     1       5.506  -6.880 -35.700  1.00  0.00    -0.000 C 
BRANCH  12  13
ATOM     13  C   UNL     1       5.498  -8.192 -34.890  1.00  0.00    -0.000 C 
BRANCH  13  14
ATOM     14  C   UNL     1       5.058  -8.049 -33.419  1.00  0.00    -0.000 C 
BRANCH  14  15
ATOM     15  C   UNL     1       5.352  -6.676 -32.782  1.00  0.00    -0.000 C 
BRANCH  15  16
ATOM     16  C   UNL     1       6.229  -6.724 -31.518  1.00  0.00    -0.003 C 
ATOM     17  C   UNL     1       7.506  -5.895 -31.647  1.00  0.00     0.004 C 
ENDBRANCH  15  16
ENDBRANCH  14  15
ENDBRANCH  13  14
ENDBRANCH  12  13
ENDBRANCH  11  12
ENDBRANCH  10  11
ENDBRANCH   1  10
TORSDOF 13
ENDMDL
MODEL 9
REMARK VINA RESULT:    -3.454      5.057      7.630
REMARK INTER + INTRA:          -7.549
REMARK INTER:                  -5.913
REMARK INTRA:                  -1.635
REMARK UNBOUND:                -1.470
REMARK SMILES CCCCCCCCCCCCCCC(=O)[O-]
REMARK SMILES IDX 9 1 10 2 11 3 12 4 13 5 14 6 15 7 16 8 17 9 8 10 7 11 6 12
REMARK SMILES IDX 5 13 4 14 3 15 2 16 1 17
REMARK H PARENT
REMARK Flexibility Score: inf
ROOT
ATOM      1  C   UNL     1       4.912  -6.828 -35.348  1.00  0.00     0.000 C 
ENDROOT
BRANCH   1   2
ATOM      2  C   UNL     1       4.036  -6.900 -36.612  1.00  0.00     0.000 C 
BRANCH   2   3
ATOM      3  C   UNL     1       2.553  -6.631 -36.315  1.00  0.00     0.000 C 
BRANCH   3   4
ATOM      4  C   UNL     1       1.702  -7.914 -36.341  1.00  0.00     0.000 C 
BRANCH   4   5
ATOM      5  C   UNL     1       0.875  -8.104 -35.056  1.00  0.00     0.006 C 
BRANCH   5   6
ATOM      6  C   UNL     1       1.718  -8.366 -33.796  1.00  0.00     0.053 C 
BRANCH   6   7
ATOM      7  C   UNL     1       1.958  -9.828 -33.575  1.00  0.00     0.041 C 
ATOM      8  O   UNL     1       2.539 -10.515 -34.457  1.00  0.00    -0.550 OA
ATOM      9  O   UNL     1       1.571 -10.424 -32.382  1.00  0.00    -0.550 OA
ENDBRANCH   6   7
ENDBRANCH   5   6
ENDBRANCH   4   5
ENDBRANCH   3   4
ENDBRANCH   2   3
ENDBRANCH   1   2
BRANCH   1  10
ATOM     10  C   UNL     1       5.316  -8.219 -34.833  1.00  0.00     0.000 C 
BRANCH  10  11
ATOM     11  C   UNL     1       5.328  -8.302 -33.296  1.00  0.00    -0.000 C 
BRANCH  11  12
ATOM     12  C   UNL     1       5.319  -6.917 -32.625  1.00  0.00    -0.000 C 
BRANCH  12  13
ATOM     13  C   UNL     1       6.291  -6.766 -31.438  1.00  0.00    -0.000 C 
BRANCH  13  14
ATOM     14  C   UNL     1       7.366  -5.673 -31.609  1.00  0.00    -0.000 C 
BRANCH  14  15
ATOM     15  C   UNL     1       7.500  -5.110 -33.039  1.00  0.00    -0.000 C 
BRANCH  15  16
ATOM     16  C   UNL     1       7.112  -3.629 -33.189  1.00  0.00    -0.003 C 
ATOM     17  C   UNL     1       6.119  -3.386 -34.326  1.00  0.00     0.004 C 
ENDBRANCH  15  16
ENDBRANCH  14  15
ENDBRANCH  13  14
ENDBRANCH  12  13
ENDBRANCH  11  12
ENDBRANCH  10  11
ENDBRANCH   1  10
TORSDOF 13
ENDMDL
