MODEL 1
REMARK VINA RESULT:    -5.910      0.000      0.000
REMARK INTER + INTRA:          -6.826
REMARK INTER:                  -6.773
REMARK INTRA:                  -0.053
REMARK UNBOUND:                -0.053
REMARK SMILES O=C([O-])c1cc(O)c(O)c(O)c1
REMARK SMILES IDX 4 1 5 2 12 3 6 4 10 5 8 6 2 7 1 8 3 9 7 10 11 12 9 14
REMARK H PARENT 7 11 11 13 9 15
REMARK Flexibility Score: inf
ROOT
ATOM      1  C   UNL     1       4.230  15.408   3.234  1.00  0.00     0.005 A 
ATOM      2  C   UNL     1       4.824  15.340   1.963  1.00  0.00     0.060 A 
ATOM      3  C   UNL     1       2.897  14.991   3.388  1.00  0.00     0.060 A 
ATOM      4  C   UNL     1       4.104  14.863   0.862  1.00  0.00     0.162 A 
ATOM      5  C   UNL     1       2.169  14.512   2.290  1.00  0.00     0.162 A 
ATOM      6  C   UNL     1       2.772  14.447   1.022  1.00  0.00     0.200 A 
ENDROOT
BRANCH   1   7
ATOM      7  C   UNL     1       4.993  15.912   4.398  1.00  0.00     0.072 C 
ATOM      8  O   UNL     1       6.215  16.196   4.288  1.00  0.00    -0.545 OA
ATOM      9  O   UNL     1       4.371  16.081   5.629  1.00  0.00    -0.545 OA
ENDBRANCH   1   7
BRANCH   4  10
ATOM     10  O   UNL     1       4.731  14.810  -0.383  1.00  0.00    -0.504 OA
ATOM     11  H   UNL     1       4.229  14.569  -1.229  1.00  0.00     0.293 HD
ENDBRANCH   4  10
BRANCH   5  12
ATOM     12  O   UNL     1       0.847  14.100   2.455  1.00  0.00    -0.504 OA
ATOM     13  H   UNL     1       0.553  13.156   2.236  1.00  0.00     0.293 HD
ENDBRANCH   5  12
BRANCH   6  14
ATOM     14  O   UNL     1       2.061  13.973  -0.081  1.00  0.00    -0.502 OA
ATOM     15  H   UNL     1       2.476  13.902  -1.002  1.00  0.00     0.293 HD
ENDBRANCH   6  14
TORSDOF 4
ENDMDL
MODEL 2
REMARK VINA RESULT:    -5.887      0.105      2.603
REMARK INTER + INTRA:          -6.800
REMARK INTER:                  -6.747
REMARK INTRA:                  -0.053
REMARK UNBOUND:                -0.053
REMARK SMILES O=C([O-])c1cc(O)c(O)c(O)c1
REMARK SMILES IDX 4 1 5 2 12 3 6 4 10 5 8 6 2 7 1 8 3 9 7 10 11 12 9 14
REMARK H PARENT 7 11 11 13 9 15
REMARK Flexibility Score: inf
ROOT
ATOM      1  C   UNL     1       4.274  15.466   3.230  1.00  0.00     0.005 A 
ATOM      2  C   UNL     1       2.940  15.054   3.389  1.00  0.00     0.060 A 
ATOM      3  C   UNL     1       4.865  15.384   1.958  1.00  0.00     0.060 A 
ATOM      4  C   UNL     1       2.207  14.569   2.301  1.00  0.00     0.162 A 
ATOM      5  C   UNL     1       4.137  14.899   0.862  1.00  0.00     0.162 A 
ATOM      6  C   UNL     1       2.804  14.489   1.032  1.00  0.00     0.200 A 
ENDROOT
BRANCH   1   7
ATOM      7  C   UNL     1       5.048  15.980   4.381  1.00  0.00     0.072 C 
ATOM      8  O   UNL     1       4.483  16.205   5.484  1.00  0.00    -0.545 OA
ATOM      9  O   UNL     1       6.412  16.219   4.263  1.00  0.00    -0.545 OA
ENDBRANCH   1   7
BRANCH   4  10
ATOM     10  O   UNL     1       0.885  14.171   2.501  1.00  0.00    -0.504 OA
ATOM     11  H   UNL     1       0.460  13.424   1.966  1.00  0.00     0.293 HD
ENDBRANCH   4  10
BRANCH   5  12
ATOM     12  O   UNL     1       4.735  14.823  -0.394  1.00  0.00    -0.504 OA
ATOM     13  H   UNL     1       5.445  15.484  -0.687  1.00  0.00     0.293 HD
ENDBRANCH   5  12
BRANCH   6  14
ATOM     14  O   UNL     1       2.065  14.004  -0.048  1.00  0.00    -0.502 OA
ATOM     15  H   UNL     1       2.292  14.240  -1.007  1.00  0.00     0.293 HD
ENDBRANCH   6  14
TORSDOF 4
ENDMDL
MODEL 3
REMARK VINA RESULT:    -5.787      1.204      4.138
REMARK INTER + INTRA:          -6.686
REMARK INTER:                  -6.633
REMARK INTRA:                  -0.053
REMARK UNBOUND:                -0.053
REMARK SMILES O=C([O-])c1cc(O)c(O)c(O)c1
REMARK SMILES IDX 4 1 5 2 12 3 6 4 10 5 8 6 2 7 1 8 3 9 7 10 11 12 9 14
REMARK H PARENT 7 11 11 13 9 15
REMARK Flexibility Score: inf
ROOT
ATOM      1  C   UNL     1       3.597  14.654   2.500  1.00  0.00     0.005 A 
ATOM      2  C   UNL     1       4.857  14.454   1.913  1.00  0.00     0.060 A 
ATOM      3  C   UNL     1       3.518  15.303   3.744  1.00  0.00     0.060 A 
ATOM      4  C   UNL     1       6.021  14.892   2.553  1.00  0.00     0.162 A 
ATOM      5  C   UNL     1       4.680  15.745   4.392  1.00  0.00     0.162 A 
ATOM      6  C   UNL     1       5.936  15.540   3.797  1.00  0.00     0.200 A 
ENDROOT
BRANCH   1   7
ATOM      7  C   UNL     1       2.366  14.190   1.821  1.00  0.00     0.072 C 
ATOM      8  O   UNL     1       2.417  13.715   0.656  1.00  0.00    -0.545 OA
ATOM      9  O   UNL     1       1.135  14.272   2.460  1.00  0.00    -0.545 OA
ENDBRANCH   1   7
BRANCH   4  10
ATOM     10  O   UNL     1       7.254  14.675   1.937  1.00  0.00    -0.504 OA
ATOM     11  H   UNL     1       8.053  14.314   2.443  1.00  0.00     0.293 HD
ENDBRANCH   4  10
BRANCH   5  12
ATOM     12  O   UNL     1       4.589  16.387   5.626  1.00  0.00    -0.504 OA
ATOM     13  H   UNL     1       5.408  16.566   6.194  1.00  0.00     0.293 HD
ENDBRANCH   5  12
BRANCH   6  14
ATOM     14  O   UNL     1       7.102  15.974   4.429  1.00  0.00    -0.502 OA
ATOM     15  H   UNL     1       8.023  15.686   4.121  1.00  0.00     0.293 HD
ENDBRANCH   6  14
TORSDOF 4
ENDMDL
MODEL 4
REMARK VINA RESULT:    -5.757      1.211      4.682
REMARK INTER + INTRA:          -6.651
REMARK INTER:                  -6.598
REMARK INTRA:                  -0.052
REMARK UNBOUND:                -0.053
REMARK SMILES O=C([O-])c1cc(O)c(O)c(O)c1
REMARK SMILES IDX 4 1 5 2 12 3 6 4 10 5 8 6 2 7 1 8 3 9 7 10 11 12 9 14
REMARK H PARENT 7 11 11 13 9 15
REMARK Flexibility Score: inf
ROOT
ATOM      1  C   UNL     1       3.597  14.702   2.477  1.00  0.00     0.005 A 
ATOM      2  C   UNL     1       3.536  15.391   3.699  1.00  0.00     0.060 A 
ATOM      3  C   UNL     1       4.852  14.457   1.893  1.00  0.00     0.060 A 
ATOM      4  C   UNL     1       4.704  15.829   4.332  1.00  0.00     0.162 A 
ATOM      5  C   UNL     1       6.027  14.893   2.521  1.00  0.00     0.162 A 
ATOM      6  C   UNL     1       5.956  15.581   3.744  1.00  0.00     0.200 A 
ENDROOT
BRANCH   1   7
ATOM      7  C   UNL     1       2.360  14.239   1.809  1.00  0.00     0.072 C 
ATOM      8  O   UNL     1       2.393  13.813   0.624  1.00  0.00    -0.545 OA
ATOM      9  O   UNL     1       1.143  14.265   2.480  1.00  0.00    -0.545 OA
ENDBRANCH   1   7
BRANCH   4  10
ATOM     10  O   UNL     1       4.601  16.508   5.546  1.00  0.00    -0.504 OA
ATOM     11  H   UNL     1       4.616  17.519   5.601  1.00  0.00     0.293 HD
ENDBRANCH   4  10
BRANCH   5  12
ATOM     12  O   UNL     1       7.266  14.644   1.932  1.00  0.00    -0.504 OA
ATOM     13  H   UNL     1       8.126  14.677   2.467  1.00  0.00     0.293 HD
ENDBRANCH   5  12
BRANCH   6  14
ATOM     14  O   UNL     1       7.116  16.021   4.382  1.00  0.00    -0.502 OA
ATOM     15  H   UNL     1       7.678  15.411   4.962  1.00  0.00     0.293 HD
ENDBRANCH   6  14
TORSDOF 4
ENDMDL
MODEL 5
REMARK VINA RESULT:    -5.717      1.199      4.849
REMARK INTER + INTRA:          -6.605
REMARK INTER:                  -6.554
REMARK INTRA:                  -0.051
REMARK UNBOUND:                -0.053
REMARK SMILES O=C([O-])c1cc(O)c(O)c(O)c1
REMARK SMILES IDX 4 1 5 2 12 3 6 4 10 5 8 6 2 7 1 8 3 9 7 10 11 12 9 14
REMARK H PARENT 7 11 11 13 9 15
REMARK Flexibility Score: inf
ROOT
ATOM      1  C   UNL     1       3.959  14.563   2.471  1.00  0.00     0.005 A 
ATOM      2  C   UNL     1       2.918  14.588   3.413  1.00  0.00     0.060 A 
ATOM      3  C   UNL     1       5.191  15.153   2.800  1.00  0.00     0.060 A 
ATOM      4  C   UNL     1       3.099  15.190   4.663  1.00  0.00     0.162 A 
ATOM      5  C   UNL     1       5.381  15.758   4.050  1.00  0.00     0.162 A 
ATOM      6  C   UNL     1       4.333  15.778   4.986  1.00  0.00     0.200 A 
ENDROOT
BRANCH   1   7
ATOM      7  C   UNL     1       3.766  13.926   1.149  1.00  0.00     0.072 C 
ATOM      8  O   UNL     1       2.615  13.827   0.648  1.00  0.00    -0.545 OA
ATOM      9  O   UNL     1       4.853  13.428   0.441  1.00  0.00    -0.545 OA
ENDBRANCH   1   7
BRANCH   4  10
ATOM     10  O   UNL     1       2.041  15.192   5.571  1.00  0.00    -0.504 OA
ATOM     11  H   UNL     1       2.121  15.605   6.492  1.00  0.00     0.293 HD
ENDBRANCH   4  10
BRANCH   5  12
ATOM     12  O   UNL     1       6.608  16.339   4.365  1.00  0.00    -0.504 OA
ATOM     13  H   UNL     1       7.469  15.806   4.349  1.00  0.00     0.293 HD
ENDBRANCH   5  12
BRANCH   6  14
ATOM     14  O   UNL     1       4.506  16.376   6.235  1.00  0.00    -0.502 OA
ATOM     15  H   UNL     1       4.479  17.380   6.361  1.00  0.00     0.293 HD
ENDBRANCH   6  14
TORSDOF 4
ENDMDL
MODEL 6
REMARK VINA RESULT:    -5.716      1.213      4.249
REMARK INTER + INTRA:          -6.605
REMARK INTER:                  -6.553
REMARK INTRA:                  -0.051
REMARK UNBOUND:                -0.053
REMARK SMILES O=C([O-])c1cc(O)c(O)c(O)c1
REMARK SMILES IDX 4 1 5 2 12 3 6 4 10 5 8 6 2 7 1 8 3 9 7 10 11 12 9 14
REMARK H PARENT 7 11 11 13 9 15
REMARK Flexibility Score: inf
ROOT
ATOM      1  C   UNL     1       4.007  14.602   2.490  1.00  0.00     0.005 A 
ATOM      2  C   UNL     1       5.224  15.202   2.852  1.00  0.00     0.060 A 
ATOM      3  C   UNL     1       2.946  14.600   3.411  1.00  0.00     0.060 A 
ATOM      4  C   UNL     1       5.383  15.792   4.111  1.00  0.00     0.162 A 
ATOM      5  C   UNL     1       3.097  15.189   4.675  1.00  0.00     0.162 A 
ATOM      6  C   UNL     1       4.319  15.787   5.028  1.00  0.00     0.200 A 
ENDROOT
BRANCH   1   7
ATOM      7  C   UNL     1       3.839  13.979   1.158  1.00  0.00     0.072 C 
ATOM      8  O   UNL     1       2.697  13.878   0.637  1.00  0.00    -0.545 OA
ATOM      9  O   UNL     1       4.942  13.498   0.461  1.00  0.00    -0.545 OA
ENDBRANCH   1   7
BRANCH   4  10
ATOM     10  O   UNL     1       6.607  16.378   4.432  1.00  0.00    -0.504 OA
ATOM     11  H   UNL     1       7.111  16.966   3.780  1.00  0.00     0.293 HD
ENDBRANCH   4  10
BRANCH   5  12
ATOM     12  O   UNL     1       2.037  15.181   5.580  1.00  0.00    -0.504 OA
ATOM     13  H   UNL     1       1.402  15.966   5.662  1.00  0.00     0.293 HD
ENDBRANCH   5  12
BRANCH   6  14
ATOM     14  O   UNL     1       4.486  16.377   6.281  1.00  0.00    -0.502 OA
ATOM     15  H   UNL     1       5.281  16.171   6.874  1.00  0.00     0.293 HD
ENDBRANCH   6  14
TORSDOF 4
ENDMDL
MODEL 7
REMARK VINA RESULT:    -5.614      2.147      4.399
REMARK INTER + INTRA:          -6.487
REMARK INTER:                  -6.434
REMARK INTRA:                  -0.053
REMARK UNBOUND:                -0.053
REMARK SMILES O=C([O-])c1cc(O)c(O)c(O)c1
REMARK SMILES IDX 4 1 5 2 12 3 6 4 10 5 8 6 2 7 1 8 3 9 7 10 11 12 9 14
REMARK H PARENT 7 11 11 13 9 15
REMARK Flexibility Score: inf
ROOT
ATOM      1  C   UNL     1       4.736  14.477   2.170  1.00  0.00     0.005 A 
ATOM      2  C   UNL     1       5.587  13.925   1.198  1.00  0.00     0.060 A 
ATOM      3  C   UNL     1       5.293  15.229   3.218  1.00  0.00     0.060 A 
ATOM      4  C   UNL     1       6.971  14.118   1.268  1.00  0.00     0.162 A 
ATOM      5  C   UNL     1       6.679  15.427   3.295  1.00  0.00     0.162 A 
ATOM      6  C   UNL     1       7.523  14.871   2.318  1.00  0.00     0.200 A 
ENDROOT
BRANCH   1   7
ATOM      7  C   UNL     1       3.272  14.273   2.095  1.00  0.00     0.072 C 
ATOM      8  O   UNL     1       2.775  13.511   1.224  1.00  0.00    -0.545 OA
ATOM      9  O   UNL     1       2.423  14.919   2.986  1.00  0.00    -0.545 OA
ENDBRANCH   1   7
BRANCH   4  10
ATOM     10  O   UNL     1       7.782  13.554   0.283  1.00  0.00    -0.504 OA
ATOM     11  H   UNL     1       7.985  12.562   0.255  1.00  0.00     0.293 HD
ENDBRANCH   4  10
BRANCH   5  12
ATOM     12  O   UNL     1       7.220  16.175   4.339  1.00  0.00    -0.504 OA
ATOM     13  H   UNL     1       7.054  15.934   5.309  1.00  0.00     0.293 HD
ENDBRANCH   5  12
BRANCH   6  14
ATOM     14  O   UNL     1       8.904  15.058   2.380  1.00  0.00    -0.502 OA
ATOM     15  H   UNL     1       9.417  15.008   3.252  1.00  0.00     0.293 HD
ENDBRANCH   6  14
TORSDOF 4
ENDMDL
MODEL 8
REMARK VINA RESULT:    -5.596      2.246      4.798
REMARK INTER + INTRA:          -6.467
REMARK INTER:                  -6.414
REMARK INTRA:                  -0.053
REMARK UNBOUND:                -0.053
REMARK SMILES O=C([O-])c1cc(O)c(O)c(O)c1
REMARK SMILES IDX 4 1 5 2 12 3 6 4 10 5 8 6 2 7 1 8 3 9 7 10 11 12 9 14
REMARK H PARENT 7 11 11 13 9 15
REMARK Flexibility Score: inf
ROOT
ATOM      1  C   UNL     1       4.841  14.411   2.020  1.00  0.00     0.005 A 
ATOM      2  C   UNL     1       5.420  15.076   3.114  1.00  0.00     0.060 A 
ATOM      3  C   UNL     1       5.677  13.891   1.017  1.00  0.00     0.060 A 
ATOM      4  C   UNL     1       6.808  15.222   3.208  1.00  0.00     0.162 A 
ATOM      5  C   UNL     1       7.069  14.034   1.104  1.00  0.00     0.162 A 
ATOM      6  C   UNL     1       7.638  14.700   2.202  1.00  0.00     0.200 A 
ENDROOT
BRANCH   1   7
ATOM      7  C   UNL     1       3.372  14.256   1.922  1.00  0.00     0.072 C 
ATOM      8  O   UNL     1       2.860  13.575   0.995  1.00  0.00    -0.545 OA
ATOM      9  O   UNL     1       2.536  14.859   2.854  1.00  0.00    -0.545 OA
ENDBRANCH   1   7
BRANCH   4  10
ATOM     10  O   UNL     1       7.344  15.888   4.310  1.00  0.00    -0.504 OA
ATOM     11  H   UNL     1       6.793  16.521   4.877  1.00  0.00     0.293 HD
ENDBRANCH   4  10
BRANCH   5  12
ATOM     12  O   UNL     1       7.887  13.513   0.103  1.00  0.00    -0.504 OA
ATOM     13  H   UNL     1       7.788  13.795  -0.865  1.00  0.00     0.293 HD
ENDBRANCH   5  12
BRANCH   6  14
ATOM     14  O   UNL     1       9.022  14.850   2.303  1.00  0.00    -0.502 OA
ATOM     15  H   UNL     1       9.632  14.798   1.496  1.00  0.00     0.293 HD
ENDBRANCH   6  14
TORSDOF 4
ENDMDL
MODEL 9
REMARK VINA RESULT:    -5.528      1.659      2.941
REMARK INTER + INTRA:          -6.388
REMARK INTER:                  -6.335
REMARK INTRA:                  -0.053
REMARK UNBOUND:                -0.053
REMARK SMILES O=C([O-])c1cc(O)c(O)c(O)c1
REMARK SMILES IDX 4 1 5 2 12 3 6 4 10 5 8 6 2 7 1 8 3 9 7 10 11 12 9 14
REMARK H PARENT 7 11 11 13 9 15
REMARK Flexibility Score: inf
ROOT
ATOM      1  C   UNL     1       5.538  14.281   2.049  1.00  0.00     0.005 A 
ATOM      2  C   UNL     1       4.626  13.979   1.024  1.00  0.00     0.060 A 
ATOM      3  C   UNL     1       5.051  14.749   3.280  1.00  0.00     0.060 A 
ATOM      4  C   UNL     1       3.250  14.141   1.222  1.00  0.00     0.162 A 
ATOM      5  C   UNL     1       3.674  14.915   3.487  1.00  0.00     0.162 A 
ATOM      6  C   UNL     1       2.769  14.610   2.456  1.00  0.00     0.200 A 
ENDROOT
BRANCH   1   7
ATOM      7  C   UNL     1       6.993  14.108   1.838  1.00  0.00     0.072 C 
ATOM      8  O   UNL     1       7.440  13.752   0.716  1.00  0.00    -0.545 OA
ATOM      9  O   UNL     1       7.888  14.339   2.877  1.00  0.00    -0.545 OA
ENDBRANCH   1   7
BRANCH   4  10
ATOM     10  O   UNL     1       2.377  13.830   0.180  1.00  0.00    -0.504 OA
ATOM     11  H   UNL     1       2.573  13.094  -0.487  1.00  0.00     0.293 HD
ENDBRANCH   4  10
BRANCH   5  12
ATOM     12  O   UNL     1       3.203  15.380   4.713  1.00  0.00    -0.504 OA
ATOM     13  H   UNL     1       3.656  16.143   5.202  1.00  0.00     0.293 HD
ENDBRANCH   5  12
BRANCH   6  14
ATOM     14  O   UNL     1       1.395  14.769   2.645  1.00  0.00    -0.502 OA
ATOM     15  H   UNL     1       0.715  14.419   1.982  1.00  0.00     0.293 HD
ENDBRANCH   6  14
TORSDOF 4
ENDMDL
