MODEL 1
REMARK VINA RESULT:     1.538      0.000      0.000
REMARK INTER + INTRA:           3.511
REMARK INTER:                   2.168
REMARK INTRA:                   1.343
REMARK UNBOUND:                 1.343
REMARK SMILES C[C@H](CO)CCC(=O)[C@@H](C)[C@H]1C(=O)C[C@@H]2[C@@H]3CC=C4C[C@H](O)CC[C@]4(C)[C@@H]3CC[C@]21C
REMARK SMILES IDX 6 1 5 2 2 3 1 4 3 5 4 6 7 8 8 9 9 10 10 11 11 12 12 13 30 14
REMARK SMILES IDX 13 15 14 16 15 17 29 18 31 19 16 20 28 21 27 22 17 23 25 24
REMARK SMILES IDX 18 25 19 26 24 27 26 28 20 29 23 30 21 31 22 32
REMARK H PARENT 4 7 22 33
REMARK Flexibility Score: inf
ROOT
ATOM      1  C   UNL     1       0.862  42.142  13.930  1.00  0.00     0.076 C 
ENDROOT
BRANCH   1   2
ATOM      2  C   UNL     1      -0.662  42.033  14.105  1.00  0.00     0.013 C 
BRANCH   2   3
ATOM      3  C   UNL     1      -1.116  40.622  14.549  1.00  0.00     0.012 C 
ATOM      4  C   UNL     1      -0.998  40.499  16.077  1.00  0.00     0.010 C 
BRANCH   3   5
ATOM      5  C   UNL     1      -0.293  39.515  13.853  1.00  0.00     0.159 C 
BRANCH   5   6
ATOM      6  O   UNL     1      -1.108  38.420  13.525  1.00  0.00    -0.396 OA
ATOM      7  H   UNL     1      -0.543  37.608  13.586  1.00  0.00     0.210 HD
ENDBRANCH   5   6
ENDBRANCH   3   5
ENDBRANCH   2   3
ENDBRANCH   1   2
BRANCH   1   8
ATOM      8  C   UNL     1       1.217  42.740  12.592  1.00  0.00     0.136 C 
ATOM      9  O   UNL     1       0.463  43.564  12.099  1.00  0.00    -0.299 OA
BRANCH   8  10
ATOM     10  C   UNL     1       2.459  42.286  11.848  1.00  0.00     0.064 C 
ATOM     11  C   UNL     1       2.108  41.407  10.635  1.00  0.00     0.017 C 
BRANCH  10  12
ATOM     12  C   UNL     1       3.496  43.439  11.614  1.00  0.00     0.072 C 
ATOM     13  C   UNL     1       4.518  43.024  10.579  1.00  0.00     0.137 C 
ATOM     14  C   UNL     1       3.076  44.861  11.072  1.00  0.00    -0.019 C 
ATOM     15  O   UNL     1       5.319  42.119  10.758  1.00  0.00    -0.299 OA
ATOM     16  C   UNL     1       4.503  43.858   9.336  1.00  0.00     0.080 C 
ATOM     17  C   UNL     1       3.228  44.663   9.541  1.00  0.00     0.007 C 
ATOM     18  C   UNL     1       1.652  45.400  11.342  1.00  0.00     0.008 C 
ATOM     19  C   UNL     1       4.092  45.868  11.704  1.00  0.00     0.012 C 
ATOM     20  C   UNL     1       2.928  45.873   8.624  1.00  0.00     0.001 C 
ATOM     21  C   UNL     1       1.330  46.664  10.496  1.00  0.00     0.005 C 
ATOM     22  C   UNL     1       1.515  46.441   8.964  1.00  0.00     0.003 C 
ATOM     23  C   UNL     1       4.029  46.945   8.566  1.00  0.00     0.031 C 
ATOM     24  C   UNL     1       1.133  47.661   8.023  1.00  0.00    -0.008 C 
ATOM     25  C   UNL     1       3.592  48.218   7.900  1.00  0.00    -0.027 C 
ATOM     26  C   UNL     1       2.309  48.616   7.786  1.00  0.00    -0.065 C 
ATOM     27  C   UNL     1      -0.067  48.476   8.606  1.00  0.00     0.014 C 
ATOM     28  C   UNL     1       0.712  47.083   6.642  1.00  0.00     0.016 C 
ATOM     29  C   UNL     1       2.036  49.952   7.114  1.00  0.00     0.063 C 
ATOM     30  C   UNL     1      -0.384  49.766   7.831  1.00  0.00     0.033 C 
ATOM     31  C   UNL     1       0.845  50.681   7.756  1.00  0.00     0.118 C 
BRANCH  31  32
ATOM     32  O   UNL     1       1.186  51.124   9.046  1.00  0.00    -0.393 OA
ATOM     33  H   UNL     1       2.106  51.492   8.992  1.00  0.00     0.210 HD
ENDBRANCH  31  32
ENDBRANCH  10  12
ENDBRANCH   8  10
ENDBRANCH   1   8
TORSDOF 8
ENDMDL
MODEL 2
REMARK VINA RESULT:     2.749      1.721      2.425
REMARK INTER + INTRA:           5.218
REMARK INTER:                   4.909
REMARK INTRA:                   0.309
REMARK UNBOUND:                 1.343
REMARK SMILES C[C@H](CO)CCC(=O)[C@@H](C)[C@H]1C(=O)C[C@@H]2[C@@H]3CC=C4C[C@H](O)CC[C@]4(C)[C@@H]3CC[C@]21C
REMARK SMILES IDX 6 1 5 2 2 3 1 4 3 5 4 6 7 8 8 9 9 10 10 11 11 12 12 13 30 14
REMARK SMILES IDX 13 15 14 16 15 17 29 18 31 19 16 20 28 21 27 22 17 23 25 24
REMARK SMILES IDX 18 25 19 26 24 27 26 28 20 29 23 30 21 31 22 32
REMARK H PARENT 4 7 22 33
REMARK Flexibility Score: inf
ROOT
ATOM      1  C   UNL     1       0.621  39.682  13.686  1.00  0.00     0.076 C 
ENDROOT
BRANCH   1   2
ATOM      2  C   UNL     1      -0.591  38.767  13.449  1.00  0.00     0.013 C 
BRANCH   2   3
ATOM      3  C   UNL     1      -0.280  37.594  12.488  1.00  0.00     0.012 C 
ATOM      4  C   UNL     1      -1.125  36.370  12.876  1.00  0.00     0.010 C 
BRANCH   3   5
ATOM      5  C   UNL     1       1.223  37.236  12.496  1.00  0.00     0.159 C 
BRANCH   5   6
ATOM      6  O   UNL     1       1.479  36.140  11.657  1.00  0.00    -0.396 OA
ATOM      7  H   UNL     1       1.165  36.387  10.751  1.00  0.00     0.210 HD
ENDBRANCH   5   6
ENDBRANCH   3   5
ENDBRANCH   2   3
ENDBRANCH   1   2
BRANCH   1   8
ATOM      8  C   UNL     1       0.190  41.104  13.940  1.00  0.00     0.136 C 
ATOM      9  O   UNL     1      -0.141  41.424  15.071  1.00  0.00    -0.299 OA
BRANCH   8  10
ATOM     10  C   UNL     1       0.117  42.105  12.802  1.00  0.00     0.064 C 
ATOM     11  C   UNL     1      -1.125  43.006  12.914  1.00  0.00     0.017 C 
BRANCH  10  12
ATOM     12  C   UNL     1       1.485  42.814  12.512  1.00  0.00     0.072 C 
ATOM     13  C   UNL     1       2.335  41.961  11.596  1.00  0.00     0.137 C 
ATOM     14  C   UNL     1       1.581  44.217  11.794  1.00  0.00    -0.019 C 
ATOM     15  O   UNL     1       2.781  40.872  11.923  1.00  0.00    -0.299 OA
ATOM     16  C   UNL     1       2.632  42.593  10.273  1.00  0.00     0.080 C 
ATOM     17  C   UNL     1       1.696  43.793  10.306  1.00  0.00     0.007 C 
ATOM     18  C   UNL     1       0.413  45.224  11.912  1.00  0.00     0.008 C 
ATOM     19  C   UNL     1       2.859  44.902  12.378  1.00  0.00     0.012 C 
ATOM     20  C   UNL     1       1.842  44.911   9.247  1.00  0.00     0.001 C 
ATOM     21  C   UNL     1       0.555  46.410  10.916  1.00  0.00     0.005 C 
ATOM     22  C   UNL     1       0.693  45.950   9.431  1.00  0.00     0.003 C 
ATOM     23  C   UNL     1       3.239  45.544   9.146  1.00  0.00     0.031 C 
ATOM     24  C   UNL     1       0.766  47.103   8.342  1.00  0.00    -0.008 C 
ATOM     25  C   UNL     1       3.272  46.797   8.320  1.00  0.00    -0.027 C 
ATOM     26  C   UNL     1       2.199  47.579   8.081  1.00  0.00    -0.065 C 
ATOM     27  C   UNL     1      -0.105  48.333   8.755  1.00  0.00     0.014 C 
ATOM     28  C   UNL     1       0.210  46.531   7.006  1.00  0.00     0.016 C 
ATOM     29  C   UNL     1       2.407  48.838   7.252  1.00  0.00     0.063 C 
ATOM     30  C   UNL     1       0.048  49.550   7.826  1.00  0.00     0.033 C 
ATOM     31  C   UNL     1       1.514  49.991   7.733  1.00  0.00     0.118 C 
BRANCH  31  32
ATOM     32  O   UNL     1       1.951  50.452   8.987  1.00  0.00    -0.393 OA
ATOM     33  H   UNL     1       2.866  50.093   9.125  1.00  0.00     0.210 HD
ENDBRANCH  31  32
ENDBRANCH  10  12
ENDBRANCH   8  10
ENDBRANCH   1   8
TORSDOF 8
ENDMDL
MODEL 3
REMARK VINA RESULT:     2.843      2.582      8.277
REMARK INTER + INTRA:           5.349
REMARK INTER:                   4.622
REMARK INTRA:                   0.727
REMARK UNBOUND:                 1.343
REMARK SMILES C[C@H](CO)CCC(=O)[C@@H](C)[C@H]1C(=O)C[C@@H]2[C@@H]3CC=C4C[C@H](O)CC[C@]4(C)[C@@H]3CC[C@]21C
REMARK SMILES IDX 6 1 5 2 2 3 1 4 3 5 4 6 7 8 8 9 9 10 10 11 11 12 12 13 30 14
REMARK SMILES IDX 13 15 14 16 15 17 29 18 31 19 16 20 28 21 27 22 17 23 25 24
REMARK SMILES IDX 18 25 19 26 24 27 26 28 20 29 23 30 21 31 22 32
REMARK H PARENT 4 7 22 33
REMARK Flexibility Score: inf
ROOT
ATOM      1  C   UNL     1       2.891  49.654   7.211  1.00  0.00     0.076 C 
ENDROOT
BRANCH   1   2
ATOM      2  C   UNL     1       3.676  48.603   8.014  1.00  0.00     0.013 C 
BRANCH   2   3
ATOM      3  C   UNL     1       5.202  48.862   8.010  1.00  0.00     0.012 C 
ATOM      4  C   UNL     1       5.848  48.157   9.214  1.00  0.00     0.010 C 
BRANCH   3   5
ATOM      5  C   UNL     1       5.523  50.373   8.034  1.00  0.00     0.159 C 
BRANCH   5   6
ATOM      6  O   UNL     1       6.891  50.589   8.261  1.00  0.00    -0.396 OA
ATOM      7  H   UNL     1       7.047  51.565   8.197  1.00  0.00     0.210 HD
ENDBRANCH   5   6
ENDBRANCH   3   5
ENDBRANCH   2   3
ENDBRANCH   1   2
BRANCH   1   8
ATOM      8  C   UNL     1       1.871  50.350   8.076  1.00  0.00     0.136 C 
ATOM      9  O   UNL     1       2.228  50.814   9.148  1.00  0.00    -0.299 OA
BRANCH   8  10
ATOM     10  C   UNL     1       0.417  50.426   7.647  1.00  0.00     0.064 C 
ATOM     11  C   UNL     1       0.259  51.125   6.287  1.00  0.00     0.017 C 
BRANCH  10  12
ATOM     12  C   UNL     1      -0.358  49.077   7.847  1.00  0.00     0.072 C 
ATOM     13  C   UNL     1      -0.476  48.340   6.532  1.00  0.00     0.137 C 
ATOM     14  C   UNL     1       0.168  47.927   8.793  1.00  0.00    -0.019 C 
ATOM     15  O   UNL     1      -1.124  48.761   5.587  1.00  0.00    -0.299 OA
ATOM     16  C   UNL     1       0.224  47.017   6.507  1.00  0.00     0.080 C 
ATOM     17  C   UNL     1       1.015  47.081   7.805  1.00  0.00     0.007 C 
ATOM     18  C   UNL     1       1.061  48.275  10.007  1.00  0.00     0.008 C 
ATOM     19  C   UNL     1      -1.111  47.210   9.335  1.00  0.00     0.012 C 
ATOM     20  C   UNL     1       1.700  45.806   8.353  1.00  0.00     0.001 C 
ATOM     21  C   UNL     1       1.714  47.013  10.639  1.00  0.00     0.005 C 
ATOM     22  C   UNL     1       2.538  46.172   9.616  1.00  0.00     0.003 C 
ATOM     23  C   UNL     1       0.774  44.595   8.552  1.00  0.00     0.031 C 
ATOM     24  C   UNL     1       3.301  44.907  10.199  1.00  0.00    -0.008 C 
ATOM     25  C   UNL     1       1.404  43.481   9.337  1.00  0.00    -0.027 C 
ATOM     26  C   UNL     1       2.438  43.640  10.188  1.00  0.00    -0.065 C 
ATOM     27  C   UNL     1       3.798  45.164  11.659  1.00  0.00     0.014 C 
ATOM     28  C   UNL     1       4.539  44.641   9.295  1.00  0.00     0.016 C 
ATOM     29  C   UNL     1       2.939  42.414  10.935  1.00  0.00     0.063 C 
ATOM     30  C   UNL     1       4.401  43.925  12.342  1.00  0.00     0.033 C 
ATOM     31  C   UNL     1       3.401  42.762  12.358  1.00  0.00     0.118 C 
BRANCH  31  32
ATOM     32  O   UNL     1       2.295  43.099  13.159  1.00  0.00    -0.393 OA
ATOM     33  H   UNL     1       2.297  42.476  13.931  1.00  0.00     0.210 HD
ENDBRANCH  31  32
ENDBRANCH  10  12
ENDBRANCH   8  10
ENDBRANCH   1   8
TORSDOF 8
ENDMDL
MODEL 4
REMARK VINA RESULT:     3.147      1.485      2.153
REMARK INTER + INTRA:           5.777
REMARK INTER:                   6.208
REMARK INTRA:                  -0.431
REMARK UNBOUND:                 1.343
REMARK SMILES C[C@H](CO)CCC(=O)[C@@H](C)[C@H]1C(=O)C[C@@H]2[C@@H]3CC=C4C[C@H](O)CC[C@]4(C)[C@@H]3CC[C@]21C
REMARK SMILES IDX 6 1 5 2 2 3 1 4 3 5 4 6 7 8 8 9 9 10 10 11 11 12 12 13 30 14
REMARK SMILES IDX 13 15 14 16 15 17 29 18 31 19 16 20 28 21 27 22 17 23 25 24
REMARK SMILES IDX 18 25 19 26 24 27 26 28 20 29 23 30 21 31 22 32
REMARK H PARENT 4 7 22 33
REMARK Flexibility Score: inf
ROOT
ATOM      1  C   UNL     1       1.802  42.306  13.365  1.00  0.00     0.076 C 
ENDROOT
BRANCH   1   2
ATOM      2  C   UNL     1       0.275  42.142  13.283  1.00  0.00     0.013 C 
BRANCH   2   3
ATOM      3  C   UNL     1      -0.320  41.442  14.528  1.00  0.00     0.012 C 
ATOM      4  C   UNL     1       0.624  41.631  15.728  1.00  0.00     0.010 C 
BRANCH   3   5
ATOM      5  C   UNL     1      -0.572  39.940  14.272  1.00  0.00     0.159 C 
BRANCH   5   6
ATOM      6  O   UNL     1       0.633  39.270  14.007  1.00  0.00    -0.396 OA
ATOM      7  H   UNL     1       0.541  38.351  14.364  1.00  0.00     0.210 HD
ENDBRANCH   5   6
ENDBRANCH   3   5
ENDBRANCH   2   3
ENDBRANCH   1   2
BRANCH   1   8
ATOM      8  C   UNL     1       2.253  43.565  12.669  1.00  0.00     0.136 C 
ATOM      9  O   UNL     1       1.464  44.491  12.560  1.00  0.00    -0.299 OA
BRANCH   8  10
ATOM     10  C   UNL     1       3.644  43.661  12.068  1.00  0.00     0.064 C 
ATOM     11  C   UNL     1       4.600  42.621  12.677  1.00  0.00     0.017 C 
BRANCH  10  12
ATOM     12  C   UNL     1       3.635  43.789  10.506  1.00  0.00     0.072 C 
ATOM     13  C   UNL     1       2.656  42.806   9.904  1.00  0.00     0.137 C 
ATOM     14  C   UNL     1       3.221  45.121   9.765  1.00  0.00    -0.019 C 
ATOM     15  O   UNL     1       2.802  41.595   9.967  1.00  0.00    -0.299 OA
ATOM     16  C   UNL     1       1.518  43.446   9.171  1.00  0.00     0.080 C 
ATOM     17  C   UNL     1       1.697  44.903   9.572  1.00  0.00     0.007 C 
ATOM     18  C   UNL     1       3.421  46.485  10.463  1.00  0.00     0.008 C 
ATOM     19  C   UNL     1       4.050  45.139   8.439  1.00  0.00     0.012 C 
ATOM     20  C   UNL     1       0.899  46.006   8.836  1.00  0.00     0.001 C 
ATOM     21  C   UNL     1       2.698  47.642   9.716  1.00  0.00     0.005 C 
ATOM     22  C   UNL     1       1.173  47.383   9.516  1.00  0.00     0.003 C 
ATOM     23  C   UNL     1       1.061  46.028   7.307  1.00  0.00     0.031 C 
ATOM     24  C   UNL     1       0.345  48.550   8.830  1.00  0.00    -0.008 C 
ATOM     25  C   UNL     1       0.506  47.265   6.663  1.00  0.00    -0.027 C 
ATOM     26  C   UNL     1       0.323  48.439   7.300  1.00  0.00    -0.065 C 
ATOM     27  C   UNL     1       0.906  49.955   9.223  1.00  0.00     0.014 C 
ATOM     28  C   UNL     1      -1.125  48.449   9.328  1.00  0.00     0.016 C 
ATOM     29  C   UNL     1      -0.216  49.610   6.494  1.00  0.00     0.063 C 
ATOM     30  C   UNL     1       0.255  51.125   8.465  1.00  0.00     0.033 C 
ATOM     31  C   UNL     1       0.394  50.945   6.948  1.00  0.00     0.118 C 
BRANCH  31  32
ATOM     32  O   UNL     1       1.751  51.005   6.585  1.00  0.00    -0.393 OA
ATOM     33  H   UNL     1       1.903  50.292   5.913  1.00  0.00     0.210 HD
ENDBRANCH  31  32
ENDBRANCH  10  12
ENDBRANCH   8  10
ENDBRANCH   1   8
TORSDOF 8
ENDMDL
