MODEL 1
REMARK VINA RESULT:    -4.047      0.000      0.000
REMARK INTER + INTRA:          -5.010
REMARK INTER:                  -4.756
REMARK INTRA:                  -0.253
REMARK UNBOUND:                -0.253
REMARK SMILES O=C([O-])C=Cc1ccc(O)c(O)c1
REMARK SMILES IDX 6 1 13 2 7 3 11 4 8 5 9 6 5 7 4 8 2 9 1 10 3 11 12 12 10 14
REMARK H PARENT 12 13 10 15
REMARK Flexibility Score: inf
ROOT
ATOM      1  C   UNL     1      72.992  39.245  19.940  1.00  0.00    -0.022 A 
ATOM      2  C   UNL     1      74.364  39.529  20.052  1.00  0.00     0.058 A 
ATOM      3  C   UNL     1      72.193  39.258  21.091  1.00  0.00     0.012 A 
ATOM      4  C   UNL     1      74.940  39.770  21.304  1.00  0.00     0.157 A 
ATOM      5  C   UNL     1      72.763  39.497  22.344  1.00  0.00     0.051 A 
ATOM      6  C   UNL     1      74.137  39.750  22.459  1.00  0.00     0.157 A 
ENDROOT
BRANCH   1   7
ATOM      7  C   UNL     1      72.358  39.041  18.622  1.00  0.00     0.010 C 
ATOM      8  C   UNL     1      72.453  37.928  17.876  1.00  0.00     0.025 C 
BRANCH   8   9
ATOM      9  C   UNL     1      73.049  36.650  18.308  1.00  0.00     0.064 C 
ATOM     10  O   UNL     1      74.184  36.281  17.905  1.00  0.00    -0.545 OA
ATOM     11  O   UNL     1      72.373  35.866  19.235  1.00  0.00    -0.545 OA
ENDBRANCH   8   9
ENDBRANCH   1   7
BRANCH   4  12
ATOM     12  O   UNL     1      76.307  40.032  21.383  1.00  0.00    -0.504 OA
ATOM     13  H   UNL     1      77.002  39.302  21.284  1.00  0.00     0.293 HD
ENDBRANCH   4  12
BRANCH   6  14
ATOM     14  O   UNL     1      74.705  39.984  23.710  1.00  0.00    -0.504 OA
ATOM     15  H   UNL     1      75.705  40.110  23.824  1.00  0.00     0.293 HD
ENDBRANCH   6  14
TORSDOF 4
ENDMDL
MODEL 2
REMARK VINA RESULT:    -4.019      2.492      3.196
REMARK INTER + INTRA:          -4.977
REMARK INTER:                  -4.762
REMARK INTRA:                  -0.215
REMARK UNBOUND:                -0.253
REMARK SMILES O=C([O-])C=Cc1ccc(O)c(O)c1
REMARK SMILES IDX 6 1 13 2 7 3 11 4 8 5 9 6 5 7 4 8 2 9 1 10 3 11 12 12 10 14
REMARK H PARENT 12 13 10 15
REMARK Flexibility Score: inf
ROOT
ATOM      1  C   UNL     1      73.607  38.547  19.918  1.00  0.00    -0.022 A 
ATOM      2  C   UNL     1      74.221  38.840  21.148  1.00  0.00     0.058 A 
ATOM      3  C   UNL     1      72.250  38.852  19.739  1.00  0.00     0.012 A 
ATOM      4  C   UNL     1      73.478  39.383  22.203  1.00  0.00     0.157 A 
ATOM      5  C   UNL     1      71.504  39.393  20.789  1.00  0.00     0.051 A 
ATOM      6  C   UNL     1      72.110  39.656  22.025  1.00  0.00     0.157 A 
ENDROOT
BRANCH   1   7
ATOM      7  C   UNL     1      74.387  38.024  18.778  1.00  0.00     0.010 C 
ATOM      8  C   UNL     1      75.178  38.755  17.976  1.00  0.00     0.025 C 
BRANCH   8   9
ATOM      9  C   UNL     1      75.555  40.165  18.190  1.00  0.00     0.064 C 
ATOM     10  O   UNL     1      74.782  41.109  17.876  1.00  0.00    -0.545 OA
ATOM     11  O   UNL     1      76.761  40.457  18.814  1.00  0.00    -0.545 OA
ENDBRANCH   8   9
ENDBRANCH   1   7
BRANCH   4  12
ATOM     12  O   UNL     1      74.114  39.647  23.415  1.00  0.00    -0.504 OA
ATOM     13  H   UNL     1      73.802  39.235  24.287  1.00  0.00     0.293 HD
ENDBRANCH   4  12
BRANCH   6  14
ATOM     14  O   UNL     1      71.362  40.192  23.072  1.00  0.00    -0.504 OA
ATOM     15  H   UNL     1      71.788  40.428  23.962  1.00  0.00     0.293 HD
ENDBRANCH   6  14
TORSDOF 4
ENDMDL
MODEL 3
REMARK VINA RESULT:    -3.974      1.451      2.016
REMARK INTER + INTRA:          -4.924
REMARK INTER:                  -5.049
REMARK INTRA:                   0.125
REMARK UNBOUND:                -0.253
REMARK SMILES O=C([O-])C=Cc1ccc(O)c(O)c1
REMARK SMILES IDX 6 1 13 2 7 3 11 4 8 5 9 6 5 7 4 8 2 9 1 10 3 11 12 12 10 14
REMARK H PARENT 12 13 10 15
REMARK Flexibility Score: inf
ROOT
ATOM      1  C   UNL     1      73.174  38.722  19.816  1.00  0.00    -0.022 A 
ATOM      2  C   UNL     1      73.918  38.866  21.000  1.00  0.00     0.058 A 
ATOM      3  C   UNL     1      71.889  39.278  19.741  1.00  0.00     0.012 A 
ATOM      4  C   UNL     1      73.365  39.511  22.113  1.00  0.00     0.157 A 
ATOM      5  C   UNL     1      71.333  39.922  20.849  1.00  0.00     0.051 A 
ATOM      6  C   UNL     1      72.064  40.038  22.040  1.00  0.00     0.157 A 
ENDROOT
BRANCH   1   7
ATOM      7  C   UNL     1      73.760  38.092  18.616  1.00  0.00     0.010 C 
ATOM      8  C   UNL     1      73.518  36.839  18.197  1.00  0.00     0.025 C 
BRANCH   8   9
ATOM      9  C   UNL     1      72.494  35.930  18.747  1.00  0.00     0.064 C 
ATOM     10  O   UNL     1      72.256  35.874  19.983  1.00  0.00    -0.545 OA
ATOM     11  O   UNL     1      71.728  35.167  17.875  1.00  0.00    -0.545 OA
ENDBRANCH   8   9
ENDBRANCH   1   7
BRANCH   4  12
ATOM     12  O   UNL     1      74.123  39.622  23.278  1.00  0.00    -0.504 OA
ATOM     13  H   UNL     1      74.672  38.851  23.639  1.00  0.00     0.293 HD
ENDBRANCH   4  12
BRANCH   6  14
ATOM     14  O   UNL     1      71.505  40.678  23.146  1.00  0.00    -0.504 OA
ATOM     15  H   UNL     1      71.141  40.154  23.934  1.00  0.00     0.293 HD
ENDBRANCH   6  14
TORSDOF 4
ENDMDL
MODEL 4
REMARK VINA RESULT:    -3.814      3.282      4.537
REMARK INTER + INTRA:          -4.736
REMARK INTER:                  -4.665
REMARK INTRA:                  -0.071
REMARK UNBOUND:                -0.253
REMARK SMILES O=C([O-])C=Cc1ccc(O)c(O)c1
REMARK SMILES IDX 6 1 13 2 7 3 11 4 8 5 9 6 5 7 4 8 2 9 1 10 3 11 12 12 10 14
REMARK H PARENT 12 13 10 15
REMARK Flexibility Score: inf
ROOT
ATOM      1  C   UNL     1      71.857  40.640  21.806  1.00  0.00    -0.022 A 
ATOM      2  C   UNL     1      71.538  40.840  20.452  1.00  0.00     0.058 A 
ATOM      3  C   UNL     1      70.823  40.453  22.734  1.00  0.00     0.012 A 
ATOM      4  C   UNL     1      70.203  40.905  20.038  1.00  0.00     0.157 A 
ATOM      5  C   UNL     1      69.488  40.518  22.325  1.00  0.00     0.051 A 
ATOM      6  C   UNL     1      69.171  40.748  20.980  1.00  0.00     0.157 A 
ENDROOT
BRANCH   1   7
ATOM      7  C   UNL     1      73.260  40.516  22.252  1.00  0.00     0.010 C 
ATOM      8  C   UNL     1      74.105  39.535  21.898  1.00  0.00     0.025 C 
BRANCH   8   9
ATOM      9  C   UNL     1      73.853  38.510  20.867  1.00  0.00     0.064 C 
ATOM     10  O   UNL     1      73.146  37.494  21.105  1.00  0.00    -0.545 OA
ATOM     11  O   UNL     1      74.349  38.703  19.584  1.00  0.00    -0.545 OA
ENDBRANCH   8   9
ENDBRANCH   1   7
BRANCH   4  12
ATOM     12  O   UNL     1      69.920  41.121  18.690  1.00  0.00    -0.504 OA
ATOM     13  H   UNL     1      68.974  41.106  18.328  1.00  0.00     0.293 HD
ENDBRANCH   4  12
BRANCH   6  14
ATOM     14  O   UNL     1      67.838  40.816  20.576  1.00  0.00    -0.504 OA
ATOM     15  H   UNL     1      67.572  40.697  19.604  1.00  0.00     0.293 HD
ENDBRANCH   6  14
TORSDOF 4
ENDMDL
MODEL 5
REMARK VINA RESULT:    -3.808      2.574      3.590
REMARK INTER + INTRA:          -4.729
REMARK INTER:                  -4.523
REMARK INTRA:                  -0.206
REMARK UNBOUND:                -0.253
REMARK SMILES O=C([O-])C=Cc1ccc(O)c(O)c1
REMARK SMILES IDX 6 1 13 2 7 3 11 4 8 5 9 6 5 7 4 8 2 9 1 10 3 11 12 12 10 14
REMARK H PARENT 12 13 10 15
REMARK Flexibility Score: inf
ROOT
ATOM      1  C   UNL     1      74.110  38.571  20.259  1.00  0.00    -0.022 A 
ATOM      2  C   UNL     1      74.749  39.198  21.343  1.00  0.00     0.058 A 
ATOM      3  C   UNL     1      74.645  38.715  18.972  1.00  0.00     0.012 A 
ATOM      4  C   UNL     1      75.877  40.001  21.137  1.00  0.00     0.157 A 
ATOM      5  C   UNL     1      75.771  39.515  18.760  1.00  0.00     0.051 A 
ATOM      6  C   UNL     1      76.389  40.165  19.837  1.00  0.00     0.157 A 
ENDROOT
BRANCH   1   7
ATOM      7  C   UNL     1      72.951  37.679  20.466  1.00  0.00     0.010 C 
ATOM      8  C   UNL     1      71.726  38.071  20.853  1.00  0.00     0.025 C 
BRANCH   8   9
ATOM      9  C   UNL     1      71.264  39.468  20.966  1.00  0.00     0.064 C 
ATOM     10  O   UNL     1      70.770  40.081  19.983  1.00  0.00    -0.545 OA
ATOM     11  O   UNL     1      71.311  40.098  22.203  1.00  0.00    -0.545 OA
ENDBRANCH   8   9
ENDBRANCH   1   7
BRANCH   4  12
ATOM     12  O   UNL     1      76.477  40.622  22.231  1.00  0.00    -0.504 OA
ATOM     13  H   UNL     1      76.616  41.625  22.272  1.00  0.00     0.293 HD
ENDBRANCH   4  12
BRANCH   6  14
ATOM     14  O   UNL     1      77.509  40.966  19.623  1.00  0.00    -0.504 OA
ATOM     15  H   UNL     1      78.431  40.565  19.490  1.00  0.00     0.293 HD
ENDBRANCH   6  14
TORSDOF 4
ENDMDL
MODEL 6
REMARK VINA RESULT:    -3.767      2.750      3.627
REMARK INTER + INTRA:          -4.682
REMARK INTER:                  -4.468
REMARK INTRA:                  -0.214
REMARK UNBOUND:                -0.253
REMARK SMILES O=C([O-])C=Cc1ccc(O)c(O)c1
REMARK SMILES IDX 6 1 13 2 7 3 11 4 8 5 9 6 5 7 4 8 2 9 1 10 3 11 12 12 10 14
REMARK H PARENT 12 13 10 15
REMARK Flexibility Score: inf
ROOT
ATOM      1  C   UNL     1      72.221  39.973  20.325  1.00  0.00    -0.022 A 
ATOM      2  C   UNL     1      71.921  39.965  21.698  1.00  0.00     0.058 A 
ATOM      3  C   UNL     1      71.229  40.348  19.409  1.00  0.00     0.012 A 
ATOM      4  C   UNL     1      70.632  40.277  22.146  1.00  0.00     0.157 A 
ATOM      5  C   UNL     1      69.940  40.659  19.851  1.00  0.00     0.051 A 
ATOM      6  C   UNL     1      69.634  40.621  21.218  1.00  0.00     0.157 A 
ENDROOT
BRANCH   1   7
ATOM      7  C   UNL     1      73.588  39.698  19.839  1.00  0.00     0.010 C 
ATOM      8  C   UNL     1      74.022  38.521  19.358  1.00  0.00     0.025 C 
BRANCH   8   9
ATOM      9  C   UNL     1      73.177  37.349  19.059  1.00  0.00     0.064 C 
ATOM     10  O   UNL     1      72.969  36.971  17.875  1.00  0.00    -0.545 OA
ATOM     11  O   UNL     1      72.656  36.604  20.109  1.00  0.00    -0.545 OA
ENDBRANCH   8   9
ENDBRANCH   1   7
BRANCH   4  12
ATOM     12  O   UNL     1      70.363  40.244  23.514  1.00  0.00    -0.504 OA
ATOM     13  H   UNL     1      70.931  39.710  24.162  1.00  0.00     0.293 HD
ENDBRANCH   4  12
BRANCH   6  14
ATOM     14  O   UNL     1      68.347  40.929  21.656  1.00  0.00    -0.504 OA
ATOM     15  H   UNL     1      67.547  40.869  21.036  1.00  0.00     0.293 HD
ENDBRANCH   6  14
TORSDOF 4
ENDMDL
MODEL 7
REMARK VINA RESULT:    -3.638      2.421      4.865
REMARK INTER + INTRA:          -4.529
REMARK INTER:                  -4.443
REMARK INTRA:                  -0.086
REMARK UNBOUND:                -0.253
REMARK SMILES O=C([O-])C=Cc1ccc(O)c(O)c1
REMARK SMILES IDX 6 1 13 2 7 3 11 4 8 5 9 6 5 7 4 8 2 9 1 10 3 11 12 12 10 14
REMARK H PARENT 12 13 10 15
REMARK Flexibility Score: inf
ROOT
ATOM      1  C   UNL     1      73.285  39.424  21.217  1.00  0.00    -0.022 A 
ATOM      2  C   UNL     1      72.648  38.171  21.205  1.00  0.00     0.058 A 
ATOM      3  C   UNL     1      74.055  39.812  20.112  1.00  0.00     0.012 A 
ATOM      4  C   UNL     1      72.821  37.296  20.127  1.00  0.00     0.157 A 
ATOM      5  C   UNL     1      74.231  38.942  19.033  1.00  0.00     0.051 A 
ATOM      6  C   UNL     1      73.621  37.680  19.036  1.00  0.00     0.157 A 
ENDROOT
BRANCH   1   7
ATOM      7  C   UNL     1      73.071  40.381  22.322  1.00  0.00     0.010 C 
ATOM      8  C   UNL     1      71.911  40.993  22.607  1.00  0.00     0.025 C 
BRANCH   8   9
ATOM      9  C   UNL     1      70.604  40.693  21.993  1.00  0.00     0.064 C 
ATOM     10  O   UNL     1      69.691  40.109  22.635  1.00  0.00    -0.545 OA
ATOM     11  O   UNL     1      70.350  41.125  20.697  1.00  0.00    -0.545 OA
ENDBRANCH   8   9
ENDBRANCH   1   7
BRANCH   4  12
ATOM     12  O   UNL     1      72.189  36.053  20.153  1.00  0.00    -0.504 OA
ATOM     13  H   UNL     1      72.677  35.206  20.416  1.00  0.00     0.293 HD
ENDBRANCH   4  12
BRANCH   6  14
ATOM     14  O   UNL     1      73.801  36.812  17.960  1.00  0.00    -0.504 OA
ATOM     15  H   UNL     1      74.704  36.705  17.510  1.00  0.00     0.293 HD
ENDBRANCH   6  14
TORSDOF 4
ENDMDL
MODEL 8
REMARK VINA RESULT:    -3.624      2.722      4.389
REMARK INTER + INTRA:          -4.513
REMARK INTER:                  -4.231
REMARK INTRA:                  -0.281
REMARK UNBOUND:                -0.253
REMARK SMILES O=C([O-])C=Cc1ccc(O)c(O)c1
REMARK SMILES IDX 6 1 13 2 7 3 11 4 8 5 9 6 5 7 4 8 2 9 1 10 3 11 12 12 10 14
REMARK H PARENT 12 13 10 15
REMARK Flexibility Score: inf
ROOT
ATOM      1  C   UNL     1      72.745  39.042  20.756  1.00  0.00    -0.022 A 
ATOM      2  C   UNL     1      72.229  39.363  22.023  1.00  0.00     0.058 A 
ATOM      3  C   UNL     1      72.059  39.465  19.609  1.00  0.00     0.012 A 
ATOM      4  C   UNL     1      71.016  40.051  22.144  1.00  0.00     0.157 A 
ATOM      5  C   UNL     1      70.847  40.151  19.724  1.00  0.00     0.051 A 
ATOM      6  C   UNL     1      70.317  40.444  20.988  1.00  0.00     0.157 A 
ENDROOT
BRANCH   1   7
ATOM      7  C   UNL     1      74.049  38.364  20.610  1.00  0.00     0.010 C 
ATOM      8  C   UNL     1      75.222  38.975  20.379  1.00  0.00     0.025 C 
BRANCH   8   9
ATOM      9  C   UNL     1      75.456  40.431  20.408  1.00  0.00     0.064 C 
ATOM     10  O   UNL     1      75.431  41.125  19.357  1.00  0.00    -0.545 OA
ATOM     11  O   UNL     1      75.641  41.063  21.631  1.00  0.00    -0.545 OA
ENDBRANCH   8   9
ENDBRANCH   1   7
BRANCH   4  12
ATOM     12  O   UNL     1      70.523  40.339  23.416  1.00  0.00    -0.504 OA
ATOM     13  H   UNL     1      69.715  40.934  23.559  1.00  0.00     0.293 HD
ENDBRANCH   4  12
BRANCH   6  14
ATOM     14  O   UNL     1      69.106  41.125  21.100  1.00  0.00    -0.504 OA
ATOM     15  H   UNL     1      69.002  41.925  21.715  1.00  0.00     0.293 HD
ENDBRANCH   6  14
TORSDOF 4
ENDMDL
