MODEL 1
REMARK VINA RESULT:    -3.699      0.000      0.000
REMARK INTER + INTRA:          -5.310
REMARK INTER:                  -4.780
REMARK INTRA:                  -0.530
REMARK UNBOUND:                -0.530
REMARK SMILES C=CC(=O)CCCCC
REMARK SMILES IDX 6 1 7 2 8 3 9 4 5 5 3 6 4 7 2 8 1 9
REMARK H PARENT
REMARK Flexibility Score: inf
ROOT
ATOM      1  C   UNL     1      22.826  29.989 -16.797  1.00  0.00     0.008 C 
ENDROOT
BRANCH   1   2
ATOM      2  C   UNL     1      21.588  29.081 -16.838  1.00  0.00     0.000 C 
BRANCH   2   3
ATOM      3  C   UNL     1      21.741  27.835 -15.951  1.00  0.00    -0.003 C 
ATOM      4  C   UNL     1      23.189  27.355 -15.851  1.00  0.00     0.004 C 
ENDBRANCH   2   3
ENDBRANCH   1   2
BRANCH   1   5
ATOM      5  C   UNL     1      23.300  30.333 -18.213  1.00  0.00     0.080 C 
BRANCH   5   6
ATOM      6  C   UNL     1      24.431  29.438 -18.623  1.00  0.00     0.155 C 
ATOM      7  O   UNL     1      25.619  29.813 -18.426  1.00  0.00    -0.295 OA
BRANCH   6   8
ATOM      8  C   UNL     1      24.151  28.151 -19.290  1.00  0.00     0.039 C 
ATOM      9  C   UNL     1      23.103  27.976 -20.093  1.00  0.00     0.012 C 
ENDBRANCH   6   8
ENDBRANCH   5   6
ENDBRANCH   1   5
TORSDOF 5
ENDMDL
MODEL 2
REMARK VINA RESULT:    -3.680      1.454      2.096
REMARK INTER + INTRA:          -5.285
REMARK INTER:                  -4.680
REMARK INTRA:                  -0.605
REMARK UNBOUND:                -0.530
REMARK SMILES C=CC(=O)CCCCC
REMARK SMILES IDX 6 1 7 2 8 3 9 4 5 5 3 6 4 7 2 8 1 9
REMARK H PARENT
REMARK Flexibility Score: inf
ROOT
ATOM      1  C   UNL     1      21.577  29.232 -17.064  1.00  0.00     0.008 C 
ENDROOT
BRANCH   1   2
ATOM      2  C   UNL     1      21.687  27.943 -16.237  1.00  0.00     0.000 C 
BRANCH   2   3
ATOM      3  C   UNL     1      23.001  27.863 -15.443  1.00  0.00    -0.003 C 
ATOM      4  C   UNL     1      24.067  27.026 -16.147  1.00  0.00     0.004 C 
ENDBRANCH   2   3
ENDBRANCH   1   2
BRANCH   1   5
ATOM      5  C   UNL     1      21.549  28.920 -18.563  1.00  0.00     0.080 C 
BRANCH   5   6
ATOM      6  C   UNL     1      22.936  28.950 -19.135  1.00  0.00     0.155 C 
ATOM      7  O   UNL     1      23.297  28.038 -19.928  1.00  0.00    -0.295 OA
BRANCH   6   8
ATOM      8  C   UNL     1      23.878  30.013 -18.733  1.00  0.00     0.039 C 
ATOM      9  C   UNL     1      25.131  29.754 -18.362  1.00  0.00     0.012 C 
ENDBRANCH   6   8
ENDBRANCH   5   6
ENDBRANCH   1   5
TORSDOF 5
ENDMDL
MODEL 3
REMARK VINA RESULT:    -3.635      5.341      6.848
REMARK INTER + INTRA:          -5.227
REMARK INTER:                  -4.810
REMARK INTRA:                  -0.418
REMARK UNBOUND:                -0.530
REMARK SMILES C=CC(=O)CCCCC
REMARK SMILES IDX 6 1 7 2 8 3 9 4 5 5 3 6 4 7 2 8 1 9
REMARK H PARENT
REMARK Flexibility Score: inf
ROOT
ATOM      1  C   UNL     1      18.645  28.879 -13.962  1.00  0.00     0.008 C 
ENDROOT
BRANCH   1   2
ATOM      2  C   UNL     1      17.690  27.938 -14.711  1.00  0.00     0.000 C 
BRANCH   2   3
ATOM      3  C   UNL     1      17.361  26.671 -13.906  1.00  0.00    -0.003 C 
ATOM      4  C   UNL     1      17.030  26.968 -12.444  1.00  0.00     0.004 C 
ENDBRANCH   2   3
ENDBRANCH   1   2
BRANCH   1   5
ATOM      5  C   UNL     1      20.088  28.371 -14.038  1.00  0.00     0.080 C 
BRANCH   5   6
ATOM      6  C   UNL     1      20.870  28.823 -12.841  1.00  0.00     0.155 C 
ATOM      7  O   UNL     1      22.119  28.649 -12.817  1.00  0.00    -0.295 OA
BRANCH   6   8
ATOM      8  C   UNL     1      20.174  29.424 -11.686  1.00  0.00     0.039 C 
ATOM      9  C   UNL     1      19.932  28.746 -10.566  1.00  0.00     0.012 C 
ENDBRANCH   6   8
ENDBRANCH   5   6
ENDBRANCH   1   5
TORSDOF 5
ENDMDL
MODEL 4
REMARK VINA RESULT:    -3.615     11.596     12.818
REMARK INTER + INTRA:          -5.201
REMARK INTER:                  -4.662
REMARK INTRA:                  -0.539
REMARK UNBOUND:                -0.530
REMARK SMILES C=CC(=O)CCCCC
REMARK SMILES IDX 6 1 7 2 8 3 9 4 5 5 3 6 4 7 2 8 1 9
REMARK H PARENT
REMARK Flexibility Score: inf
ROOT
ATOM      1  C   UNL     1      35.402  31.195 -15.120  1.00  0.00     0.008 C 
ENDROOT
BRANCH   1   2
ATOM      2  C   UNL     1      36.696  31.679 -14.449  1.00  0.00     0.000 C 
BRANCH   2   3
ATOM      3  C   UNL     1      36.465  32.885 -13.525  1.00  0.00    -0.003 C 
ATOM      4  C   UNL     1      36.861  32.603 -12.076  1.00  0.00     0.004 C 
ENDBRANCH   2   3
ENDBRANCH   1   2
BRANCH   1   5
ATOM      5  C   UNL     1      34.272  32.211 -14.927  1.00  0.00     0.080 C 
BRANCH   5   6
ATOM      6  C   UNL     1      33.078  31.559 -14.295  1.00  0.00     0.155 C 
ATOM      7  O   UNL     1      31.921  31.961 -14.598  1.00  0.00    -0.295 OA
BRANCH   6   8
ATOM      8  C   UNL     1      33.263  30.489 -13.295  1.00  0.00     0.039 C 
ATOM      9  C   UNL     1      33.581  30.743 -12.027  1.00  0.00     0.012 C 
ENDBRANCH   6   8
ENDBRANCH   5   6
ENDBRANCH   1   5
TORSDOF 5
ENDMDL
MODEL 5
REMARK VINA RESULT:    -3.610      2.810      3.632
REMARK INTER + INTRA:          -5.195
REMARK INTER:                  -4.842
REMARK INTRA:                  -0.353
REMARK UNBOUND:                -0.530
REMARK SMILES C=CC(=O)CCCCC
REMARK SMILES IDX 6 1 7 2 8 3 9 4 5 5 3 6 4 7 2 8 1 9
REMARK H PARENT
REMARK Flexibility Score: inf
ROOT
ATOM      1  C   UNL     1      22.121  29.767 -19.035  1.00  0.00     0.008 C 
ENDROOT
BRANCH   1   2
ATOM      2  C   UNL     1      23.299  30.550 -18.438  1.00  0.00     0.000 C 
BRANCH   2   3
ATOM      3  C   UNL     1      24.600  29.733 -18.418  1.00  0.00    -0.003 C 
ATOM      4  C   UNL     1      24.399  28.289 -18.875  1.00  0.00     0.004 C 
ENDBRANCH   2   3
ENDBRANCH   1   2
BRANCH   1   5
ATOM      5  C   UNL     1      21.720  30.336 -20.400  1.00  0.00     0.080 C 
BRANCH   5   6
ATOM      6  C   UNL     1      21.631  29.242 -21.422  1.00  0.00     0.155 C 
ATOM      7  O   UNL     1      21.652  29.537 -22.648  1.00  0.00    -0.295 OA
BRANCH   6   8
ATOM      8  C   UNL     1      21.474  27.838 -20.991  1.00  0.00     0.039 C 
ATOM      9  C   UNL     1      20.563  27.025 -21.524  1.00  0.00     0.012 C 
ENDBRANCH   6   8
ENDBRANCH   5   6
ENDBRANCH   1   5
TORSDOF 5
ENDMDL
MODEL 6
REMARK VINA RESULT:    -3.561      6.043      7.693
REMARK INTER + INTRA:          -5.132
REMARK INTER:                  -4.818
REMARK INTRA:                  -0.314
REMARK UNBOUND:                -0.530
REMARK SMILES C=CC(=O)CCCCC
REMARK SMILES IDX 6 1 7 2 8 3 9 4 5 5 3 6 4 7 2 8 1 9
REMARK H PARENT
REMARK Flexibility Score: inf
ROOT
ATOM      1  C   UNL     1      19.981  28.553 -13.372  1.00  0.00     0.008 C 
ENDROOT
BRANCH   1   2
ATOM      2  C   UNL     1      18.597  28.889 -13.945  1.00  0.00     0.000 C 
BRANCH   2   3
ATOM      3  C   UNL     1      17.632  27.694 -13.895  1.00  0.00    -0.003 C 
ATOM      4  C   UNL     1      17.531  27.073 -12.503  1.00  0.00     0.004 C 
ENDBRANCH   2   3
ENDBRANCH   1   2
BRANCH   1   5
ATOM      5  C   UNL     1      20.337  29.492 -12.214  1.00  0.00     0.080 C 
BRANCH   5   6
ATOM      6  C   UNL     1      20.825  28.709 -11.031  1.00  0.00     0.155 C 
ATOM      7  O   UNL     1      21.974  28.190 -11.065  1.00  0.00    -0.295 OA
BRANCH   6   8
ATOM      8  C   UNL     1      19.947  28.514  -9.861  1.00  0.00     0.039 C 
ATOM      9  C   UNL     1      20.331  27.826  -8.786  1.00  0.00     0.012 C 
ENDBRANCH   6   8
ENDBRANCH   5   6
ENDBRANCH   1   5
TORSDOF 5
ENDMDL
MODEL 7
REMARK VINA RESULT:    -3.546      1.548      3.437
REMARK INTER + INTRA:          -5.112
REMARK INTER:                  -4.513
REMARK INTRA:                  -0.599
REMARK UNBOUND:                -0.530
REMARK SMILES C=CC(=O)CCCCC
REMARK SMILES IDX 6 1 7 2 8 3 9 4 5 5 3 6 4 7 2 8 1 9
REMARK H PARENT
REMARK Flexibility Score: inf
ROOT
ATOM      1  C   UNL     1      23.948  29.886 -18.146  1.00  0.00     0.008 C 
ENDROOT
BRANCH   1   2
ATOM      2  C   UNL     1      22.890  30.802 -18.778  1.00  0.00     0.000 C 
BRANCH   2   3
ATOM      3  C   UNL     1      22.015  30.070 -19.808  1.00  0.00    -0.003 C 
ATOM      4  C   UNL     1      22.528  28.666 -20.127  1.00  0.00     0.004 C 
ENDBRANCH   2   3
ENDBRANCH   1   2
BRANCH   1   5
ATOM      5  C   UNL     1      23.607  29.584 -16.683  1.00  0.00     0.080 C 
BRANCH   5   6
ATOM      6  C   UNL     1      23.210  28.147 -16.521  1.00  0.00     0.155 C 
ATOM      7  O   UNL     1      24.047  27.240 -16.782  1.00  0.00    -0.295 OA
BRANCH   6   8
ATOM      8  C   UNL     1      21.836  27.803 -16.103  1.00  0.00     0.039 C 
ATOM      9  C   UNL     1      20.762  28.189 -16.790  1.00  0.00     0.012 C 
ENDBRANCH   6   8
ENDBRANCH   5   6
ENDBRANCH   1   5
TORSDOF 5
ENDMDL
MODEL 8
REMARK VINA RESULT:    -3.517      5.981      7.208
REMARK INTER + INTRA:          -5.075
REMARK INTER:                  -4.744
REMARK INTRA:                  -0.331
REMARK UNBOUND:                -0.530
REMARK SMILES C=CC(=O)CCCCC
REMARK SMILES IDX 6 1 7 2 8 3 9 4 5 5 3 6 4 7 2 8 1 9
REMARK H PARENT
REMARK Flexibility Score: inf
ROOT
ATOM      1  C   UNL     1      20.160  28.752 -13.235  1.00  0.00     0.008 C 
ENDROOT
BRANCH   1   2
ATOM      2  C   UNL     1      20.239  29.649 -11.992  1.00  0.00     0.000 C 
BRANCH   2   3
ATOM      3  C   UNL     1      20.898  28.944 -10.796  1.00  0.00    -0.003 C 
ATOM      4  C   UNL     1      19.886  28.497  -9.742  1.00  0.00     0.004 C 
ENDBRANCH   2   3
ENDBRANCH   1   2
BRANCH   1   5
ATOM      5  C   UNL     1      18.780  28.848 -13.893  1.00  0.00     0.080 C 
BRANCH   5   6
ATOM      6  C   UNL     1      18.323  27.498 -14.361  1.00  0.00     0.155 C 
ATOM      7  O   UNL     1      18.842  26.993 -15.394  1.00  0.00    -0.295 OA
BRANCH   6   8
ATOM      8  C   UNL     1      17.245  26.791 -13.640  1.00  0.00     0.039 C 
ATOM      9  C   UNL     1      17.133  26.823 -12.313  1.00  0.00     0.012 C 
ENDBRANCH   6   8
ENDBRANCH   5   6
ENDBRANCH   1   5
TORSDOF 5
ENDMDL
MODEL 9
REMARK VINA RESULT:    -3.504     12.135     13.008
REMARK INTER + INTRA:          -5.057
REMARK INTER:                  -4.700
REMARK INTRA:                  -0.358
REMARK UNBOUND:                -0.530
REMARK SMILES C=CC(=O)CCCCC
REMARK SMILES IDX 6 1 7 2 8 3 9 4 5 5 3 6 4 7 2 8 1 9
REMARK H PARENT
REMARK Flexibility Score: inf
ROOT
ATOM      1  C   UNL     1      33.554  30.689 -13.062  1.00  0.00     0.008 C 
ENDROOT
BRANCH   1   2
ATOM      2  C   UNL     1      33.713  29.710 -11.889  1.00  0.00     0.000 C 
BRANCH   2   3
ATOM      3  C   UNL     1      34.506  30.316 -10.720  1.00  0.00    -0.003 C 
ATOM      4  C   UNL     1      33.670  30.457  -9.449  1.00  0.00     0.004 C 
ENDBRANCH   2   3
ENDBRANCH   1   2
BRANCH   1   5
ATOM      5  C   UNL     1      34.847  30.781 -13.878  1.00  0.00     0.080 C 
BRANCH   5   6
ATOM      6  C   UNL     1      35.161  32.210 -14.209  1.00  0.00     0.155 C 
ATOM      7  O   UNL     1      34.381  32.856 -14.961  1.00  0.00    -0.295 OA
BRANCH   6   8
ATOM      8  C   UNL     1      36.396  32.834 -13.695  1.00  0.00     0.039 C 
ATOM      9  C   UNL     1      36.863  32.590 -12.471  1.00  0.00     0.012 C 
ENDBRANCH   6   8
ENDBRANCH   5   6
ENDBRANCH   1   5
TORSDOF 5
ENDMDL
