MODEL 1
REMARK VINA RESULT:     0.683      0.000      0.000
REMARK INTER + INTRA:           0.598
REMARK INTER:                   0.723
REMARK INTRA:                  -0.125
REMARK UNBOUND:                -0.125
REMARK SMILES C=C(C)[C@@H]1CC=C(C)CC1
REMARK SMILES IDX 8 1 7 2 6 3 5 4 4 5 10 6 9 7 2 8 1 9 3 10
REMARK H PARENT
REMARK Flexibility Score: inf
ROOT
ATOM      1  C   UNL     1       0.752   6.473  -7.021  1.00  0.00     0.039 C 
ATOM      2  C   UNL     1       0.239   6.171  -8.402  1.00  0.00    -0.077 C 
ATOM      3  C   UNL     1       1.072   5.604  -9.301  1.00  0.00    -0.027 C 
ATOM      4  C   UNL     1       0.638   5.216 -10.693  1.00  0.00     0.035 C 
ATOM      5  C   UNL     1      -0.604   5.997 -11.154  1.00  0.00     0.018 C 
ATOM      6  C   UNL     1      -1.680   5.963 -10.058  1.00  0.00     0.013 C 
ATOM      7  C   UNL     1      -1.155   6.632  -8.782  1.00  0.00     0.031 C 
ENDROOT
BRANCH   5   8
ATOM      8  C   UNL     1      -1.136   5.462 -12.477  1.00  0.00    -0.077 C 
ATOM      9  C   UNL     1      -0.351   5.459 -13.567  1.00  0.00     0.008 C 
ATOM     10  C   UNL     1      -2.538   4.915 -12.598  1.00  0.00     0.039 C 
ENDBRANCH   5   8
TORSDOF 1
ENDMDL
MODEL 2
REMARK VINA RESULT:     1.283      0.413      1.622
REMARK INTER + INTRA:           1.233
REMARK INTER:                   1.362
REMARK INTRA:                  -0.129
REMARK UNBOUND:                -0.125
REMARK SMILES C=C(C)[C@@H]1CC=C(C)CC1
REMARK SMILES IDX 8 1 7 2 6 3 5 4 4 5 10 6 9 7 2 8 1 9 3 10
REMARK H PARENT
REMARK Flexibility Score: inf
ROOT
ATOM      1  C   UNL     1       0.413   6.650  -7.053  1.00  0.00     0.039 C 
ATOM      2  C   UNL     1       0.013   6.347  -8.471  1.00  0.00    -0.077 C 
ATOM      3  C   UNL     1      -1.295   6.383  -8.805  1.00  0.00    -0.027 C 
ATOM      4  C   UNL     1      -1.791   6.146 -10.210  1.00  0.00     0.035 C 
ATOM      5  C   UNL     1      -0.784   5.348 -11.056  1.00  0.00     0.018 C 
ATOM      6  C   UNL     1       0.619   5.956 -10.909  1.00  0.00     0.013 C 
ATOM      7  C   UNL     1       1.076   5.883  -9.448  1.00  0.00     0.031 C 
ENDROOT
BRANCH   5   8
ATOM      8  C   UNL     1      -1.216   5.280 -12.515  1.00  0.00    -0.077 C 
ATOM      9  C   UNL     1      -0.339   5.568 -13.491  1.00  0.00     0.008 C 
ATOM     10  C   UNL     1      -2.619   4.883 -12.903  1.00  0.00     0.039 C 
ENDBRANCH   5   8
TORSDOF 1
ENDMDL
MODEL 3
REMARK VINA RESULT:     2.547      1.059      4.551
REMARK INTER + INTRA:           2.570
REMARK INTER:                   2.699
REMARK INTRA:                  -0.128
REMARK UNBOUND:                -0.125
REMARK SMILES C=C(C)[C@@H]1CC=C(C)CC1
REMARK SMILES IDX 8 1 7 2 6 3 5 4 4 5 10 6 9 7 2 8 1 9 3 10
REMARK H PARENT
REMARK Flexibility Score: inf
ROOT
ATOM      1  C   UNL     1      -1.120   5.217 -13.546  1.00  0.00     0.039 C 
ATOM      2  C   UNL     1      -0.846   5.564 -12.109  1.00  0.00    -0.077 C 
ATOM      3  C   UNL     1      -1.878   5.620 -11.238  1.00  0.00    -0.027 C 
ATOM      4  C   UNL     1      -1.699   5.908  -9.768  1.00  0.00     0.035 C 
ATOM      5  C   UNL     1      -0.383   6.650  -9.477  1.00  0.00     0.018 C 
ATOM      6  C   UNL     1       0.781   5.948 -10.192  1.00  0.00     0.013 C 
ATOM      7  C   UNL     1       0.560   5.970 -11.709  1.00  0.00     0.031 C 
ENDROOT
BRANCH   5   8
ATOM      8  C   UNL     1      -0.133   6.766  -7.979  1.00  0.00    -0.077 C 
ATOM      9  C   UNL     1       0.759   5.958  -7.381  1.00  0.00     0.008 C 
ATOM     10  C   UNL     1      -0.859   7.785  -7.136  1.00  0.00     0.039 C 
ENDBRANCH   5   8
TORSDOF 1
ENDMDL
MODEL 4
REMARK VINA RESULT:     3.459      0.999      4.283
REMARK INTER + INTRA:           3.537
REMARK INTER:                   3.661
REMARK INTRA:                  -0.124
REMARK UNBOUND:                -0.125
REMARK SMILES C=C(C)[C@@H]1CC=C(C)CC1
REMARK SMILES IDX 8 1 7 2 6 3 5 4 4 5 10 6 9 7 2 8 1 9 3 10
REMARK H PARENT
REMARK Flexibility Score: inf
ROOT
ATOM      1  C   UNL     1      -1.075   5.140 -13.619  1.00  0.00     0.039 C 
ATOM      2  C   UNL     1      -0.824   5.539 -12.191  1.00  0.00    -0.077 C 
ATOM      3  C   UNL     1       0.444   5.777 -11.789  1.00  0.00    -0.027 C 
ATOM      4  C   UNL     1       0.793   6.232 -10.394  1.00  0.00     0.035 C 
ATOM      5  C   UNL     1      -0.300   5.872  -9.374  1.00  0.00     0.018 C 
ATOM      6  C   UNL     1      -1.676   6.288  -9.915  1.00  0.00     0.013 C 
ATOM      7  C   UNL     1      -1.984   5.534 -11.214  1.00  0.00     0.031 C 
ENDROOT
BRANCH   5   8
ATOM      8  C   UNL     1      -0.019   6.500  -8.015  1.00  0.00    -0.077 C 
ATOM      9  C   UNL     1       1.083   6.156  -7.329  1.00  0.00     0.008 C 
ATOM     10  C   UNL     1      -0.952   7.523  -7.413  1.00  0.00     0.039 C 
ENDBRANCH   5   8
TORSDOF 1
ENDMDL
MODEL 5
REMARK VINA RESULT:     3.679      9.624     11.708
REMARK INTER + INTRA:           3.769
REMARK INTER:                   3.897
REMARK INTRA:                  -0.128
REMARK UNBOUND:                -0.125
REMARK SMILES C=C(C)[C@@H]1CC=C(C)CC1
REMARK SMILES IDX 8 1 7 2 6 3 5 4 4 5 10 6 9 7 2 8 1 9 3 10
REMARK H PARENT
REMARK Flexibility Score: inf
ROOT
ATOM      1  C   UNL     1      13.238   7.873  -9.266  1.00  0.00     0.039 C 
ATOM      2  C   UNL     1      11.929   7.878  -8.525  1.00  0.00    -0.077 C 
ATOM      3  C   UNL     1      10.813   8.285  -9.167  1.00  0.00    -0.027 C 
ATOM      4  C   UNL     1       9.446   8.276  -8.527  1.00  0.00     0.035 C 
ATOM      5  C   UNL     1       9.524   8.301  -6.991  1.00  0.00     0.018 C 
ATOM      6  C   UNL     1      10.525   7.244  -6.502  1.00  0.00     0.013 C 
ATOM      7  C   UNL     1      11.926   7.552  -7.044  1.00  0.00     0.031 C 
ENDROOT
BRANCH   5   8
ATOM      8  C   UNL     1       8.150   8.104  -6.364  1.00  0.00    -0.077 C 
ATOM      9  C   UNL     1       7.798   6.903  -5.875  1.00  0.00     0.008 C 
ATOM     10  C   UNL     1       7.160   9.240  -6.264  1.00  0.00     0.039 C 
ENDBRANCH   5   8
TORSDOF 1
ENDMDL
