MODEL 1
REMARK VINA RESULT:    -5.613      0.000      0.000
REMARK INTER + INTRA:          -9.563
REMARK INTER:                  -8.730
REMARK INTRA:                  -0.833
REMARK UNBOUND:                -0.833
REMARK SMILES COc1cc(CNC(=O)CCCCC=CC(C)C)ccc1O
REMARK SMILES IDX 11 1 12 2 13 3 14 4 15 5 16 6 17 7 18 8 10 9 8 10 9 11 7 12
REMARK SMILES IDX 6 14 5 15 4 16 19 17 3 18 20 19 21 20 2 21 1 22 22 23
REMARK H PARENT 7 13 22 24
REMARK Flexibility Score: inf
ROOT
ATOM      1  C   UNL     1       5.040  29.177  55.067  1.00  0.00     0.010 C 
ENDROOT
BRANCH   1   2
ATOM      2  C   UNL     1       5.552  28.633  56.414  1.00  0.00     0.005 C 
BRANCH   2   3
ATOM      3  C   UNL     1       4.439  28.216  57.393  1.00  0.00     0.027 C 
BRANCH   3   4
ATOM      4  C   UNL     1       3.085  28.145  56.738  1.00  0.00    -0.031 C 
ATOM      5  C   UNL     1       1.961  28.467  57.399  1.00  0.00    -0.028 C 
BRANCH   5   6
ATOM      6  C   UNL     1       0.607  28.394  56.730  1.00  0.00     0.005 C 
ATOM      7  C   UNL     1       0.756  28.485  55.206  1.00  0.00     0.012 C 
ATOM      8  C   UNL     1      -0.309  29.511  57.244  1.00  0.00     0.012 C 
ENDBRANCH   5   6
ENDBRANCH   3   4
ENDBRANCH   2   3
ENDBRANCH   1   2
BRANCH   1   9
ATOM      9  C   UNL     1       6.079  30.046  54.342  1.00  0.00     0.100 C 
BRANCH   9  10
ATOM     10  C   UNL     1       5.460  30.731  53.159  1.00  0.00     0.220 C 
ATOM     11  O   UNL     1       5.784  31.921  52.894  1.00  0.00    -0.275 OA
ATOM     12  N   UNL     1       4.522  30.034  52.325  1.00  0.00    -0.352 N 
ATOM     13  H   UNL     1       4.279  29.043  52.549  1.00  0.00     0.163 HD
BRANCH  12  14
ATOM     14  C   UNL     1       3.896  30.654  51.158  1.00  0.00     0.151 C 
BRANCH  14  15
ATOM     15  C   UNL     1       3.834  29.678  50.014  1.00  0.00    -0.025 A 
ATOM     16  C   UNL     1       4.514  28.451  50.099  1.00  0.00     0.056 A 
ATOM     17  C   UNL     1       3.087  29.975  48.864  1.00  0.00     0.009 A 
ATOM     18  C   UNL     1       4.445  27.519  49.044  1.00  0.00     0.160 A 
ATOM     19  C   UNL     1       3.015  29.056  47.816  1.00  0.00     0.050 A 
ATOM     20  C   UNL     1       3.687  27.832  47.899  1.00  0.00     0.157 A 
BRANCH  18  21
ATOM     21  O   UNL     1       5.107  26.281  49.100  1.00  0.00    -0.493 OA
ATOM     22  C   UNL     1       4.587  25.110  49.722  1.00  0.00     0.278 C 
ENDBRANCH  18  21
BRANCH  20  23
ATOM     23  O   UNL     1       3.590  26.937  46.832  1.00  0.00    -0.504 OA
ATOM     24  H   UNL     1       2.709  26.739  46.374  1.00  0.00     0.293 HD
ENDBRANCH  20  23
ENDBRANCH  14  15
ENDBRANCH  12  14
ENDBRANCH   9  10
ENDBRANCH   1   9
TORSDOF 10
ENDMDL
MODEL 2
REMARK VINA RESULT:    -5.501      0.986      2.028
REMARK INTER + INTRA:          -9.388
REMARK INTER:                  -8.589
REMARK INTRA:                  -0.799
REMARK UNBOUND:                -0.833
REMARK SMILES COc1cc(CNC(=O)CCCCC=CC(C)C)ccc1O
REMARK SMILES IDX 11 1 12 2 13 3 14 4 15 5 16 6 17 7 18 8 10 9 8 10 9 11 7 12
REMARK SMILES IDX 6 14 5 15 4 16 19 17 3 18 20 19 21 20 2 21 1 22 22 23
REMARK H PARENT 7 13 22 24
REMARK Flexibility Score: inf
ROOT
ATOM      1  C   UNL     1       4.538  28.683  55.513  1.00  0.00     0.010 C 
ENDROOT
BRANCH   1   2
ATOM      2  C   UNL     1       4.650  28.114  56.939  1.00  0.00     0.005 C 
BRANCH   2   3
ATOM      3  C   UNL     1       3.297  27.822  57.614  1.00  0.00     0.027 C 
BRANCH   3   4
ATOM      4  C   UNL     1       2.174  28.651  57.049  1.00  0.00    -0.031 C 
ATOM      5  C   UNL     1       0.924  28.173  56.946  1.00  0.00    -0.028 C 
BRANCH   5   6
ATOM      6  C   UNL     1      -0.196  29.016  56.380  1.00  0.00     0.005 C 
ATOM      7  C   UNL     1       0.273  29.757  55.122  1.00  0.00     0.012 C 
ATOM      8  C   UNL     1      -0.702  30.014  57.428  1.00  0.00     0.012 C 
ENDBRANCH   5   6
ENDBRANCH   3   4
ENDBRANCH   2   3
ENDBRANCH   1   2
BRANCH   1   9
ATOM      9  C   UNL     1       5.756  29.526  55.109  1.00  0.00     0.100 C 
BRANCH   9  10
ATOM     10  C   UNL     1       5.515  30.205  53.792  1.00  0.00     0.220 C 
ATOM     11  O   UNL     1       6.108  31.288  53.536  1.00  0.00    -0.275 OA
ATOM     12  N   UNL     1       4.632  29.618  52.824  1.00  0.00    -0.352 N 
ATOM     13  H   UNL     1       4.163  28.711  53.045  1.00  0.00     0.163 HD
BRANCH  12  14
ATOM     14  C   UNL     1       4.368  30.235  51.525  1.00  0.00     0.151 C 
BRANCH  14  15
ATOM     15  C   UNL     1       4.215  29.178  50.463  1.00  0.00    -0.025 A 
ATOM     16  C   UNL     1       3.672  29.514  49.211  1.00  0.00     0.056 A 
ATOM     17  C   UNL     1       4.626  27.859  50.707  1.00  0.00     0.009 A 
ATOM     18  C   UNL     1       3.544  28.539  48.202  1.00  0.00     0.160 A 
ATOM     19  C   UNL     1       4.501  26.890  49.710  1.00  0.00     0.050 A 
ATOM     20  C   UNL     1       3.965  27.221  48.462  1.00  0.00     0.157 A 
BRANCH  18  21
ATOM     21  O   UNL     1       3.011  28.842  46.938  1.00  0.00    -0.493 OA
ATOM     22  C   UNL     1       1.625  29.025  46.665  1.00  0.00     0.278 C 
ENDBRANCH  18  21
BRANCH  20  23
ATOM     23  O   UNL     1       3.858  26.225  47.490  1.00  0.00    -0.504 OA
ATOM     24  H   UNL     1       3.479  26.410  46.569  1.00  0.00     0.293 HD
ENDBRANCH  20  23
ENDBRANCH  14  15
ENDBRANCH  12  14
ENDBRANCH   9  10
ENDBRANCH   1   9
TORSDOF 10
ENDMDL
MODEL 3
REMARK VINA RESULT:    -5.323      1.706      3.679
REMARK INTER + INTRA:          -9.113
REMARK INTER:                  -8.253
REMARK INTRA:                  -0.860
REMARK UNBOUND:                -0.833
REMARK SMILES COc1cc(CNC(=O)CCCCC=CC(C)C)ccc1O
REMARK SMILES IDX 11 1 12 2 13 3 14 4 15 5 16 6 17 7 18 8 10 9 8 10 9 11 7 12
REMARK SMILES IDX 6 14 5 15 4 16 19 17 3 18 20 19 21 20 2 21 1 22 22 23
REMARK H PARENT 7 13 22 24
REMARK Flexibility Score: inf
ROOT
ATOM      1  C   UNL     1       0.662  29.512  54.967  1.00  0.00     0.010 C 
ENDROOT
BRANCH   1   2
ATOM      2  C   UNL     1      -0.155  29.460  56.271  1.00  0.00     0.005 C 
BRANCH   2   3
ATOM      3  C   UNL     1       0.656  29.046  57.512  1.00  0.00     0.027 C 
BRANCH   3   4
ATOM      4  C   UNL     1       2.111  28.814  57.205  1.00  0.00    -0.031 C 
ATOM      5  C   UNL     1       2.812  27.834  57.798  1.00  0.00    -0.028 C 
BRANCH   5   6
ATOM      6  C   UNL     1       4.273  27.609  57.480  1.00  0.00     0.005 C 
ATOM      7  C   UNL     1       4.993  26.984  58.681  1.00  0.00     0.012 C 
ATOM      8  C   UNL     1       4.948  28.927  57.080  1.00  0.00     0.012 C 
ENDBRANCH   5   6
ENDBRANCH   3   4
ENDBRANCH   2   3
ENDBRANCH   1   2
BRANCH   1   9
ATOM      9  C   UNL     1       0.507  30.844  54.217  1.00  0.00     0.100 C 
BRANCH   9  10
ATOM     10  C   UNL     1       1.757  31.166  53.451  1.00  0.00     0.220 C 
ATOM     11  O   UNL     1       1.853  32.279  52.866  1.00  0.00    -0.275 OA
ATOM     12  N   UNL     1       2.840  30.225  53.399  1.00  0.00    -0.352 N 
ATOM     13  H   UNL     1       2.749  29.315  53.904  1.00  0.00     0.163 HD
BRANCH  12  14
ATOM     14  C   UNL     1       4.079  30.493  52.672  1.00  0.00     0.151 C 
BRANCH  14  15
ATOM     15  C   UNL     1       4.241  29.521  51.533  1.00  0.00    -0.025 A 
ATOM     16  C   UNL     1       3.876  29.898  50.230  1.00  0.00     0.056 A 
ATOM     17  C   UNL     1       4.773  28.242  51.760  1.00  0.00     0.009 A 
ATOM     18  C   UNL     1       4.044  29.004  49.153  1.00  0.00     0.160 A 
ATOM     19  C   UNL     1       4.941  27.354  50.697  1.00  0.00     0.050 A 
ATOM     20  C   UNL     1       4.582  27.726  49.397  1.00  0.00     0.157 A 
BRANCH  18  21
ATOM     21  O   UNL     1       3.695  29.351  47.837  1.00  0.00    -0.493 OA
ATOM     22  C   UNL     1       2.370  29.316  47.314  1.00  0.00     0.278 C 
ENDBRANCH  18  21
BRANCH  20  23
ATOM     23  O   UNL     1       4.768  26.812  48.359  1.00  0.00    -0.504 OA
ATOM     24  H   UNL     1       4.216  25.966  48.281  1.00  0.00     0.293 HD
ENDBRANCH  20  23
ENDBRANCH  14  15
ENDBRANCH  12  14
ENDBRANCH   9  10
ENDBRANCH   1   9
TORSDOF 10
ENDMDL
MODEL 4
REMARK VINA RESULT:    -5.010      3.374      5.414
REMARK INTER + INTRA:          -8.626
REMARK INTER:                  -7.647
REMARK INTRA:                  -0.979
REMARK UNBOUND:                -0.833
REMARK SMILES COc1cc(CNC(=O)CCCCC=CC(C)C)ccc1O
REMARK SMILES IDX 11 1 12 2 13 3 14 4 15 5 16 6 17 7 18 8 10 9 8 10 9 11 7 12
REMARK SMILES IDX 6 14 5 15 4 16 19 17 3 18 20 19 21 20 2 21 1 22 22 23
REMARK H PARENT 7 13 22 24
REMARK Flexibility Score: inf
ROOT
ATOM      1  C   UNL     1       4.180  28.230  55.103  1.00  0.00     0.010 C 
ENDROOT
BRANCH   1   2
ATOM      2  C   UNL     1       4.531  27.891  56.564  1.00  0.00     0.005 C 
BRANCH   2   3
ATOM      3  C   UNL     1       3.338  27.956  57.534  1.00  0.00     0.027 C 
BRANCH   3   4
ATOM      4  C   UNL     1       2.035  28.240  56.835  1.00  0.00    -0.031 C 
ATOM      5  C   UNL     1       1.081  29.000  57.397  1.00  0.00    -0.028 C 
BRANCH   5   6
ATOM      6  C   UNL     1      -0.223  29.280  56.684  1.00  0.00     0.005 C 
ATOM      7  C   UNL     1       0.042  29.810  55.270  1.00  0.00     0.012 C 
ATOM      8  C   UNL     1      -1.067  30.282  57.480  1.00  0.00     0.012 C 
ENDBRANCH   5   6
ENDBRANCH   3   4
ENDBRANCH   2   3
ENDBRANCH   1   2
BRANCH   1   9
ATOM      9  C   UNL     1       5.047  29.360  54.528  1.00  0.00     0.100 C 
BRANCH   9  10
ATOM     10  C   UNL     1       4.511  29.811  53.199  1.00  0.00     0.220 C 
ATOM     11  O   UNL     1       4.152  28.947  52.353  1.00  0.00    -0.275 OA
ATOM     12  N   UNL     1       4.391  31.210  52.902  1.00  0.00    -0.352 N 
ATOM     13  H   UNL     1       4.677  31.911  53.622  1.00  0.00     0.163 HD
BRANCH  12  14
ATOM     14  C   UNL     1       3.871  31.700  51.627  1.00  0.00     0.151 C 
BRANCH  14  15
ATOM     15  C   UNL     1       2.704  32.624  51.856  1.00  0.00    -0.025 A 
ATOM     16  C   UNL     1       2.644  33.859  51.189  1.00  0.00     0.056 A 
ATOM     17  C   UNL     1       1.663  32.255  52.721  1.00  0.00     0.009 A 
ATOM     18  C   UNL     1       1.546  34.723  51.378  1.00  0.00     0.160 A 
ATOM     19  C   UNL     1       0.573  33.106  52.912  1.00  0.00     0.050 A 
ATOM     20  C   UNL     1       0.508  34.335  52.247  1.00  0.00     0.157 A 
BRANCH  18  21
ATOM     21  O   UNL     1       1.452  35.961  50.722  1.00  0.00    -0.493 OA
ATOM     22  C   UNL     1       2.414  36.465  49.799  1.00  0.00     0.278 C 
ENDBRANCH  18  21
BRANCH  20  23
ATOM     23  O   UNL     1      -0.598  35.158  52.461  1.00  0.00    -0.504 OA
ATOM     24  H   UNL     1      -1.194  35.060  53.274  1.00  0.00     0.293 HD
ENDBRANCH  20  23
ENDBRANCH  14  15
ENDBRANCH  12  14
ENDBRANCH   9  10
ENDBRANCH   1   9
TORSDOF 10
ENDMDL
MODEL 5
REMARK VINA RESULT:    -4.947      4.465      7.214
REMARK INTER + INTRA:          -8.527
REMARK INTER:                  -7.901
REMARK INTRA:                  -0.626
REMARK UNBOUND:                -0.833
REMARK SMILES COc1cc(CNC(=O)CCCCC=CC(C)C)ccc1O
REMARK SMILES IDX 11 1 12 2 13 3 14 4 15 5 16 6 17 7 18 8 10 9 8 10 9 11 7 12
REMARK SMILES IDX 6 14 5 15 4 16 19 17 3 18 20 19 21 20 2 21 1 22 22 23
REMARK H PARENT 7 13 22 24
REMARK Flexibility Score: inf
ROOT
ATOM      1  C   UNL     1       3.841  27.442  47.615  1.00  0.00     0.010 C 
ENDROOT
BRANCH   1   2
ATOM      2  C   UNL     1       4.239  26.750  48.931  1.00  0.00     0.005 C 
BRANCH   2   3
ATOM      3  C   UNL     1       5.448  27.384  49.641  1.00  0.00     0.027 C 
BRANCH   3   4
ATOM      4  C   UNL     1       5.137  27.815  51.049  1.00  0.00    -0.031 C 
ATOM      5  C   UNL     1       5.409  29.055  51.487  1.00  0.00    -0.028 C 
BRANCH   5   6
ATOM      6  C   UNL     1       5.089  29.477  52.903  1.00  0.00     0.005 C 
ATOM      7  C   UNL     1       3.936  28.636  53.466  1.00  0.00     0.012 C 
ATOM      8  C   UNL     1       4.736  30.968  52.954  1.00  0.00     0.012 C 
ENDBRANCH   5   6
ENDBRANCH   3   4
ENDBRANCH   2   3
ENDBRANCH   1   2
BRANCH   1   9
ATOM      9  C   UNL     1       5.012  28.183  46.952  1.00  0.00     0.100 C 
BRANCH   9  10
ATOM     10  C   UNL     1       4.515  29.366  46.173  1.00  0.00     0.220 C 
ATOM     11  O   UNL     1       5.190  30.431  46.168  1.00  0.00    -0.275 OA
ATOM     12  N   UNL     1       3.293  29.280  45.425  1.00  0.00    -0.352 N 
ATOM     13  H   UNL     1       2.756  28.384  45.426  1.00  0.00     0.163 HD
BRANCH  12  14
ATOM     14  C   UNL     1       2.769  30.400  44.645  1.00  0.00     0.151 C 
BRANCH  14  15
ATOM     15  C   UNL     1       1.751  29.915  43.647  1.00  0.00    -0.025 A 
ATOM     16  C   UNL     1       0.451  29.591  44.071  1.00  0.00     0.056 A 
ATOM     17  C   UNL     1       2.084  29.799  42.289  1.00  0.00     0.009 A 
ATOM     18  C   UNL     1      -0.518  29.158  43.143  1.00  0.00     0.160 A 
ATOM     19  C   UNL     1       1.129  29.370  41.366  1.00  0.00     0.050 A 
ATOM     20  C   UNL     1      -0.167  29.051  41.783  1.00  0.00     0.157 A 
BRANCH  18  21
ATOM     21  O   UNL     1      -1.828  28.833  43.531  1.00  0.00    -0.493 OA
ATOM     22  C   UNL     1      -2.176  28.202  44.761  1.00  0.00     0.278 C 
ENDBRANCH  18  21
BRANCH  20  23
ATOM     23  O   UNL     1      -1.096  28.629  40.831  1.00  0.00    -0.504 OA
ATOM     24  H   UNL     1      -1.420  27.670  40.783  1.00  0.00     0.293 HD
ENDBRANCH  20  23
ENDBRANCH  14  15
ENDBRANCH  12  14
ENDBRANCH   9  10
ENDBRANCH   1   9
TORSDOF 10
ENDMDL
MODEL 6
REMARK VINA RESULT:    -4.922     11.764     14.773
REMARK INTER + INTRA:          -8.488
REMARK INTER:                  -7.401
REMARK INTRA:                  -1.087
REMARK UNBOUND:                -0.833
REMARK SMILES COc1cc(CNC(=O)CCCCC=CC(C)C)ccc1O
REMARK SMILES IDX 11 1 12 2 13 3 14 4 15 5 16 6 17 7 18 8 10 9 8 10 9 11 7 12
REMARK SMILES IDX 6 14 5 15 4 16 19 17 3 18 20 19 21 20 2 21 1 22 22 23
REMARK H PARENT 7 13 22 24
REMARK Flexibility Score: inf
ROOT
ATOM      1  C   UNL     1      -5.727  28.715  58.441  1.00  0.00     0.010 C 
ENDROOT
BRANCH   1   2
ATOM      2  C   UNL     1      -6.281  28.469  57.025  1.00  0.00     0.005 C 
BRANCH   2   3
ATOM      3  C   UNL     1      -7.786  28.146  56.980  1.00  0.00     0.027 C 
BRANCH   3   4
ATOM      4  C   UNL     1      -8.102  26.970  56.095  1.00  0.00    -0.031 C 
ATOM      5  C   UNL     1      -7.171  26.401  55.313  1.00  0.00    -0.028 C 
BRANCH   5   6
ATOM      6  C   UNL     1      -7.500  25.219  54.430  1.00  0.00     0.005 C 
ATOM      7  C   UNL     1      -8.803  25.471  53.661  1.00  0.00     0.012 C 
ATOM      8  C   UNL     1      -7.613  23.938  55.265  1.00  0.00     0.012 C 
ENDBRANCH   5   6
ENDBRANCH   3   4
ENDBRANCH   2   3
ENDBRANCH   1   2
BRANCH   1   9
ATOM      9  C   UNL     1      -4.999  30.061  58.571  1.00  0.00     0.100 C 
BRANCH   9  10
ATOM     10  C   UNL     1      -5.985  31.178  58.756  1.00  0.00     0.220 C 
ATOM     11  O   UNL     1      -6.254  31.578  59.921  1.00  0.00    -0.275 OA
ATOM     12  N   UNL     1      -6.601  31.798  57.617  1.00  0.00    -0.352 N 
ATOM     13  H   UNL     1      -6.353  31.465  56.658  1.00  0.00     0.163 HD
BRANCH  12  14
ATOM     14  C   UNL     1      -7.562  32.892  57.743  1.00  0.00     0.151 C 
BRANCH  14  15
ATOM     15  C   UNL     1      -8.970  32.360  57.729  1.00  0.00    -0.025 A 
ATOM     16  C   UNL     1      -9.864  32.710  58.755  1.00  0.00     0.056 A 
ATOM     17  C   UNL     1      -9.406  31.526  56.687  1.00  0.00     0.009 A 
ATOM     18  C   UNL     1     -11.192  32.236  58.740  1.00  0.00     0.160 A 
ATOM     19  C   UNL     1     -10.719  31.054  56.668  1.00  0.00     0.050 A 
ATOM     20  C   UNL     1     -11.613  31.404  57.685  1.00  0.00     0.157 A 
BRANCH  18  21
ATOM     21  O   UNL     1     -12.113  32.572  59.746  1.00  0.00    -0.493 OA
ATOM     22  C   UNL     1     -12.897  33.762  59.763  1.00  0.00     0.278 C 
ENDBRANCH  18  21
BRANCH  20  23
ATOM     23  O   UNL     1     -12.919  30.914  57.631  1.00  0.00    -0.504 OA
ATOM     24  H   UNL     1     -13.122  29.922  57.617  1.00  0.00     0.293 HD
ENDBRANCH  20  23
ENDBRANCH  14  15
ENDBRANCH  12  14
ENDBRANCH   9  10
ENDBRANCH   1   9
TORSDOF 10
ENDMDL
MODEL 7
REMARK VINA RESULT:    -4.862      3.063      8.354
REMARK INTER + INTRA:          -8.395
REMARK INTER:                  -7.775
REMARK INTRA:                  -0.620
REMARK UNBOUND:                -0.833
REMARK SMILES COc1cc(CNC(=O)CCCCC=CC(C)C)ccc1O
REMARK SMILES IDX 11 1 12 2 13 3 14 4 15 5 16 6 17 7 18 8 10 9 8 10 9 11 7 12
REMARK SMILES IDX 6 14 5 15 4 16 19 17 3 18 20 19 21 20 2 21 1 22 22 23
REMARK H PARENT 7 13 22 24
REMARK Flexibility Score: inf
ROOT
ATOM      1  C   UNL     1       3.871  27.163  49.613  1.00  0.00     0.010 C 
ENDROOT
BRANCH   1   2
ATOM      2  C   UNL     1       4.319  26.943  48.156  1.00  0.00     0.005 C 
BRANCH   2   3
ATOM      3  C   UNL     1       5.196  28.073  47.585  1.00  0.00     0.027 C 
BRANCH   3   4
ATOM      4  C   UNL     1       4.397  29.285  47.186  1.00  0.00    -0.031 C 
ATOM      5  C   UNL     1       4.161  29.585  45.899  1.00  0.00    -0.028 C 
BRANCH   5   6
ATOM      6  C   UNL     1       3.355  30.803  45.510  1.00  0.00     0.005 C 
ATOM      7  C   UNL     1       2.440  30.484  44.321  1.00  0.00     0.012 C 
ATOM      8  C   UNL     1       4.281  31.977  45.170  1.00  0.00     0.012 C 
ENDBRANCH   5   6
ENDBRANCH   3   4
ENDBRANCH   2   3
ENDBRANCH   1   2
BRANCH   1   9
ATOM      9  C   UNL     1       5.050  27.227  50.596  1.00  0.00     0.100 C 
BRANCH   9  10
ATOM     10  C   UNL     1       4.886  28.381  51.542  1.00  0.00     0.220 C 
ATOM     11  O   UNL     1       4.942  29.559  51.095  1.00  0.00    -0.275 OA
ATOM     12  N   UNL     1       4.647  28.147  52.938  1.00  0.00    -0.352 N 
ATOM     13  H   UNL     1       4.585  27.164  53.287  1.00  0.00     0.163 HD
BRANCH  12  14
ATOM     14  C   UNL     1       4.474  29.235  53.898  1.00  0.00     0.151 C 
BRANCH  14  15
ATOM     15  C   UNL     1       3.337  28.931  54.837  1.00  0.00    -0.025 A 
ATOM     16  C   UNL     1       3.600  28.387  56.106  1.00  0.00     0.056 A 
ATOM     17  C   UNL     1       2.012  29.204  54.463  1.00  0.00     0.009 A 
ATOM     18  C   UNL     1       2.546  28.119  57.002  1.00  0.00     0.160 A 
ATOM     19  C   UNL     1       0.965  28.940  55.347  1.00  0.00     0.050 A 
ATOM     20  C   UNL     1       1.223  28.402  56.612  1.00  0.00     0.157 A 
BRANCH  18  21
ATOM     21  O   UNL     1       2.774  27.581  58.280  1.00  0.00    -0.493 OA
ATOM     22  C   UNL     1       3.949  26.871  58.662  1.00  0.00     0.278 C 
ENDBRANCH  18  21
BRANCH  20  23
ATOM     23  O   UNL     1       0.150  28.155  57.470  1.00  0.00    -0.504 OA
ATOM     24  H   UNL     1      -0.801  28.408  57.230  1.00  0.00     0.293 HD
ENDBRANCH  20  23
ENDBRANCH  14  15
ENDBRANCH  12  14
ENDBRANCH   9  10
ENDBRANCH   1   9
TORSDOF 10
ENDMDL
MODEL 8
REMARK VINA RESULT:    -4.822      4.612      7.340
REMARK INTER + INTRA:          -8.333
REMARK INTER:                  -7.531
REMARK INTRA:                  -0.802
REMARK UNBOUND:                -0.833
REMARK SMILES COc1cc(CNC(=O)CCCCC=CC(C)C)ccc1O
REMARK SMILES IDX 11 1 12 2 13 3 14 4 15 5 16 6 17 7 18 8 10 9 8 10 9 11 7 12
REMARK SMILES IDX 6 14 5 15 4 16 19 17 3 18 20 19 21 20 2 21 1 22 22 23
REMARK H PARENT 7 13 22 24
REMARK Flexibility Score: inf
ROOT
ATOM      1  C   UNL     1       4.400  27.598  47.322  1.00  0.00     0.010 C 
ENDROOT
BRANCH   1   2
ATOM      2  C   UNL     1       5.234  27.125  48.527  1.00  0.00     0.005 C 
BRANCH   2   3
ATOM      3  C   UNL     1       4.398  26.628  49.721  1.00  0.00     0.027 C 
BRANCH   3   4
ATOM      4  C   UNL     1       4.701  27.373  50.994  1.00  0.00    -0.031 C 
ATOM      5  C   UNL     1       4.422  28.678  51.134  1.00  0.00    -0.028 C 
BRANCH   5   6
ATOM      6  C   UNL     1       4.728  29.415  52.419  1.00  0.00     0.005 C 
ATOM      7  C   UNL     1       4.109  28.684  53.617  1.00  0.00     0.012 C 
ATOM      8  C   UNL     1       4.213  30.857  52.349  1.00  0.00     0.012 C 
ENDBRANCH   5   6
ENDBRANCH   3   4
ENDBRANCH   2   3
ENDBRANCH   1   2
BRANCH   1   9
ATOM      9  C   UNL     1       3.036  28.175  47.729  1.00  0.00     0.100 C 
BRANCH   9  10
ATOM     10  C   UNL     1       2.676  29.341  46.856  1.00  0.00     0.220 C 
ATOM     11  O   UNL     1       2.105  30.343  47.368  1.00  0.00    -0.275 OA
ATOM     12  N   UNL     1       2.993  29.326  45.456  1.00  0.00    -0.352 N 
ATOM     13  H   UNL     1       3.482  28.495  45.053  1.00  0.00     0.163 HD
BRANCH  12  14
ATOM     14  C   UNL     1       2.669  30.438  44.565  1.00  0.00     0.151 C 
BRANCH  14  15
ATOM     15  C   UNL     1       1.412  30.142  43.791  1.00  0.00    -0.025 A 
ATOM     16  C   UNL     1       1.483  29.430  42.581  1.00  0.00     0.056 A 
ATOM     17  C   UNL     1       0.163  30.558  44.276  1.00  0.00     0.009 A 
ATOM     18  C   UNL     1       0.311  29.127  41.859  1.00  0.00     0.160 A 
ATOM     19  C   UNL     1      -1.001  30.261  43.564  1.00  0.00     0.050 A 
ATOM     20  C   UNL     1      -0.935  29.549  42.362  1.00  0.00     0.157 A 
BRANCH  18  21
ATOM     21  O   UNL     1       0.346  28.412  40.651  1.00  0.00    -0.493 OA
ATOM     22  C   UNL     1       0.512  27.000  40.549  1.00  0.00     0.278 C 
ENDBRANCH  18  21
BRANCH  20  23
ATOM     23  O   UNL     1      -2.120  29.268  41.680  1.00  0.00    -0.504 OA
ATOM     24  H   UNL     1      -2.569  29.948  41.079  1.00  0.00     0.293 HD
ENDBRANCH  20  23
ENDBRANCH  14  15
ENDBRANCH  12  14
ENDBRANCH   9  10
ENDBRANCH   1   9
TORSDOF 10
ENDMDL
MODEL 9
REMARK VINA RESULT:    -4.767     14.267     16.216
REMARK INTER + INTRA:          -8.247
REMARK INTER:                  -6.983
REMARK INTRA:                  -1.265
REMARK UNBOUND:                -0.833
REMARK SMILES COc1cc(CNC(=O)CCCCC=CC(C)C)ccc1O
REMARK SMILES IDX 11 1 12 2 13 3 14 4 15 5 16 6 17 7 18 8 10 9 8 10 9 11 7 12
REMARK SMILES IDX 6 14 5 15 4 16 19 17 3 18 20 19 21 20 2 21 1 22 22 23
REMARK H PARENT 7 13 22 24
REMARK Flexibility Score: inf
ROOT
ATOM      1  C   UNL     1      -3.560  33.586  41.709  1.00  0.00     0.010 C 
ENDROOT
BRANCH   1   2
ATOM      2  C   UNL     1      -4.682  33.577  42.763  1.00  0.00     0.005 C 
BRANCH   2   3
ATOM      3  C   UNL     1      -6.097  33.756  42.185  1.00  0.00     0.027 C 
BRANCH   3   4
ATOM      4  C   UNL     1      -7.167  33.188  43.079  1.00  0.00    -0.031 C 
ATOM      5  C   UNL     1      -8.390  32.884  42.614  1.00  0.00    -0.028 C 
BRANCH   5   6
ATOM      6  C   UNL     1      -9.456  32.311  43.521  1.00  0.00     0.005 C 
ATOM      7  C   UNL     1      -8.966  32.286  44.974  1.00  0.00     0.012 C 
ATOM      8  C   UNL     1      -9.850  30.901  43.066  1.00  0.00     0.012 C 
ENDBRANCH   5   6
ENDBRANCH   3   4
ENDBRANCH   2   3
ENDBRANCH   1   2
BRANCH   1   9
ATOM      9  C   UNL     1      -2.683  34.845  41.781  1.00  0.00     0.100 C 
BRANCH   9  10
ATOM     10  C   UNL     1      -3.509  36.076  41.546  1.00  0.00     0.220 C 
ATOM     11  O   UNL     1      -3.989  36.289  40.399  1.00  0.00    -0.275 OA
ATOM     12  N   UNL     1      -3.765  36.994  42.620  1.00  0.00    -0.352 N 
ATOM     13  H   UNL     1      -3.374  36.792  43.567  1.00  0.00     0.163 HD
BRANCH  12  14
ATOM     14  C   UNL     1      -4.568  38.203  42.445  1.00  0.00     0.151 C 
BRANCH  14  15
ATOM     15  C   UNL     1      -5.802  38.143  43.305  1.00  0.00    -0.025 A 
ATOM     16  C   UNL     1      -6.193  36.927  43.890  1.00  0.00     0.056 A 
ATOM     17  C   UNL     1      -6.560  39.300  43.543  1.00  0.00     0.009 A 
ATOM     18  C   UNL     1      -7.334  36.864  44.716  1.00  0.00     0.160 A 
ATOM     19  C   UNL     1      -7.691  39.243  44.359  1.00  0.00     0.050 A 
ATOM     20  C   UNL     1      -8.081  38.035  44.947  1.00  0.00     0.157 A 
BRANCH  18  21
ATOM     21  O   UNL     1      -7.749  35.666  45.321  1.00  0.00    -0.493 OA
ATOM     22  C   UNL     1      -7.240  35.161  46.552  1.00  0.00     0.278 C 
ENDBRANCH  18  21
BRANCH  20  23
ATOM     23  O   UNL     1      -9.216  38.017  45.759  1.00  0.00    -0.504 OA
ATOM     24  H   UNL     1     -10.152  37.974  45.376  1.00  0.00     0.293 HD
ENDBRANCH  20  23
ENDBRANCH  14  15
ENDBRANCH  12  14
ENDBRANCH   9  10
ENDBRANCH   1   9
TORSDOF 10
ENDMDL
