MODEL 1
REMARK VINA RESULT:    -6.249      0.000      0.000
REMARK INTER + INTRA:          -7.568
REMARK INTER:                  -7.345
REMARK INTRA:                  -0.223
REMARK UNBOUND:                -0.223
REMARK SMILES O=c1c(O)c(-c2ccc(O)c(O)c2)oc2cc(O)ccc12
REMARK SMILES IDX 5 1 3 2 2 3 1 4 21 5 15 6 14 7 16 8 17 9 19 10 20 11 6 12
REMARK SMILES IDX 7 13 8 14 9 15 13 16 11 17 10 18 12 20 4 22 18 24
REMARK H PARENT 10 19 12 21 4 23 18 25
REMARK Flexibility Score: inf
ROOT
ATOM      1  C   UNL     1       1.746  -3.882  21.761  1.00  0.00     0.180 A 
ATOM      2  C   UNL     1       2.820  -3.480  22.581  1.00  0.00     0.208 A 
ATOM      3  C   UNL     1       2.559  -3.124  23.912  1.00  0.00     0.235 A 
ATOM      4  O   UNL     1       3.502  -2.751  24.663  1.00  0.00    -0.285 OA
ATOM      5  C   UNL     1       1.244  -3.195  24.401  1.00  0.00     0.069 A 
ATOM      6  C   UNL     1       0.228  -3.628  23.523  1.00  0.00     0.142 A 
ATOM      7  O   UNL     1       0.516  -3.948  22.266  1.00  0.00    -0.452 OA
ATOM      8  C   UNL     1      -1.094  -3.722  23.974  1.00  0.00     0.094 A 
ATOM      9  C   UNL     1      -1.414  -3.384  25.293  1.00  0.00     0.119 A 
ATOM     10  C   UNL     1      -0.408  -2.951  26.167  1.00  0.00     0.047 A 
ATOM     11  C   UNL     1       0.915  -2.856  25.726  1.00  0.00     0.020 A 
ENDROOT
BRANCH   1  12
ATOM     12  C   UNL     1       1.937  -4.255  20.340  1.00  0.00     0.025 A 
ATOM     13  C   UNL     1       2.592  -5.444  19.977  1.00  0.00     0.016 A 
ATOM     14  C   UNL     1       2.781  -5.762  18.629  1.00  0.00     0.051 A 
ATOM     15  C   UNL     1       2.332  -4.893  17.627  1.00  0.00     0.157 A 
ATOM     16  C   UNL     1       1.507  -3.377  19.332  1.00  0.00     0.062 A 
ATOM     17  C   UNL     1       1.695  -3.692  17.982  1.00  0.00     0.158 A 
BRANCH  15  18
ATOM     18  O   UNL     1       2.521  -5.215  16.284  1.00  0.00    -0.504 OA
ATOM     19  H   UNL     1       2.785  -6.149  15.994  1.00  0.00     0.293 HD
ENDBRANCH  15  18
BRANCH  17  20
ATOM     20  O   UNL     1       1.241  -2.802  17.008  1.00  0.00    -0.504 OA
ATOM     21  H   UNL     1       0.313  -2.870  16.609  1.00  0.00     0.293 HD
ENDBRANCH  17  20
ENDBRANCH   1  12
BRANCH   2  22
ATOM     22  O   UNL     1       4.125  -3.467  22.082  1.00  0.00    -0.502 OA
ATOM     23  H   UNL     1       4.392  -2.910  21.279  1.00  0.00     0.293 HD
ENDBRANCH   2  22
BRANCH   9  24
ATOM     24  O   UNL     1      -2.736  -3.482  25.726  1.00  0.00    -0.508 OA
ATOM     25  H   UNL     1      -3.424  -2.779  25.487  1.00  0.00     0.293 HD
ENDBRANCH   9  24
TORSDOF 5
ENDMDL
MODEL 2
REMARK VINA RESULT:    -5.943      2.041      6.453
REMARK INTER + INTRA:          -7.208
REMARK INTER:                  -7.145
REMARK INTRA:                  -0.063
REMARK UNBOUND:                -0.223
REMARK SMILES O=c1c(O)c(-c2ccc(O)c(O)c2)oc2cc(O)ccc12
REMARK SMILES IDX 5 1 3 2 2 3 1 4 21 5 15 6 14 7 16 8 17 9 19 10 20 11 6 12
REMARK SMILES IDX 7 13 8 14 9 15 13 16 11 17 10 18 12 20 4 22 18 24
REMARK H PARENT 10 19 12 21 4 23 18 25
REMARK Flexibility Score: inf
ROOT
ATOM      1  C   UNL     1       2.331  -3.972  22.308  1.00  0.00     0.180 A 
ATOM      2  C   UNL     1       2.903  -4.968  21.491  1.00  0.00     0.208 A 
ATOM      3  C   UNL     1       2.620  -4.961  20.117  1.00  0.00     0.235 A 
ATOM      4  O   UNL     1       3.112  -5.847  19.366  1.00  0.00    -0.285 OA
ATOM      5  C   UNL     1       1.796  -3.955  19.587  1.00  0.00     0.069 A 
ATOM      6  C   UNL     1       1.280  -2.980  20.468  1.00  0.00     0.142 A 
ATOM      7  O   UNL     1       1.565  -3.028  21.765  1.00  0.00    -0.452 OA
ATOM      8  C   UNL     1       0.462  -1.956  19.978  1.00  0.00     0.094 A 
ATOM      9  C   UNL     1       0.150  -1.894  18.616  1.00  0.00     0.119 A 
ATOM     10  C   UNL     1       0.657  -2.861  17.738  1.00  0.00     0.047 A 
ATOM     11  C   UNL     1       1.477  -3.887  18.218  1.00  0.00     0.020 A 
ENDROOT
BRANCH   1  12
ATOM     12  C   UNL     1       2.565  -3.924  23.770  1.00  0.00     0.025 A 
ATOM     13  C   UNL     1       3.864  -3.863  24.302  1.00  0.00     0.016 A 
ATOM     14  C   UNL     1       4.061  -3.842  25.685  1.00  0.00     0.051 A 
ATOM     15  C   UNL     1       2.965  -3.895  26.557  1.00  0.00     0.157 A 
ATOM     16  C   UNL     1       1.471  -3.998  24.648  1.00  0.00     0.062 A 
ATOM     17  C   UNL     1       1.664  -3.977  26.033  1.00  0.00     0.158 A 
BRANCH  15  18
ATOM     18  O   UNL     1       3.165  -3.872  27.936  1.00  0.00    -0.504 OA
ATOM     19  H   UNL     1       4.010  -4.240  28.356  1.00  0.00     0.293 HD
ENDBRANCH  15  18
BRANCH  17  20
ATOM     20  O   UNL     1       0.553  -4.038  26.874  1.00  0.00    -0.504 OA
ATOM     21  H   UNL     1      -0.393  -3.951  26.521  1.00  0.00     0.293 HD
ENDBRANCH  17  20
ENDBRANCH   1  12
BRANCH   2  22
ATOM     22  O   UNL     1       3.759  -5.927  22.038  1.00  0.00    -0.502 OA
ATOM     23  H   UNL     1       4.341  -6.525  21.463  1.00  0.00     0.293 HD
ENDBRANCH   2  22
BRANCH   9  24
ATOM     24  O   UNL     1      -0.667  -0.867  18.145  1.00  0.00    -0.508 OA
ATOM     25  H   UNL     1      -0.339   0.090  18.098  1.00  0.00     0.293 HD
ENDBRANCH   9  24
TORSDOF 5
ENDMDL
MODEL 3
REMARK VINA RESULT:    -5.760      5.956      7.696
REMARK INTER + INTRA:          -6.993
REMARK INTER:                  -7.285
REMARK INTRA:                   0.292
REMARK UNBOUND:                -0.223
REMARK SMILES O=c1c(O)c(-c2ccc(O)c(O)c2)oc2cc(O)ccc12
REMARK SMILES IDX 5 1 3 2 2 3 1 4 21 5 15 6 14 7 16 8 17 9 19 10 20 11 6 12
REMARK SMILES IDX 7 13 8 14 9 15 13 16 11 17 10 18 12 20 4 22 18 24
REMARK H PARENT 10 19 12 21 4 23 18 25
REMARK Flexibility Score: inf
ROOT
ATOM      1  C   UNL     1      -2.612  -0.889  18.712  1.00  0.00     0.180 A 
ATOM      2  C   UNL     1      -3.228  -0.525  19.928  1.00  0.00     0.208 A 
ATOM      3  C   UNL     1      -4.420   0.213  19.888  1.00  0.00     0.235 A 
ATOM      4  O   UNL     1      -4.985   0.559  20.961  1.00  0.00    -0.285 OA
ATOM      5  C   UNL     1      -4.982   0.551  18.645  1.00  0.00     0.069 A 
ATOM      6  C   UNL     1      -4.316   0.129  17.474  1.00  0.00     0.142 A 
ATOM      7  O   UNL     1      -3.183  -0.560  17.555  1.00  0.00    -0.452 OA
ATOM      8  C   UNL     1      -4.849   0.438  16.217  1.00  0.00     0.094 A 
ATOM      9  C   UNL     1      -6.038   1.167  16.115  1.00  0.00     0.119 A 
ATOM     10  C   UNL     1      -6.700   1.589  17.275  1.00  0.00     0.047 A 
ATOM     11  C   UNL     1      -6.178   1.284  18.535  1.00  0.00     0.020 A 
ENDROOT
BRANCH   1  12
ATOM     12  C   UNL     1      -1.342  -1.650  18.671  1.00  0.00     0.025 A 
ATOM     13  C   UNL     1      -0.418  -1.590  19.728  1.00  0.00     0.016 A 
ATOM     14  C   UNL     1       0.785  -2.299  19.655  1.00  0.00     0.051 A 
ATOM     15  C   UNL     1       1.087  -3.066  18.523  1.00  0.00     0.157 A 
ATOM     16  C   UNL     1      -1.025  -2.404  17.529  1.00  0.00     0.062 A 
ATOM     17  C   UNL     1       0.177  -3.115  17.453  1.00  0.00     0.158 A 
BRANCH  15  18
ATOM     18  O   UNL     1       2.286  -3.773  18.455  1.00  0.00    -0.504 OA
ATOM     19  H   UNL     1       2.306  -4.785  18.436  1.00  0.00     0.293 HD
ENDBRANCH  15  18
BRANCH  17  20
ATOM     20  O   UNL     1       0.451  -3.864  16.309  1.00  0.00    -0.504 OA
ATOM     21  H   UNL     1       1.071  -3.528  15.582  1.00  0.00     0.293 HD
ENDBRANCH  17  20
ENDBRANCH   1  12
BRANCH   2  22
ATOM     22  O   UNL     1      -2.673  -0.918  21.148  1.00  0.00    -0.502 OA
ATOM     23  H   UNL     1      -1.681  -1.093  21.261  1.00  0.00     0.293 HD
ENDBRANCH   2  22
BRANCH   9  24
ATOM     24  O   UNL     1      -6.554   1.466  14.855  1.00  0.00    -0.508 OA
ATOM     25  H   UNL     1      -6.431   0.837  14.070  1.00  0.00     0.293 HD
ENDBRANCH   9  24
TORSDOF 5
ENDMDL
MODEL 4
REMARK VINA RESULT:    -5.731      4.326      6.156
REMARK INTER + INTRA:          -6.959
REMARK INTER:                  -6.638
REMARK INTRA:                  -0.321
REMARK UNBOUND:                -0.223
REMARK SMILES O=c1c(O)c(-c2ccc(O)c(O)c2)oc2cc(O)ccc12
REMARK SMILES IDX 5 1 3 2 2 3 1 4 21 5 15 6 14 7 16 8 17 9 19 10 20 11 6 12
REMARK SMILES IDX 7 13 8 14 9 15 13 16 11 17 10 18 12 20 4 22 18 24
REMARK H PARENT 10 19 12 21 4 23 18 25
REMARK Flexibility Score: inf
ROOT
ATOM      1  C   UNL     1      -2.641  -1.053  22.930  1.00  0.00     0.180 A 
ATOM      2  C   UNL     1      -2.632  -0.255  24.093  1.00  0.00     0.208 A 
ATOM      3  C   UNL     1      -1.757  -0.591  25.137  1.00  0.00     0.235 A 
ATOM      4  O   UNL     1      -1.737   0.101  26.192  1.00  0.00    -0.285 OA
ATOM      5  C   UNL     1      -0.901  -1.695  24.993  1.00  0.00     0.069 A 
ATOM      6  C   UNL     1      -0.955  -2.429  23.789  1.00  0.00     0.142 A 
ATOM      7  O   UNL     1      -1.805  -2.083  22.827  1.00  0.00    -0.452 OA
ATOM      8  C   UNL     1      -0.111  -3.530  23.602  1.00  0.00     0.094 A 
ATOM      9  C   UNL     1       0.785  -3.910  24.606  1.00  0.00     0.119 A 
ATOM     10  C   UNL     1       0.840  -3.185  25.804  1.00  0.00     0.047 A 
ATOM     11  C   UNL     1       0.003  -2.082  25.999  1.00  0.00     0.020 A 
ENDROOT
BRANCH   1  12
ATOM     12  C   UNL     1      -3.549  -0.775  21.793  1.00  0.00     0.025 A 
ATOM     13  C   UNL     1      -4.869  -1.257  21.775  1.00  0.00     0.016 A 
ATOM     14  C   UNL     1      -5.699  -1.002  20.681  1.00  0.00     0.051 A 
ATOM     15  C   UNL     1      -5.220  -0.274  19.584  1.00  0.00     0.157 A 
ATOM     16  C   UNL     1      -3.067  -0.064  20.682  1.00  0.00     0.062 A 
ATOM     17  C   UNL     1      -3.895   0.193  19.585  1.00  0.00     0.158 A 
BRANCH  15  18
ATOM     18  O   UNL     1      -6.052  -0.020  18.494  1.00  0.00    -0.504 OA
ATOM     19  H   UNL     1      -6.129  -0.671  17.722  1.00  0.00     0.293 HD
ENDBRANCH  15  18
BRANCH  17  20
ATOM     20  O   UNL     1      -3.386   0.915  18.505  1.00  0.00    -0.504 OA
ATOM     21  H   UNL     1      -3.568   0.648  17.545  1.00  0.00     0.293 HD
ENDBRANCH  17  20
ENDBRANCH   1  12
BRANCH   2  22
ATOM     22  O   UNL     1      -3.459   0.866  24.189  1.00  0.00    -0.502 OA
ATOM     23  H   UNL     1      -3.113   1.773  24.479  1.00  0.00     0.293 HD
ENDBRANCH   2  22
BRANCH   9  24
ATOM     24  O   UNL     1       1.618  -5.009  24.403  1.00  0.00    -0.508 OA
ATOM     25  H   UNL     1       2.626  -4.913  24.385  1.00  0.00     0.293 HD
ENDBRANCH   9  24
TORSDOF 5
ENDMDL
MODEL 5
REMARK VINA RESULT:    -5.725      3.427      5.817
REMARK INTER + INTRA:          -6.952
REMARK INTER:                  -6.641
REMARK INTRA:                  -0.312
REMARK UNBOUND:                -0.223
REMARK SMILES O=c1c(O)c(-c2ccc(O)c(O)c2)oc2cc(O)ccc12
REMARK SMILES IDX 5 1 3 2 2 3 1 4 21 5 15 6 14 7 16 8 17 9 19 10 20 11 6 12
REMARK SMILES IDX 7 13 8 14 9 15 13 16 11 17 10 18 12 20 4 22 18 24
REMARK H PARENT 10 19 12 21 4 23 18 25
REMARK Flexibility Score: inf
ROOT
ATOM      1  C   UNL     1       0.279  -3.504  24.502  1.00  0.00     0.180 A 
ATOM      2  C   UNL     1       1.259  -3.863  23.554  1.00  0.00     0.208 A 
ATOM      3  C   UNL     1       2.500  -4.333  24.009  1.00  0.00     0.235 A 
ATOM      4  O   UNL     1       3.397  -4.652  23.181  1.00  0.00    -0.285 OA
ATOM      5  C   UNL     1       2.729  -4.453  25.389  1.00  0.00     0.069 A 
ATOM      6  C   UNL     1       1.689  -4.094  26.273  1.00  0.00     0.142 A 
ATOM      7  O   UNL     1       0.530  -3.645  25.801  1.00  0.00    -0.452 OA
ATOM      8  C   UNL     1       1.874  -4.208  27.656  1.00  0.00     0.094 A 
ATOM      9  C   UNL     1       3.089  -4.675  28.168  1.00  0.00     0.119 A 
ATOM     10  C   UNL     1       4.125  -5.031  27.294  1.00  0.00     0.047 A 
ATOM     11  C   UNL     1       3.949  -4.922  25.911  1.00  0.00     0.020 A 
ENDROOT
BRANCH   1  12
ATOM     12  C   UNL     1      -1.048  -2.981  24.101  1.00  0.00     0.025 A 
ATOM     13  C   UNL     1      -1.230  -1.631  23.758  1.00  0.00     0.016 A 
ATOM     14  C   UNL     1      -2.497  -1.156  23.406  1.00  0.00     0.051 A 
ATOM     15  C   UNL     1      -3.601  -2.019  23.404  1.00  0.00     0.157 A 
ATOM     16  C   UNL     1      -2.161  -3.837  24.118  1.00  0.00     0.062 A 
ATOM     17  C   UNL     1      -3.430  -3.366  23.767  1.00  0.00     0.158 A 
BRANCH  15  18
ATOM     18  O   UNL     1      -4.862  -1.542  23.051  1.00  0.00    -0.504 OA
ATOM     19  H   UNL     1      -5.684  -2.133  23.093  1.00  0.00     0.293 HD
ENDBRANCH  15  18
BRANCH  17  20
ATOM     20  O   UNL     1      -4.510  -4.249  23.781  1.00  0.00    -0.504 OA
ATOM     21  H   UNL     1      -5.463  -3.937  23.636  1.00  0.00     0.293 HD
ENDBRANCH  17  20
ENDBRANCH   1  12
BRANCH   2  22
ATOM     22  O   UNL     1       0.986  -3.780  22.186  1.00  0.00    -0.502 OA
ATOM     23  H   UNL     1       1.273  -4.497  21.531  1.00  0.00     0.293 HD
ENDBRANCH   2  22
BRANCH   9  24
ATOM     24  O   UNL     1       3.256  -4.782  29.547  1.00  0.00    -0.508 OA
ATOM     25  H   UNL     1       2.553  -4.444  30.193  1.00  0.00     0.293 HD
ENDBRANCH   9  24
TORSDOF 5
ENDMDL
MODEL 6
REMARK VINA RESULT:    -5.651      6.386      9.545
REMARK INTER + INTRA:          -6.865
REMARK INTER:                  -6.773
REMARK INTRA:                  -0.092
REMARK UNBOUND:                -0.223
REMARK SMILES O=c1c(O)c(-c2ccc(O)c(O)c2)oc2cc(O)ccc12
REMARK SMILES IDX 5 1 3 2 2 3 1 4 21 5 15 6 14 7 16 8 17 9 19 10 20 11 6 12
REMARK SMILES IDX 7 13 8 14 9 15 13 16 11 17 10 18 12 20 4 22 18 24
REMARK H PARENT 10 19 12 21 4 23 18 25
REMARK Flexibility Score: inf
ROOT
ATOM      1  C   UNL     1      -4.402  -0.264  20.831  1.00  0.00     0.180 A 
ATOM      2  C   UNL     1      -3.290  -0.645  20.052  1.00  0.00     0.208 A 
ATOM      3  C   UNL     1      -3.328  -0.427  18.667  1.00  0.00     0.235 A 
ATOM      4  O   UNL     1      -2.349  -0.768  17.947  1.00  0.00    -0.285 OA
ATOM      5  C   UNL     1      -4.456   0.181  18.094  1.00  0.00     0.069 A 
ATOM      6  C   UNL     1      -5.519   0.554  18.945  1.00  0.00     0.142 A 
ATOM      7  O   UNL     1      -5.448   0.322  20.252  1.00  0.00    -0.452 OA
ATOM      8  C   UNL     1      -6.657   1.171  18.414  1.00  0.00     0.094 A 
ATOM      9  C   UNL     1      -6.750   1.418  17.041  1.00  0.00     0.119 A 
ATOM     10  C   UNL     1      -5.698   1.048  16.192  1.00  0.00     0.047 A 
ATOM     11  C   UNL     1      -4.556   0.432  16.713  1.00  0.00     0.020 A 
ENDROOT
BRANCH   1  12
ATOM     12  C   UNL     1      -4.447  -0.478  22.296  1.00  0.00     0.025 A 
ATOM     13  C   UNL     1      -4.564   0.599  23.191  1.00  0.00     0.016 A 
ATOM     14  C   UNL     1      -4.580   0.374  24.570  1.00  0.00     0.051 A 
ATOM     15  C   UNL     1      -4.467  -0.928  25.075  1.00  0.00     0.157 A 
ATOM     16  C   UNL     1      -4.312  -1.779  22.808  1.00  0.00     0.062 A 
ATOM     17  C   UNL     1      -4.328  -2.008  24.188  1.00  0.00     0.158 A 
BRANCH  15  18
ATOM     18  O   UNL     1      -4.485  -1.149  26.451  1.00  0.00    -0.504 OA
ATOM     19  H   UNL     1      -3.681  -0.946  27.033  1.00  0.00     0.293 HD
ENDBRANCH  15  18
BRANCH  17  20
ATOM     20  O   UNL     1      -4.207  -3.316  24.659  1.00  0.00    -0.504 OA
ATOM     21  H   UNL     1      -3.771  -4.047  24.110  1.00  0.00     0.293 HD
ENDBRANCH  17  20
ENDBRANCH   1  12
BRANCH   2  22
ATOM     22  O   UNL     1      -2.160  -1.202  20.656  1.00  0.00    -0.502 OA
ATOM     23  H   UNL     1      -1.454  -1.701  20.128  1.00  0.00     0.293 HD
ENDBRANCH   2  22
BRANCH   9  24
ATOM     24  O   UNL     1      -7.891   2.034  16.529  1.00  0.00    -0.508 OA
ATOM     25  H   UNL     1      -8.563   1.520  15.970  1.00  0.00     0.293 HD
ENDBRANCH   9  24
TORSDOF 5
ENDMDL
MODEL 7
REMARK VINA RESULT:    -5.591      5.342      6.355
REMARK INTER + INTRA:          -6.795
REMARK INTER:                  -6.593
REMARK INTRA:                  -0.202
REMARK UNBOUND:                -0.223
REMARK SMILES O=c1c(O)c(-c2ccc(O)c(O)c2)oc2cc(O)ccc12
REMARK SMILES IDX 5 1 3 2 2 3 1 4 21 5 15 6 14 7 16 8 17 9 19 10 20 11 6 12
REMARK SMILES IDX 7 13 8 14 9 15 13 16 11 17 10 18 12 20 4 22 18 24
REMARK H PARENT 10 19 12 21 4 23 18 25
REMARK Flexibility Score: inf
ROOT
ATOM      1  C   UNL     1      -3.138  -1.133  23.052  1.00  0.00     0.180 A 
ATOM      2  C   UNL     1      -3.097  -2.417  23.633  1.00  0.00     0.208 A 
ATOM      3  C   UNL     1      -2.436  -2.584  24.859  1.00  0.00     0.235 A 
ATOM      4  O   UNL     1      -2.377  -3.725  25.394  1.00  0.00    -0.285 OA
ATOM      5  C   UNL     1      -1.850  -1.472  25.485  1.00  0.00     0.069 A 
ATOM      6  C   UNL     1      -1.954  -0.216  24.849  1.00  0.00     0.142 A 
ATOM      7  O   UNL     1      -2.582  -0.101  23.684  1.00  0.00    -0.452 OA
ATOM      8  C   UNL     1      -1.392   0.919  25.446  1.00  0.00     0.094 A 
ATOM      9  C   UNL     1      -0.724   0.814  26.670  1.00  0.00     0.119 A 
ATOM     10  C   UNL     1      -0.617  -0.431  27.303  1.00  0.00     0.047 A 
ATOM     11  C   UNL     1      -1.176  -1.570  26.716  1.00  0.00     0.020 A 
ENDROOT
BRANCH   1  12
ATOM     12  C   UNL     1      -3.800  -0.879  21.751  1.00  0.00     0.025 A 
ATOM     13  C   UNL     1      -5.195  -0.967  21.610  1.00  0.00     0.016 A 
ATOM     14  C   UNL     1      -5.794  -0.746  20.367  1.00  0.00     0.051 A 
ATOM     15  C   UNL     1      -5.009  -0.447  19.246  1.00  0.00     0.157 A 
ATOM     16  C   UNL     1      -3.015  -0.600  20.620  1.00  0.00     0.062 A 
ATOM     17  C   UNL     1      -3.612  -0.378  19.374  1.00  0.00     0.158 A 
BRANCH  15  18
ATOM     18  O   UNL     1      -5.611  -0.225  18.008  1.00  0.00    -0.504 OA
ATOM     19  H   UNL     1      -6.546   0.156  17.933  1.00  0.00     0.293 HD
ENDBRANCH  15  18
BRANCH  17  20
ATOM     20  O   UNL     1      -2.801  -0.089  18.276  1.00  0.00    -0.504 OA
ATOM     21  H   UNL     1      -1.790  -0.113  18.333  1.00  0.00     0.293 HD
ENDBRANCH  17  20
ENDBRANCH   1  12
BRANCH   2  22
ATOM     22  O   UNL     1      -3.731  -3.495  23.012  1.00  0.00    -0.502 OA
ATOM     23  H   UNL     1      -4.122  -3.431  22.079  1.00  0.00     0.293 HD
ENDBRANCH   2  22
BRANCH   9  24
ATOM     24  O   UNL     1      -0.170   1.955  27.249  1.00  0.00    -0.508 OA
ATOM     25  H   UNL     1       0.243   2.687  26.685  1.00  0.00     0.293 HD
ENDBRANCH   9  24
TORSDOF 5
ENDMDL
MODEL 8
REMARK VINA RESULT:    -5.544      2.351      6.486
REMARK INTER + INTRA:          -6.739
REMARK INTER:                  -6.537
REMARK INTRA:                  -0.202
REMARK UNBOUND:                -0.223
REMARK SMILES O=c1c(O)c(-c2ccc(O)c(O)c2)oc2cc(O)ccc12
REMARK SMILES IDX 5 1 3 2 2 3 1 4 21 5 15 6 14 7 16 8 17 9 19 10 20 11 6 12
REMARK SMILES IDX 7 13 8 14 9 15 13 16 11 17 10 18 12 20 4 22 18 24
REMARK H PARENT 10 19 12 21 4 23 18 25
REMARK Flexibility Score: inf
ROOT
ATOM      1  C   UNL     1      -0.021  -3.086  24.072  1.00  0.00     0.180 A 
ATOM      2  C   UNL     1       0.752  -3.460  25.190  1.00  0.00     0.208 A 
ATOM      3  C   UNL     1       1.898  -4.243  24.989  1.00  0.00     0.235 A 
ATOM      4  O   UNL     1       2.601  -4.599  25.975  1.00  0.00    -0.285 OA
ATOM      5  C   UNL     1       2.259  -4.617  23.684  1.00  0.00     0.069 A 
ATOM      6  C   UNL     1       1.444  -4.183  22.616  1.00  0.00     0.142 A 
ATOM      7  O   UNL     1       0.361  -3.450  22.850  1.00  0.00    -0.452 OA
ATOM      8  C   UNL     1       1.775  -4.527  21.300  1.00  0.00     0.094 A 
ATOM      9  C   UNL     1       2.909  -5.302  21.038  1.00  0.00     0.119 A 
ATOM     10  C   UNL     1       3.718  -5.737  22.095  1.00  0.00     0.047 A 
ATOM     11  C   UNL     1       3.397  -5.397  23.413  1.00  0.00     0.020 A 
ENDROOT
BRANCH   1  12
ATOM     12  C   UNL     1      -1.255  -2.276  24.204  1.00  0.00     0.025 A 
ATOM     13  C   UNL     1      -1.208  -0.928  24.598  1.00  0.00     0.016 A 
ATOM     14  C   UNL     1      -2.388  -0.192  24.737  1.00  0.00     0.051 A 
ATOM     15  C   UNL     1      -3.630  -0.794  24.499  1.00  0.00     0.157 A 
ATOM     16  C   UNL     1      -2.504  -2.881  23.986  1.00  0.00     0.062 A 
ATOM     17  C   UNL     1      -3.687  -2.147  24.126  1.00  0.00     0.158 A 
BRANCH  15  18
ATOM     18  O   UNL     1      -4.804  -0.056  24.639  1.00  0.00    -0.504 OA
ATOM     19  H   UNL     1      -4.938   0.589  25.408  1.00  0.00     0.293 HD
ENDBRANCH  15  18
BRANCH  17  20
ATOM     20  O   UNL     1      -4.908  -2.778  23.888  1.00  0.00    -0.504 OA
ATOM     21  H   UNL     1      -5.754  -2.514  24.378  1.00  0.00     0.293 HD
ENDBRANCH  17  20
ENDBRANCH   1  12
BRANCH   2  22
ATOM     22  O   UNL     1       0.396  -3.031  26.472  1.00  0.00    -0.502 OA
ATOM     23  H   UNL     1      -0.507  -3.238  26.881  1.00  0.00     0.293 HD
ENDBRANCH   2  22
BRANCH   9  24
ATOM     24  O   UNL     1       3.223  -5.636  19.721  1.00  0.00    -0.508 OA
ATOM     25  H   UNL     1       2.805  -5.147  18.938  1.00  0.00     0.293 HD
ENDBRANCH   9  24
TORSDOF 5
ENDMDL
MODEL 9
REMARK VINA RESULT:    -5.474      2.445      6.674
REMARK INTER + INTRA:          -6.657
REMARK INTER:                  -6.339
REMARK INTRA:                  -0.318
REMARK UNBOUND:                -0.223
REMARK SMILES O=c1c(O)c(-c2ccc(O)c(O)c2)oc2cc(O)ccc12
REMARK SMILES IDX 5 1 3 2 2 3 1 4 21 5 15 6 14 7 16 8 17 9 19 10 20 11 6 12
REMARK SMILES IDX 7 13 8 14 9 15 13 16 11 17 10 18 12 20 4 22 18 24
REMARK H PARENT 10 19 12 21 4 23 18 25
REMARK Flexibility Score: inf
ROOT
ATOM      1  C   UNL     1       0.153  -3.146  24.726  1.00  0.00     0.180 A 
ATOM      2  C   UNL     1       1.057  -3.520  25.741  1.00  0.00     0.208 A 
ATOM      3  C   UNL     1       2.201  -4.253  25.392  1.00  0.00     0.235 A 
ATOM      4  O   UNL     1       3.020  -4.608  26.284  1.00  0.00    -0.285 OA
ATOM      5  C   UNL     1       2.429  -4.578  24.045  1.00  0.00     0.069 A 
ATOM      6  C   UNL     1       1.487  -4.148  23.086  1.00  0.00     0.142 A 
ATOM      7  O   UNL     1       0.411  -3.463  23.459  1.00  0.00    -0.452 OA
ATOM      8  C   UNL     1       1.682  -4.443  21.731  1.00  0.00     0.094 A 
ATOM      9  C   UNL     1       2.807  -5.167  21.323  1.00  0.00     0.119 A 
ATOM     10  C   UNL     1       3.743  -5.598  22.272  1.00  0.00     0.047 A 
ATOM     11  C   UNL     1       3.558  -5.306  23.627  1.00  0.00     0.020 A 
ENDROOT
BRANCH   1  12
ATOM     12  C   UNL     1      -1.087  -2.389  25.016  1.00  0.00     0.025 A 
ATOM     13  C   UNL     1      -2.269  -3.042  25.405  1.00  0.00     0.016 A 
ATOM     14  C   UNL     1      -3.433  -2.308  25.651  1.00  0.00     0.051 A 
ATOM     15  C   UNL     1      -3.436  -0.915  25.500  1.00  0.00     0.157 A 
ATOM     16  C   UNL     1      -1.101  -0.996  24.845  1.00  0.00     0.062 A 
ATOM     17  C   UNL     1      -2.264  -0.257  25.090  1.00  0.00     0.158 A 
BRANCH  15  18
ATOM     18  O   UNL     1      -4.598  -0.186  25.747  1.00  0.00    -0.504 OA
ATOM     19  H   UNL     1      -4.565   0.787  26.028  1.00  0.00     0.293 HD
ENDBRANCH  15  18
BRANCH  17  20
ATOM     20  O   UNL     1      -2.236   1.127  24.923  1.00  0.00    -0.504 OA
ATOM     21  H   UNL     1      -1.729   1.567  24.164  1.00  0.00     0.293 HD
ENDBRANCH  17  20
ENDBRANCH   1  12
BRANCH   2  22
ATOM     22  O   UNL     1       0.830  -3.140  27.066  1.00  0.00    -0.502 OA
ATOM     23  H   UNL     1       1.173  -3.681  27.851  1.00  0.00     0.293 HD
ENDBRANCH   2  22
BRANCH   9  24
ATOM     24  O   UNL     1       2.986  -5.453  19.970  1.00  0.00    -0.508 OA
ATOM     25  H   UNL     1       3.099  -6.405  19.642  1.00  0.00     0.293 HD
ENDBRANCH   9  24
TORSDOF 5
ENDMDL
