MODEL 1
REMARK VINA RESULT:    -3.776      0.000      0.000
REMARK INTER + INTRA:         -14.507
REMARK INTER:                  -9.516
REMARK INTRA:                  -4.991
REMARK UNBOUND:                -4.991
REMARK SMILES CCCCCCCCCCCCCCCCCCCCCCCCCCCC(=O)[O-]
REMARK SMILES IDX 15 1 16 2 17 3 18 4 19 5 20 6 21 7 22 8 23 9 24 10 25 11
REMARK SMILES IDX 26 12 27 13 28 14 29 15 30 16 14 17 13 18 12 19 11 20 10 21
REMARK SMILES IDX 9 22 8 23 7 24 6 25 5 26 4 27 3 28 2 29 1 30
REMARK H PARENT
REMARK Flexibility Score: inf
ROOT
ATOM      1  C   UNL     1      31.548  -7.480  20.666  1.00  0.00     0.000 C 
ENDROOT
BRANCH   1   2
ATOM      2  C   UNL     1      32.416  -6.393  20.011  1.00  0.00     0.000 C 
BRANCH   2   3
ATOM      3  C   UNL     1      32.167  -6.268  18.500  1.00  0.00     0.000 C 
BRANCH   3   4
ATOM      4  C   UNL     1      31.413  -7.488  17.955  1.00  0.00     0.000 C 
BRANCH   4   5
ATOM      5  C   UNL     1      32.131  -8.152  16.767  1.00  0.00     0.000 C 
BRANCH   5   6
ATOM      6  C   UNL     1      32.477  -9.638  17.005  1.00  0.00     0.000 C 
BRANCH   6   7
ATOM      7  C   UNL     1      32.312 -10.047  18.478  1.00  0.00     0.000 C 
BRANCH   7   8
ATOM      8  C   UNL     1      32.820 -11.478  18.713  1.00  0.00     0.000 C 
BRANCH   8   9
ATOM      9  C   UNL     1      31.699 -12.526  18.641  1.00  0.00     0.000 C 
BRANCH   9  10
ATOM     10  C   UNL     1      31.585 -13.365  19.923  1.00  0.00     0.000 C 
BRANCH  10  11
ATOM     11  C   UNL     1      30.271 -13.065  20.654  1.00  0.00     0.000 C 
BRANCH  11  12
ATOM     12  C   UNL     1      29.336 -14.283  20.632  1.00  0.00     0.006 C 
BRANCH  12  13
ATOM     13  C   UNL     1      29.193 -14.930  22.016  1.00  0.00     0.053 C 
BRANCH  13  14
ATOM     14  C   UNL     1      28.065 -14.331  22.797  1.00  0.00     0.041 C 
ATOM     15  O   UNL     1      28.038 -14.432  24.053  1.00  0.00    -0.550 OA
ATOM     16  O   UNL     1      27.063 -13.625  22.144  1.00  0.00    -0.550 OA
ENDBRANCH  13  14
ENDBRANCH  12  13
ENDBRANCH  11  12
ENDBRANCH  10  11
ENDBRANCH   9  10
ENDBRANCH   8   9
ENDBRANCH   7   8
ENDBRANCH   6   7
ENDBRANCH   5   6
ENDBRANCH   4   5
ENDBRANCH   3   4
ENDBRANCH   2   3
ENDBRANCH   1   2
BRANCH   1  17
ATOM     17  C   UNL     1      30.850  -6.994  21.946  1.00  0.00     0.000 C 
BRANCH  17  18
ATOM     18  C   UNL     1      29.872  -8.053  22.476  1.00  0.00     0.000 C 
BRANCH  18  19
ATOM     19  C   UNL     1      30.217  -8.514  23.901  1.00  0.00     0.000 C 
BRANCH  19  20
ATOM     20  C   UNL     1      31.275  -7.625  24.570  1.00  0.00     0.000 C 
BRANCH  20  21
ATOM     21  C   UNL     1      32.144  -8.438  25.537  1.00  0.00     0.000 C 
BRANCH  21  22
ATOM     22  C   UNL     1      33.638  -8.223  25.251  1.00  0.00    -0.000 C 
BRANCH  22  23
ATOM     23  C   UNL     1      33.947  -8.120  23.749  1.00  0.00    -0.000 C 
BRANCH  23  24
ATOM     24  C   UNL     1      34.706  -9.345  23.211  1.00  0.00    -0.000 C 
BRANCH  24  25
ATOM     25  C   UNL     1      34.032  -9.955  21.971  1.00  0.00    -0.000 C 
BRANCH  25  26
ATOM     26  C   UNL     1      32.663 -10.583  22.292  1.00  0.00    -0.000 C 
BRANCH  26  27
ATOM     27  C   UNL     1      32.784 -11.935  23.016  1.00  0.00    -0.000 C 
BRANCH  27  28
ATOM     28  C   UNL     1      32.269 -11.945  24.470  1.00  0.00    -0.000 C 
BRANCH  28  29
ATOM     29  C   UNL     1      30.752 -12.163  24.619  1.00  0.00    -0.003 C 
ATOM     30  C   UNL     1      30.258 -11.958  26.050  1.00  0.00     0.004 C 
ENDBRANCH  28  29
ENDBRANCH  27  28
ENDBRANCH  26  27
ENDBRANCH  25  26
ENDBRANCH  24  25
ENDBRANCH  23  24
ENDBRANCH  22  23
ENDBRANCH  21  22
ENDBRANCH  20  21
ENDBRANCH  19  20
ENDBRANCH  18  19
ENDBRANCH  17  18
ENDBRANCH   1  17
TORSDOF 26
ENDMDL
MODEL 2
REMARK VINA RESULT:    -3.738      2.224      5.673
REMARK INTER + INTRA:         -14.409
REMARK INTER:                  -9.186
REMARK INTRA:                  -5.223
REMARK UNBOUND:                -4.991
REMARK SMILES CCCCCCCCCCCCCCCCCCCCCCCCCCCC(=O)[O-]
REMARK SMILES IDX 15 1 16 2 17 3 18 4 19 5 20 6 21 7 22 8 23 9 24 10 25 11
REMARK SMILES IDX 26 12 27 13 28 14 29 15 30 16 14 17 13 18 12 19 11 20 10 21
REMARK SMILES IDX 9 22 8 23 7 24 6 25 5 26 4 27 3 28 2 29 1 30
REMARK H PARENT
REMARK Flexibility Score: inf
ROOT
ATOM      1  C   UNL     1      32.538 -10.683  19.158  1.00  0.00     0.000 C 
ENDROOT
BRANCH   1   2
ATOM      2  C   UNL     1      32.588 -11.298  17.749  1.00  0.00     0.000 C 
BRANCH   2   3
ATOM      3  C   UNL     1      32.509 -10.240  16.638  1.00  0.00     0.000 C 
BRANCH   3   4
ATOM      4  C   UNL     1      32.862  -8.845  17.170  1.00  0.00     0.000 C 
BRANCH   4   5
ATOM      5  C   UNL     1      31.778  -7.796  16.863  1.00  0.00     0.000 C 
BRANCH   5   6
ATOM      6  C   UNL     1      31.725  -6.643  17.887  1.00  0.00     0.000 C 
BRANCH   6   7
ATOM      7  C   UNL     1      31.659  -7.151  19.337  1.00  0.00     0.000 C 
BRANCH   7   8
ATOM      8  C   UNL     1      32.525  -6.285  20.265  1.00  0.00     0.000 C 
BRANCH   8   9
ATOM      9  C   UNL     1      33.799  -7.007  20.733  1.00  0.00     0.000 C 
BRANCH   9  10
ATOM     10  C   UNL     1      33.722  -7.459  22.199  1.00  0.00     0.000 C 
BRANCH  10  11
ATOM     11  C   UNL     1      33.600  -8.985  22.292  1.00  0.00     0.000 C 
BRANCH  11  12
ATOM     12  C   UNL     1      33.858  -9.473  23.725  1.00  0.00     0.006 C 
BRANCH  12  13
ATOM     13  C   UNL     1      34.494 -10.869  23.756  1.00  0.00     0.053 C 
BRANCH  13  14
ATOM     14  C   UNL     1      34.408 -11.490  25.117  1.00  0.00     0.041 C 
ATOM     15  O   UNL     1      34.542 -10.780  26.148  1.00  0.00    -0.550 OA
ATOM     16  O   UNL     1      34.141 -12.846  25.247  1.00  0.00    -0.550 OA
ENDBRANCH  13  14
ENDBRANCH  12  13
ENDBRANCH  11  12
ENDBRANCH  10  11
ENDBRANCH   9  10
ENDBRANCH   8   9
ENDBRANCH   7   8
ENDBRANCH   6   7
ENDBRANCH   5   6
ENDBRANCH   4   5
ENDBRANCH   3   4
ENDBRANCH   2   3
ENDBRANCH   1   2
BRANCH   1  17
ATOM     17  C   UNL     1      31.506 -11.365  20.069  1.00  0.00     0.000 C 
BRANCH  17  18
ATOM     18  C   UNL     1      31.798 -12.867  20.205  1.00  0.00     0.000 C 
BRANCH  18  19
ATOM     19  C   UNL     1      30.541 -13.731  20.018  1.00  0.00     0.000 C 
BRANCH  19  20
ATOM     20  C   UNL     1      29.295 -13.112  20.668  1.00  0.00     0.000 C 
BRANCH  20  21
ATOM     21  C   UNL     1      28.685 -14.064  21.703  1.00  0.00     0.000 C 
BRANCH  21  22
ATOM     22  C   UNL     1      28.372 -13.327  23.014  1.00  0.00    -0.000 C 
BRANCH  22  23
ATOM     23  C   UNL     1      29.221 -13.825  24.194  1.00  0.00    -0.000 C 
BRANCH  23  24
ATOM     24  C   UNL     1      30.713 -13.485  24.039  1.00  0.00    -0.000 C 
BRANCH  24  25
ATOM     25  C   UNL     1      30.945 -12.003  23.699  1.00  0.00    -0.000 C 
BRANCH  25  26
ATOM     26  C   UNL     1      30.688 -11.076  24.902  1.00  0.00    -0.000 C 
BRANCH  26  27
ATOM     27  C   UNL     1      30.231  -9.668  24.480  1.00  0.00    -0.000 C 
BRANCH  27  28
ATOM     28  C   UNL     1      30.016  -9.479  22.965  1.00  0.00    -0.000 C 
BRANCH  28  29
ATOM     29  C   UNL     1      29.993  -8.015  22.490  1.00  0.00    -0.003 C 
ATOM     30  C   UNL     1      30.246  -7.017  23.620  1.00  0.00     0.004 C 
ENDBRANCH  28  29
ENDBRANCH  27  28
ENDBRANCH  26  27
ENDBRANCH  25  26
ENDBRANCH  24  25
ENDBRANCH  23  24
ENDBRANCH  22  23
ENDBRANCH  21  22
ENDBRANCH  20  21
ENDBRANCH  19  20
ENDBRANCH  18  19
ENDBRANCH  17  18
ENDBRANCH   1  17
TORSDOF 26
ENDMDL
MODEL 3
REMARK VINA RESULT:    -3.733      3.150      7.231
REMARK INTER + INTRA:         -14.398
REMARK INTER:                 -10.607
REMARK INTRA:                  -3.791
REMARK UNBOUND:                -4.991
REMARK SMILES CCCCCCCCCCCCCCCCCCCCCCCCCCCC(=O)[O-]
REMARK SMILES IDX 15 1 16 2 17 3 18 4 19 5 20 6 21 7 22 8 23 9 24 10 25 11
REMARK SMILES IDX 26 12 27 13 28 14 29 15 30 16 14 17 13 18 12 19 11 20 10 21
REMARK SMILES IDX 9 22 8 23 7 24 6 25 5 26 4 27 3 28 2 29 1 30
REMARK H PARENT
REMARK Flexibility Score: inf
ROOT
ATOM      1  C   UNL     1      31.229 -11.984  20.494  1.00  0.00     0.000 C 
ENDROOT
BRANCH   1   2
ATOM      2  C   UNL     1      31.003 -13.266  19.676  1.00  0.00     0.000 C 
BRANCH   2   3
ATOM      3  C   UNL     1      29.718 -14.006  20.078  1.00  0.00     0.000 C 
BRANCH   3   4
ATOM      4  C   UNL     1      29.009 -13.302  21.243  1.00  0.00     0.000 C 
BRANCH   4   5
ATOM      5  C   UNL     1      27.898 -14.161  21.873  1.00  0.00     0.000 C 
BRANCH   5   6
ATOM      6  C   UNL     1      27.984 -14.253  23.411  1.00  0.00     0.000 C 
BRANCH   6   7
ATOM      7  C   UNL     1      29.300 -14.892  23.885  1.00  0.00     0.000 C 
BRANCH   7   8
ATOM      8  C   UNL     1      29.220 -16.425  23.831  1.00  0.00     0.000 C 
BRANCH   8   9
ATOM      9  C   UNL     1      29.979 -17.018  22.633  1.00  0.00     0.000 C 
BRANCH   9  10
ATOM     10  C   UNL     1      29.169 -18.089  21.886  1.00  0.00     0.000 C 
BRANCH  10  11
ATOM     11  C   UNL     1      29.782 -19.479  22.095  1.00  0.00     0.000 C 
BRANCH  11  12
ATOM     12  C   UNL     1      28.773 -20.436  22.747  1.00  0.00     0.006 C 
BRANCH  12  13
ATOM     13  C   UNL     1      29.185 -20.830  24.171  1.00  0.00     0.053 C 
BRANCH  13  14
ATOM     14  C   UNL     1      28.142 -20.452  25.178  1.00  0.00     0.041 C 
ATOM     15  O   UNL     1      27.249 -21.277  25.506  1.00  0.00    -0.550 OA
ATOM     16  O   UNL     1      28.179 -19.203  25.782  1.00  0.00    -0.550 OA
ENDBRANCH  13  14
ENDBRANCH  12  13
ENDBRANCH  11  12
ENDBRANCH  10  11
ENDBRANCH   9  10
ENDBRANCH   8   9
ENDBRANCH   7   8
ENDBRANCH   6   7
ENDBRANCH   5   6
ENDBRANCH   4   5
ENDBRANCH   3   4
ENDBRANCH   2   3
ENDBRANCH   1   2
BRANCH   1  17
ATOM     17  C   UNL     1      31.806 -10.834  19.654  1.00  0.00     0.000 C 
BRANCH  17  18
ATOM     18  C   UNL     1      32.972 -11.322  18.780  1.00  0.00     0.000 C 
BRANCH  18  19
ATOM     19  C   UNL     1      32.713 -11.112  17.280  1.00  0.00     0.000 C 
BRANCH  19  20
ATOM     20  C   UNL     1      33.239  -9.762  16.772  1.00  0.00     0.000 C 
BRANCH  20  21
ATOM     21  C   UNL     1      32.085  -8.792  16.495  1.00  0.00     0.000 C 
BRANCH  21  22
ATOM     22  C   UNL     1      32.597  -7.349  16.360  1.00  0.00    -0.000 C 
BRANCH  22  23
ATOM     23  C   UNL     1      32.219  -6.469  17.562  1.00  0.00    -0.000 C 
BRANCH  23  24
ATOM     24  C   UNL     1      31.360  -7.213  18.598  1.00  0.00    -0.000 C 
BRANCH  24  25
ATOM     25  C   UNL     1      31.964  -7.155  20.011  1.00  0.00    -0.000 C 
BRANCH  25  26
ATOM     26  C   UNL     1      33.481  -6.893  19.993  1.00  0.00    -0.000 C 
BRANCH  26  27
ATOM     27  C   UNL     1      34.305  -8.153  20.312  1.00  0.00    -0.000 C 
BRANCH  27  28
ATOM     28  C   UNL     1      35.470  -8.433  19.340  1.00  0.00    -0.000 C 
BRANCH  28  29
ATOM     29  C   UNL     1      35.876  -7.242  18.454  1.00  0.00    -0.003 C 
ATOM     30  C   UNL     1      36.242  -7.656  17.029  1.00  0.00     0.004 C 
ENDBRANCH  28  29
ENDBRANCH  27  28
ENDBRANCH  26  27
ENDBRANCH  25  26
ENDBRANCH  24  25
ENDBRANCH  23  24
ENDBRANCH  22  23
ENDBRANCH  21  22
ENDBRANCH  20  21
ENDBRANCH  19  20
ENDBRANCH  18  19
ENDBRANCH  17  18
ENDBRANCH   1  17
TORSDOF 26
ENDMDL
MODEL 4
REMARK VINA RESULT:    -3.726      2.297      5.949
REMARK INTER + INTRA:         -14.381
REMARK INTER:                 -10.367
REMARK INTRA:                  -4.014
REMARK UNBOUND:                -4.991
REMARK SMILES CCCCCCCCCCCCCCCCCCCCCCCCCCCC(=O)[O-]
REMARK SMILES IDX 15 1 16 2 17 3 18 4 19 5 20 6 21 7 22 8 23 9 24 10 25 11
REMARK SMILES IDX 26 12 27 13 28 14 29 15 30 16 14 17 13 18 12 19 11 20 10 21
REMARK SMILES IDX 9 22 8 23 7 24 6 25 5 26 4 27 3 28 2 29 1 30
REMARK H PARENT
REMARK Flexibility Score: inf
ROOT
ATOM      1  C   UNL     1      33.880 -10.094  18.109  1.00  0.00     0.000 C 
ENDROOT
BRANCH   1   2
ATOM      2  C   UNL     1      32.874 -10.712  17.122  1.00  0.00     0.000 C 
BRANCH   2   3
ATOM      3  C   UNL     1      32.495  -9.751  15.985  1.00  0.00     0.000 C 
BRANCH   3   4
ATOM      4  C   UNL     1      32.895  -8.307  16.316  1.00  0.00     0.000 C 
BRANCH   4   5
ATOM      5  C   UNL     1      31.685  -7.412  16.640  1.00  0.00     0.000 C 
BRANCH   5   6
ATOM      6  C   UNL     1      31.429  -7.241  18.153  1.00  0.00     0.000 C 
BRANCH   6   7
ATOM      7  C   UNL     1      32.511  -6.388  18.836  1.00  0.00     0.000 C 
BRANCH   7   8
ATOM      8  C   UNL     1      32.418  -6.501  20.365  1.00  0.00     0.000 C 
BRANCH   8   9
ATOM      9  C   UNL     1      31.121  -7.179  20.834  1.00  0.00     0.000 C 
BRANCH   9  10
ATOM     10  C   UNL     1      30.889  -7.038  22.346  1.00  0.00     0.000 C 
BRANCH  10  11
ATOM     11  C   UNL     1      29.792  -7.998  22.820  1.00  0.00     0.000 C 
BRANCH  11  12
ATOM     12  C   UNL     1      30.191  -8.689  24.132  1.00  0.00     0.006 C 
BRANCH  12  13
ATOM     13  C   UNL     1      31.554  -8.209  24.648  1.00  0.00     0.053 C 
BRANCH  13  14
ATOM     14  C   UNL     1      32.474  -9.356  24.940  1.00  0.00     0.041 C 
ATOM     15  O   UNL     1      32.412 -10.410  24.253  1.00  0.00    -0.550 OA
ATOM     16  O   UNL     1      33.425  -9.246  25.945  1.00  0.00    -0.550 OA
ENDBRANCH  13  14
ENDBRANCH  12  13
ENDBRANCH  11  12
ENDBRANCH  10  11
ENDBRANCH   9  10
ENDBRANCH   8   9
ENDBRANCH   7   8
ENDBRANCH   6   7
ENDBRANCH   5   6
ENDBRANCH   4   5
ENDBRANCH   3   4
ENDBRANCH   2   3
ENDBRANCH   1   2
BRANCH   1  17
ATOM     17  C   UNL     1      33.371 -10.097  19.559  1.00  0.00     0.000 C 
BRANCH  17  18
ATOM     18  C   UNL     1      32.285 -11.164  19.759  1.00  0.00     0.000 C 
BRANCH  18  19
ATOM     19  C   UNL     1      31.168 -10.699  20.708  1.00  0.00     0.000 C 
BRANCH  19  20
ATOM     20  C   UNL     1      30.628 -11.836  21.587  1.00  0.00     0.000 C 
BRANCH  20  21
ATOM     21  C   UNL     1      31.034 -13.204  21.026  1.00  0.00     0.000 C 
BRANCH  21  22
ATOM     22  C   UNL     1      29.967 -13.742  20.060  1.00  0.00    -0.000 C 
BRANCH  22  23
ATOM     23  C   UNL     1      28.535 -13.426  20.519  1.00  0.00    -0.000 C 
BRANCH  23  24
ATOM     24  C   UNL     1      27.996 -14.448  21.535  1.00  0.00    -0.000 C 
BRANCH  24  25
ATOM     25  C   UNL     1      27.606 -13.795  22.872  1.00  0.00    -0.000 C 
BRANCH  25  26
ATOM     26  C   UNL     1      28.530 -14.222  24.028  1.00  0.00    -0.000 C 
BRANCH  26  27
ATOM     27  C   UNL     1      28.369 -15.706  24.402  1.00  0.00    -0.000 C 
BRANCH  27  28
ATOM     28  C   UNL     1      29.679 -16.519  24.426  1.00  0.00    -0.000 C 
BRANCH  28  29
ATOM     29  C   UNL     1      30.323 -16.753  23.048  1.00  0.00    -0.003 C 
ATOM     30  C   UNL     1      29.554 -17.760  22.193  1.00  0.00     0.004 C 
ENDBRANCH  28  29
ENDBRANCH  27  28
ENDBRANCH  26  27
ENDBRANCH  25  26
ENDBRANCH  24  25
ENDBRANCH  23  24
ENDBRANCH  22  23
ENDBRANCH  21  22
ENDBRANCH  20  21
ENDBRANCH  19  20
ENDBRANCH  18  19
ENDBRANCH  17  18
ENDBRANCH   1  17
TORSDOF 26
ENDMDL
MODEL 5
REMARK VINA RESULT:    -3.725      1.792      5.259
REMARK INTER + INTRA:         -14.379
REMARK INTER:                  -9.184
REMARK INTRA:                  -5.195
REMARK UNBOUND:                -4.991
REMARK SMILES CCCCCCCCCCCCCCCCCCCCCCCCCCCC(=O)[O-]
REMARK SMILES IDX 15 1 16 2 17 3 18 4 19 5 20 6 21 7 22 8 23 9 24 10 25 11
REMARK SMILES IDX 26 12 27 13 28 14 29 15 30 16 14 17 13 18 12 19 11 20 10 21
REMARK SMILES IDX 9 22 8 23 7 24 6 25 5 26 4 27 3 28 2 29 1 30
REMARK H PARENT
REMARK Flexibility Score: inf
ROOT
ATOM      1  C   UNL     1      33.571 -13.473  18.136  1.00  0.00     0.000 C 
ENDROOT
BRANCH   1   2
ATOM      2  C   UNL     1      34.835 -13.273  17.283  1.00  0.00     0.000 C 
BRANCH   2   3
ATOM      3  C   UNL     1      36.034 -12.781  18.108  1.00  0.00     0.000 C 
BRANCH   3   4
ATOM      4  C   UNL     1      36.340 -11.305  17.825  1.00  0.00     0.000 C 
BRANCH   4   5
ATOM      5  C   UNL     1      36.433 -10.457  19.106  1.00  0.00     0.000 C 
BRANCH   5   6
ATOM      6  C   UNL     1      35.496 -10.938  20.235  1.00  0.00     0.000 C 
BRANCH   6   7
ATOM      7  C   UNL     1      34.136 -10.222  20.211  1.00  0.00     0.000 C 
BRANCH   7   8
ATOM      8  C   UNL     1      33.079 -11.018  20.992  1.00  0.00     0.000 C 
BRANCH   8   9
ATOM      9  C   UNL     1      31.643 -10.580  20.664  1.00  0.00     0.000 C 
BRANCH   9  10
ATOM     10  C   UNL     1      30.585 -11.534  21.239  1.00  0.00     0.000 C 
BRANCH  10  11
ATOM     11  C   UNL     1      31.025 -12.994  21.081  1.00  0.00     0.000 C 
BRANCH  11  12
ATOM     12  C   UNL     1      29.965 -13.813  20.331  1.00  0.00     0.006 C 
BRANCH  12  13
ATOM     13  C   UNL     1      28.538 -13.448  20.763  1.00  0.00     0.053 C 
BRANCH  13  14
ATOM     14  C   UNL     1      28.050 -14.329  21.872  1.00  0.00     0.041 C 
ATOM     15  O   UNL     1      27.878 -13.858  23.028  1.00  0.00    -0.550 OA
ATOM     16  O   UNL     1      27.747 -15.661  21.621  1.00  0.00    -0.550 OA
ENDBRANCH  13  14
ENDBRANCH  12  13
ENDBRANCH  11  12
ENDBRANCH  10  11
ENDBRANCH   9  10
ENDBRANCH   8   9
ENDBRANCH   7   8
ENDBRANCH   6   7
ENDBRANCH   5   6
ENDBRANCH   4   5
ENDBRANCH   3   4
ENDBRANCH   2   3
ENDBRANCH   1   2
BRANCH   1  17
ATOM     17  C   UNL     1      32.396 -12.597  17.676  1.00  0.00     0.000 C 
BRANCH  17  18
ATOM     18  C   UNL     1      32.868 -11.511  16.699  1.00  0.00     0.000 C 
BRANCH  18  19
ATOM     19  C   UNL     1      32.431 -10.101  17.127  1.00  0.00     0.000 C 
BRANCH  19  20
ATOM     20  C   UNL     1      33.419  -9.014  16.677  1.00  0.00     0.000 C 
BRANCH  20  21
ATOM     21  C   UNL     1      32.703  -7.674  16.471  1.00  0.00     0.000 C 
BRANCH  21  22
ATOM     22  C   UNL     1      31.616  -7.460  17.535  1.00  0.00    -0.000 C 
BRANCH  22  23
ATOM     23  C   UNL     1      31.980  -6.362  18.547  1.00  0.00    -0.000 C 
BRANCH  23  24
ATOM     24  C   UNL     1      32.967  -6.846  19.622  1.00  0.00    -0.000 C 
BRANCH  24  25
ATOM     25  C   UNL     1      32.351  -6.834  21.032  1.00  0.00    -0.000 C 
BRANCH  25  26
ATOM     26  C   UNL     1      30.910  -7.375  21.049  1.00  0.00    -0.000 C 
BRANCH  26  27
ATOM     27  C   UNL     1      30.201  -7.136  22.394  1.00  0.00    -0.000 C 
BRANCH  27  28
ATOM     28  C   UNL     1      29.941  -8.407  23.228  1.00  0.00    -0.000 C 
BRANCH  28  29
ATOM     29  C   UNL     1      30.855  -8.578  24.454  1.00  0.00    -0.003 C 
ATOM     30  C   UNL     1      32.167  -9.292  24.126  1.00  0.00     0.004 C 
ENDBRANCH  28  29
ENDBRANCH  27  28
ENDBRANCH  26  27
ENDBRANCH  25  26
ENDBRANCH  24  25
ENDBRANCH  23  24
ENDBRANCH  22  23
ENDBRANCH  21  22
ENDBRANCH  20  21
ENDBRANCH  19  20
ENDBRANCH  18  19
ENDBRANCH  17  18
ENDBRANCH   1  17
TORSDOF 26
ENDMDL
MODEL 6
REMARK VINA RESULT:    -3.706      2.064      5.106
REMARK INTER + INTRA:         -14.330
REMARK INTER:                  -9.584
REMARK INTRA:                  -4.746
REMARK UNBOUND:                -4.991
REMARK SMILES CCCCCCCCCCCCCCCCCCCCCCCCCCCC(=O)[O-]
REMARK SMILES IDX 15 1 16 2 17 3 18 4 19 5 20 6 21 7 22 8 23 9 24 10 25 11
REMARK SMILES IDX 26 12 27 13 28 14 29 15 30 16 14 17 13 18 12 19 11 20 10 21
REMARK SMILES IDX 9 22 8 23 7 24 6 25 5 26 4 27 3 28 2 29 1 30
REMARK H PARENT
REMARK Flexibility Score: inf
ROOT
ATOM      1  C   UNL     1      32.195 -10.111  18.551  1.00  0.00     0.000 C 
ENDROOT
BRANCH   1   2
ATOM      2  C   UNL     1      33.435 -10.675  19.266  1.00  0.00     0.000 C 
BRANCH   2   3
ATOM      3  C   UNL     1      33.323 -12.181  19.546  1.00  0.00     0.000 C 
BRANCH   3   4
ATOM      4  C   UNL     1      31.935 -12.717  19.172  1.00  0.00     0.000 C 
BRANCH   4   5
ATOM      5  C   UNL     1      31.226 -13.413  20.349  1.00  0.00     0.000 C 
BRANCH   5   6
ATOM      6  C   UNL     1      29.744 -13.011  20.504  1.00  0.00     0.000 C 
BRANCH   6   7
ATOM      7  C   UNL     1      28.818 -14.232  20.631  1.00  0.00     0.000 C 
BRANCH   7   8
ATOM      8  C   UNL     1      27.897 -14.101  21.853  1.00  0.00     0.000 C 
BRANCH   8   9
ATOM      9  C   UNL     1      27.999 -15.302  22.806  1.00  0.00     0.000 C 
BRANCH   9  10
ATOM     10  C   UNL     1      28.359 -14.894  24.242  1.00  0.00     0.000 C 
BRANCH  10  11
ATOM     11  C   UNL     1      29.144 -13.576  24.253  1.00  0.00     0.000 C 
BRANCH  11  12
ATOM     12  C   UNL     1      30.057 -13.487  25.484  1.00  0.00     0.006 C 
BRANCH  12  13
ATOM     13  C   UNL     1      29.443 -14.173  26.712  1.00  0.00     0.053 C 
BRANCH  13  14
ATOM     14  C   UNL     1      29.181 -13.199  27.821  1.00  0.00     0.041 C 
ATOM     15  O   UNL     1      29.896 -12.169  27.942  1.00  0.00    -0.550 OA
ATOM     16  O   UNL     1      28.125 -13.409  28.697  1.00  0.00    -0.550 OA
ENDBRANCH  13  14
ENDBRANCH  12  13
ENDBRANCH  11  12
ENDBRANCH  10  11
ENDBRANCH   9  10
ENDBRANCH   8   9
ENDBRANCH   7   8
ENDBRANCH   6   7
ENDBRANCH   5   6
ENDBRANCH   4   5
ENDBRANCH   3   4
ENDBRANCH   2   3
ENDBRANCH   1   2
BRANCH   1  17
ATOM     17  C   UNL     1      32.498  -9.627  17.125  1.00  0.00     0.000 C 
BRANCH  17  18
ATOM     18  C   UNL     1      32.107  -8.152  16.949  1.00  0.00     0.000 C 
BRANCH  18  19
ATOM     19  C   UNL     1      31.570  -7.525  18.245  1.00  0.00     0.000 C 
BRANCH  19  20
ATOM     20  C   UNL     1      32.260  -6.197  18.589  1.00  0.00     0.000 C 
BRANCH  20  21
ATOM     21  C   UNL     1      33.703  -6.431  19.052  1.00  0.00     0.000 C 
BRANCH  21  22
ATOM     22  C   UNL     1      33.736  -7.199  20.382  1.00  0.00    -0.000 C 
BRANCH  22  23
ATOM     23  C   UNL     1      33.333  -6.328  21.583  1.00  0.00    -0.000 C 
BRANCH  23  24
ATOM     24  C   UNL     1      32.324  -7.025  22.511  1.00  0.00    -0.000 C 
BRANCH  24  25
ATOM     25  C   UNL     1      30.881  -6.928  21.986  1.00  0.00    -0.000 C 
BRANCH  25  26
ATOM     26  C   UNL     1      30.159  -8.288  21.995  1.00  0.00    -0.000 C 
BRANCH  26  27
ATOM     27  C   UNL     1      31.128  -9.477  21.882  1.00  0.00    -0.000 C 
BRANCH  27  28
ATOM     28  C   UNL     1      30.963 -10.559  22.969  1.00  0.00    -0.000 C 
BRANCH  28  29
ATOM     29  C   UNL     1      32.242 -11.349  23.299  1.00  0.00    -0.003 C 
ATOM     30  C   UNL     1      33.520 -10.597  22.927  1.00  0.00     0.004 C 
ENDBRANCH  28  29
ENDBRANCH  27  28
ENDBRANCH  26  27
ENDBRANCH  25  26
ENDBRANCH  24  25
ENDBRANCH  23  24
ENDBRANCH  22  23
ENDBRANCH  21  22
ENDBRANCH  20  21
ENDBRANCH  19  20
ENDBRANCH  18  19
ENDBRANCH  17  18
ENDBRANCH   1  17
TORSDOF 26
ENDMDL
MODEL 7
REMARK VINA RESULT:    -3.697      1.379      5.282
REMARK INTER + INTRA:         -14.307
REMARK INTER:                  -8.841
REMARK INTRA:                  -5.466
REMARK UNBOUND:                -4.991
REMARK SMILES CCCCCCCCCCCCCCCCCCCCCCCCCCCC(=O)[O-]
REMARK SMILES IDX 15 1 16 2 17 3 18 4 19 5 20 6 21 7 22 8 23 9 24 10 25 11
REMARK SMILES IDX 26 12 27 13 28 14 29 15 30 16 14 17 13 18 12 19 11 20 10 21
REMARK SMILES IDX 9 22 8 23 7 24 6 25 5 26 4 27 3 28 2 29 1 30
REMARK H PARENT
REMARK Flexibility Score: inf
ROOT
ATOM      1  C   UNL     1      34.334  -8.193  22.159  1.00  0.00     0.000 C 
ENDROOT
BRANCH   1   2
ATOM      2  C   UNL     1      33.256  -9.248  22.459  1.00  0.00     0.000 C 
BRANCH   2   3
ATOM      3  C   UNL     1      32.540  -9.739  21.191  1.00  0.00     0.000 C 
BRANCH   3   4
ATOM      4  C   UNL     1      31.022  -9.541  21.294  1.00  0.00     0.000 C 
BRANCH   4   5
ATOM      5  C   UNL     1      30.637  -8.177  21.893  1.00  0.00     0.000 C 
BRANCH   5   6
ATOM      6  C   UNL     1      29.854  -8.283  23.219  1.00  0.00     0.000 C 
BRANCH   6   7
ATOM      7  C   UNL     1      30.642  -7.714  24.410  1.00  0.00     0.000 C 
BRANCH   7   8
ATOM      8  C   UNL     1      31.013  -8.823  25.408  1.00  0.00     0.000 C 
BRANCH   8   9
ATOM      9  C   UNL     1      30.257 -10.135  25.145  1.00  0.00     0.000 C 
BRANCH   9  10
ATOM     10  C   UNL     1      31.193 -11.301  24.794  1.00  0.00     0.000 C 
BRANCH  10  11
ATOM     11  C   UNL     1      30.608 -12.146  23.655  1.00  0.00     0.000 C 
BRANCH  11  12
ATOM     12  C   UNL     1      29.898 -13.393  24.202  1.00  0.00     0.006 C 
BRANCH  12  13
ATOM     13  C   UNL     1      28.629 -13.732  23.408  1.00  0.00     0.053 C 
BRANCH  13  14
ATOM     14  C   UNL     1      28.951 -14.306  22.063  1.00  0.00     0.041 C 
ATOM     15  O   UNL     1      29.672 -15.335  21.968  1.00  0.00    -0.550 OA
ATOM     16  O   UNL     1      28.423 -13.730  20.915  1.00  0.00    -0.550 OA
ENDBRANCH  13  14
ENDBRANCH  12  13
ENDBRANCH  11  12
ENDBRANCH  10  11
ENDBRANCH   9  10
ENDBRANCH   8   9
ENDBRANCH   7   8
ENDBRANCH   6   7
ENDBRANCH   5   6
ENDBRANCH   4   5
ENDBRANCH   3   4
ENDBRANCH   2   3
ENDBRANCH   1   2
BRANCH   1  17
ATOM     17  C   UNL     1      33.913  -6.776  22.577  1.00  0.00     0.000 C 
BRANCH  17  18
ATOM     18  C   UNL     1      33.572  -5.918  21.349  1.00  0.00     0.000 C 
BRANCH  18  19
ATOM     19  C   UNL     1      34.484  -6.216  20.148  1.00  0.00     0.000 C 
BRANCH  19  20
ATOM     20  C   UNL     1      33.694  -6.499  18.862  1.00  0.00     0.000 C 
BRANCH  20  21
ATOM     21  C   UNL     1      32.184  -6.463  19.126  1.00  0.00     0.000 C 
BRANCH  21  22
ATOM     22  C   UNL     1      31.431  -7.374  18.144  1.00  0.00    -0.000 C 
BRANCH  22  23
ATOM     23  C   UNL     1      32.188  -7.578  16.822  1.00  0.00    -0.000 C 
BRANCH  23  24
ATOM     24  C   UNL     1      32.271  -9.057  16.406  1.00  0.00    -0.000 C 
BRANCH  24  25
ATOM     25  C   UNL     1      32.296 -10.006  17.616  1.00  0.00    -0.000 C 
BRANCH  25  26
ATOM     26  C   UNL     1      33.690 -10.611  17.862  1.00  0.00    -0.000 C 
BRANCH  26  27
ATOM     27  C   UNL     1      33.633 -12.102  18.240  1.00  0.00    -0.000 C 
BRANCH  27  28
ATOM     28  C   UNL     1      32.238 -12.750  18.127  1.00  0.00    -0.000 C 
BRANCH  28  29
ATOM     29  C   UNL     1      31.586 -13.126  19.470  1.00  0.00    -0.003 C 
ATOM     30  C   UNL     1      32.608 -13.382  20.578  1.00  0.00     0.004 C 
ENDBRANCH  28  29
ENDBRANCH  27  28
ENDBRANCH  26  27
ENDBRANCH  25  26
ENDBRANCH  24  25
ENDBRANCH  23  24
ENDBRANCH  22  23
ENDBRANCH  21  22
ENDBRANCH  20  21
ENDBRANCH  19  20
ENDBRANCH  18  19
ENDBRANCH  17  18
ENDBRANCH   1  17
TORSDOF 26
ENDMDL
MODEL 8
REMARK VINA RESULT:    -3.655      1.821      5.602
REMARK INTER + INTRA:         -14.202
REMARK INTER:                  -8.772
REMARK INTRA:                  -5.430
REMARK UNBOUND:                -4.991
REMARK SMILES CCCCCCCCCCCCCCCCCCCCCCCCCCCC(=O)[O-]
REMARK SMILES IDX 15 1 16 2 17 3 18 4 19 5 20 6 21 7 22 8 23 9 24 10 25 11
REMARK SMILES IDX 26 12 27 13 28 14 29 15 30 16 14 17 13 18 12 19 11 20 10 21
REMARK SMILES IDX 9 22 8 23 7 24 6 25 5 26 4 27 3 28 2 29 1 30
REMARK H PARENT
REMARK Flexibility Score: inf
ROOT
ATOM      1  C   UNL     1      34.315  -8.251  22.152  1.00  0.00     0.000 C 
ENDROOT
BRANCH   1   2
ATOM      2  C   UNL     1      33.277  -9.341  22.467  1.00  0.00     0.000 C 
BRANCH   2   3
ATOM      3  C   UNL     1      32.555  -9.850  21.210  1.00  0.00     0.000 C 
BRANCH   3   4
ATOM      4  C   UNL     1      31.058  -9.516  21.253  1.00  0.00     0.000 C 
BRANCH   4   5
ATOM      5  C   UNL     1      30.660  -8.715  22.505  1.00  0.00     0.000 C 
BRANCH   5   6
ATOM      6  C   UNL     1      29.836  -9.529  23.525  1.00  0.00     0.000 C 
BRANCH   6   7
ATOM      7  C   UNL     1      30.618  -9.806  24.820  1.00  0.00     0.000 C 
BRANCH   7   8
ATOM      8  C   UNL     1      30.470 -11.273  25.251  1.00  0.00     0.000 C 
BRANCH   8   9
ATOM      9  C   UNL     1      30.073 -12.197  24.088  1.00  0.00     0.000 C 
BRANCH   9  10
ATOM     10  C   UNL     1      31.255 -13.020  23.553  1.00  0.00     0.000 C 
BRANCH  10  11
ATOM     11  C   UNL     1      31.147 -13.204  22.034  1.00  0.00     0.000 C 
BRANCH  11  12
ATOM     12  C   UNL     1      29.735 -12.864  21.535  1.00  0.00     0.006 C 
BRANCH  12  13
ATOM     13  C   UNL     1      29.150 -13.974  20.652  1.00  0.00     0.053 C 
BRANCH  13  14
ATOM     14  C   UNL     1      28.214 -14.860  21.418  1.00  0.00     0.041 C 
ATOM     15  O   UNL     1      27.711 -14.463  22.502  1.00  0.00    -0.550 OA
ATOM     16  O   UNL     1      27.867 -16.106  20.915  1.00  0.00    -0.550 OA
ENDBRANCH  13  14
ENDBRANCH  12  13
ENDBRANCH  11  12
ENDBRANCH  10  11
ENDBRANCH   9  10
ENDBRANCH   8   9
ENDBRANCH   7   8
ENDBRANCH   6   7
ENDBRANCH   5   6
ENDBRANCH   4   5
ENDBRANCH   3   4
ENDBRANCH   2   3
ENDBRANCH   1   2
BRANCH   1  17
ATOM     17  C   UNL     1      33.922  -6.875  22.710  1.00  0.00     0.000 C 
BRANCH  17  18
ATOM     18  C   UNL     1      33.428  -5.946  21.591  1.00  0.00     0.000 C 
BRANCH  18  19
ATOM     19  C   UNL     1      34.280  -6.052  20.316  1.00  0.00     0.000 C 
BRANCH  19  20
ATOM     20  C   UNL     1      33.427  -6.175  19.045  1.00  0.00     0.000 C 
BRANCH  20  21
ATOM     21  C   UNL     1      31.998  -6.616  19.382  1.00  0.00     0.000 C 
BRANCH  21  22
ATOM     22  C   UNL     1      31.355  -7.355  18.198  1.00  0.00    -0.000 C 
BRANCH  22  23
ATOM     23  C   UNL     1      32.306  -7.498  16.999  1.00  0.00    -0.000 C 
BRANCH  23  24
ATOM     24  C   UNL     1      32.350  -8.931  16.442  1.00  0.00    -0.000 C 
BRANCH  24  25
ATOM     25  C   UNL     1      32.406  -9.991  17.556  1.00  0.00    -0.000 C 
BRANCH  25  26
ATOM     26  C   UNL     1      33.526 -11.023  17.330  1.00  0.00    -0.000 C 
BRANCH  26  27
ATOM     27  C   UNL     1      34.653 -10.915  18.373  1.00  0.00    -0.000 C 
BRANCH  27  28
ATOM     28  C   UNL     1      35.154  -9.482  18.645  1.00  0.00    -0.000 C 
BRANCH  28  29
ATOM     29  C   UNL     1      36.376  -9.054  17.813  1.00  0.00    -0.003 C 
ATOM     30  C   UNL     1      36.482  -7.538  17.645  1.00  0.00     0.004 C 
ENDBRANCH  28  29
ENDBRANCH  27  28
ENDBRANCH  26  27
ENDBRANCH  25  26
ENDBRANCH  24  25
ENDBRANCH  23  24
ENDBRANCH  22  23
ENDBRANCH  21  22
ENDBRANCH  20  21
ENDBRANCH  19  20
ENDBRANCH  18  19
ENDBRANCH  17  18
ENDBRANCH   1  17
TORSDOF 26
ENDMDL
MODEL 9
REMARK VINA RESULT:    -3.655      1.602      3.750
REMARK INTER + INTRA:         -14.200
REMARK INTER:                  -9.506
REMARK INTRA:                  -4.695
REMARK UNBOUND:                -4.991
REMARK SMILES CCCCCCCCCCCCCCCCCCCCCCCCCCCC(=O)[O-]
REMARK SMILES IDX 15 1 16 2 17 3 18 4 19 5 20 6 21 7 22 8 23 9 24 10 25 11
REMARK SMILES IDX 26 12 27 13 28 14 29 15 30 16 14 17 13 18 12 19 11 20 10 21
REMARK SMILES IDX 9 22 8 23 7 24 6 25 5 26 4 27 3 28 2 29 1 30
REMARK H PARENT
REMARK Flexibility Score: inf
ROOT
ATOM      1  C   UNL     1      32.215  -9.072  16.676  1.00  0.00     0.000 C 
ENDROOT
BRANCH   1   2
ATOM      2  C   UNL     1      33.690  -9.503  16.752  1.00  0.00     0.000 C 
BRANCH   2   3
ATOM      3  C   UNL     1      34.624  -8.347  17.141  1.00  0.00     0.000 C 
BRANCH   3   4
ATOM      4  C   UNL     1      35.178  -8.530  18.560  1.00  0.00     0.000 C 
BRANCH   4   5
ATOM      5  C   UNL     1      34.656  -9.805  19.245  1.00  0.00     0.000 C 
BRANCH   5   6
ATOM      6  C   UNL     1      33.950  -9.538  20.592  1.00  0.00     0.000 C 
BRANCH   6   7
ATOM      7  C   UNL     1      32.994 -10.676  20.986  1.00  0.00     0.000 C 
BRANCH   7   8
ATOM      8  C   UNL     1      31.861 -10.826  19.959  1.00  0.00     0.000 C 
BRANCH   8   9
ATOM      9  C   UNL     1      32.094 -11.990  18.982  1.00  0.00     0.000 C 
BRANCH   9  10
ATOM     10  C   UNL     1      31.541 -13.324  19.505  1.00  0.00     0.000 C 
BRANCH  10  11
ATOM     11  C   UNL     1      30.269 -13.101  20.331  1.00  0.00     0.000 C 
BRANCH  11  12
ATOM     12  C   UNL     1      30.386 -13.756  21.715  1.00  0.00     0.006 C 
BRANCH  12  13
ATOM     13  C   UNL     1      29.490 -13.074  22.757  1.00  0.00     0.053 C 
BRANCH  13  14
ATOM     14  C   UNL     1      28.203 -13.816  22.956  1.00  0.00     0.041 C 
ATOM     15  O   UNL     1      27.992 -14.445  24.026  1.00  0.00    -0.550 OA
ATOM     16  O   UNL     1      27.221 -13.779  21.975  1.00  0.00    -0.550 OA
ENDBRANCH  13  14
ENDBRANCH  12  13
ENDBRANCH  11  12
ENDBRANCH  10  11
ENDBRANCH   9  10
ENDBRANCH   8   9
ENDBRANCH   7   8
ENDBRANCH   6   7
ENDBRANCH   5   6
ENDBRANCH   4   5
ENDBRANCH   3   4
ENDBRANCH   2   3
ENDBRANCH   1   2
BRANCH   1  17
ATOM     17  C   UNL     1      32.014  -7.578  16.969  1.00  0.00     0.000 C 
BRANCH  17  18
ATOM     18  C   UNL     1      31.374  -7.367  18.349  1.00  0.00     0.000 C 
BRANCH  18  19
ATOM     19  C   UNL     1      32.216  -6.457  19.257  1.00  0.00     0.000 C 
BRANCH  19  20
ATOM     20  C   UNL     1      31.872  -6.626  20.745  1.00  0.00     0.000 C 
BRANCH  20  21
ATOM     21  C   UNL     1      30.718  -7.618  20.932  1.00  0.00     0.000 C 
BRANCH  21  22
ATOM     22  C   UNL     1      30.266  -7.666  22.400  1.00  0.00    -0.000 C 
BRANCH  22  23
ATOM     23  C   UNL     1      30.494  -9.041  23.048  1.00  0.00    -0.000 C 
BRANCH  23  24
ATOM     24  C   UNL     1      31.568  -9.008  24.149  1.00  0.00    -0.000 C 
BRANCH  24  25
ATOM     25  C   UNL     1      32.275  -7.645  24.239  1.00  0.00    -0.000 C 
BRANCH  25  26
ATOM     26  C   UNL     1      33.774  -7.736  23.903  1.00  0.00    -0.000 C 
BRANCH  26  27
ATOM     27  C   UNL     1      34.397  -9.080  24.321  1.00  0.00    -0.000 C 
BRANCH  27  28
ATOM     28  C   UNL     1      35.159  -9.057  25.661  1.00  0.00    -0.000 C 
BRANCH  28  29
ATOM     29  C   UNL     1      36.010 -10.307  25.946  1.00  0.00    -0.003 C 
ATOM     30  C   UNL     1      37.502  -9.999  26.069  1.00  0.00     0.004 C 
ENDBRANCH  28  29
ENDBRANCH  27  28
ENDBRANCH  26  27
ENDBRANCH  25  26
ENDBRANCH  24  25
ENDBRANCH  23  24
ENDBRANCH  22  23
ENDBRANCH  21  22
ENDBRANCH  20  21
ENDBRANCH  19  20
ENDBRANCH  18  19
ENDBRANCH  17  18
ENDBRANCH   1  17
TORSDOF 26
ENDMDL
