MODEL 1
REMARK VINA RESULT:    -7.307      0.000      0.000
REMARK INTER + INTRA:          -9.764
REMARK INTER:                  -9.229
REMARK INTRA:                  -0.535
REMARK UNBOUND:                -0.535
REMARK SMILES Oc1ccc(CCc2cc(O)cc(O)c2)cc1
REMARK SMILES IDX 6 1 5 2 4 3 3 4 2 5 16 6 17 7 1 8 7 10 8 11 15 12 9 13 13 14
REMARK SMILES IDX 10 15 12 16 14 17 11 19
REMARK H PARENT 1 9 14 18 11 20
REMARK Flexibility Score: inf
ROOT
ATOM      1  C   UNL     1      37.913  -6.343 107.432  1.00  0.00     0.040 C 
ENDROOT
BRANCH   1   2
ATOM      2  C   UNL     1      36.778  -6.314 108.420  1.00  0.00    -0.047 A 
ATOM      3  C   UNL     1      36.054  -5.129 108.634  1.00  0.00     0.007 A 
ATOM      4  C   UNL     1      35.022  -5.095 109.576  1.00  0.00     0.046 A 
ATOM      5  C   UNL     1      34.708  -6.237 110.319  1.00  0.00     0.115 A 
ATOM      6  C   UNL     1      36.470  -7.455 109.178  1.00  0.00     0.007 A 
ATOM      7  C   UNL     1      35.436  -7.418 110.119  1.00  0.00     0.046 A 
BRANCH   5   8
ATOM      8  O   UNL     1      33.676  -6.188 111.253  1.00  0.00    -0.508 OA
ATOM      9  H   UNL     1      33.604  -5.431 111.924  1.00  0.00     0.293 HD
ENDBRANCH   5   8
ENDBRANCH   1   2
BRANCH   1  10
ATOM     10  C   UNL     1      37.905  -7.655 106.642  1.00  0.00     0.040 C 
BRANCH  10  11
ATOM     11  C   UNL     1      37.700  -7.387 105.175  1.00  0.00    -0.040 A 
ATOM     12  C   UNL     1      38.010  -8.375 104.225  1.00  0.00     0.050 A 
ATOM     13  C   UNL     1      37.252  -6.129 104.740  1.00  0.00     0.050 A 
ATOM     14  C   UNL     1      37.850  -8.117 102.859  1.00  0.00     0.119 A 
ATOM     15  C   UNL     1      37.092  -5.869 103.372  1.00  0.00     0.119 A 
ATOM     16  C   UNL     1      37.389  -6.864 102.435  1.00  0.00     0.092 A 
BRANCH  14  17
ATOM     17  O   UNL     1      38.156  -9.112 101.933  1.00  0.00    -0.508 OA
ATOM     18  H   UNL     1      39.081  -9.523 101.886  1.00  0.00     0.293 HD
ENDBRANCH  14  17
BRANCH  15  19
ATOM     19  O   UNL     1      36.641  -4.625 102.935  1.00  0.00    -0.508 OA
ATOM     20  H   UNL     1      37.256  -3.820 102.902  1.00  0.00     0.293 HD
ENDBRANCH  15  19
ENDBRANCH  10  11
ENDBRANCH   1  10
TORSDOF 6
ENDMDL
MODEL 2
REMARK VINA RESULT:    -7.297      0.107      1.180
REMARK INTER + INTRA:          -9.752
REMARK INTER:                  -9.214
REMARK INTRA:                  -0.538
REMARK UNBOUND:                -0.535
REMARK SMILES Oc1ccc(CCc2cc(O)cc(O)c2)cc1
REMARK SMILES IDX 6 1 5 2 4 3 3 4 2 5 16 6 17 7 1 8 7 10 8 11 15 12 9 13 13 14
REMARK SMILES IDX 10 15 12 16 14 17 11 19
REMARK H PARENT 1 9 14 18 11 20
REMARK Flexibility Score: inf
ROOT
ATOM      1  C   UNL     1      37.894  -6.281 107.355  1.00  0.00     0.040 C 
ENDROOT
BRANCH   1   2
ATOM      2  C   UNL     1      36.803  -6.211 108.390  1.00  0.00    -0.047 A 
ATOM      3  C   UNL     1      36.450  -7.353 109.127  1.00  0.00     0.007 A 
ATOM      4  C   UNL     1      35.414  -7.293 110.063  1.00  0.00     0.046 A 
ATOM      5  C   UNL     1      34.715  -6.100 110.267  1.00  0.00     0.115 A 
ATOM      6  C   UNL     1      36.090  -5.016 108.587  1.00  0.00     0.007 A 
ATOM      7  C   UNL     1      35.055  -4.960 109.525  1.00  0.00     0.046 A 
BRANCH   5   8
ATOM      8  O   UNL     1      33.686  -6.056 111.205  1.00  0.00    -0.508 OA
ATOM      9  H   UNL     1      32.863  -5.481 111.062  1.00  0.00     0.293 HD
ENDBRANCH   5   8
ENDBRANCH   1   2
BRANCH   1  10
ATOM     10  C   UNL     1      37.828  -7.608 106.593  1.00  0.00     0.040 C 
BRANCH  10  11
ATOM     11  C   UNL     1      37.656  -7.363 105.118  1.00  0.00    -0.040 A 
ATOM     12  C   UNL     1      37.986  -8.365 104.191  1.00  0.00     0.050 A 
ATOM     13  C   UNL     1      37.221  -6.111 104.654  1.00  0.00     0.050 A 
ATOM     14  C   UNL     1      37.858  -8.128 102.818  1.00  0.00     0.119 A 
ATOM     15  C   UNL     1      37.093  -5.871 103.279  1.00  0.00     0.119 A 
ATOM     16  C   UNL     1      37.409  -6.881 102.364  1.00  0.00     0.092 A 
BRANCH  14  17
ATOM     17  O   UNL     1      38.184  -9.137 101.914  1.00  0.00    -0.508 OA
ATOM     18  H   UNL     1      38.101 -10.116 102.163  1.00  0.00     0.293 HD
ENDBRANCH  14  17
BRANCH  15  19
ATOM     19  O   UNL     1      36.654  -4.634 102.812  1.00  0.00    -0.508 OA
ATOM     20  H   UNL     1      35.755  -4.254 103.084  1.00  0.00     0.293 HD
ENDBRANCH  15  19
ENDBRANCH  10  11
ENDBRANCH   1  10
TORSDOF 6
ENDMDL
MODEL 3
REMARK VINA RESULT:    -7.263      0.136      2.039
REMARK INTER + INTRA:          -9.709
REMARK INTER:                  -9.177
REMARK INTRA:                  -0.532
REMARK UNBOUND:                -0.535
REMARK SMILES Oc1ccc(CCc2cc(O)cc(O)c2)cc1
REMARK SMILES IDX 6 1 5 2 4 3 3 4 2 5 16 6 17 7 1 8 7 10 8 11 15 12 9 13 13 14
REMARK SMILES IDX 10 15 12 16 14 17 11 19
REMARK H PARENT 1 9 14 18 11 20
REMARK Flexibility Score: inf
ROOT
ATOM      1  C   UNL     1      38.004  -6.532 107.529  1.00  0.00     0.040 C 
ENDROOT
BRANCH   1   2
ATOM      2  C   UNL     1      36.848  -6.421 108.485  1.00  0.00    -0.047 A 
ATOM      3  C   UNL     1      36.148  -5.211 108.614  1.00  0.00     0.007 A 
ATOM      4  C   UNL     1      35.095  -5.101 109.528  1.00  0.00     0.046 A 
ATOM      5  C   UNL     1      34.738  -6.191 110.327  1.00  0.00     0.115 A 
ATOM      6  C   UNL     1      36.496  -7.511 109.299  1.00  0.00     0.007 A 
ATOM      7  C   UNL     1      35.442  -7.398 110.211  1.00  0.00     0.046 A 
BRANCH   5   8
ATOM      8  O   UNL     1      33.686  -6.066 111.231  1.00  0.00    -0.508 OA
ATOM      9  H   UNL     1      33.666  -5.323 111.921  1.00  0.00     0.293 HD
ENDBRANCH   5   8
ENDBRANCH   1   2
BRANCH   1  10
ATOM     10  C   UNL     1      37.902  -7.820 106.707  1.00  0.00     0.040 C 
BRANCH  10  11
ATOM     11  C   UNL     1      37.748  -7.503 105.243  1.00  0.00    -0.040 A 
ATOM     12  C   UNL     1      37.262  -6.249 104.839  1.00  0.00     0.050 A 
ATOM     13  C   UNL     1      38.032  -8.479 104.274  1.00  0.00     0.050 A 
ATOM     14  C   UNL     1      37.087  -5.964 103.479  1.00  0.00     0.119 A 
ATOM     15  C   UNL     1      37.857  -8.195 102.912  1.00  0.00     0.119 A 
ATOM     16  C   UNL     1      37.387  -6.938 102.518  1.00  0.00     0.092 A 
BRANCH  14  17
ATOM     17  O   UNL     1      36.611  -4.712 103.098  1.00  0.00    -0.508 OA
ATOM     18  H   UNL     1      35.886  -4.238 103.625  1.00  0.00     0.293 HD
ENDBRANCH  14  17
BRANCH  15  19
ATOM     19  O   UNL     1      38.145  -9.155 101.945  1.00  0.00    -0.508 OA
ATOM     20  H   UNL     1      37.551  -9.966 101.810  1.00  0.00     0.293 HD
ENDBRANCH  15  19
ENDBRANCH  10  11
ENDBRANCH   1  10
TORSDOF 6
ENDMDL
MODEL 4
REMARK VINA RESULT:    -7.213      1.172      2.115
REMARK INTER + INTRA:          -9.645
REMARK INTER:                  -9.138
REMARK INTRA:                  -0.507
REMARK UNBOUND:                -0.535
REMARK SMILES Oc1ccc(CCc2cc(O)cc(O)c2)cc1
REMARK SMILES IDX 6 1 5 2 4 3 3 4 2 5 16 6 17 7 1 8 7 10 8 11 15 12 9 13 13 14
REMARK SMILES IDX 10 15 12 16 14 17 11 19
REMARK H PARENT 1 9 14 18 11 20
REMARK Flexibility Score: inf
ROOT
ATOM      1  C   UNL     1      37.868  -5.744 107.489  1.00  0.00     0.040 C 
ENDROOT
BRANCH   1   2
ATOM      2  C   UNL     1      36.741  -5.903 108.473  1.00  0.00    -0.047 A 
ATOM      3  C   UNL     1      35.912  -4.813 108.785  1.00  0.00     0.007 A 
ATOM      4  C   UNL     1      34.887  -4.955 109.724  1.00  0.00     0.046 A 
ATOM      5  C   UNL     1      34.685  -6.179 110.368  1.00  0.00     0.115 A 
ATOM      6  C   UNL     1      36.545  -7.128 109.132  1.00  0.00     0.007 A 
ATOM      7  C   UNL     1      35.518  -7.266 110.071  1.00  0.00     0.046 A 
BRANCH   5   8
ATOM      8  O   UNL     1      33.658  -6.305 111.301  1.00  0.00    -0.508 OA
ATOM      9  H   UNL     1      33.287  -5.499 111.793  1.00  0.00     0.293 HD
ENDBRANCH   5   8
ENDBRANCH   1   2
BRANCH   1  10
ATOM     10  C   UNL     1      37.325  -5.401 106.099  1.00  0.00     0.040 C 
BRANCH  10  11
ATOM     11  C   UNL     1      37.498  -6.566 105.161  1.00  0.00    -0.040 A 
ATOM     12  C   UNL     1      37.448  -6.369 103.772  1.00  0.00     0.050 A 
ATOM     13  C   UNL     1      37.652  -7.866 105.669  1.00  0.00     0.050 A 
ATOM     14  C   UNL     1      37.576  -7.456 102.899  1.00  0.00     0.119 A 
ATOM     15  C   UNL     1      37.779  -8.956 104.796  1.00  0.00     0.119 A 
ATOM     16  C   UNL     1      37.744  -8.748 103.413  1.00  0.00     0.092 A 
BRANCH  14  17
ATOM     17  O   UNL     1      37.531  -7.238 101.523  1.00  0.00    -0.508 OA
ATOM     18  H   UNL     1      37.654  -7.998 100.863  1.00  0.00     0.293 HD
ENDBRANCH  14  17
BRANCH  15  19
ATOM     19  O   UNL     1      37.940 -10.248 105.292  1.00  0.00    -0.508 OA
ATOM     20  H   UNL     1      37.225 -10.955 105.169  1.00  0.00     0.293 HD
ENDBRANCH  15  19
ENDBRANCH  10  11
ENDBRANCH   1  10
TORSDOF 6
ENDMDL
MODEL 5
REMARK VINA RESULT:    -7.155      1.474      6.669
REMARK INTER + INTRA:          -9.573
REMARK INTER:                  -9.015
REMARK INTRA:                  -0.558
REMARK UNBOUND:                -0.535
REMARK SMILES Oc1ccc(CCc2cc(O)cc(O)c2)cc1
REMARK SMILES IDX 6 1 5 2 4 3 3 4 2 5 16 6 17 7 1 8 7 10 8 11 15 12 9 13 13 14
REMARK SMILES IDX 10 15 12 16 14 17 11 19
REMARK H PARENT 1 9 14 18 11 20
REMARK Flexibility Score: inf
ROOT
ATOM      1  C   UNL     1      38.288  -7.835 107.432  1.00  0.00     0.040 C 
ENDROOT
BRANCH   1   2
ATOM      2  C   UNL     1      37.968  -7.741 105.964  1.00  0.00    -0.047 A 
ATOM      3  C   UNL     1      38.135  -8.858 105.129  1.00  0.00     0.007 A 
ATOM      4  C   UNL     1      37.869  -8.759 103.760  1.00  0.00     0.046 A 
ATOM      5  C   UNL     1      37.445  -7.545 103.210  1.00  0.00     0.115 A 
ATOM      6  C   UNL     1      37.556  -6.519 105.407  1.00  0.00     0.007 A 
ATOM      7  C   UNL     1      37.290  -6.424 104.037  1.00  0.00     0.046 A 
BRANCH   5   8
ATOM      8  O   UNL     1      37.183  -7.462 101.845  1.00  0.00    -0.508 OA
ATOM      9  H   UNL     1      37.657  -8.060 101.177  1.00  0.00     0.293 HD
ENDBRANCH   5   8
ENDBRANCH   1   2
BRANCH   1  10
ATOM     10  C   UNL     1      37.047  -8.249 108.228  1.00  0.00     0.040 C 
BRANCH  10  11
ATOM     11  C   UNL     1      36.486  -7.074 108.983  1.00  0.00    -0.040 A 
ATOM     12  C   UNL     1      37.180  -5.853 109.009  1.00  0.00     0.050 A 
ATOM     13  C   UNL     1      35.295  -7.206 109.715  1.00  0.00     0.050 A 
ATOM     14  C   UNL     1      36.676  -4.769 109.737  1.00  0.00     0.119 A 
ATOM     15  C   UNL     1      34.789  -6.122 110.445  1.00  0.00     0.119 A 
ATOM     16  C   UNL     1      35.479  -4.905 110.452  1.00  0.00     0.092 A 
BRANCH  14  17
ATOM     17  O   UNL     1      37.376  -3.564 109.744  1.00  0.00    -0.508 OA
ATOM     18  H   UNL     1      37.912  -3.259 108.940  1.00  0.00     0.293 HD
ENDBRANCH  14  17
BRANCH  15  19
ATOM     19  O   UNL     1      33.604  -6.243 111.167  1.00  0.00    -0.508 OA
ATOM     20  H   UNL     1      32.990  -5.451 111.314  1.00  0.00     0.293 HD
ENDBRANCH  15  19
ENDBRANCH  10  11
ENDBRANCH   1  10
TORSDOF 6
ENDMDL
MODEL 6
REMARK VINA RESULT:    -7.141      7.770      9.113
REMARK INTER + INTRA:          -9.554
REMARK INTER:                  -9.030
REMARK INTRA:                  -0.524
REMARK UNBOUND:                -0.535
REMARK SMILES Oc1ccc(CCc2cc(O)cc(O)c2)cc1
REMARK SMILES IDX 6 1 5 2 4 3 3 4 2 5 16 6 17 7 1 8 7 10 8 11 15 12 9 13 13 14
REMARK SMILES IDX 10 15 12 16 14 17 11 19
REMARK H PARENT 1 9 14 18 11 20
REMARK Flexibility Score: inf
ROOT
ATOM      1  C   UNL     1      37.934   0.066 106.048  1.00  0.00     0.040 C 
ENDROOT
BRANCH   1   2
ATOM      2  C   UNL     1      38.120   0.343 107.516  1.00  0.00    -0.047 A 
ATOM      3  C   UNL     1      37.500  -0.473 108.476  1.00  0.00     0.007 A 
ATOM      4  C   UNL     1      37.646  -0.193 109.838  1.00  0.00     0.046 A 
ATOM      5  C   UNL     1      38.403   0.906 110.254  1.00  0.00     0.115 A 
ATOM      6  C   UNL     1      38.868   1.455 107.937  1.00  0.00     0.007 A 
ATOM      7  C   UNL     1      39.014   1.731 109.300  1.00  0.00     0.046 A 
BRANCH   5   8
ATOM      8  O   UNL     1      38.541   1.171 111.615  1.00  0.00    -0.508 OA
ATOM      9  H   UNL     1      39.454   1.249 112.049  1.00  0.00     0.293 HD
ENDBRANCH   5   8
ENDBRANCH   1   2
BRANCH   1  10
ATOM     10  C   UNL     1      39.173   0.496 105.258  1.00  0.00     0.040 C 
BRANCH  10  11
ATOM     11  C   UNL     1      38.841   1.636 104.333  1.00  0.00    -0.040 A 
ATOM     12  C   UNL     1      39.330   2.926 104.596  1.00  0.00     0.050 A 
ATOM     13  C   UNL     1      37.994   1.431 103.232  1.00  0.00     0.050 A 
ATOM     14  C   UNL     1      38.996   3.994 103.756  1.00  0.00     0.119 A 
ATOM     15  C   UNL     1      37.658   2.499 102.389  1.00  0.00     0.119 A 
ATOM     16  C   UNL     1      38.162   3.778 102.651  1.00  0.00     0.092 A 
BRANCH  14  17
ATOM     17  O   UNL     1      39.496   5.265 104.030  1.00  0.00    -0.508 OA
ATOM     18  H   UNL     1      40.228   5.408 104.717  1.00  0.00     0.293 HD
ENDBRANCH  14  17
BRANCH  15  19
ATOM     19  O   UNL     1      36.824   2.301 101.291  1.00  0.00    -0.508 OA
ATOM     20  H   UNL     1      36.256   3.052 100.915  1.00  0.00     0.293 HD
ENDBRANCH  15  19
ENDBRANCH  10  11
ENDBRANCH   1  10
TORSDOF 6
ENDMDL
MODEL 7
REMARK VINA RESULT:    -7.125      1.448      6.615
REMARK INTER + INTRA:          -9.534
REMARK INTER:                  -8.975
REMARK INTRA:                  -0.559
REMARK UNBOUND:                -0.535
REMARK SMILES Oc1ccc(CCc2cc(O)cc(O)c2)cc1
REMARK SMILES IDX 6 1 5 2 4 3 3 4 2 5 16 6 17 7 1 8 7 10 8 11 15 12 9 13 13 14
REMARK SMILES IDX 10 15 12 16 14 17 11 19
REMARK H PARENT 1 9 14 18 11 20
REMARK Flexibility Score: inf
ROOT
ATOM      1  C   UNL     1      38.273  -7.544 107.344  1.00  0.00     0.040 C 
ENDROOT
BRANCH   1   2
ATOM      2  C   UNL     1      37.957  -7.512 105.872  1.00  0.00    -0.047 A 
ATOM      3  C   UNL     1      38.180  -8.647 105.075  1.00  0.00     0.007 A 
ATOM      4  C   UNL     1      37.918  -8.604 103.703  1.00  0.00     0.046 A 
ATOM      5  C   UNL     1      37.441  -7.430 103.112  1.00  0.00     0.115 A 
ATOM      6  C   UNL     1      37.492  -6.330 105.274  1.00  0.00     0.007 A 
ATOM      7  C   UNL     1      37.229  -6.291 103.901  1.00  0.00     0.046 A 
BRANCH   5   8
ATOM      8  O   UNL     1      37.183  -7.404 101.743  1.00  0.00    -0.508 OA
ATOM      9  H   UNL     1      36.484  -6.785 101.348  1.00  0.00     0.293 HD
ENDBRANCH   5   8
ENDBRANCH   1   2
BRANCH   1  10
ATOM     10  C   UNL     1      37.066  -8.042 108.143  1.00  0.00     0.040 C 
BRANCH  10  11
ATOM     11  C   UNL     1      36.475  -6.925 108.961  1.00  0.00    -0.040 A 
ATOM     12  C   UNL     1      35.311  -7.140 109.717  1.00  0.00     0.050 A 
ATOM     13  C   UNL     1      37.050  -5.644 108.929  1.00  0.00     0.050 A 
ATOM     14  C   UNL     1      34.743  -6.094 110.452  1.00  0.00     0.119 A 
ATOM     15  C   UNL     1      36.481  -4.595 109.665  1.00  0.00     0.119 A 
ATOM     16  C   UNL     1      35.331  -4.823 110.427  1.00  0.00     0.092 A 
BRANCH  14  17
ATOM     17  O   UNL     1      33.592  -6.329 111.201  1.00  0.00    -0.508 OA
ATOM     18  H   UNL     1      33.579  -6.198 112.206  1.00  0.00     0.293 HD
ENDBRANCH  14  17
BRANCH  15  19
ATOM     19  O   UNL     1      37.051  -3.323 109.644  1.00  0.00    -0.508 OA
ATOM     20  H   UNL     1      36.541  -2.509 109.967  1.00  0.00     0.293 HD
ENDBRANCH  15  19
ENDBRANCH  10  11
ENDBRANCH   1  10
TORSDOF 6
ENDMDL
MODEL 8
REMARK VINA RESULT:    -7.124      7.346     10.320
REMARK INTER + INTRA:          -9.533
REMARK INTER:                  -8.941
REMARK INTRA:                  -0.592
REMARK UNBOUND:                -0.535
REMARK SMILES Oc1ccc(CCc2cc(O)cc(O)c2)cc1
REMARK SMILES IDX 6 1 5 2 4 3 3 4 2 5 16 6 17 7 1 8 7 10 8 11 15 12 9 13 13 14
REMARK SMILES IDX 10 15 12 16 14 17 11 19
REMARK H PARENT 1 9 14 18 11 20
REMARK Flexibility Score: inf
ROOT
ATOM      1  C   UNL     1      38.516   2.544 103.631  1.00  0.00     0.040 C 
ENDROOT
BRANCH   1   2
ATOM      2  C   UNL     1      38.001   1.433 102.755  1.00  0.00    -0.047 A 
ATOM      3  C   UNL     1      36.677   1.455 102.288  1.00  0.00     0.007 A 
ATOM      4  C   UNL     1      36.191   0.406 101.502  1.00  0.00     0.046 A 
ATOM      5  C   UNL     1      37.015  -0.678 101.185  1.00  0.00     0.115 A 
ATOM      6  C   UNL     1      38.823   0.337 102.447  1.00  0.00     0.007 A 
ATOM      7  C   UNL     1      38.334  -0.711 101.660  1.00  0.00     0.046 A 
BRANCH   5   8
ATOM      8  O   UNL     1      36.517  -1.716 100.400  1.00  0.00    -0.508 OA
ATOM      9  H   UNL     1      35.533  -1.773 100.161  1.00  0.00     0.293 HD
ENDBRANCH   5   8
ENDBRANCH   1   2
BRANCH   1  10
ATOM     10  C   UNL     1      39.690   2.056 104.484  1.00  0.00     0.040 C 
BRANCH  10  11
ATOM     11  C   UNL     1      39.256   1.845 105.910  1.00  0.00    -0.040 A 
ATOM     12  C   UNL     1      39.661   2.741 106.913  1.00  0.00     0.050 A 
ATOM     13  C   UNL     1      38.492   0.719 106.258  1.00  0.00     0.050 A 
ATOM     14  C   UNL     1      39.285   2.527 108.245  1.00  0.00     0.119 A 
ATOM     15  C   UNL     1      38.116   0.504 107.591  1.00  0.00     0.119 A 
ATOM     16  C   UNL     1      38.511   1.410 108.581  1.00  0.00     0.092 A 
BRANCH  14  17
ATOM     17  O   UNL     1      39.691   3.431 109.224  1.00  0.00    -0.508 OA
ATOM     18  H   UNL     1      39.098   4.202 109.511  1.00  0.00     0.293 HD
ENDBRANCH  14  17
BRANCH  15  19
ATOM     19  O   UNL     1      37.351  -0.607 107.942  1.00  0.00    -0.508 OA
ATOM     20  H   UNL     1      36.492  -0.513 108.470  1.00  0.00     0.293 HD
ENDBRANCH  15  19
ENDBRANCH  10  11
ENDBRANCH   1  10
TORSDOF 6
ENDMDL
MODEL 9
REMARK VINA RESULT:    -7.085      7.342     10.185
REMARK INTER + INTRA:          -9.484
REMARK INTER:                  -8.895
REMARK INTRA:                  -0.589
REMARK UNBOUND:                -0.535
REMARK SMILES Oc1ccc(CCc2cc(O)cc(O)c2)cc1
REMARK SMILES IDX 6 1 5 2 4 3 3 4 2 5 16 6 17 7 1 8 7 10 8 11 15 12 9 13 13 14
REMARK SMILES IDX 10 15 12 16 14 17 11 19
REMARK H PARENT 1 9 14 18 11 20
REMARK Flexibility Score: inf
ROOT
ATOM      1  C   UNL     1      38.448   2.510 103.548  1.00  0.00     0.040 C 
ENDROOT
BRANCH   1   2
ATOM      2  C   UNL     1      37.963   1.380 102.680  1.00  0.00    -0.047 A 
ATOM      3  C   UNL     1      36.621   1.326 102.271  1.00  0.00     0.007 A 
ATOM      4  C   UNL     1      36.165   0.258 101.493  1.00  0.00     0.046 A 
ATOM      5  C   UNL     1      37.038  -0.769 101.125  1.00  0.00     0.115 A 
ATOM      6  C   UNL     1      38.836   0.340 102.321  1.00  0.00     0.007 A 
ATOM      7  C   UNL     1      38.376  -0.727 101.542  1.00  0.00     0.046 A 
BRANCH   5   8
ATOM      8  O   UNL     1      36.570  -1.827 100.348  1.00  0.00    -0.508 OA
ATOM      9  H   UNL     1      35.902  -2.497 100.713  1.00  0.00     0.293 HD
ENDBRANCH   5   8
ENDBRANCH   1   2
BRANCH   1  10
ATOM     10  C   UNL     1      39.672   2.078 104.361  1.00  0.00     0.040 C 
BRANCH  10  11
ATOM     11  C   UNL     1      39.297   1.851 105.801  1.00  0.00    -0.040 A 
ATOM     12  C   UNL     1      38.522   0.737 106.163  1.00  0.00     0.050 A 
ATOM     13  C   UNL     1      39.671   2.780 106.785  1.00  0.00     0.050 A 
ATOM     14  C   UNL     1      38.145   0.541 107.497  1.00  0.00     0.119 A 
ATOM     15  C   UNL     1      39.294   2.586 108.121  1.00  0.00     0.119 A 
ATOM     16  C   UNL     1      38.534   1.466 108.474  1.00  0.00     0.092 A 
BRANCH  14  17
ATOM     17  O   UNL     1      37.381  -0.573 107.836  1.00  0.00    -0.508 OA
ATOM     18  H   UNL     1      37.813  -1.431 108.162  1.00  0.00     0.293 HD
ENDBRANCH  14  17
BRANCH  15  19
ATOM     19  O   UNL     1      39.668   3.500 109.104  1.00  0.00    -0.508 OA
ATOM     20  H   UNL     1      40.143   3.205 109.949  1.00  0.00     0.293 HD
ENDBRANCH  15  19
ENDBRANCH  10  11
ENDBRANCH   1  10
TORSDOF 6
ENDMDL
