MODEL 1
REMARK VINA RESULT:    -5.121      0.000      0.000
REMARK INTER + INTRA:          -8.469
REMARK INTER:                  -7.816
REMARK INTRA:                  -0.654
REMARK UNBOUND:                -0.654
REMARK SMILES O=C([O-])CCCCCCCCC(=O)[O-]
REMARK SMILES IDX 7 1 6 2 5 3 4 4 2 5 1 6 3 7 8 8 9 9 10 10 11 11 12 12 13 13
REMARK SMILES IDX 14 14
REMARK H PARENT
REMARK Flexibility Score: inf
ROOT
ATOM      1  C   UNL     1     -11.622 -18.275  32.102  1.00  0.00     0.000 C 
ENDROOT
BRANCH   1   2
ATOM      2  C   UNL     1     -10.329 -18.416  31.280  1.00  0.00     0.000 C 
BRANCH   2   3
ATOM      3  C   UNL     1      -9.136 -17.667  31.902  1.00  0.00     0.006 C 
BRANCH   3   4
ATOM      4  C   UNL     1      -9.068 -16.177  31.525  1.00  0.00     0.053 C 
BRANCH   4   5
ATOM      5  C   UNL     1      -7.662 -15.670  31.423  1.00  0.00     0.041 C 
ATOM      6  O   UNL     1      -6.827 -15.923  32.332  1.00  0.00    -0.550 OA
ATOM      7  O   UNL     1      -7.281 -14.889  30.339  1.00  0.00    -0.550 OA
ENDBRANCH   4   5
ENDBRANCH   3   4
ENDBRANCH   2   3
ENDBRANCH   1   2
BRANCH   1   8
ATOM      8  C   UNL     1     -12.562 -17.197  31.538  1.00  0.00     0.000 C 
BRANCH   8   9
ATOM      9  C   UNL     1     -13.029 -17.513  30.106  1.00  0.00     0.000 C 
BRANCH   9  10
ATOM     10  C   UNL     1     -12.668 -16.401  29.105  1.00  0.00     0.006 C 
BRANCH  10  11
ATOM     11  C   UNL     1     -11.558 -16.782  28.112  1.00  0.00     0.053 C 
BRANCH  11  12
ATOM     12  C   UNL     1     -11.591 -15.931  26.880  1.00  0.00     0.041 C 
ATOM     13  O   UNL     1     -10.527 -15.449  26.413  1.00  0.00    -0.550 OA
ATOM     14  O   UNL     1     -12.796 -15.702  26.227  1.00  0.00    -0.550 OA
ENDBRANCH  11  12
ENDBRANCH  10  11
ENDBRANCH   9  10
ENDBRANCH   8   9
ENDBRANCH   1   8
TORSDOF 9
ENDMDL
MODEL 2
REMARK VINA RESULT:    -5.084      2.450      5.068
REMARK INTER + INTRA:          -8.413
REMARK INTER:                  -7.724
REMARK INTRA:                  -0.689
REMARK UNBOUND:                -0.654
REMARK SMILES O=C([O-])CCCCCCCCC(=O)[O-]
REMARK SMILES IDX 7 1 6 2 5 3 4 4 2 5 1 6 3 7 8 8 9 9 10 10 11 11 12 12 13 13
REMARK SMILES IDX 14 14
REMARK H PARENT
REMARK Flexibility Score: inf
ROOT
ATOM      1  C   UNL     1     -12.446 -16.158  28.881  1.00  0.00     0.000 C 
ENDROOT
BRANCH   1   2
ATOM      2  C   UNL     1     -12.900 -16.084  27.413  1.00  0.00     0.000 C 
BRANCH   2   3
ATOM      3  C   UNL     1     -11.768 -15.670  26.453  1.00  0.00     0.006 C 
BRANCH   3   4
ATOM      4  C   UNL     1     -10.361 -15.777  27.065  1.00  0.00     0.053 C 
BRANCH   4   5
ATOM      5  C   UNL     1      -9.335 -15.002  26.294  1.00  0.00     0.041 C 
ATOM      6  O   UNL     1      -8.108 -15.207  26.485  1.00  0.00    -0.550 OA
ATOM      7  O   UNL     1      -9.736 -14.027  25.388  1.00  0.00    -0.550 OA
ENDBRANCH   4   5
ENDBRANCH   3   4
ENDBRANCH   2   3
ENDBRANCH   1   2
BRANCH   1   8
ATOM      8  C   UNL     1     -13.209 -17.227  29.678  1.00  0.00     0.000 C 
BRANCH   8   9
ATOM      9  C   UNL     1     -12.476 -18.580  29.701  1.00  0.00     0.000 C 
BRANCH   9  10
ATOM     10  C   UNL     1     -10.954 -18.434  29.524  1.00  0.00     0.006 C 
BRANCH  10  11
ATOM     11  C   UNL     1     -10.129 -18.934  30.721  1.00  0.00     0.053 C 
BRANCH  11  12
ATOM     12  C   UNL     1     -10.681 -18.448  32.026  1.00  0.00     0.041 C 
ATOM     13  O   UNL     1     -10.569 -17.237  32.350  1.00  0.00    -0.550 OA
ATOM     14  O   UNL     1     -11.350 -19.327  32.868  1.00  0.00    -0.550 OA
ENDBRANCH  11  12
ENDBRANCH  10  11
ENDBRANCH   9  10
ENDBRANCH   8   9
ENDBRANCH   1   8
TORSDOF 9
ENDMDL
MODEL 3
REMARK VINA RESULT:    -5.082      1.601      2.207
REMARK INTER + INTRA:          -8.410
REMARK INTER:                  -7.787
REMARK INTRA:                  -0.622
REMARK UNBOUND:                -0.654
REMARK SMILES O=C([O-])CCCCCCCCC(=O)[O-]
REMARK SMILES IDX 7 1 6 2 5 3 4 4 2 5 1 6 3 7 8 8 9 9 10 10 11 11 12 12 13 13
REMARK SMILES IDX 14 14
REMARK H PARENT
REMARK Flexibility Score: inf
ROOT
ATOM      1  C   UNL     1     -10.095 -17.571  32.146  1.00  0.00     0.000 C 
ENDROOT
BRANCH   1   2
ATOM      2  C   UNL     1      -8.643 -17.114  31.924  1.00  0.00     0.000 C 
BRANCH   2   3
ATOM      3  C   UNL     1      -8.533 -15.630  31.528  1.00  0.00     0.006 C 
BRANCH   3   4
ATOM      4  C   UNL     1      -7.102 -15.178  31.189  1.00  0.00     0.053 C 
BRANCH   4   5
ATOM      5  C   UNL     1      -6.957 -13.687  31.162  1.00  0.00     0.041 C 
ATOM      6  O   UNL     1      -6.419 -13.118  30.176  1.00  0.00    -0.550 OA
ATOM      7  O   UNL     1      -7.389 -12.927  32.243  1.00  0.00    -0.550 OA
ENDBRANCH   4   5
ENDBRANCH   3   4
ENDBRANCH   2   3
ENDBRANCH   1   2
BRANCH   1   8
ATOM      8  C   UNL     1     -10.395 -18.921  31.475  1.00  0.00     0.000 C 
BRANCH   8   9
ATOM      9  C   UNL     1     -10.219 -18.872  29.947  1.00  0.00     0.000 C 
BRANCH   9  10
ATOM     10  C   UNL     1     -11.251 -17.960  29.260  1.00  0.00     0.006 C 
BRANCH  10  11
ATOM     11  C   UNL     1     -10.650 -16.697  28.621  1.00  0.00     0.053 C 
BRANCH  11  12
ATOM     12  C   UNL     1     -11.533 -16.135  27.550  1.00  0.00     0.041 C 
ATOM     13  O   UNL     1     -11.030 -15.566  26.547  1.00  0.00    -0.550 OA
ATOM     14  O   UNL     1     -12.913 -16.273  27.644  1.00  0.00    -0.550 OA
ENDBRANCH  11  12
ENDBRANCH  10  11
ENDBRANCH   9  10
ENDBRANCH   8   9
ENDBRANCH   1   8
TORSDOF 9
ENDMDL
MODEL 4
REMARK VINA RESULT:    -5.076      0.784      5.157
REMARK INTER + INTRA:          -8.401
REMARK INTER:                  -7.671
REMARK INTRA:                  -0.730
REMARK UNBOUND:                -0.654
REMARK SMILES O=C([O-])CCCCCCCCC(=O)[O-]
REMARK SMILES IDX 7 1 6 2 5 3 4 4 2 5 1 6 3 7 8 8 9 9 10 10 11 11 12 12 13 13
REMARK SMILES IDX 14 14
REMARK H PARENT
REMARK Flexibility Score: inf
ROOT
ATOM      1  C   UNL     1     -12.765 -18.592  31.142  1.00  0.00     0.000 C 
ENDROOT
BRANCH   1   2
ATOM      2  C   UNL     1     -12.947 -17.112  30.762  1.00  0.00     0.000 C 
BRANCH   2   3
ATOM      3  C   UNL     1     -13.087 -16.893  29.244  1.00  0.00     0.006 C 
BRANCH   3   4
ATOM      4  C   UNL     1     -11.743 -16.769  28.505  1.00  0.00     0.053 C 
BRANCH   4   5
ATOM      5  C   UNL     1     -11.872 -16.069  27.186  1.00  0.00     0.041 C 
ATOM      6  O   UNL     1     -12.994 -15.973  26.623  1.00  0.00    -0.550 OA
ATOM      7  O   UNL     1     -10.743 -15.550  26.561  1.00  0.00    -0.550 OA
ENDBRANCH   4   5
ENDBRANCH   3   4
ENDBRANCH   2   3
ENDBRANCH   1   2
BRANCH   1   8
ATOM      8  C   UNL     1     -11.598 -18.808  32.119  1.00  0.00     0.000 C 
BRANCH   8   9
ATOM      9  C   UNL     1     -10.874 -17.497  32.471  1.00  0.00     0.000 C 
BRANCH   9  10
ATOM     10  C   UNL     1      -9.407 -17.485  32.007  1.00  0.00     0.006 C 
BRANCH  10  11
ATOM     11  C   UNL     1      -9.040 -16.296  31.104  1.00  0.00     0.053 C 
BRANCH  11  12
ATOM     12  C   UNL     1      -7.884 -15.514  31.648  1.00  0.00     0.041 C 
ATOM     13  O   UNL     1      -6.877 -16.110  32.112  1.00  0.00    -0.550 OA
ATOM     14  O   UNL     1      -7.906 -14.125  31.610  1.00  0.00    -0.550 OA
ENDBRANCH  11  12
ENDBRANCH  10  11
ENDBRANCH   9  10
ENDBRANCH   8   9
ENDBRANCH   1   8
TORSDOF 9
ENDMDL
MODEL 5
REMARK VINA RESULT:    -5.057      1.879      5.280
REMARK INTER + INTRA:          -8.371
REMARK INTER:                  -7.878
REMARK INTRA:                  -0.493
REMARK UNBOUND:                -0.654
REMARK SMILES O=C([O-])CCCCCCCCC(=O)[O-]
REMARK SMILES IDX 7 1 6 2 5 3 4 4 2 5 1 6 3 7 8 8 9 9 10 10 11 11 12 12 13 13
REMARK SMILES IDX 14 14
REMARK H PARENT
REMARK Flexibility Score: inf
ROOT
ATOM      1  C   UNL     1     -10.887 -16.788  28.591  1.00  0.00     0.000 C 
ENDROOT
BRANCH   1   2
ATOM      2  C   UNL     1     -11.775 -16.379  27.403  1.00  0.00     0.000 C 
BRANCH   2   3
ATOM      3  C   UNL     1     -11.036 -15.507  26.371  1.00  0.00     0.006 C 
BRANCH   3   4
ATOM      4  C   UNL     1      -9.557 -15.255  26.711  1.00  0.00     0.053 C 
BRANCH   4   5
ATOM      5  C   UNL     1      -8.942 -14.186  25.861  1.00  0.00     0.041 C 
ATOM      6  O   UNL     1      -7.748 -13.832  26.049  1.00  0.00    -0.550 OA
ATOM      7  O   UNL     1      -9.700 -13.555  24.881  1.00  0.00    -0.550 OA
ENDBRANCH   4   5
ENDBRANCH   3   4
ENDBRANCH   2   3
ENDBRANCH   1   2
BRANCH   1   8
ATOM      8  C   UNL     1     -11.248 -18.176  29.144  1.00  0.00     0.000 C 
BRANCH   8   9
ATOM      9  C   UNL     1     -10.212 -18.694  30.156  1.00  0.00     0.000 C 
BRANCH   9  10
ATOM     10  C   UNL     1     -10.663 -18.507  31.616  1.00  0.00     0.006 C 
BRANCH  10  11
ATOM     11  C   UNL     1     -10.288 -17.145  32.222  1.00  0.00     0.053 C 
BRANCH  11  12
ATOM     12  C   UNL     1      -8.903 -16.722  31.838  1.00  0.00     0.041 C 
ATOM     13  O   UNL     1      -8.729 -15.722  31.094  1.00  0.00    -0.550 OA
ATOM     14  O   UNL     1      -7.804 -17.413  32.333  1.00  0.00    -0.550 OA
ENDBRANCH  11  12
ENDBRANCH  10  11
ENDBRANCH   9  10
ENDBRANCH   8   9
ENDBRANCH   1   8
TORSDOF 9
ENDMDL
MODEL 6
REMARK VINA RESULT:    -5.043      4.138      6.171
REMARK INTER + INTRA:          -8.350
REMARK INTER:                  -7.610
REMARK INTRA:                  -0.740
REMARK UNBOUND:                -0.654
REMARK SMILES O=C([O-])CCCCCCCCC(=O)[O-]
REMARK SMILES IDX 7 1 6 2 5 3 4 4 2 5 1 6 3 7 8 8 9 9 10 10 11 11 12 12 13 13
REMARK SMILES IDX 14 14
REMARK H PARENT
REMARK Flexibility Score: inf
ROOT
ATOM      1  C   UNL     1     -10.714 -15.980  31.830  1.00  0.00     0.000 C 
ENDROOT
BRANCH   1   2
ATOM      2  C   UNL     1      -9.802 -16.658  30.792  1.00  0.00     0.000 C 
BRANCH   2   3
ATOM      3  C   UNL     1     -10.303 -16.485  29.346  1.00  0.00     0.006 C 
BRANCH   3   4
ATOM      4  C   UNL     1     -11.835 -16.526  29.207  1.00  0.00     0.053 C 
BRANCH   4   5
ATOM      5  C   UNL     1     -12.383 -17.919  29.262  1.00  0.00     0.041 C 
ATOM      6  O   UNL     1     -13.490 -18.145  29.820  1.00  0.00    -0.550 OA
ATOM      7  O   UNL     1     -11.656 -18.975  28.725  1.00  0.00    -0.550 OA
ENDBRANCH   4   5
ENDBRANCH   3   4
ENDBRANCH   2   3
ENDBRANCH   1   2
BRANCH   1   8
ATOM      8  C   UNL     1     -11.405 -16.993  32.757  1.00  0.00     0.000 C 
BRANCH   8   9
ATOM      9  C   UNL     1     -10.792 -18.400  32.652  1.00  0.00     0.000 C 
BRANCH   9  10
ATOM     10  C   UNL     1     -11.856 -19.512  32.639  1.00  0.00     0.006 C 
BRANCH  10  11
ATOM     11  C   UNL     1     -11.707 -20.539  33.773  1.00  0.00     0.053 C 
BRANCH  11  12
ATOM     12  C   UNL     1     -12.915 -21.416  33.897  1.00  0.00     0.041 C 
ATOM     13  O   UNL     1     -13.827 -21.366  33.031  1.00  0.00    -0.550 OA
ATOM     14  O   UNL     1     -13.016 -22.315  34.951  1.00  0.00    -0.550 OA
ENDBRANCH  11  12
ENDBRANCH  10  11
ENDBRANCH   9  10
ENDBRANCH   8   9
ENDBRANCH   1   8
TORSDOF 9
ENDMDL
MODEL 7
REMARK VINA RESULT:    -5.017      2.033      3.043
REMARK INTER + INTRA:          -8.310
REMARK INTER:                  -7.636
REMARK INTRA:                  -0.674
REMARK UNBOUND:                -0.654
REMARK SMILES O=C([O-])CCCCCCCCC(=O)[O-]
REMARK SMILES IDX 7 1 6 2 5 3 4 4 2 5 1 6 3 7 8 8 9 9 10 10 11 11 12 12 13 13
REMARK SMILES IDX 14 14
REMARK H PARENT
REMARK Flexibility Score: inf
ROOT
ATOM      1  C   UNL     1     -12.617 -17.599  29.288  1.00  0.00     0.000 C 
ENDROOT
BRANCH   1   2
ATOM      2  C   UNL     1     -11.555 -18.642  28.894  1.00  0.00     0.000 C 
BRANCH   2   3
ATOM      3  C   UNL     1     -10.402 -18.738  29.910  1.00  0.00     0.006 C 
BRANCH   3   4
ATOM      4  C   UNL     1     -10.827 -18.475  31.365  1.00  0.00     0.053 C 
BRANCH   4   5
ATOM      5  C   UNL     1     -10.135 -17.289  31.964  1.00  0.00     0.041 C 
ATOM      6  O   UNL     1      -8.878 -17.210  31.947  1.00  0.00    -0.550 OA
ATOM      7  O   UNL     1     -10.878 -16.284  32.572  1.00  0.00    -0.550 OA
ENDBRANCH   4   5
ENDBRANCH   3   4
ENDBRANCH   2   3
ENDBRANCH   1   2
BRANCH   1   8
ATOM      8  C   UNL     1     -12.305 -16.203  28.726  1.00  0.00     0.000 C 
BRANCH   8   9
ATOM      9  C   UNL     1     -12.686 -16.067  27.241  1.00  0.00     0.000 C 
BRANCH   9  10
ATOM     10  C   UNL     1     -11.503 -15.625  26.362  1.00  0.00     0.006 C 
BRANCH  10  11
ATOM     11  C   UNL     1     -10.146 -15.622  27.085  1.00  0.00     0.053 C 
BRANCH  11  12
ATOM     12  C   UNL     1      -9.098 -14.886  26.309  1.00  0.00     0.041 C 
ATOM     13  O   UNL     1      -7.886 -15.208  26.416  1.00  0.00    -0.550 OA
ATOM     14  O   UNL     1      -9.466 -13.866  25.440  1.00  0.00    -0.550 OA
ENDBRANCH  11  12
ENDBRANCH  10  11
ENDBRANCH   9  10
ENDBRANCH   8   9
ENDBRANCH   1   8
TORSDOF 9
ENDMDL
MODEL 8
REMARK VINA RESULT:    -4.902      3.052      4.802
REMARK INTER + INTRA:          -8.134
REMARK INTER:                  -7.692
REMARK INTRA:                  -0.442
REMARK UNBOUND:                -0.654
REMARK SMILES O=C([O-])CCCCCCCCC(=O)[O-]
REMARK SMILES IDX 7 1 6 2 5 3 4 4 2 5 1 6 3 7 8 8 9 9 10 10 11 11 12 12 13 13
REMARK SMILES IDX 14 14
REMARK H PARENT
REMARK Flexibility Score: inf
ROOT
ATOM      1  C   UNL     1     -10.120 -14.493  25.794  1.00  0.00     0.000 C 
ENDROOT
BRANCH   1   2
ATOM      2  C   UNL     1      -8.654 -14.031  25.853  1.00  0.00     0.000 C 
BRANCH   2   3
ATOM      3  C   UNL     1      -7.727 -15.057  26.530  1.00  0.00     0.006 C 
BRANCH   3   4
ATOM      4  C   UNL     1      -6.306 -14.532  26.801  1.00  0.00     0.053 C 
BRANCH   4   5
ATOM      5  C   UNL     1      -5.982 -14.467  28.262  1.00  0.00     0.041 C 
ATOM      6  O   UNL     1      -6.896 -14.572  29.122  1.00  0.00    -0.550 OA
ATOM      7  O   UNL     1      -4.671 -14.256  28.675  1.00  0.00    -0.550 OA
ENDBRANCH   4   5
ENDBRANCH   3   4
ENDBRANCH   2   3
ENDBRANCH   1   2
BRANCH   1   8
ATOM      8  C   UNL     1     -10.388 -15.713  26.689  1.00  0.00     0.000 C 
BRANCH   8   9
ATOM      9  C   UNL     1     -11.891 -15.983  26.882  1.00  0.00     0.000 C 
BRANCH   9  10
ATOM     10  C   UNL     1     -12.222 -16.519  28.286  1.00  0.00     0.006 C 
BRANCH  10  11
ATOM     11  C   UNL     1     -11.790 -17.975  28.524  1.00  0.00     0.053 C 
BRANCH  11  12
ATOM     12  C   UNL     1     -10.691 -18.075  29.537  1.00  0.00     0.041 C 
ATOM     13  O   UNL     1     -10.080 -19.163  29.704  1.00  0.00    -0.550 OA
ATOM     14  O   UNL     1     -10.318 -16.956  30.271  1.00  0.00    -0.550 OA
ENDBRANCH  11  12
ENDBRANCH  10  11
ENDBRANCH   9  10
ENDBRANCH   8   9
ENDBRANCH   1   8
TORSDOF 9
ENDMDL
MODEL 9
REMARK VINA RESULT:    -4.849      2.096      3.284
REMARK INTER + INTRA:          -8.053
REMARK INTER:                  -7.438
REMARK INTRA:                  -0.616
REMARK UNBOUND:                -0.654
REMARK SMILES O=C([O-])CCCCCCCCC(=O)[O-]
REMARK SMILES IDX 7 1 6 2 5 3 4 4 2 5 1 6 3 7 8 8 9 9 10 10 11 11 12 12 13 13
REMARK SMILES IDX 14 14
REMARK H PARENT
REMARK Flexibility Score: inf
ROOT
ATOM      1  C   UNL     1     -12.652 -17.897  29.300  1.00  0.00     0.000 C 
ENDROOT
BRANCH   1   2
ATOM      2  C   UNL     1     -12.751 -16.791  30.366  1.00  0.00     0.000 C 
BRANCH   2   3
ATOM      3  C   UNL     1     -11.968 -17.122  31.650  1.00  0.00     0.006 C 
BRANCH   3   4
ATOM      4  C   UNL     1     -10.523 -16.593  31.654  1.00  0.00     0.053 C 
BRANCH   4   5
ATOM      5  C   UNL     1      -9.505 -17.692  31.642  1.00  0.00     0.041 C 
ATOM      6  O   UNL     1      -9.777 -18.805  31.119  1.00  0.00    -0.550 OA
ATOM      7  O   UNL     1      -8.264 -17.498  32.237  1.00  0.00    -0.550 OA
ENDBRANCH   4   5
ENDBRANCH   3   4
ENDBRANCH   2   3
ENDBRANCH   1   2
BRANCH   1   8
ATOM      8  C   UNL     1     -11.658 -17.547  28.182  1.00  0.00     0.000 C 
BRANCH   8   9
ATOM      9  C   UNL     1     -11.451 -16.030  28.031  1.00  0.00     0.000 C 
BRANCH   9  10
ATOM     10  C   UNL     1     -10.947 -15.635  26.631  1.00  0.00     0.006 C 
BRANCH  10  11
ATOM     11  C   UNL     1      -9.467 -15.221  26.587  1.00  0.00     0.053 C 
BRANCH  11  12
ATOM     12  C   UNL     1      -9.235 -14.063  25.666  1.00  0.00     0.041 C 
ATOM     13  O   UNL     1     -10.147 -13.680  24.887  1.00  0.00    -0.550 OA
ATOM     14  O   UNL     1      -8.023 -13.385  25.694  1.00  0.00    -0.550 OA
ENDBRANCH  11  12
ENDBRANCH  10  11
ENDBRANCH   9  10
ENDBRANCH   8   9
ENDBRANCH   1   8
TORSDOF 9
ENDMDL
