MODEL 1
REMARK VINA RESULT:    -6.939      0.000      0.000
REMARK INTER + INTRA:         -12.981
REMARK INTER:                 -11.401
REMARK INTRA:                  -1.580
REMARK UNBOUND:                -1.580
REMARK SMILES C[C@@H]1O[C@H](OC[C@H]2O[C@H](Oc3c(-c4ccc(O)c(O)c4)oc4cc(O)cc(O)c4c3=O)[C@@H](O)[C@H](O)[C@@H]2O)[C@H](O)[C@H](O)[C@@H]1O
REMARK SMILES IDX 7 1 36 2 34 3 32 4 9 5 8 6 6 7 5 8 4 9 1 10 2 11 42 12 3 13
REMARK SMILES IDX 40 14 38 15 43 16 41 18 39 20 37 22 35 24 10 26 11 27 12 28
REMARK SMILES IDX 30 29 21 30 29 31 31 32 22 33 27 34 23 35 26 36 24 37 13 38
REMARK SMILES IDX 20 39 14 40 18 41 15 42 16 43 19 44 17 46 28 48 25 50 33 52
REMARK H PARENT 43 17 41 19 39 21 37 23 35 25 19 45 17 47 28 49 25 51 33 53
REMARK Flexibility Score: inf
ROOT
ATOM      1  C   UNL     1      49.747  -5.705  80.628  1.00  0.00     0.180 C 
ATOM      2  C   UNL     1      48.608  -5.416  81.669  1.00  0.00     0.177 C 
ATOM      3  C   UNL     1      49.124  -4.925  83.024  1.00  0.00     0.180 C 
ATOM      4  C   UNL     1      50.350  -4.043  82.807  1.00  0.00     0.214 C 
ATOM      5  C   UNL     1      51.474  -4.875  82.152  1.00  0.00     0.339 C 
ATOM      6  O   UNL     1      51.079  -5.772  81.118  1.00  0.00    -0.332 OA
ENDROOT
BRANCH   1   7
ATOM      7  C   UNL     1      49.668  -4.786  79.395  1.00  0.00     0.198 C 
BRANCH   7   8
ATOM      8  O   UNL     1      49.037  -5.474  78.325  1.00  0.00    -0.347 OA
BRANCH   8   9
ATOM      9  C   UNL     1      47.897  -4.787  77.840  1.00  0.00     0.281 C 
ATOM     10  C   UNL     1      46.329  -4.854  74.534  1.00  0.00     0.041 C 
ATOM     11  C   UNL     1      46.517  -4.455  75.994  1.00  0.00     0.150 C 
ATOM     12  C   UNL     1      45.201  -4.635  76.798  1.00  0.00     0.174 C 
ATOM     13  O   UNL     1      47.544  -5.253  76.543  1.00  0.00    -0.344 OA
ATOM     14  C   UNL     1      45.451  -4.336  78.294  1.00  0.00     0.179 C 
ATOM     15  C   UNL     1      46.729  -5.022  78.816  1.00  0.00     0.202 C 
BRANCH  12  16
ATOM     16  O   UNL     1      44.642  -5.914  76.617  1.00  0.00    -0.388 OA
ATOM     17  H   UNL     1      43.696  -5.813  76.354  1.00  0.00     0.211 HD
ENDBRANCH  12  16
BRANCH  14  18
ATOM     18  O   UNL     1      44.329  -4.726  79.046  1.00  0.00    -0.387 OA
ATOM     19  H   UNL     1      44.635  -5.433  79.677  1.00  0.00     0.211 HD
ENDBRANCH  14  18
BRANCH  15  20
ATOM     20  O   UNL     1      46.508  -6.407  78.961  1.00  0.00    -0.385 OA
ATOM     21  H   UNL     1      45.540  -6.574  78.796  1.00  0.00     0.211 HD
ENDBRANCH  15  20
ENDBRANCH   8   9
ENDBRANCH   7   8
ENDBRANCH   1   7
BRANCH   2  22
ATOM     22  O   UNL     1      47.809  -6.560  81.844  1.00  0.00    -0.387 OA
ATOM     23  H   UNL     1      47.278  -6.672  81.010  1.00  0.00     0.211 HD
ENDBRANCH   2  22
BRANCH   3  24
ATOM     24  O   UNL     1      49.464  -6.004  83.861  1.00  0.00    -0.387 OA
ATOM     25  H   UNL     1      48.707  -6.650  83.809  1.00  0.00     0.211 HD
ENDBRANCH   3  24
BRANCH   5  26
ATOM     26  O   UNL     1      52.084  -5.660  83.180  1.00  0.00    -0.454 OA
BRANCH  26  27
ATOM     27  C   UNL     1      53.378  -6.177  83.104  1.00  0.00     0.214 A 
ATOM     28  C   UNL     1      53.581  -7.453  82.549  1.00  0.00     0.180 A 
ATOM     29  C   UNL     1      54.485  -5.421  83.499  1.00  0.00     0.239 A 
ATOM     30  O   UNL     1      54.815  -7.926  82.406  1.00  0.00    -0.452 OA
ATOM     31  C   UNL     1      55.781  -5.936  83.301  1.00  0.00     0.111 A 
ATOM     32  O   UNL     1      54.309  -4.273  83.987  1.00  0.00    -0.285 OA
ATOM     33  C   UNL     1      55.901  -7.226  82.732  1.00  0.00     0.146 A 
ATOM     34  C   UNL     1      56.957  -5.196  83.584  1.00  0.00     0.134 A 
ATOM     35  C   UNL     1      57.169  -7.769  82.479  1.00  0.00     0.094 A 
ATOM     36  C   UNL     1      58.212  -5.751  83.303  1.00  0.00     0.093 A 
ATOM     37  C   UNL     1      58.319  -7.022  82.725  1.00  0.00     0.123 A 
BRANCH  28  38
ATOM     38  C   UNL     1      52.431  -8.292  82.158  1.00  0.00     0.025 A 
ATOM     39  C   UNL     1      51.448  -8.611  83.103  1.00  0.00     0.062 A 
ATOM     40  C   UNL     1      52.254  -8.679  80.822  1.00  0.00     0.016 A 
ATOM     41  C   UNL     1      50.265  -9.240  82.698  1.00  0.00     0.158 A 
ATOM     42  C   UNL     1      51.062  -9.292  80.413  1.00  0.00     0.051 A 
ATOM     43  C   UNL     1      50.057  -9.550  81.349  1.00  0.00     0.157 A 
BRANCH  41  44
ATOM     44  O   UNL     1      49.268  -9.531  83.623  1.00  0.00    -0.504 OA
ATOM     45  H   UNL     1      48.626  -8.823  83.963  1.00  0.00     0.293 HD
ENDBRANCH  41  44
BRANCH  43  46
ATOM     46  O   UNL     1      48.843 -10.090  80.929  1.00  0.00    -0.504 OA
ATOM     47  H   UNL     1      48.840 -11.003  80.491  1.00  0.00     0.293 HD
ENDBRANCH  43  46
ENDBRANCH  28  38
BRANCH  34  48
ATOM     48  O   UNL     1      56.881  -3.908  84.123  1.00  0.00    -0.507 OA
ATOM     49  H   UNL     1      57.500  -3.164  83.814  1.00  0.00     0.293 HD
ENDBRANCH  34  48
BRANCH  37  50
ATOM     50  O   UNL     1      59.571  -7.519  82.383  1.00  0.00    -0.508 OA
ATOM     51  H   UNL     1      60.245  -7.818  83.081  1.00  0.00     0.293 HD
ENDBRANCH  37  50
ENDBRANCH  26  27
ENDBRANCH   5  26
BRANCH   4  52
ATOM     52  O   UNL     1      50.039  -2.935  82.001  1.00  0.00    -0.384 OA
ATOM     53  H   UNL     1      50.392  -3.121  81.090  1.00  0.00     0.211 HD
ENDBRANCH   4  52
TORSDOF 16
ENDMDL
MODEL 2
REMARK VINA RESULT:    -6.761      2.567      6.261
REMARK INTER + INTRA:         -12.690
REMARK INTER:                 -11.253
REMARK INTRA:                  -1.437
REMARK UNBOUND:                -1.580
REMARK SMILES C[C@@H]1O[C@H](OC[C@H]2O[C@H](Oc3c(-c4ccc(O)c(O)c4)oc4cc(O)cc(O)c4c3=O)[C@@H](O)[C@H](O)[C@@H]2O)[C@H](O)[C@H](O)[C@@H]1O
REMARK SMILES IDX 7 1 36 2 34 3 32 4 9 5 8 6 6 7 5 8 4 9 1 10 2 11 42 12 3 13
REMARK SMILES IDX 40 14 38 15 43 16 41 18 39 20 37 22 35 24 10 26 11 27 12 28
REMARK SMILES IDX 30 29 21 30 29 31 31 32 22 33 27 34 23 35 26 36 24 37 13 38
REMARK SMILES IDX 20 39 14 40 18 41 15 42 16 43 19 44 17 46 28 48 25 50 33 52
REMARK H PARENT 43 17 41 19 39 21 37 23 35 25 19 45 17 47 28 49 25 51 33 53
REMARK Flexibility Score: inf
ROOT
ATOM      1  C   UNL     1      52.259  -8.137  79.730  1.00  0.00     0.180 C 
ATOM      2  C   UNL     1      53.180  -9.402  79.857  1.00  0.00     0.177 C 
ATOM      3  C   UNL     1      54.045  -9.408  81.120  1.00  0.00     0.180 C 
ATOM      4  C   UNL     1      53.262  -8.781  82.270  1.00  0.00     0.214 C 
ATOM      5  C   UNL     1      52.938  -7.309  81.932  1.00  0.00     0.339 C 
ATOM      6  O   UNL     1      52.530  -7.042  80.593  1.00  0.00    -0.332 OA
ENDROOT
BRANCH   1   7
ATOM      7  C   UNL     1      50.761  -8.492  79.756  1.00  0.00     0.198 C 
BRANCH   7   8
ATOM      8  O   UNL     1      50.000  -7.394  79.275  1.00  0.00    -0.347 OA
BRANCH   8   9
ATOM      9  C   UNL     1      49.046  -6.943  80.221  1.00  0.00     0.281 C 
ATOM     10  C   UNL     1      48.763  -7.637  83.803  1.00  0.00     0.041 C 
ATOM     11  C   UNL     1      48.399  -7.020  82.456  1.00  0.00     0.150 C 
ATOM     12  C   UNL     1      48.208  -5.484  82.576  1.00  0.00     0.174 C 
ATOM     13  O   UNL     1      49.428  -7.320  81.538  1.00  0.00    -0.344 OA
ATOM     14  C   UNL     1      47.956  -4.873  81.178  1.00  0.00     0.179 C 
ATOM     15  C   UNL     1      48.945  -5.409  80.124  1.00  0.00     0.202 C 
BRANCH  12  16
ATOM     16  O   UNL     1      49.297  -4.865  83.218  1.00  0.00    -0.388 OA
ATOM     17  H   UNL     1      50.124  -5.346  82.975  1.00  0.00     0.211 HD
ENDBRANCH  12  16
BRANCH  14  18
ATOM     18  O   UNL     1      48.021  -3.471  81.259  1.00  0.00    -0.387 OA
ATOM     19  H   UNL     1      47.388  -3.192  81.974  1.00  0.00     0.211 HD
ENDBRANCH  14  18
BRANCH  15  20
ATOM     20  O   UNL     1      50.219  -4.839  80.324  1.00  0.00    -0.385 OA
ATOM     21  H   UNL     1      50.517  -4.461  79.452  1.00  0.00     0.211 HD
ENDBRANCH  15  20
ENDBRANCH   8   9
ENDBRANCH   7   8
ENDBRANCH   1   7
BRANCH   2  22
ATOM     22  O   UNL     1      53.994  -9.527  78.717  1.00  0.00    -0.387 OA
ATOM     23  H   UNL     1      54.878  -9.859  79.028  1.00  0.00     0.211 HD
ENDBRANCH   2  22
BRANCH   3  24
ATOM     24  O   UNL     1      55.242  -8.692  80.922  1.00  0.00    -0.387 OA
ATOM     25  H   UNL     1      55.383  -8.649  79.936  1.00  0.00     0.211 HD
ENDBRANCH   3  24
BRANCH   5  26
ATOM     26  O   UNL     1      54.120  -6.541  82.173  1.00  0.00    -0.454 OA
BRANCH  26  27
ATOM     27  C   UNL     1      54.118  -5.243  82.684  1.00  0.00     0.214 A 
ATOM     28  C   UNL     1      55.317  -4.686  83.162  1.00  0.00     0.180 A 
ATOM     29  C   UNL     1      52.962  -4.457  82.659  1.00  0.00     0.239 A 
ATOM     30  O   UNL     1      55.341  -3.425  83.584  1.00  0.00    -0.452 OA
ATOM     31  C   UNL     1      53.029  -3.114  83.080  1.00  0.00     0.111 A 
ATOM     32  O   UNL     1      51.887  -4.949  82.222  1.00  0.00    -0.285 OA
ATOM     33  C   UNL     1      54.274  -2.628  83.544  1.00  0.00     0.146 A 
ATOM     34  C   UNL     1      51.929  -2.224  82.997  1.00  0.00     0.134 A 
ATOM     35  C   UNL     1      54.404  -1.288  83.938  1.00  0.00     0.094 A 
ATOM     36  C   UNL     1      52.088  -0.885  83.377  1.00  0.00     0.093 A 
ATOM     37  C   UNL     1      53.329  -0.410  83.819  1.00  0.00     0.123 A 
BRANCH  28  38
ATOM     38  C   UNL     1      56.545  -5.501  83.237  1.00  0.00     0.025 A 
ATOM     39  C   UNL     1      56.465  -6.894  83.119  1.00  0.00     0.062 A 
ATOM     40  C   UNL     1      57.804  -4.887  83.310  1.00  0.00     0.016 A 
ATOM     41  C   UNL     1      57.634  -7.655  82.997  1.00  0.00     0.158 A 
ATOM     42  C   UNL     1      58.973  -5.646  83.169  1.00  0.00     0.051 A 
ATOM     43  C   UNL     1      58.885  -7.029  82.988  1.00  0.00     0.157 A 
BRANCH  41  44
ATOM     44  O   UNL     1      57.564  -9.036  82.847  1.00  0.00    -0.504 OA
ATOM     45  H   UNL     1      57.476  -9.660  83.642  1.00  0.00     0.293 HD
ENDBRANCH  41  44
BRANCH  43  46
ATOM     46  O   UNL     1      60.043  -7.773  82.772  1.00  0.00    -0.504 OA
ATOM     47  H   UNL     1      60.687  -7.909  83.543  1.00  0.00     0.293 HD
ENDBRANCH  43  46
ENDBRANCH  28  38
BRANCH  34  48
ATOM     48  O   UNL     1      50.688  -2.660  82.520  1.00  0.00    -0.507 OA
ATOM     49  H   UNL     1      49.945  -2.945  83.152  1.00  0.00     0.293 HD
ENDBRANCH  34  48
BRANCH  37  50
ATOM     50  O   UNL     1      53.483   0.939  84.116  1.00  0.00    -0.508 OA
ATOM     51  H   UNL     1      54.166   1.524  83.647  1.00  0.00     0.293 HD
ENDBRANCH  37  50
ENDBRANCH  26  27
ENDBRANCH   5  26
BRANCH   4  52
ATOM     52  O   UNL     1      52.075  -9.491  82.518  1.00  0.00    -0.384 OA
ATOM     53  H   UNL     1      51.398  -9.178  81.860  1.00  0.00     0.211 HD
ENDBRANCH   4  52
TORSDOF 16
ENDMDL
MODEL 3
REMARK VINA RESULT:    -6.629     12.028     15.335
REMARK INTER + INTRA:         -12.472
REMARK INTER:                  -9.527
REMARK INTRA:                  -2.945
REMARK UNBOUND:                -1.580
REMARK SMILES C[C@@H]1O[C@H](OC[C@H]2O[C@H](Oc3c(-c4ccc(O)c(O)c4)oc4cc(O)cc(O)c4c3=O)[C@@H](O)[C@H](O)[C@@H]2O)[C@H](O)[C@H](O)[C@@H]1O
REMARK SMILES IDX 7 1 36 2 34 3 32 4 9 5 8 6 6 7 5 8 4 9 1 10 2 11 42 12 3 13
REMARK SMILES IDX 40 14 38 15 43 16 41 18 39 20 37 22 35 24 10 26 11 27 12 28
REMARK SMILES IDX 30 29 21 30 29 31 31 32 22 33 27 34 23 35 26 36 24 37 13 38
REMARK SMILES IDX 20 39 14 40 18 41 15 42 16 43 19 44 17 46 28 48 25 50 33 52
REMARK H PARENT 43 17 41 19 39 21 37 23 35 25 19 45 17 47 28 49 25 51 33 53
REMARK Flexibility Score: inf
ROOT
ATOM      1  C   UNL     1      56.152   4.971  82.277  1.00  0.00     0.180 C 
ATOM      2  C   UNL     1      56.329   5.566  83.719  1.00  0.00     0.177 C 
ATOM      3  C   UNL     1      55.621   6.907  83.922  1.00  0.00     0.180 C 
ATOM      4  C   UNL     1      54.316   6.913  83.131  1.00  0.00     0.214 C 
ATOM      5  C   UNL     1      54.625   6.771  81.625  1.00  0.00     0.339 C 
ATOM      6  O   UNL     1      55.640   5.835  81.272  1.00  0.00    -0.332 OA
ENDROOT
BRANCH   1   7
ATOM      7  C   UNL     1      55.393   3.631  82.279  1.00  0.00     0.198 C 
BRANCH   7   8
ATOM      8  O   UNL     1      55.237   3.167  80.946  1.00  0.00    -0.347 OA
BRANCH   8   9
ATOM      9  C   UNL     1      53.883   2.906  80.620  1.00  0.00     0.281 C 
ATOM     10  C   UNL     1      50.809   3.888  82.346  1.00  0.00     0.041 C 
ATOM     11  C   UNL     1      51.672   3.246  81.264  1.00  0.00     0.150 C 
ATOM     12  C   UNL     1      51.201   3.670  79.847  1.00  0.00     0.174 C 
ATOM     13  O   UNL     1      53.012   3.634  81.476  1.00  0.00    -0.344 OA
ATOM     14  C   UNL     1      52.163   3.100  78.779  1.00  0.00     0.179 C 
ATOM     15  C   UNL     1      53.642   3.316  79.156  1.00  0.00     0.202 C 
BRANCH  12  16
ATOM     16  O   UNL     1      51.073   5.067  79.729  1.00  0.00    -0.388 OA
ATOM     17  H   UNL     1      50.739   5.429  80.583  1.00  0.00     0.211 HD
ENDBRANCH  12  16
BRANCH  14  18
ATOM     18  O   UNL     1      51.874   3.677  77.530  1.00  0.00    -0.387 OA
ATOM     19  H   UNL     1      52.433   4.496  77.453  1.00  0.00     0.211 HD
ENDBRANCH  14  18
BRANCH  15  20
ATOM     20  O   UNL     1      53.990   4.672  78.982  1.00  0.00    -0.385 OA
ATOM     21  H   UNL     1      53.498   5.197  79.671  1.00  0.00     0.211 HD
ENDBRANCH  15  20
ENDBRANCH   8   9
ENDBRANCH   7   8
ENDBRANCH   1   7
BRANCH   2  22
ATOM     22  O   UNL     1      57.696   5.691  84.028  1.00  0.00    -0.387 OA
ATOM     23  H   UNL     1      57.857   6.650  84.239  1.00  0.00     0.211 HD
ENDBRANCH   2  22
BRANCH   3  24
ATOM     24  O   UNL     1      56.431   7.980  83.499  1.00  0.00    -0.387 OA
ATOM     25  H   UNL     1      57.229   7.574  83.062  1.00  0.00     0.211 HD
ENDBRANCH   3  24
BRANCH   5  26
ATOM     26  O   UNL     1      55.048   8.051  81.148  1.00  0.00    -0.454 OA
BRANCH  26  27
ATOM     27  C   UNL     1      54.751   8.549  79.879  1.00  0.00     0.214 A 
ATOM     28  C   UNL     1      55.781   8.685  78.931  1.00  0.00     0.180 A 
ATOM     29  C   UNL     1      53.436   8.843  79.505  1.00  0.00     0.239 A 
ATOM     30  O   UNL     1      55.498   9.090  77.696  1.00  0.00    -0.452 OA
ATOM     31  C   UNL     1      53.165   9.235  78.179  1.00  0.00     0.111 A 
ATOM     32  O   UNL     1      52.509   8.711  80.347  1.00  0.00    -0.285 OA
ATOM     33  C   UNL     1      54.256   9.345  77.285  1.00  0.00     0.146 A 
ATOM     34  C   UNL     1      51.851   9.457  77.694  1.00  0.00     0.134 A 
ATOM     35  C   UNL     1      54.036   9.695  75.945  1.00  0.00     0.094 A 
ATOM     36  C   UNL     1      51.655   9.785  76.346  1.00  0.00     0.093 A 
ATOM     37  C   UNL     1      52.741   9.875  75.466  1.00  0.00     0.123 A 
BRANCH  28  38
ATOM     38  C   UNL     1      57.184   8.421  79.305  1.00  0.00     0.025 A 
ATOM     39  C   UNL     1      57.770   7.188  78.988  1.00  0.00     0.062 A 
ATOM     40  C   UNL     1      57.972   9.432  79.873  1.00  0.00     0.016 A 
ATOM     41  C   UNL     1      59.145   7.000  79.165  1.00  0.00     0.158 A 
ATOM     42  C   UNL     1      59.352   9.250  80.033  1.00  0.00     0.051 A 
ATOM     43  C   UNL     1      59.942   8.041  79.655  1.00  0.00     0.157 A 
BRANCH  41  44
ATOM     44  O   UNL     1      59.742   5.792  78.822  1.00  0.00    -0.504 OA
ATOM     45  H   UNL     1      59.865   5.042  79.495  1.00  0.00     0.293 HD
ENDBRANCH  41  44
BRANCH  43  46
ATOM     46  O   UNL     1      61.324   7.888  79.744  1.00  0.00    -0.504 OA
ATOM     47  H   UNL     1      61.818   7.454  78.973  1.00  0.00     0.293 HD
ENDBRANCH  43  46
ENDBRANCH  28  38
BRANCH  34  48
ATOM     48  O   UNL     1      50.745   9.333  78.539  1.00  0.00    -0.507 OA
ATOM     49  H   UNL     1      49.911   9.900  78.411  1.00  0.00     0.293 HD
ENDBRANCH  34  48
BRANCH  37  50
ATOM     50  O   UNL     1      52.514  10.125  74.118  1.00  0.00    -0.508 OA
ATOM     51  H   UNL     1      52.884  10.944  73.648  1.00  0.00     0.293 HD
ENDBRANCH  37  50
ENDBRANCH  26  27
ENDBRANCH   5  26
BRANCH   4  52
ATOM     52  O   UNL     1      53.468   5.875  83.550  1.00  0.00    -0.384 OA
ATOM     53  H   UNL     1      53.551   5.138  82.888  1.00  0.00     0.211 HD
ENDBRANCH   4  52
TORSDOF 16
ENDMDL
MODEL 4
REMARK VINA RESULT:    -6.460     11.977     15.829
REMARK INTER + INTRA:         -12.194
REMARK INTER:                  -9.173
REMARK INTRA:                  -3.020
REMARK UNBOUND:                -1.580
REMARK SMILES C[C@@H]1O[C@H](OC[C@H]2O[C@H](Oc3c(-c4ccc(O)c(O)c4)oc4cc(O)cc(O)c4c3=O)[C@@H](O)[C@H](O)[C@@H]2O)[C@H](O)[C@H](O)[C@@H]1O
REMARK SMILES IDX 7 1 36 2 34 3 32 4 9 5 8 6 6 7 5 8 4 9 1 10 2 11 42 12 3 13
REMARK SMILES IDX 40 14 38 15 43 16 41 18 39 20 37 22 35 24 10 26 11 27 12 28
REMARK SMILES IDX 30 29 21 30 29 31 31 32 22 33 27 34 23 35 26 36 24 37 13 38
REMARK SMILES IDX 20 39 14 40 18 41 15 42 16 43 19 44 17 46 28 48 25 50 33 52
REMARK H PARENT 43 17 41 19 39 21 37 23 35 25 19 45 17 47 28 49 25 51 33 53
REMARK Flexibility Score: inf
ROOT
ATOM      1  C   UNL     1      57.596   7.728  78.484  1.00  0.00     0.180 C 
ATOM      2  C   UNL     1      57.526   9.207  77.961  1.00  0.00     0.177 C 
ATOM      3  C   UNL     1      56.663  10.125  78.830  1.00  0.00     0.180 C 
ATOM      4  C   UNL     1      56.817   9.725  80.294  1.00  0.00     0.214 C 
ATOM      5  C   UNL     1      56.306   8.280  80.490  1.00  0.00     0.339 C 
ATOM      6  O   UNL     1      56.659   7.341  79.478  1.00  0.00    -0.332 OA
ENDROOT
BRANCH   1   7
ATOM      7  C   UNL     1      59.022   7.311  78.890  1.00  0.00     0.198 C 
BRANCH   7   8
ATOM      8  O   UNL     1      59.042   5.930  79.219  1.00  0.00    -0.347 OA
BRANCH   8   9
ATOM      9  C   UNL     1      59.339   5.704  80.585  1.00  0.00     0.281 C 
ATOM     10  C   UNL     1      59.523   8.060  83.381  1.00  0.00     0.041 C 
ATOM     11  C   UNL     1      59.576   6.710  82.672  1.00  0.00     0.150 C 
ATOM     12  C   UNL     1      58.709   5.654  83.410  1.00  0.00     0.174 C 
ATOM     13  O   UNL     1      59.121   6.885  81.348  1.00  0.00    -0.344 OA
ATOM     14  C   UNL     1      58.690   4.333  82.607  1.00  0.00     0.179 C 
ATOM     15  C   UNL     1      58.436   4.571  81.105  1.00  0.00     0.202 C 
BRANCH  12  16
ATOM     16  O   UNL     1      57.406   6.123  83.659  1.00  0.00    -0.388 OA
ATOM     17  H   UNL     1      56.942   5.477  84.243  1.00  0.00     0.211 HD
ENDBRANCH  12  16
BRANCH  14  18
ATOM     18  O   UNL     1      57.723   3.468  83.148  1.00  0.00    -0.387 OA
ATOM     19  H   UNL     1      56.916   4.018  83.339  1.00  0.00     0.211 HD
ENDBRANCH  14  18
BRANCH  15  20
ATOM     20  O   UNL     1      57.084   4.911  80.893  1.00  0.00    -0.385 OA
ATOM     21  H   UNL     1      57.042   5.466  80.066  1.00  0.00     0.211 HD
ENDBRANCH  15  20
ENDBRANCH   8   9
ENDBRANCH   7   8
ENDBRANCH   1   7
BRANCH   2  22
ATOM     22  O   UNL     1      57.067   9.231  76.632  1.00  0.00    -0.387 OA
ATOM     23  H   UNL     1      56.712   8.323  76.433  1.00  0.00     0.211 HD
ENDBRANCH   2  22
BRANCH   3  24
ATOM     24  O   UNL     1      55.306  10.047  78.462  1.00  0.00    -0.387 OA
ATOM     25  H   UNL     1      54.903  10.931  78.686  1.00  0.00     0.211 HD
ENDBRANCH   3  24
BRANCH   5  26
ATOM     26  O   UNL     1      54.878   8.330  80.540  1.00  0.00    -0.454 OA
BRANCH  26  27
ATOM     27  C   UNL     1      54.066   7.224  80.788  1.00  0.00     0.214 A 
ATOM     28  C   UNL     1      53.086   6.860  79.847  1.00  0.00     0.180 A 
ATOM     29  C   UNL     1      54.257   6.423  81.918  1.00  0.00     0.239 A 
ATOM     30  O   UNL     1      52.355   5.765  80.039  1.00  0.00    -0.452 OA
ATOM     31  C   UNL     1      53.492   5.251  82.073  1.00  0.00     0.111 A 
ATOM     32  O   UNL     1      55.142   6.738  82.758  1.00  0.00    -0.285 OA
ATOM     33  C   UNL     1      52.529   4.953  81.080  1.00  0.00     0.146 A 
ATOM     34  C   UNL     1      53.690   4.335  83.138  1.00  0.00     0.134 A 
ATOM     35  C   UNL     1      51.767   3.778  81.168  1.00  0.00     0.094 A 
ATOM     36  C   UNL     1      52.932   3.158  83.193  1.00  0.00     0.093 A 
ATOM     37  C   UNL     1      51.993   2.866  82.195  1.00  0.00     0.123 A 
BRANCH  28  38
ATOM     38  C   UNL     1      52.832   7.705  78.664  1.00  0.00     0.025 A 
ATOM     39  C   UNL     1      53.540   7.474  77.477  1.00  0.00     0.062 A 
ATOM     40  C   UNL     1      51.808   8.663  78.680  1.00  0.00     0.016 A 
ATOM     41  C   UNL     1      53.172   8.139  76.302  1.00  0.00     0.158 A 
ATOM     42  C   UNL     1      51.428   9.315  77.499  1.00  0.00     0.051 A 
ATOM     43  C   UNL     1      52.096   9.034  76.305  1.00  0.00     0.157 A 
BRANCH  41  44
ATOM     44  O   UNL     1      53.847   7.892  75.112  1.00  0.00    -0.504 OA
ATOM     45  H   UNL     1      53.362   7.608  74.266  1.00  0.00     0.293 HD
ENDBRANCH  41  44
BRANCH  43  46
ATOM     46  O   UNL     1      51.668   9.625  75.118  1.00  0.00    -0.504 OA
ATOM     47  H   UNL     1      50.675   9.660  74.919  1.00  0.00     0.293 HD
ENDBRANCH  43  46
ENDBRANCH  28  38
BRANCH  34  48
ATOM     48  O   UNL     1      54.650   4.581  84.125  1.00  0.00    -0.507 OA
ATOM     49  H   UNL     1      55.121   5.477  84.197  1.00  0.00     0.293 HD
ENDBRANCH  34  48
BRANCH  37  50
ATOM     50  O   UNL     1      51.309   1.656  82.230  1.00  0.00    -0.508 OA
ATOM     51  H   UNL     1      51.313   1.008  81.450  1.00  0.00     0.293 HD
ENDBRANCH  37  50
ENDBRANCH  26  27
ENDBRANCH   5  26
BRANCH   4  52
ATOM     52  O   UNL     1      58.156   9.822  80.706  1.00  0.00    -0.384 OA
ATOM     53  H   UNL     1      58.718   9.424  79.990  1.00  0.00     0.211 HD
ENDBRANCH   4  52
TORSDOF 16
ENDMDL
MODEL 5
REMARK VINA RESULT:    -6.324      1.587      2.369
REMARK INTER + INTRA:         -11.971
REMARK INTER:                 -10.876
REMARK INTRA:                  -1.095
REMARK UNBOUND:                -1.580
REMARK SMILES C[C@@H]1O[C@H](OC[C@H]2O[C@H](Oc3c(-c4ccc(O)c(O)c4)oc4cc(O)cc(O)c4c3=O)[C@@H](O)[C@H](O)[C@@H]2O)[C@H](O)[C@H](O)[C@@H]1O
REMARK SMILES IDX 7 1 36 2 34 3 32 4 9 5 8 6 6 7 5 8 4 9 1 10 2 11 42 12 3 13
REMARK SMILES IDX 40 14 38 15 43 16 41 18 39 20 37 22 35 24 10 26 11 27 12 28
REMARK SMILES IDX 30 29 21 30 29 31 31 32 22 33 27 34 23 35 26 36 24 37 13 38
REMARK SMILES IDX 20 39 14 40 18 41 15 42 16 43 19 44 17 46 28 48 25 50 33 52
REMARK H PARENT 43 17 41 19 39 21 37 23 35 25 19 45 17 47 28 49 25 51 33 53
REMARK Flexibility Score: inf
ROOT
ATOM      1  C   UNL     1      49.098  -5.463  79.310  1.00  0.00     0.180 C 
ATOM      2  C   UNL     1      47.706  -5.700  79.995  1.00  0.00     0.177 C 
ATOM      3  C   UNL     1      47.648  -5.226  81.449  1.00  0.00     0.180 C 
ATOM      4  C   UNL     1      48.489  -3.962  81.601  1.00  0.00     0.214 C 
ATOM      5  C   UNL     1      49.964  -4.282  81.272  1.00  0.00     0.339 C 
ATOM      6  O   UNL     1      50.193  -5.132  80.152  1.00  0.00    -0.332 OA
ENDROOT
BRANCH   1   7
ATOM      7  C   UNL     1      49.013  -4.487  78.122  1.00  0.00     0.198 C 
BRANCH   7   8
ATOM      8  O   UNL     1      48.917  -5.218  76.908  1.00  0.00    -0.347 OA
BRANCH   8   9
ATOM      9  C   UNL     1      47.586  -5.299  76.431  1.00  0.00     0.281 C 
ATOM     10  C   UNL     1      44.502  -3.863  77.782  1.00  0.00     0.041 C 
ATOM     11  C   UNL     1      45.384  -4.644  76.813  1.00  0.00     0.150 C 
ATOM     12  C   UNL     1      45.139  -4.196  75.347  1.00  0.00     0.174 C 
ATOM     13  O   UNL     1      46.732  -4.437  77.174  1.00  0.00    -0.344 OA
ATOM     14  C   UNL     1      46.126  -4.920  74.402  1.00  0.00     0.179 C 
ATOM     15  C   UNL     1      47.569  -4.898  74.945  1.00  0.00     0.202 C 
BRANCH  12  16
ATOM     16  O   UNL     1      45.220  -2.799  75.201  1.00  0.00    -0.388 OA
ATOM     17  H   UNL     1      44.379  -2.472  74.803  1.00  0.00     0.211 HD
ENDBRANCH  12  16
BRANCH  14  18
ATOM     18  O   UNL     1      46.063  -4.341  73.122  1.00  0.00    -0.387 OA
ATOM     19  H   UNL     1      46.312  -5.050  72.471  1.00  0.00     0.211 HD
ENDBRANCH  14  18
BRANCH  15  20
ATOM     20  O   UNL     1      48.120  -3.607  74.799  1.00  0.00    -0.385 OA
ATOM     21  H   UNL     1      47.373  -2.988  74.574  1.00  0.00     0.211 HD
ENDBRANCH  15  20
ENDBRANCH   8   9
ENDBRANCH   7   8
ENDBRANCH   1   7
BRANCH   2  22
ATOM     22  O   UNL     1      47.352  -7.059  79.918  1.00  0.00    -0.387 OA
ATOM     23  H   UNL     1      46.390  -7.093  79.668  1.00  0.00     0.211 HD
ENDBRANCH   2  22
BRANCH   3  24
ATOM     24  O   UNL     1      48.126  -6.217  82.329  1.00  0.00    -0.387 OA
ATOM     25  H   UNL     1      47.644  -6.083  83.191  1.00  0.00     0.211 HD
ENDBRANCH   3  24
BRANCH   5  26
ATOM     26  O   UNL     1      50.531  -4.929  82.415  1.00  0.00    -0.454 OA
BRANCH  26  27
ATOM     27  C   UNL     1      51.880  -5.260  82.536  1.00  0.00     0.214 A 
ATOM     28  C   UNL     1      52.296  -6.577  82.273  1.00  0.00     0.180 A 
ATOM     29  C   UNL     1      52.840  -4.289  82.840  1.00  0.00     0.239 A 
ATOM     30  O   UNL     1      53.589  -6.886  82.316  1.00  0.00    -0.452 OA
ATOM     31  C   UNL     1      54.204  -4.641  82.841  1.00  0.00     0.111 A 
ATOM     32  O   UNL     1      52.473  -3.105  83.065  1.00  0.00    -0.285 OA
ATOM     33  C   UNL     1      54.541  -5.987  82.563  1.00  0.00     0.146 A 
ATOM     34  C   UNL     1      55.243  -3.698  83.043  1.00  0.00     0.134 A 
ATOM     35  C   UNL     1      55.886  -6.380  82.515  1.00  0.00     0.094 A 
ATOM     36  C   UNL     1      56.580  -4.111  82.969  1.00  0.00     0.093 A 
ATOM     37  C   UNL     1      56.902  -5.442  82.677  1.00  0.00     0.123 A 
BRANCH  28  38
ATOM     38  C   UNL     1      51.306  -7.633  81.989  1.00  0.00     0.025 A 
ATOM     39  C   UNL     1      50.470  -8.099  83.012  1.00  0.00     0.062 A 
ATOM     40  C   UNL     1      51.114  -8.095  80.678  1.00  0.00     0.016 A 
ATOM     41  C   UNL     1      49.405  -8.956  82.710  1.00  0.00     0.158 A 
ATOM     42  C   UNL     1      50.037  -8.939  80.374  1.00  0.00     0.051 A 
ATOM     43  C   UNL     1      49.168  -9.349  81.388  1.00  0.00     0.157 A 
BRANCH  41  44
ATOM     44  O   UNL     1      48.550  -9.398  83.714  1.00  0.00    -0.504 OA
ATOM     45  H   UNL     1      48.443 -10.383  83.936  1.00  0.00     0.293 HD
ENDBRANCH  41  44
BRANCH  43  46
ATOM     46  O   UNL     1      48.055 -10.125  81.073  1.00  0.00    -0.504 OA
ATOM     47  H   UNL     1      47.958 -11.037  81.502  1.00  0.00     0.293 HD
ENDBRANCH  43  46
ENDBRANCH  28  38
BRANCH  34  48
ATOM     48  O   UNL     1      54.953  -2.354  83.296  1.00  0.00    -0.507 OA
ATOM     49  H   UNL     1      55.644  -1.726  83.697  1.00  0.00     0.293 HD
ENDBRANCH  34  48
BRANCH  37  50
ATOM     50  O   UNL     1      58.234  -5.811  82.532  1.00  0.00    -0.508 OA
ATOM     51  H   UNL     1      58.714  -5.773  81.638  1.00  0.00     0.293 HD
ENDBRANCH  37  50
ENDBRANCH  26  27
ENDBRANCH   5  26
BRANCH   4  52
ATOM     52  O   UNL     1      48.020  -2.939  80.762  1.00  0.00    -0.384 OA
ATOM     53  H   UNL     1      48.558  -2.968  79.927  1.00  0.00     0.211 HD
ENDBRANCH   4  52
TORSDOF 16
ENDMDL
MODEL 6
REMARK VINA RESULT:    -6.114     11.582     13.884
REMARK INTER + INTRA:         -11.626
REMARK INTER:                  -8.699
REMARK INTRA:                  -2.926
REMARK UNBOUND:                -1.580
REMARK SMILES C[C@@H]1O[C@H](OC[C@H]2O[C@H](Oc3c(-c4ccc(O)c(O)c4)oc4cc(O)cc(O)c4c3=O)[C@@H](O)[C@H](O)[C@@H]2O)[C@H](O)[C@H](O)[C@@H]1O
REMARK SMILES IDX 7 1 36 2 34 3 32 4 9 5 8 6 6 7 5 8 4 9 1 10 2 11 42 12 3 13
REMARK SMILES IDX 40 14 38 15 43 16 41 18 39 20 37 22 35 24 10 26 11 27 12 28
REMARK SMILES IDX 30 29 21 30 29 31 31 32 22 33 27 34 23 35 26 36 24 37 13 38
REMARK SMILES IDX 20 39 14 40 18 41 15 42 16 43 19 44 17 46 28 48 25 50 33 52
REMARK H PARENT 43 17 41 19 39 21 37 23 35 25 19 45 17 47 28 49 25 51 33 53
REMARK Flexibility Score: inf
ROOT
ATOM      1  C   UNL     1      53.723   4.810  77.588  1.00  0.00     0.180 C 
ATOM      2  C   UNL     1      52.856   3.737  78.337  1.00  0.00     0.177 C 
ATOM      3  C   UNL     1      53.149   3.649  79.837  1.00  0.00     0.180 C 
ATOM      4  C   UNL     1      53.463   5.043  80.372  1.00  0.00     0.214 C 
ATOM      5  C   UNL     1      54.731   5.588  79.679  1.00  0.00     0.339 C 
ATOM      6  O   UNL     1      54.842   5.345  78.279  1.00  0.00    -0.332 OA
ENDROOT
BRANCH   1   7
ATOM      7  C   UNL     1      52.870   5.939  76.980  1.00  0.00     0.198 C 
BRANCH   7   8
ATOM      8  O   UNL     1      53.688   6.781  76.182  1.00  0.00    -0.347 OA
BRANCH   8   9
ATOM      9  C   UNL     1      53.863   8.065  76.754  1.00  0.00     0.281 C 
ATOM     10  C   UNL     1      52.902   9.329  80.052  1.00  0.00     0.041 C 
ATOM     11  C   UNL     1      53.508   9.366  78.652  1.00  0.00     0.150 C 
ATOM     12  C   UNL     1      54.956   9.926  78.683  1.00  0.00     0.174 C 
ATOM     13  O   UNL     1      53.496   8.056  78.128  1.00  0.00    -0.344 OA
ATOM     14  C   UNL     1      55.583   9.843  77.272  1.00  0.00     0.179 C 
ATOM     15  C   UNL     1      55.340   8.472  76.610  1.00  0.00     0.202 C 
BRANCH  12  16
ATOM     16  O   UNL     1      55.754   9.272  79.640  1.00  0.00    -0.388 OA
ATOM     17  H   UNL     1      55.919   8.348  79.338  1.00  0.00     0.211 HD
ENDBRANCH  12  16
BRANCH  14  18
ATOM     18  O   UNL     1      56.958  10.125  77.352  1.00  0.00    -0.387 OA
ATOM     19  H   UNL     1      57.227  10.506  76.473  1.00  0.00     0.211 HD
ENDBRANCH  14  18
BRANCH  15  20
ATOM     20  O   UNL     1      56.159   7.494  77.211  1.00  0.00    -0.385 OA
ATOM     21  H   UNL     1      56.511   7.880  78.059  1.00  0.00     0.211 HD
ENDBRANCH  15  20
ENDBRANCH   8   9
ENDBRANCH   7   8
ENDBRANCH   1   7
BRANCH   2  22
ATOM     22  O   UNL     1      53.024   2.475  77.739  1.00  0.00    -0.387 OA
ATOM     23  H   UNL     1      53.405   2.632  76.834  1.00  0.00     0.211 HD
ENDBRANCH   2  22
BRANCH   3  24
ATOM     24  O   UNL     1      54.236   2.791  80.095  1.00  0.00    -0.387 OA
ATOM     25  H   UNL     1      54.582   2.501  79.206  1.00  0.00     0.211 HD
ENDBRANCH   3  24
BRANCH   5  26
ATOM     26  O   UNL     1      55.862   4.973  80.304  1.00  0.00    -0.454 OA
BRANCH  26  27
ATOM     27  C   UNL     1      56.757   5.647  81.135  1.00  0.00     0.214 A 
ATOM     28  C   UNL     1      56.774   5.358  82.511  1.00  0.00     0.180 A 
ATOM     29  C   UNL     1      57.690   6.548  80.615  1.00  0.00     0.239 A 
ATOM     30  O   UNL     1      57.672   5.942  83.301  1.00  0.00    -0.452 OA
ATOM     31  C   UNL     1      58.651   7.122  81.472  1.00  0.00     0.111 A 
ATOM     32  O   UNL     1      57.686   6.802  79.381  1.00  0.00    -0.285 OA
ATOM     33  C   UNL     1      58.604   6.777  82.844  1.00  0.00     0.146 A 
ATOM     34  C   UNL     1      59.690   7.968  81.009  1.00  0.00     0.134 A 
ATOM     35  C   UNL     1      59.560   7.290  83.731  1.00  0.00     0.094 A 
ATOM     36  C   UNL     1      60.646   8.451  81.912  1.00  0.00     0.093 A 
ATOM     37  C   UNL     1      60.599   8.090  83.265  1.00  0.00     0.123 A 
BRANCH  28  38
ATOM     38  C   UNL     1      55.777   4.442  83.098  1.00  0.00     0.025 A 
ATOM     39  C   UNL     1      54.495   4.913  83.410  1.00  0.00     0.062 A 
ATOM     40  C   UNL     1      56.063   3.076  83.240  1.00  0.00     0.016 A 
ATOM     41  C   UNL     1      53.490   4.013  83.784  1.00  0.00     0.158 A 
ATOM     42  C   UNL     1      55.052   2.174  83.597  1.00  0.00     0.051 A 
ATOM     43  C   UNL     1      53.759   2.641  83.845  1.00  0.00     0.157 A 
BRANCH  41  44
ATOM     44  O   UNL     1      52.206   4.467  84.064  1.00  0.00    -0.504 OA
ATOM     45  H   UNL     1      51.527   3.894  84.555  1.00  0.00     0.293 HD
ENDBRANCH  41  44
BRANCH  43  46
ATOM     46  O   UNL     1      52.738   1.736  84.125  1.00  0.00    -0.504 OA
ATOM     47  H   UNL     1      52.048   1.978  84.827  1.00  0.00     0.293 HD
ENDBRANCH  43  46
ENDBRANCH  28  38
BRANCH  34  48
ATOM     48  O   UNL     1      59.786   8.312  79.657  1.00  0.00    -0.507 OA
ATOM     49  H   UNL     1      59.095   8.905  79.208  1.00  0.00     0.293 HD
ENDBRANCH  34  48
BRANCH  37  50
ATOM     50  O   UNL     1      61.603   8.519  84.125  1.00  0.00    -0.508 OA
ATOM     51  H   UNL     1      62.584   8.507  83.864  1.00  0.00     0.293 HD
ENDBRANCH  37  50
ENDBRANCH  26  27
ENDBRANCH   5  26
BRANCH   4  52
ATOM     52  O   UNL     1      52.385   5.919  80.161  1.00  0.00    -0.384 OA
ATOM     53  H   UNL     1      51.709   5.433  79.618  1.00  0.00     0.211 HD
ENDBRANCH   4  52
TORSDOF 16
ENDMDL
MODEL 7
REMARK VINA RESULT:    -6.109     12.133     15.505
REMARK INTER + INTRA:         -11.617
REMARK INTER:                  -8.795
REMARK INTRA:                  -2.822
REMARK UNBOUND:                -1.580
REMARK SMILES C[C@@H]1O[C@H](OC[C@H]2O[C@H](Oc3c(-c4ccc(O)c(O)c4)oc4cc(O)cc(O)c4c3=O)[C@@H](O)[C@H](O)[C@@H]2O)[C@H](O)[C@H](O)[C@@H]1O
REMARK SMILES IDX 7 1 36 2 34 3 32 4 9 5 8 6 6 7 5 8 4 9 1 10 2 11 42 12 3 13
REMARK SMILES IDX 40 14 38 15 43 16 41 18 39 20 37 22 35 24 10 26 11 27 12 28
REMARK SMILES IDX 30 29 21 30 29 31 31 32 22 33 27 34 23 35 26 36 24 37 13 38
REMARK SMILES IDX 20 39 14 40 18 41 15 42 16 43 19 44 17 46 28 48 25 50 33 52
REMARK H PARENT 43 17 41 19 39 21 37 23 35 25 19 45 17 47 28 49 25 51 33 53
REMARK Flexibility Score: inf
ROOT
ATOM      1  C   UNL     1      53.902   7.712  77.431  1.00  0.00     0.180 C 
ATOM      2  C   UNL     1      53.165   9.098  77.457  1.00  0.00     0.177 C 
ATOM      3  C   UNL     1      53.235   9.806  78.812  1.00  0.00     0.180 C 
ATOM      4  C   UNL     1      54.590   9.528  79.457  1.00  0.00     0.214 C 
ATOM      5  C   UNL     1      54.737   8.012  79.714  1.00  0.00     0.339 C 
ATOM      6  O   UNL     1      54.274   7.147  78.680  1.00  0.00    -0.332 OA
ENDROOT
BRANCH   1   7
ATOM      7  C   UNL     1      55.089   7.692  76.451  1.00  0.00     0.198 C 
BRANCH   7   8
ATOM      8  O   UNL     1      55.886   6.540  76.686  1.00  0.00    -0.347 OA
BRANCH   8   9
ATOM      9  C   UNL     1      57.249   6.861  76.901  1.00  0.00     0.281 C 
ATOM     10  C   UNL     1      58.889  10.120  77.192  1.00  0.00     0.041 C 
ATOM     11  C   UNL     1      58.775   8.599  77.170  1.00  0.00     0.150 C 
ATOM     12  C   UNL     1      59.452   7.968  78.416  1.00  0.00     0.174 C 
ATOM     13  O   UNL     1      57.407   8.257  77.125  1.00  0.00    -0.344 OA
ATOM     14  C   UNL     1      59.220   6.440  78.426  1.00  0.00     0.179 C 
ATOM     15  C   UNL     1      57.753   6.074  78.125  1.00  0.00     0.202 C 
BRANCH  12  16
ATOM     16  O   UNL     1      59.012   8.562  79.614  1.00  0.00    -0.388 OA
ATOM     17  H   UNL     1      58.683   9.471  79.416  1.00  0.00     0.211 HD
ENDBRANCH  12  16
BRANCH  14  18
ATOM     18  O   UNL     1      59.625   5.910  79.664  1.00  0.00    -0.387 OA
ATOM     19  H   UNL     1      59.653   4.921  79.561  1.00  0.00     0.211 HD
ENDBRANCH  14  18
BRANCH  15  20
ATOM     20  O   UNL     1      56.943   6.370  79.241  1.00  0.00    -0.385 OA
ATOM     21  H   UNL     1      56.532   5.516  79.546  1.00  0.00     0.211 HD
ENDBRANCH  15  20
ENDBRANCH   8   9
ENDBRANCH   7   8
ENDBRANCH   1   7
BRANCH   2  22
ATOM     22  O   UNL     1      51.824   8.942  77.065  1.00  0.00    -0.387 OA
ATOM     23  H   UNL     1      51.819   8.307  76.298  1.00  0.00     0.211 HD
ENDBRANCH   2  22
BRANCH   3  24
ATOM     24  O   UNL     1      52.208   9.368  79.670  1.00  0.00    -0.387 OA
ATOM     25  H   UNL     1      52.356   9.826  80.543  1.00  0.00     0.211 HD
ENDBRANCH   3  24
BRANCH   5  26
ATOM     26  O   UNL     1      53.988   7.699  80.891  1.00  0.00    -0.454 OA
BRANCH  26  27
ATOM     27  C   UNL     1      53.934   6.430  81.468  1.00  0.00     0.214 A 
ATOM     28  C   UNL     1      54.839   6.094  82.490  1.00  0.00     0.180 A 
ATOM     29  C   UNL     1      52.946   5.510  81.103  1.00  0.00     0.239 A 
ATOM     30  O   UNL     1      54.750   4.914  83.096  1.00  0.00    -0.452 OA
ATOM     31  C   UNL     1      52.855   4.282  81.788  1.00  0.00     0.111 A 
ATOM     32  O   UNL     1      52.125   5.810  80.195  1.00  0.00    -0.285 OA
ATOM     33  C   UNL     1      53.802   4.022  82.807  1.00  0.00     0.146 A 
ATOM     34  C   UNL     1      51.826   3.338  81.546  1.00  0.00     0.134 A 
ATOM     35  C   UNL     1      53.732   2.832  83.546  1.00  0.00     0.094 A 
ATOM     36  C   UNL     1      51.765   2.165  82.311  1.00  0.00     0.093 A 
ATOM     37  C   UNL     1      52.698   1.926  83.328  1.00  0.00     0.123 A 
BRANCH  28  38
ATOM     38  C   UNL     1      55.917   7.027  82.872  1.00  0.00     0.025 A 
ATOM     39  C   UNL     1      57.241   6.751  82.504  1.00  0.00     0.062 A 
ATOM     40  C   UNL     1      55.616   8.244  83.501  1.00  0.00     0.016 A 
ATOM     41  C   UNL     1      58.236   7.717  82.693  1.00  0.00     0.158 A 
ATOM     42  C   UNL     1      56.609   9.218  83.673  1.00  0.00     0.051 A 
ATOM     43  C   UNL     1      57.915   8.962  83.245  1.00  0.00     0.157 A 
BRANCH  41  44
ATOM     44  O   UNL     1      59.546   7.466  82.300  1.00  0.00    -0.504 OA
ATOM     45  H   UNL     1      59.770   6.808  81.560  1.00  0.00     0.293 HD
ENDBRANCH  41  44
BRANCH  43  46
ATOM     46  O   UNL     1      58.883   9.958  83.347  1.00  0.00    -0.504 OA
ATOM     47  H   UNL     1      59.855   9.688  83.435  1.00  0.00     0.293 HD
ENDBRANCH  43  46
ENDBRANCH  28  38
BRANCH  34  48
ATOM     48  O   UNL     1      50.857   3.569  80.565  1.00  0.00    -0.507 OA
ATOM     49  H   UNL     1      51.101   3.946  79.654  1.00  0.00     0.293 HD
ENDBRANCH  34  48
BRANCH  37  50
ATOM     50  O   UNL     1      52.570   0.794  84.125  1.00  0.00    -0.508 OA
ATOM     51  H   UNL     1      53.028   0.710  85.026  1.00  0.00     0.293 HD
ENDBRANCH  37  50
ENDBRANCH  26  27
ENDBRANCH   5  26
BRANCH   4  52
ATOM     52  O   UNL     1      55.640   9.983  78.643  1.00  0.00    -0.384 OA
ATOM     53  H   UNL     1      55.508   9.589  77.739  1.00  0.00     0.211 HD
ENDBRANCH   4  52
TORSDOF 16
ENDMDL
MODEL 8
REMARK VINA RESULT:    -5.675     12.587     16.903
REMARK INTER + INTRA:         -10.904
REMARK INTER:                  -9.877
REMARK INTRA:                  -1.027
REMARK UNBOUND:                -1.580
REMARK SMILES C[C@@H]1O[C@H](OC[C@H]2O[C@H](Oc3c(-c4ccc(O)c(O)c4)oc4cc(O)cc(O)c4c3=O)[C@@H](O)[C@H](O)[C@@H]2O)[C@H](O)[C@H](O)[C@@H]1O
REMARK SMILES IDX 7 1 36 2 34 3 32 4 9 5 8 6 6 7 5 8 4 9 1 10 2 11 42 12 3 13
REMARK SMILES IDX 40 14 38 15 43 16 41 18 39 20 37 22 35 24 10 26 11 27 12 28
REMARK SMILES IDX 30 29 21 30 29 31 31 32 22 33 27 34 23 35 26 36 24 37 13 38
REMARK SMILES IDX 20 39 14 40 18 41 15 42 16 43 19 44 17 46 28 48 25 50 33 52
REMARK H PARENT 43 17 41 19 39 21 37 23 35 25 19 45 17 47 28 49 25 51 33 53
REMARK Flexibility Score: inf
ROOT
ATOM      1  C   UNL     1      59.242   7.561  78.643  1.00  0.00     0.180 C 
ATOM      2  C   UNL     1      58.681   8.936  78.132  1.00  0.00     0.177 C 
ATOM      3  C   UNL     1      57.229   9.197  78.541  1.00  0.00     0.180 C 
ATOM      4  C   UNL     1      56.986   8.620  79.933  1.00  0.00     0.214 C 
ATOM      5  C   UNL     1      57.194   7.090  79.900  1.00  0.00     0.339 C 
ATOM      6  O   UNL     1      58.304   6.618  79.142  1.00  0.00    -0.332 OA
ENDROOT
BRANCH   1   7
ATOM      7  C   UNL     1      60.416   7.730  79.624  1.00  0.00     0.198 C 
BRANCH   7   8
ATOM      8  O   UNL     1      60.537   9.095  79.997  1.00  0.00    -0.347 OA
BRANCH   8   9
ATOM      9  C   UNL     1      60.642   9.264  81.399  1.00  0.00     0.281 C 
ATOM     10  C   UNL     1      59.743   6.993  84.125  1.00  0.00     0.041 C 
ATOM     11  C   UNL     1      60.280   8.262  83.470  1.00  0.00     0.150 C 
ATOM     12  C   UNL     1      61.683   8.629  84.025  1.00  0.00     0.174 C 
ATOM     13  O   UNL     1      60.341   8.050  82.076  1.00  0.00    -0.344 OA
ATOM     14  C   UNL     1      62.249   9.848  83.261  1.00  0.00     0.179 C 
ATOM     15  C   UNL     1      62.078   9.707  81.735  1.00  0.00     0.202 C 
BRANCH  12  16
ATOM     16  O   UNL     1      62.570   7.538  83.981  1.00  0.00    -0.388 OA
ATOM     17  H   UNL     1      63.381   7.807  83.488  1.00  0.00     0.211 HD
ENDBRANCH  12  16
BRANCH  14  18
ATOM     18  O   UNL     1      63.602  10.028  83.600  1.00  0.00    -0.387 OA
ATOM     19  H   UNL     1      63.774  11.008  83.594  1.00  0.00     0.211 HD
ENDBRANCH  14  18
BRANCH  15  20
ATOM     20  O   UNL     1      62.993   8.759  81.233  1.00  0.00    -0.385 OA
ATOM     21  H   UNL     1      63.893   9.187  81.229  1.00  0.00     0.211 HD
ENDBRANCH  15  20
ENDBRANCH   8   9
ENDBRANCH   7   8
ENDBRANCH   1   7
BRANCH   2  22
ATOM     22  O   UNL     1      58.810   9.023  76.735  1.00  0.00    -0.387 OA
ATOM     23  H   UNL     1      59.708   8.662  76.504  1.00  0.00     0.211 HD
ENDBRANCH   2  22
BRANCH   3  24
ATOM     24  O   UNL     1      56.329   8.615  77.628  1.00  0.00    -0.387 OA
ATOM     25  H   UNL     1      56.566   7.649  77.576  1.00  0.00     0.211 HD
ENDBRANCH   3  24
BRANCH   5  26
ATOM     26  O   UNL     1      56.018   6.506  79.332  1.00  0.00    -0.454 OA
BRANCH  26  27
ATOM     27  C   UNL     1      55.005   5.905  80.079  1.00  0.00     0.214 A 
ATOM     28  C   UNL     1      53.661   6.196  79.783  1.00  0.00     0.180 A 
ATOM     29  C   UNL     1      55.297   4.959  81.066  1.00  0.00     0.239 A 
ATOM     30  O   UNL     1      52.687   5.574  80.441  1.00  0.00    -0.452 OA
ATOM     31  C   UNL     1      54.242   4.291  81.719  1.00  0.00     0.111 A 
ATOM     32  O   UNL     1      56.499   4.686  81.327  1.00  0.00    -0.285 OA
ATOM     33  C   UNL     1      52.917   4.638  81.361  1.00  0.00     0.146 A 
ATOM     34  C   UNL     1      54.452   3.252  82.661  1.00  0.00     0.134 A 
ATOM     35  C   UNL     1      51.832   3.977  81.954  1.00  0.00     0.094 A 
ATOM     36  C   UNL     1      53.352   2.592  83.223  1.00  0.00     0.093 A 
ATOM     37  C   UNL     1      52.046   2.932  82.850  1.00  0.00     0.123 A 
BRANCH  28  38
ATOM     38  C   UNL     1      53.320   7.217  78.774  1.00  0.00     0.025 A 
ATOM     39  C   UNL     1      53.728   7.048  77.445  1.00  0.00     0.062 A 
ATOM     40  C   UNL     1      52.493   8.299  79.108  1.00  0.00     0.016 A 
ATOM     41  C   UNL     1      53.249   7.908  76.450  1.00  0.00     0.158 A 
ATOM     42  C   UNL     1      51.998   9.149  78.110  1.00  0.00     0.051 A 
ATOM     43  C   UNL     1      52.358   8.937  76.776  1.00  0.00     0.157 A 
BRANCH  41  44
ATOM     44  O   UNL     1      53.622   7.729  75.123  1.00  0.00    -0.504 OA
ATOM     45  H   UNL     1      54.460   8.152  74.737  1.00  0.00     0.293 HD
ENDBRANCH  41  44
BRANCH  43  46
ATOM     46  O   UNL     1      51.806   9.735  75.776  1.00  0.00    -0.504 OA
ATOM     47  H   UNL     1      52.357   9.932  74.949  1.00  0.00     0.293 HD
ENDBRANCH  43  46
ENDBRANCH  28  38
BRANCH  34  48
ATOM     48  O   UNL     1      55.746   2.863  83.021  1.00  0.00    -0.507 OA
ATOM     49  H   UNL     1      56.184   2.039  82.621  1.00  0.00     0.293 HD
ENDBRANCH  34  48
BRANCH  37  50
ATOM     50  O   UNL     1      50.974   2.211  83.363  1.00  0.00    -0.508 OA
ATOM     51  H   UNL     1      50.797   1.246  83.104  1.00  0.00     0.293 HD
ENDBRANCH  37  50
ENDBRANCH  26  27
ENDBRANCH   5  26
BRANCH   4  52
ATOM     52  O   UNL     1      57.845   9.202  80.879  1.00  0.00    -0.384 OA
ATOM     53  H   UNL     1      58.720   9.356  80.431  1.00  0.00     0.211 HD
ENDBRANCH   4  52
TORSDOF 16
ENDMDL
MODEL 9
REMARK VINA RESULT:    -5.488      6.380     13.481
REMARK INTER + INTRA:         -10.598
REMARK INTER:                 -10.811
REMARK INTRA:                   0.214
REMARK UNBOUND:                -1.580
REMARK SMILES C[C@@H]1O[C@H](OC[C@H]2O[C@H](Oc3c(-c4ccc(O)c(O)c4)oc4cc(O)cc(O)c4c3=O)[C@@H](O)[C@H](O)[C@@H]2O)[C@H](O)[C@H](O)[C@@H]1O
REMARK SMILES IDX 7 1 36 2 34 3 32 4 9 5 8 6 6 7 5 8 4 9 1 10 2 11 42 12 3 13
REMARK SMILES IDX 40 14 38 15 43 16 41 18 39 20 37 22 35 24 10 26 11 27 12 28
REMARK SMILES IDX 30 29 21 30 29 31 31 32 22 33 27 34 23 35 26 36 24 37 13 38
REMARK SMILES IDX 20 39 14 40 18 41 15 42 16 43 19 44 17 46 28 48 25 50 33 52
REMARK H PARENT 43 17 41 19 39 21 37 23 35 25 19 45 17 47 28 49 25 51 33 53
REMARK Flexibility Score: inf
ROOT
ATOM      1  C   UNL     1      44.591  -3.349  75.061  1.00  0.00     0.180 C 
ATOM      2  C   UNL     1      45.053  -4.407  73.997  1.00  0.00     0.177 C 
ATOM      3  C   UNL     1      45.747  -3.791  72.779  1.00  0.00     0.180 C 
ATOM      4  C   UNL     1      46.571  -2.586  73.225  1.00  0.00     0.214 C 
ATOM      5  C   UNL     1      45.634  -1.513  73.822  1.00  0.00     0.339 C 
ATOM      6  O   UNL     1      44.589  -1.985  74.668  1.00  0.00    -0.332 OA
ENDROOT
BRANCH   1   7
ATOM      7  C   UNL     1      45.304  -3.523  76.415  1.00  0.00     0.198 C 
BRANCH   7   8
ATOM      8  O   UNL     1      46.385  -4.433  76.274  1.00  0.00    -0.347 OA
BRANCH   8   9
ATOM      9  C   UNL     1      47.103  -4.611  77.482  1.00  0.00     0.281 C 
ATOM     10  C   UNL     1      46.092  -6.214  80.613  1.00  0.00     0.041 C 
ATOM     11  C   UNL     1      47.013  -5.487  79.638  1.00  0.00     0.150 C 
ATOM     12  C   UNL     1      48.390  -6.196  79.534  1.00  0.00     0.174 C 
ATOM     13  O   UNL     1      46.381  -5.449  78.376  1.00  0.00    -0.344 OA
ATOM     14  C   UNL     1      49.257  -5.507  78.454  1.00  0.00     0.179 C 
ATOM     15  C   UNL     1      48.467  -5.245  77.156  1.00  0.00     0.202 C 
BRANCH  12  16
ATOM     16  O   UNL     1      48.258  -7.574  79.283  1.00  0.00    -0.388 OA
ATOM     17  H   UNL     1      47.370  -7.870  79.595  1.00  0.00     0.211 HD
ENDBRANCH  12  16
BRANCH  14  18
ATOM     18  O   UNL     1      50.398  -6.288  78.198  1.00  0.00    -0.387 OA
ATOM     19  H   UNL     1      50.716  -6.047  77.287  1.00  0.00     0.211 HD
ENDBRANCH  14  18
BRANCH  15  20
ATOM     20  O   UNL     1      48.269  -6.456  76.460  1.00  0.00    -0.385 OA
ATOM     21  H   UNL     1      47.298  -6.672  76.508  1.00  0.00     0.211 HD
ENDBRANCH  15  20
ENDBRANCH   8   9
ENDBRANCH   7   8
ENDBRANCH   1   7
BRANCH   2  22
ATOM     22  O   UNL     1      43.960  -5.188  73.583  1.00  0.00    -0.387 OA
ATOM     23  H   UNL     1      44.065  -6.081  74.010  1.00  0.00     0.211 HD
ENDBRANCH   2  22
BRANCH   3  24
ATOM     24  O   UNL     1      44.810  -3.386  71.809  1.00  0.00    -0.387 OA
ATOM     25  H   UNL     1      44.030  -3.017  72.308  1.00  0.00     0.211 HD
ENDBRANCH   3  24
BRANCH   5  26
ATOM     26  O   UNL     1      45.015  -0.825  72.731  1.00  0.00    -0.454 OA
BRANCH  26  27
ATOM     27  C   UNL     1      45.071   0.556  72.546  1.00  0.00     0.214 A 
ATOM     28  C   UNL     1      44.768   1.098  71.284  1.00  0.00     0.180 A 
ATOM     29  C   UNL     1      45.347   1.419  73.611  1.00  0.00     0.239 A 
ATOM     30  O   UNL     1      44.747   2.417  71.115  1.00  0.00    -0.452 OA
ATOM     31  C   UNL     1      45.282   2.812  73.408  1.00  0.00     0.111 A 
ATOM     32  O   UNL     1      45.608   0.939  74.746  1.00  0.00    -0.285 OA
ATOM     33  C   UNL     1      44.966   3.277  72.109  1.00  0.00     0.146 A 
ATOM     34  C   UNL     1      45.453   3.753  74.454  1.00  0.00     0.134 A 
ATOM     35  C   UNL     1      44.852   4.653  71.863  1.00  0.00     0.094 A 
ATOM     36  C   UNL     1      45.312   5.121  74.189  1.00  0.00     0.093 A 
ATOM     37  C   UNL     1      44.984   5.570  72.903  1.00  0.00     0.123 A 
BRANCH  28  38
ATOM     38  C   UNL     1      44.510   0.214  70.131  1.00  0.00     0.025 A 
ATOM     39  C   UNL     1      44.953   0.585  68.855  1.00  0.00     0.062 A 
ATOM     40  C   UNL     1      43.927  -1.048  70.318  1.00  0.00     0.016 A 
ATOM     41  C   UNL     1      44.884  -0.328  67.796  1.00  0.00     0.158 A 
ATOM     42  C   UNL     1      43.875  -1.968  69.262  1.00  0.00     0.051 A 
ATOM     43  C   UNL     1      44.377  -1.615  68.007  1.00  0.00     0.157 A 
BRANCH  41  44
ATOM     44  O   UNL     1      45.351   0.020  66.534  1.00  0.00    -0.504 OA
ATOM     45  H   UNL     1      46.118   0.673  66.404  1.00  0.00     0.293 HD
ENDBRANCH  41  44
BRANCH  43  46
ATOM     46  O   UNL     1      44.394  -2.555  66.979  1.00  0.00    -0.504 OA
ATOM     47  H   UNL     1      44.086  -3.500  67.177  1.00  0.00     0.293 HD
ENDBRANCH  43  46
ENDBRANCH  28  38
BRANCH  34  48
ATOM     48  O   UNL     1      45.740   3.332  75.757  1.00  0.00    -0.507 OA
ATOM     49  H   UNL     1      46.513   2.704  75.955  1.00  0.00     0.293 HD
ENDBRANCH  34  48
BRANCH  37  50
ATOM     50  O   UNL     1      44.774   6.926  72.681  1.00  0.00    -0.508 OA
ATOM     51  H   UNL     1      45.439   7.503  72.177  1.00  0.00     0.293 HD
ENDBRANCH  37  50
ENDBRANCH  26  27
ENDBRANCH   5  26
BRANCH   4  52
ATOM     52  O   UNL     1      47.540  -2.959  74.170  1.00  0.00    -0.384 OA
ATOM     53  H   UNL     1      47.449  -2.346  74.948  1.00  0.00     0.211 HD
ENDBRANCH   4  52
TORSDOF 16
ENDMDL
