MODEL 1
REMARK VINA RESULT:    -4.397      0.000      0.000
REMARK INTER + INTRA:          -5.140
REMARK INTER:                  -5.040
REMARK INTRA:                  -0.100
REMARK UNBOUND:                -0.100
REMARK SMILES COc1cc(C(=O)[O-])ccc1O
REMARK SMILES IDX 5 1 9 2 4 3 10 4 3 5 11 6 6 7 7 8 8 9 2 10 1 11 12 12
REMARK H PARENT 12 13
REMARK Flexibility Score: inf
ROOT
ATOM      1  C   UNL     1      12.953 -10.463  -2.039  1.00  0.00     0.001 A 
ATOM      2  C   UNL     1      13.127  -9.259  -2.737  1.00  0.00     0.014 A 
ATOM      3  C   UNL     1      11.977 -11.376  -2.481  1.00  0.00     0.060 A 
ATOM      4  C   UNL     1      12.342  -8.970  -3.855  1.00  0.00     0.051 A 
ATOM      5  C   UNL     1      11.182 -11.090  -3.609  1.00  0.00     0.161 A 
ATOM      6  C   UNL     1      11.373  -9.876  -4.294  1.00  0.00     0.157 A 
ENDROOT
BRANCH   1   7
ATOM      7  C   UNL     1      13.787 -10.765  -0.853  1.00  0.00     0.072 C 
ATOM      8  O   UNL     1      13.994 -11.957  -0.501  1.00  0.00    -0.545 OA
ATOM      9  O   UNL     1      14.356  -9.735  -0.112  1.00  0.00    -0.545 OA
ENDBRANCH   1   7
BRANCH   5  10
ATOM     10  O   UNL     1      10.200 -11.980  -4.073  1.00  0.00    -0.493 OA
ATOM     11  C   UNL     1       8.975 -12.256  -3.401  1.00  0.00     0.278 C 
ENDBRANCH   5  10
BRANCH   6  12
ATOM     12  O   UNL     1      10.609  -9.553  -5.416  1.00  0.00    -0.504 OA
ATOM     13  H   UNL     1      10.248  -8.619  -5.573  1.00  0.00     0.293 HD
ENDBRANCH   6  12
TORSDOF 3
ENDMDL
MODEL 2
REMARK VINA RESULT:    -4.184      7.173      9.497
REMARK INTER + INTRA:          -4.895
REMARK INTER:                  -4.795
REMARK INTRA:                  -0.100
REMARK UNBOUND:                -0.100
REMARK SMILES COc1cc(C(=O)[O-])ccc1O
REMARK SMILES IDX 5 1 9 2 4 3 10 4 3 5 11 6 6 7 7 8 8 9 2 10 1 11 12 12
REMARK H PARENT 12 13
REMARK Flexibility Score: inf
ROOT
ATOM      1  C   UNL     1      14.170  -4.088  -9.607  1.00  0.00     0.001 A 
ATOM      2  C   UNL     1      14.461  -3.587  -8.330  1.00  0.00     0.014 A 
ATOM      3  C   UNL     1      13.955  -5.469  -9.768  1.00  0.00     0.060 A 
ATOM      4  C   UNL     1      14.538  -4.448  -7.233  1.00  0.00     0.051 A 
ATOM      5  C   UNL     1      14.031  -6.343  -8.665  1.00  0.00     0.161 A 
ATOM      6  C   UNL     1      14.325  -5.820  -7.393  1.00  0.00     0.157 A 
ENDROOT
BRANCH   1   7
ATOM      7  C   UNL     1      14.090  -3.170 -10.767  1.00  0.00     0.072 C 
ATOM      8  O   UNL     1      13.999  -1.926 -10.595  1.00  0.00    -0.545 OA
ATOM      9  O   UNL     1      14.115  -3.672 -12.064  1.00  0.00    -0.545 OA
ENDBRANCH   1   7
BRANCH   5  10
ATOM     10  O   UNL     1      13.822  -7.726  -8.795  1.00  0.00    -0.493 OA
ATOM     11  C   UNL     1      14.712  -8.620  -9.456  1.00  0.00     0.278 C 
ENDBRANCH   5  10
BRANCH   6  12
ATOM     12  O   UNL     1      14.409  -6.648  -6.274  1.00  0.00    -0.504 OA
ATOM     13  H   UNL     1      13.644  -7.248  -5.988  1.00  0.00     0.293 HD
ENDBRANCH   6  12
TORSDOF 3
ENDMDL
MODEL 3
REMARK VINA RESULT:    -4.121      7.138      8.726
REMARK INTER + INTRA:          -4.822
REMARK INTER:                  -4.742
REMARK INTRA:                  -0.081
REMARK UNBOUND:                -0.100
REMARK SMILES COc1cc(C(=O)[O-])ccc1O
REMARK SMILES IDX 5 1 9 2 4 3 10 4 3 5 11 6 6 7 7 8 8 9 2 10 1 11 12 12
REMARK H PARENT 12 13
REMARK Flexibility Score: inf
ROOT
ATOM      1  C   UNL     1      14.142  -4.982  -7.462  1.00  0.00     0.001 A 
ATOM      2  C   UNL     1      14.634  -6.263  -7.167  1.00  0.00     0.014 A 
ATOM      3  C   UNL     1      13.946  -4.617  -8.807  1.00  0.00     0.060 A 
ATOM      4  C   UNL     1      14.926  -7.161  -8.195  1.00  0.00     0.051 A 
ATOM      5  C   UNL     1      14.239  -5.520  -9.849  1.00  0.00     0.161 A 
ATOM      6  C   UNL     1      14.732  -6.799  -9.531  1.00  0.00     0.157 A 
ENDROOT
BRANCH   1   7
ATOM      7  C   UNL     1      13.833  -4.032  -6.369  1.00  0.00     0.072 C 
ATOM      8  O   UNL     1      13.822  -2.791  -6.582  1.00  0.00    -0.545 OA
ATOM      9  O   UNL     1      13.551  -4.499  -5.090  1.00  0.00    -0.545 OA
ENDBRANCH   1   7
BRANCH   5  10
ATOM     10  O   UNL     1      14.055  -5.184 -11.200  1.00  0.00    -0.493 OA
ATOM     11  C   UNL     1      14.072  -3.855 -11.712  1.00  0.00     0.278 C 
ENDBRANCH   5  10
BRANCH   6  12
ATOM     12  O   UNL     1      15.035  -7.724 -10.530  1.00  0.00    -0.504 OA
ATOM     13  H   UNL     1      15.340  -8.666 -10.319  1.00  0.00     0.293 HD
ENDBRANCH   6  12
TORSDOF 3
ENDMDL
MODEL 4
REMARK VINA RESULT:    -4.097      7.161      9.707
REMARK INTER + INTRA:          -4.795
REMARK INTER:                  -4.715
REMARK INTRA:                  -0.080
REMARK UNBOUND:                -0.100
REMARK SMILES COc1cc(C(=O)[O-])ccc1O
REMARK SMILES IDX 5 1 9 2 4 3 10 4 3 5 11 6 6 7 7 8 8 9 2 10 1 11 12 12
REMARK H PARENT 12 13
REMARK Flexibility Score: inf
ROOT
ATOM      1  C   UNL     1      14.114  -4.668  -9.807  1.00  0.00     0.001 A 
ATOM      2  C   UNL     1      14.271  -6.062  -9.802  1.00  0.00     0.014 A 
ATOM      3  C   UNL     1      14.067  -3.980  -8.580  1.00  0.00     0.060 A 
ATOM      4  C   UNL     1      14.378  -6.757  -8.596  1.00  0.00     0.051 A 
ATOM      5  C   UNL     1      14.174  -4.677  -7.359  1.00  0.00     0.161 A 
ATOM      6  C   UNL     1      14.330  -6.075  -7.378  1.00  0.00     0.157 A 
ENDROOT
BRANCH   1   7
ATOM      7  C   UNL     1      14.001  -3.935 -11.089  1.00  0.00     0.072 C 
ATOM      8  O   UNL     1      13.582  -4.516 -12.125  1.00  0.00    -0.545 OA
ATOM      9  O   UNL     1      14.357  -2.593 -11.165  1.00  0.00    -0.545 OA
ENDBRANCH   1   7
BRANCH   5  10
ATOM     10  O   UNL     1      14.130  -4.018  -6.120  1.00  0.00    -0.493 OA
ATOM     11  C   UNL     1      14.369  -2.626  -5.934  1.00  0.00     0.278 C 
ENDBRANCH   5  10
BRANCH   6  12
ATOM     12  O   UNL     1      14.441  -6.803  -6.194  1.00  0.00    -0.504 OA
ATOM     13  H   UNL     1      13.778  -6.705  -5.435  1.00  0.00     0.293 HD
ENDBRANCH   6  12
TORSDOF 3
ENDMDL
MODEL 5
REMARK VINA RESULT:    -4.065      7.652      9.121
REMARK INTER + INTRA:          -4.759
REMARK INTER:                  -4.665
REMARK INTRA:                  -0.094
REMARK UNBOUND:                -0.100
REMARK SMILES COc1cc(C(=O)[O-])ccc1O
REMARK SMILES IDX 5 1 9 2 4 3 10 4 3 5 11 6 6 7 7 8 8 9 2 10 1 11 12 12
REMARK H PARENT 12 13
REMARK Flexibility Score: inf
ROOT
ATOM      1  C   UNL     1      14.526  -3.318  -7.776  1.00  0.00     0.001 A 
ATOM      2  C   UNL     1      14.713  -2.484  -8.889  1.00  0.00     0.014 A 
ATOM      3  C   UNL     1      14.019  -4.616  -7.971  1.00  0.00     0.060 A 
ATOM      4  C   UNL     1      14.398  -2.936 -10.172  1.00  0.00     0.051 A 
ATOM      5  C   UNL     1      13.700  -5.079  -9.264  1.00  0.00     0.161 A 
ATOM      6  C   UNL     1      13.894  -4.226 -10.366  1.00  0.00     0.157 A 
ENDROOT
BRANCH   1   7
ATOM      7  C   UNL     1      14.861  -2.833  -6.418  1.00  0.00     0.072 C 
ATOM      8  O   UNL     1      14.911  -3.633  -5.446  1.00  0.00    -0.545 OA
ATOM      9  O   UNL     1      15.125  -1.486  -6.196  1.00  0.00    -0.545 OA
ENDBRANCH   1   7
BRANCH   5  10
ATOM     10  O   UNL     1      13.192  -6.368  -9.489  1.00  0.00    -0.493 OA
ATOM     11  C   UNL     1      13.854  -7.574  -9.120  1.00  0.00     0.278 C 
ENDBRANCH   5  10
BRANCH   6  12
ATOM     12  O   UNL     1      13.593  -4.643 -11.662  1.00  0.00    -0.504 OA
ATOM     13  H   UNL     1      13.278  -3.998 -12.377  1.00  0.00     0.293 HD
ENDBRANCH   6  12
TORSDOF 3
ENDMDL
MODEL 6
REMARK VINA RESULT:    -3.984      7.343      9.660
REMARK INTER + INTRA:          -4.666
REMARK INTER:                  -4.568
REMARK INTRA:                  -0.097
REMARK UNBOUND:                -0.100
REMARK SMILES COc1cc(C(=O)[O-])ccc1O
REMARK SMILES IDX 5 1 9 2 4 3 10 4 3 5 11 6 6 7 7 8 8 9 2 10 1 11 12 12
REMARK H PARENT 12 13
REMARK Flexibility Score: inf
ROOT
ATOM      1  C   UNL     1      14.277  -4.239  -9.406  1.00  0.00     0.001 A 
ATOM      2  C   UNL     1      14.813  -2.942  -9.389  1.00  0.00     0.014 A 
ATOM      3  C   UNL     1      13.899  -4.838  -8.190  1.00  0.00     0.060 A 
ATOM      4  C   UNL     1      14.972  -2.258  -8.183  1.00  0.00     0.051 A 
ATOM      5  C   UNL     1      14.057  -4.153  -6.969  1.00  0.00     0.161 A 
ATOM      6  C   UNL     1      14.598  -2.854  -6.975  1.00  0.00     0.157 A 
ENDROOT
BRANCH   1   7
ATOM      7  C   UNL     1      14.111  -4.960 -10.688  1.00  0.00     0.072 C 
ATOM      8  O   UNL     1      14.682  -6.067 -10.880  1.00  0.00    -0.545 OA
ATOM      9  O   UNL     1      13.321  -4.425 -11.699  1.00  0.00    -0.545 OA
ENDBRANCH   1   7
BRANCH   5  10
ATOM     10  O   UNL     1      13.691  -4.726  -5.740  1.00  0.00    -0.493 OA
ATOM     11  C   UNL     1      14.497  -5.638  -5.001  1.00  0.00     0.278 C 
ENDBRANCH   5  10
BRANCH   6  12
ATOM     12  O   UNL     1      14.770  -2.139  -5.790  1.00  0.00    -0.504 OA
ATOM     13  H   UNL     1      15.034  -1.161  -5.783  1.00  0.00     0.293 HD
ENDBRANCH   6  12
TORSDOF 3
ENDMDL
MODEL 7
REMARK VINA RESULT:    -3.983      7.564      9.653
REMARK INTER + INTRA:          -4.665
REMARK INTER:                  -4.586
REMARK INTRA:                  -0.079
REMARK UNBOUND:                -0.100
REMARK SMILES COc1cc(C(=O)[O-])ccc1O
REMARK SMILES IDX 5 1 9 2 4 3 10 4 3 5 11 6 6 7 7 8 8 9 2 10 1 11 12 12
REMARK H PARENT 12 13
REMARK Flexibility Score: inf
ROOT
ATOM      1  C   UNL     1      14.137  -5.643  -9.150  1.00  0.00     0.001 A 
ATOM      2  C   UNL     1      13.824  -5.337 -10.483  1.00  0.00     0.014 A 
ATOM      3  C   UNL     1      14.571  -4.614  -8.296  1.00  0.00     0.060 A 
ATOM      4  C   UNL     1      13.943  -4.029 -10.955  1.00  0.00     0.051 A 
ATOM      5  C   UNL     1      14.693  -3.290  -8.766  1.00  0.00     0.161 A 
ATOM      6  C   UNL     1      14.375  -3.006 -10.106  1.00  0.00     0.157 A 
ENDROOT
BRANCH   1   7
ATOM      7  C   UNL     1      14.009  -7.033  -8.655  1.00  0.00     0.072 C 
ATOM      8  O   UNL     1      13.129  -7.803  -9.124  1.00  0.00    -0.545 OA
ATOM      9  O   UNL     1      14.860  -7.507  -7.663  1.00  0.00    -0.545 OA
ENDBRANCH   1   7
BRANCH   5  10
ATOM     10  O   UNL     1      15.125  -2.242  -7.937  1.00  0.00    -0.493 OA
ATOM     11  C   UNL     1      15.068  -2.261  -6.514  1.00  0.00     0.278 C 
ENDBRANCH   5  10
BRANCH   6  12
ATOM     12  O   UNL     1      14.481  -1.710 -10.613  1.00  0.00    -0.504 OA
ATOM     13  H   UNL     1      15.337  -1.360 -11.025  1.00  0.00     0.293 HD
ENDBRANCH   6  12
TORSDOF 3
ENDMDL
MODEL 8
REMARK VINA RESULT:    -3.814      1.428      2.972
REMARK INTER + INTRA:          -4.471
REMARK INTER:                  -4.374
REMARK INTRA:                  -0.096
REMARK UNBOUND:                -0.100
REMARK SMILES COc1cc(C(=O)[O-])ccc1O
REMARK SMILES IDX 5 1 9 2 4 3 10 4 3 5 11 6 6 7 7 8 8 9 2 10 1 11 12 12
REMARK H PARENT 12 13
REMARK Flexibility Score: inf
ROOT
ATOM      1  C   UNL     1      13.146 -11.076  -1.748  1.00  0.00     0.001 A 
ATOM      2  C   UNL     1      12.092 -11.761  -2.371  1.00  0.00     0.014 A 
ATOM      3  C   UNL     1      13.418  -9.748  -2.128  1.00  0.00     0.060 A 
ATOM      4  C   UNL     1      11.325 -11.135  -3.355  1.00  0.00     0.051 A 
ATOM      5  C   UNL     1      12.647  -9.110  -3.121  1.00  0.00     0.161 A 
ATOM      6  C   UNL     1      11.595  -9.817  -3.733  1.00  0.00     0.157 A 
ENDROOT
BRANCH   1   7
ATOM      7  C   UNL     1      13.957 -11.744  -0.705  1.00  0.00     0.072 C 
ATOM      8  O   UNL     1      14.314 -12.944  -0.842  1.00  0.00    -0.545 OA
ATOM      9  O   UNL     1      14.336 -11.054   0.441  1.00  0.00    -0.545 OA
ENDBRANCH   1   7
BRANCH   5  10
ATOM     10  O   UNL     1      12.895  -7.788  -3.521  1.00  0.00    -0.493 OA
ATOM     11  C   UNL     1      14.059  -7.359  -4.222  1.00  0.00     0.278 C 
ENDBRANCH   5  10
BRANCH   6  12
ATOM     12  O   UNL     1      10.806  -9.225  -4.719  1.00  0.00    -0.504 OA
ATOM     13  H   UNL     1      10.526  -8.252  -4.675  1.00  0.00     0.293 HD
ENDBRANCH   6  12
TORSDOF 3
ENDMDL
MODEL 9
REMARK VINA RESULT:    -3.768      6.705      8.940
REMARK INTER + INTRA:          -4.418
REMARK INTER:                  -4.314
REMARK INTRA:                  -0.104
REMARK UNBOUND:                -0.100
REMARK SMILES COc1cc(C(=O)[O-])ccc1O
REMARK SMILES IDX 5 1 9 2 4 3 10 4 3 5 11 6 6 7 7 8 8 9 2 10 1 11 12 12
REMARK H PARENT 12 13
REMARK Flexibility Score: inf
ROOT
ATOM      1  C   UNL     1      14.456  -3.415  -7.494  1.00  0.00     0.001 A 
ATOM      2  C   UNL     1      14.873  -2.293  -6.763  1.00  0.00     0.014 A 
ATOM      3  C   UNL     1      14.027  -4.562  -6.801  1.00  0.00     0.060 A 
ATOM      4  C   UNL     1      14.865  -2.315  -5.367  1.00  0.00     0.051 A 
ATOM      5  C   UNL     1      14.017  -4.591  -5.391  1.00  0.00     0.161 A 
ATOM      6  C   UNL     1      14.440  -3.455  -4.679  1.00  0.00     0.157 A 
ENDROOT
BRANCH   1   7
ATOM      7  C   UNL     1      14.466  -3.387  -8.974  1.00  0.00     0.072 C 
ATOM      8  O   UNL     1      14.903  -2.381  -9.593  1.00  0.00    -0.545 OA
ATOM      9  O   UNL     1      13.993  -4.473  -9.702  1.00  0.00    -0.545 OA
ENDBRANCH   1   7
BRANCH   5  10
ATOM     10  O   UNL     1      13.596  -5.722  -4.673  1.00  0.00    -0.493 OA
ATOM     11  C   UNL     1      14.402  -6.869  -4.425  1.00  0.00     0.278 C 
ENDBRANCH   5  10
BRANCH   6  12
ATOM     12  O   UNL     1      14.445  -3.439  -3.284  1.00  0.00    -0.504 OA
ATOM     13  H   UNL     1      13.609  -3.614  -2.739  1.00  0.00     0.293 HD
ENDBRANCH   6  12
TORSDOF 3
ENDMDL
