MODEL 1
REMARK VINA RESULT:    -5.080      0.000      0.000
REMARK INTER + INTRA:         -11.182
REMARK INTER:                  -9.534
REMARK INTRA:                  -1.648
REMARK UNBOUND:                -1.648
REMARK SMILES CCCCCCCCC=CCCCCCCCC(=O)[O-]
REMARK SMILES IDX 10 1 9 2 11 3 12 4 13 5 14 6 15 7 16 8 17 9 18 10 19 11
REMARK SMILES IDX 20 12 8 13 7 14 6 15 5 16 4 17 3 18 2 19 1 20
REMARK H PARENT
REMARK Flexibility Score: inf
ROOT
ATOM      1  C   UNL     1      -8.382  -3.920  -9.271  1.00  0.00    -0.031 C 
ATOM      2  C   UNL     1      -7.308  -4.710  -9.457  1.00  0.00    -0.031 C 
ENDROOT
BRANCH   1   3
ATOM      3  C   UNL     1      -9.778  -4.403  -8.968  1.00  0.00     0.027 C 
BRANCH   3   4
ATOM      4  C   UNL     1     -10.110  -4.376  -7.465  1.00  0.00     0.004 C 
BRANCH   4   5
ATOM      5  C   UNL     1      -9.808  -5.691  -6.719  1.00  0.00     0.000 C 
BRANCH   5   6
ATOM      6  C   UNL     1      -9.437  -5.524  -5.233  1.00  0.00     0.000 C 
BRANCH   6   7
ATOM      7  C   UNL     1      -9.275  -4.066  -4.760  1.00  0.00     0.000 C 
BRANCH   7   8
ATOM      8  C   UNL     1     -10.501  -3.477  -4.040  1.00  0.00     0.006 C 
BRANCH   8   9
ATOM      9  C   UNL     1     -10.470  -3.710  -2.524  1.00  0.00     0.053 C 
BRANCH   9  10
ATOM     10  C   UNL     1      -9.122  -3.371  -1.970  1.00  0.00     0.041 C 
ATOM     11  O   UNL     1      -8.729  -2.175  -1.945  1.00  0.00    -0.550 OA
ATOM     12  O   UNL     1      -8.278  -4.383  -1.528  1.00  0.00    -0.550 OA
ENDBRANCH   9  10
ENDBRANCH   8   9
ENDBRANCH   7   8
ENDBRANCH   6   7
ENDBRANCH   5   6
ENDBRANCH   4   5
ENDBRANCH   3   4
ENDBRANCH   1   3
BRANCH   2  13
ATOM     13  C   UNL     1      -7.302  -6.217  -9.341  1.00  0.00     0.027 C 
BRANCH  13  14
ATOM     14  C   UNL     1      -6.102  -6.703  -8.516  1.00  0.00     0.004 C 
BRANCH  14  15
ATOM     15  C   UNL     1      -6.107  -6.120  -7.094  1.00  0.00     0.000 C 
BRANCH  15  16
ATOM     16  C   UNL     1      -5.102  -6.814  -6.159  1.00  0.00     0.000 C 
BRANCH  16  17
ATOM     17  C   UNL     1      -3.941  -5.897  -5.718  1.00  0.00    -0.000 C 
BRANCH  17  18
ATOM     18  C   UNL     1      -4.226  -4.415  -6.022  1.00  0.00    -0.000 C 
BRANCH  18  19
ATOM     19  C   UNL     1      -3.053  -3.498  -5.642  1.00  0.00    -0.003 C 
ATOM     20  C   UNL     1      -3.315  -2.032  -5.985  1.00  0.00     0.004 C 
ENDBRANCH  18  19
ENDBRANCH  17  18
ENDBRANCH  16  17
ENDBRANCH  15  16
ENDBRANCH  14  15
ENDBRANCH  13  14
ENDBRANCH   2  13
TORSDOF 15
ENDMDL
MODEL 2
REMARK VINA RESULT:    -5.018      0.840      1.148
REMARK INTER + INTRA:         -11.066
REMARK INTER:                  -9.262
REMARK INTRA:                  -1.805
REMARK UNBOUND:                -1.648
REMARK SMILES CCCCCCCCC=CCCCCCCCC(=O)[O-]
REMARK SMILES IDX 10 1 9 2 11 3 12 4 13 5 14 6 15 7 16 8 17 9 18 10 19 11
REMARK SMILES IDX 20 12 8 13 7 14 6 15 5 16 4 17 3 18 2 19 1 20
REMARK H PARENT
REMARK Flexibility Score: inf
ROOT
ATOM      1  C   UNL     1      -8.292  -4.404  -8.605  1.00  0.00    -0.031 C 
ATOM      2  C   UNL     1      -7.079  -4.805  -8.182  1.00  0.00    -0.031 C 
ENDROOT
BRANCH   1   3
ATOM      3  C   UNL     1      -9.551  -5.234  -8.558  1.00  0.00     0.027 C 
BRANCH   3   4
ATOM      4  C   UNL     1     -10.532  -4.777  -7.465  1.00  0.00     0.004 C 
BRANCH   4   5
ATOM      5  C   UNL     1     -10.870  -5.856  -6.417  1.00  0.00     0.000 C 
BRANCH   5   6
ATOM      6  C   UNL     1     -10.026  -5.797  -5.129  1.00  0.00     0.000 C 
BRANCH   6   7
ATOM      7  C   UNL     1      -9.471  -4.403  -4.776  1.00  0.00     0.000 C 
BRANCH   7   8
ATOM      8  C   UNL     1     -10.438  -3.497  -3.993  1.00  0.00     0.006 C 
BRANCH   8   9
ATOM      9  C   UNL     1     -10.448  -3.797  -2.488  1.00  0.00     0.053 C 
BRANCH   9  10
ATOM     10  C   UNL     1      -9.143  -3.407  -1.869  1.00  0.00     0.041 C 
ATOM     11  O   UNL     1      -8.766  -2.206  -1.886  1.00  0.00    -0.550 OA
ATOM     12  O   UNL     1      -8.319  -4.380  -1.316  1.00  0.00    -0.550 OA
ENDBRANCH   9  10
ENDBRANCH   8   9
ENDBRANCH   7   8
ENDBRANCH   6   7
ENDBRANCH   5   6
ENDBRANCH   4   5
ENDBRANCH   3   4
ENDBRANCH   1   3
BRANCH   2  13
ATOM     13  C   UNL     1      -6.775  -6.137  -7.536  1.00  0.00     0.027 C 
BRANCH  13  14
ATOM     14  C   UNL     1      -6.605  -5.990  -6.018  1.00  0.00     0.004 C 
BRANCH  14  15
ATOM     15  C   UNL     1      -5.257  -6.547  -5.532  1.00  0.00     0.000 C 
BRANCH  15  16
ATOM     16  C   UNL     1      -4.067  -6.045  -6.366  1.00  0.00     0.000 C 
BRANCH  16  17
ATOM     17  C   UNL     1      -2.800  -5.777  -5.527  1.00  0.00    -0.000 C 
BRANCH  17  18
ATOM     18  C   UNL     1      -2.476  -4.275  -5.432  1.00  0.00    -0.000 C 
BRANCH  18  19
ATOM     19  C   UNL     1      -3.678  -3.388  -5.791  1.00  0.00    -0.003 C 
ATOM     20  C   UNL     1      -3.278  -1.941  -6.078  1.00  0.00     0.004 C 
ENDBRANCH  18  19
ENDBRANCH  17  18
ENDBRANCH  16  17
ENDBRANCH  15  16
ENDBRANCH  14  15
ENDBRANCH  13  14
ENDBRANCH   2  13
TORSDOF 15
ENDMDL
MODEL 3
REMARK VINA RESULT:    -4.772      1.613      2.502
REMARK INTER + INTRA:         -10.604
REMARK INTER:                  -8.976
REMARK INTRA:                  -1.628
REMARK UNBOUND:                -1.648
REMARK SMILES CCCCCCCCC=CCCCCCCCC(=O)[O-]
REMARK SMILES IDX 10 1 9 2 11 3 12 4 13 5 14 6 15 7 16 8 17 9 18 10 19 11
REMARK SMILES IDX 20 12 8 13 7 14 6 15 5 16 4 17 3 18 2 19 1 20
REMARK H PARENT
REMARK Flexibility Score: inf
ROOT
ATOM      1  C   UNL     1      -8.347  -4.978  -5.410  1.00  0.00    -0.031 C 
ATOM      2  C   UNL     1      -7.568  -5.006  -6.507  1.00  0.00    -0.031 C 
ENDROOT
BRANCH   1   3
ATOM      3  C   UNL     1      -9.629  -5.753  -5.229  1.00  0.00     0.027 C 
BRANCH   3   4
ATOM      4  C   UNL     1     -10.839  -4.850  -4.930  1.00  0.00     0.004 C 
BRANCH   4   5
ATOM      5  C   UNL     1     -10.475  -3.425  -4.467  1.00  0.00     0.000 C 
BRANCH   5   6
ATOM      6  C   UNL     1     -11.125  -2.987  -3.141  1.00  0.00     0.000 C 
BRANCH   6   7
ATOM      7  C   UNL     1     -10.382  -3.440  -1.869  1.00  0.00     0.000 C 
BRANCH   7   8
ATOM      8  C   UNL     1      -8.875  -3.692  -2.051  1.00  0.00     0.006 C 
BRANCH   8   9
ATOM      9  C   UNL     1      -8.008  -2.792  -1.160  1.00  0.00     0.053 C 
BRANCH   9  10
ATOM     10  C   UNL     1      -7.770  -1.473  -1.825  1.00  0.00     0.041 C 
ATOM     11  O   UNL     1      -8.188  -0.410  -1.294  1.00  0.00    -0.550 OA
ATOM     12  O   UNL     1      -7.128  -1.422  -3.057  1.00  0.00    -0.550 OA
ENDBRANCH   9  10
ENDBRANCH   8   9
ENDBRANCH   7   8
ENDBRANCH   6   7
ENDBRANCH   5   6
ENDBRANCH   4   5
ENDBRANCH   3   4
ENDBRANCH   1   3
BRANCH   2  13
ATOM     13  C   UNL     1      -7.813  -5.859  -7.730  1.00  0.00     0.027 C 
BRANCH  13  14
ATOM     14  C   UNL     1      -6.550  -6.639  -8.121  1.00  0.00     0.004 C 
BRANCH  14  15
ATOM     15  C   UNL     1      -5.767  -7.122  -6.890  1.00  0.00     0.000 C 
BRANCH  15  16
ATOM     16  C   UNL     1      -4.313  -6.623  -6.873  1.00  0.00     0.000 C 
BRANCH  16  17
ATOM     17  C   UNL     1      -3.999  -5.687  -5.686  1.00  0.00    -0.000 C 
BRANCH  17  18
ATOM     18  C   UNL     1      -4.209  -4.206  -6.046  1.00  0.00    -0.000 C 
BRANCH  18  19
ATOM     19  C   UNL     1      -2.993  -3.334  -5.695  1.00  0.00    -0.003 C 
ATOM     20  C   UNL     1      -3.264  -1.842  -5.877  1.00  0.00     0.004 C 
ENDBRANCH  18  19
ENDBRANCH  17  18
ENDBRANCH  16  17
ENDBRANCH  15  16
ENDBRANCH  14  15
ENDBRANCH  13  14
ENDBRANCH   2  13
TORSDOF 15
ENDMDL
MODEL 4
REMARK VINA RESULT:    -4.744      2.214      5.898
REMARK INTER + INTRA:         -10.551
REMARK INTER:                  -8.517
REMARK INTRA:                  -2.034
REMARK UNBOUND:                -1.648
REMARK SMILES CCCCCCCCC=CCCCCCCCC(=O)[O-]
REMARK SMILES IDX 10 1 9 2 11 3 12 4 13 5 14 6 15 7 16 8 17 9 18 10 19 11
REMARK SMILES IDX 20 12 8 13 7 14 6 15 5 16 4 17 3 18 2 19 1 20
REMARK H PARENT
REMARK Flexibility Score: inf
ROOT
ATOM      1  C   UNL     1      -9.256  -5.616  -5.758  1.00  0.00    -0.031 C 
ATOM      2  C   UNL     1      -9.048  -4.524  -5.000  1.00  0.00    -0.031 C 
ENDROOT
BRANCH   1   3
ATOM      3  C   UNL     1     -10.297  -5.741  -6.841  1.00  0.00     0.027 C 
BRANCH   3   4
ATOM      4  C   UNL     1      -9.702  -5.661  -8.259  1.00  0.00     0.004 C 
BRANCH   4   5
ATOM      5  C   UNL     1      -8.846  -4.406  -8.523  1.00  0.00     0.000 C 
BRANCH   5   6
ATOM      6  C   UNL     1      -7.410  -4.690  -9.003  1.00  0.00     0.000 C 
BRANCH   6   7
ATOM      7  C   UNL     1      -6.889  -6.109  -8.702  1.00  0.00     0.000 C 
BRANCH   7   8
ATOM      8  C   UNL     1      -5.524  -6.163  -7.993  1.00  0.00     0.006 C 
BRANCH   8   9
ATOM      9  C   UNL     1      -5.598  -5.726  -6.524  1.00  0.00     0.053 C 
BRANCH   9  10
ATOM     10  C   UNL     1      -5.845  -6.907  -5.639  1.00  0.00     0.041 C 
ATOM     11  O   UNL     1      -5.516  -8.063  -6.017  1.00  0.00    -0.550 OA
ATOM     12  O   UNL     1      -6.483  -6.737  -4.417  1.00  0.00    -0.550 OA
ENDBRANCH   9  10
ENDBRANCH   8   9
ENDBRANCH   7   8
ENDBRANCH   6   7
ENDBRANCH   5   6
ENDBRANCH   4   5
ENDBRANCH   3   4
ENDBRANCH   1   3
BRANCH   2  13
ATOM     13  C   UNL     1      -9.785  -3.212  -5.137  1.00  0.00     0.027 C 
BRANCH  13  14
ATOM     14  C   UNL     1     -11.125  -3.250  -4.389  1.00  0.00     0.004 C 
BRANCH  14  15
ATOM     15  C   UNL     1     -11.008  -3.964  -3.033  1.00  0.00     0.000 C 
BRANCH  15  16
ATOM     16  C   UNL     1     -10.984  -2.990  -1.844  1.00  0.00     0.000 C 
BRANCH  16  17
ATOM     17  C   UNL     1      -9.876  -3.304  -0.816  1.00  0.00    -0.000 C 
BRANCH  17  18
ATOM     18  C   UNL     1      -8.524  -3.593  -1.492  1.00  0.00    -0.000 C 
BRANCH  18  19
ATOM     19  C   UNL     1      -7.839  -2.320  -2.013  1.00  0.00    -0.003 C 
ATOM     20  C   UNL     1      -8.187  -1.083  -1.187  1.00  0.00     0.004 C 
ENDBRANCH  18  19
ENDBRANCH  17  18
ENDBRANCH  16  17
ENDBRANCH  15  16
ENDBRANCH  14  15
ENDBRANCH  13  14
ENDBRANCH   2  13
TORSDOF 15
ENDMDL
MODEL 5
REMARK VINA RESULT:    -4.675      2.449      6.087
REMARK INTER + INTRA:         -10.422
REMARK INTER:                  -8.920
REMARK INTRA:                  -1.502
REMARK UNBOUND:                -1.648
REMARK SMILES CCCCCCCCC=CCCCCCCCC(=O)[O-]
REMARK SMILES IDX 10 1 9 2 11 3 12 4 13 5 14 6 15 7 16 8 17 9 18 10 19 11
REMARK SMILES IDX 20 12 8 13 7 14 6 15 5 16 4 17 3 18 2 19 1 20
REMARK H PARENT
REMARK Flexibility Score: inf
ROOT
ATOM      1  C   UNL     1      -8.769  -5.425  -6.446  1.00  0.00    -0.031 C 
ATOM      2  C   UNL     1      -9.348  -4.877  -5.361  1.00  0.00    -0.031 C 
ENDROOT
BRANCH   1   3
ATOM      3  C   UNL     1      -8.557  -4.728  -7.767  1.00  0.00     0.027 C 
BRANCH   3   4
ATOM      4  C   UNL     1      -7.107  -4.829  -8.274  1.00  0.00     0.004 C 
BRANCH   4   5
ATOM      5  C   UNL     1      -6.744  -6.188  -8.907  1.00  0.00     0.000 C 
BRANCH   5   6
ATOM      6  C   UNL     1      -5.571  -6.924  -8.234  1.00  0.00     0.000 C 
BRANCH   6   7
ATOM      7  C   UNL     1      -5.491  -6.764  -6.703  1.00  0.00     0.000 C 
BRANCH   7   8
ATOM      8  C   UNL     1      -4.255  -6.001  -6.193  1.00  0.00     0.006 C 
BRANCH   8   9
ATOM      9  C   UNL     1      -4.528  -4.509  -5.964  1.00  0.00     0.053 C 
BRANCH   9  10
ATOM     10  C   UNL     1      -3.253  -3.783  -5.672  1.00  0.00     0.041 C 
ATOM     11  O   UNL     1      -3.216  -2.525  -5.713  1.00  0.00    -0.550 OA
ATOM     12  O   UNL     1      -2.092  -4.498  -5.404  1.00  0.00    -0.550 OA
ENDBRANCH   9  10
ENDBRANCH   8   9
ENDBRANCH   7   8
ENDBRANCH   6   7
ENDBRANCH   5   6
ENDBRANCH   4   5
ENDBRANCH   3   4
ENDBRANCH   1   3
BRANCH   2  13
ATOM     13  C   UNL     1      -9.838  -3.452  -5.259  1.00  0.00     0.027 C 
BRANCH  13  14
ATOM     14  C   UNL     1     -11.123  -3.369  -4.422  1.00  0.00     0.004 C 
BRANCH  14  15
ATOM     15  C   UNL     1     -10.988  -4.114  -3.084  1.00  0.00     0.000 C 
BRANCH  15  16
ATOM     16  C   UNL     1     -11.106  -3.183  -1.866  1.00  0.00     0.000 C 
BRANCH  16  17
ATOM     17  C   UNL     1     -10.031  -3.443  -0.789  1.00  0.00    -0.000 C 
BRANCH  17  18
ATOM     18  C   UNL     1      -8.646  -3.706  -1.404  1.00  0.00    -0.000 C 
BRANCH  18  19
ATOM     19  C   UNL     1      -8.108  -2.498  -2.188  1.00  0.00    -0.003 C 
ATOM     20  C   UNL     1      -7.991  -1.241  -1.327  1.00  0.00     0.004 C 
ENDBRANCH  18  19
ENDBRANCH  17  18
ENDBRANCH  16  17
ENDBRANCH  15  16
ENDBRANCH  14  15
ENDBRANCH  13  14
ENDBRANCH   2  13
TORSDOF 15
ENDMDL
MODEL 6
REMARK VINA RESULT:    -4.631      2.329      5.304
REMARK INTER + INTRA:         -10.339
REMARK INTER:                  -8.374
REMARK INTRA:                  -1.964
REMARK UNBOUND:                -1.648
REMARK SMILES CCCCCCCCC=CCCCCCCCC(=O)[O-]
REMARK SMILES IDX 10 1 9 2 11 3 12 4 13 5 14 6 15 7 16 8 17 9 18 10 19 11
REMARK SMILES IDX 20 12 8 13 7 14 6 15 5 16 4 17 3 18 2 19 1 20
REMARK H PARENT
REMARK Flexibility Score: inf
ROOT
ATOM      1  C   UNL     1      -8.692  -4.166  -9.377  1.00  0.00    -0.031 C 
ATOM      2  C   UNL     1      -9.844  -4.854  -9.266  1.00  0.00    -0.031 C 
ENDROOT
BRANCH   1   3
ATOM      3  C   UNL     1      -7.397  -4.516  -8.686  1.00  0.00     0.027 C 
BRANCH   3   4
ATOM      4  C   UNL     1      -6.630  -5.651  -9.388  1.00  0.00     0.004 C 
BRANCH   4   5
ATOM      5  C   UNL     1      -6.132  -6.765  -8.446  1.00  0.00     0.000 C 
BRANCH   5   6
ATOM      6  C   UNL     1      -6.436  -6.535  -6.953  1.00  0.00     0.000 C 
BRANCH   6   7
ATOM      7  C   UNL     1      -5.302  -6.933  -5.987  1.00  0.00     0.000 C 
BRANCH   7   8
ATOM      8  C   UNL     1      -4.102  -5.969  -5.963  1.00  0.00     0.006 C 
BRANCH   8   9
ATOM      9  C   UNL     1      -4.520  -4.495  -6.038  1.00  0.00     0.053 C 
BRANCH   9  10
ATOM     10  C   UNL     1      -3.347  -3.605  -5.769  1.00  0.00     0.041 C 
ATOM     11  O   UNL     1      -2.264  -4.092  -5.351  1.00  0.00    -0.550 OA
ATOM     12  O   UNL     1      -3.466  -2.230  -5.934  1.00  0.00    -0.550 OA
ENDBRANCH   9  10
ENDBRANCH   8   9
ENDBRANCH   7   8
ENDBRANCH   6   7
ENDBRANCH   5   6
ENDBRANCH   4   5
ENDBRANCH   3   4
ENDBRANCH   1   3
BRANCH   2  13
ATOM     13  C   UNL     1     -10.028  -6.128  -8.474  1.00  0.00     0.027 C 
BRANCH  13  14
ATOM     14  C   UNL     1     -10.830  -5.870  -7.192  1.00  0.00     0.004 C 
BRANCH  14  15
ATOM     15  C   UNL     1      -9.924  -5.772  -5.954  1.00  0.00     0.000 C 
BRANCH  15  16
ATOM     16  C   UNL     1      -9.606  -4.320  -5.560  1.00  0.00     0.000 C 
BRANCH  16  17
ATOM     17  C   UNL     1      -8.705  -4.207  -4.311  1.00  0.00    -0.000 C 
BRANCH  17  18
ATOM     18  C   UNL     1      -9.440  -3.559  -3.124  1.00  0.00    -0.000 C 
BRANCH  18  19
ATOM     19  C   UNL     1      -8.562  -3.461  -1.867  1.00  0.00    -0.003 C 
ATOM     20  C   UNL     1      -8.016  -2.053  -1.637  1.00  0.00     0.004 C 
ENDBRANCH  18  19
ENDBRANCH  17  18
ENDBRANCH  16  17
ENDBRANCH  15  16
ENDBRANCH  14  15
ENDBRANCH  13  14
ENDBRANCH   2  13
TORSDOF 15
ENDMDL
MODEL 7
REMARK VINA RESULT:    -4.554      1.194      2.378
REMARK INTER + INTRA:         -10.196
REMARK INTER:                  -8.982
REMARK INTRA:                  -1.214
REMARK UNBOUND:                -1.648
REMARK SMILES CCCCCCCCC=CCCCCCCCC(=O)[O-]
REMARK SMILES IDX 10 1 9 2 11 3 12 4 13 5 14 6 15 7 16 8 17 9 18 10 19 11
REMARK SMILES IDX 20 12 8 13 7 14 6 15 5 16 4 17 3 18 2 19 1 20
REMARK H PARENT
REMARK Flexibility Score: inf
ROOT
ATOM      1  C   UNL     1     -10.062  -4.815  -7.200  1.00  0.00    -0.031 C 
ATOM      2  C   UNL     1      -9.607  -5.184  -8.412  1.00  0.00    -0.031 C 
ENDROOT
BRANCH   1   3
ATOM      3  C   UNL     1      -9.220  -4.237  -6.090  1.00  0.00     0.027 C 
BRANCH   3   4
ATOM      4  C   UNL     1      -9.394  -4.981  -4.754  1.00  0.00     0.004 C 
BRANCH   4   5
ATOM      5  C   UNL     1     -10.771  -4.786  -4.088  1.00  0.00     0.000 C 
BRANCH   5   6
ATOM      6  C   UNL     1     -10.926  -3.476  -3.291  1.00  0.00     0.000 C 
BRANCH   6   7
ATOM      7  C   UNL     1     -10.333  -3.503  -1.869  1.00  0.00     0.000 C 
BRANCH   7   8
ATOM      8  C   UNL     1      -8.797  -3.582  -1.807  1.00  0.00     0.006 C 
BRANCH   8   9
ATOM      9  C   UNL     1      -8.174  -2.441  -0.992  1.00  0.00     0.053 C 
BRANCH   9  10
ATOM     10  C   UNL     1      -7.731  -1.334  -1.898  1.00  0.00     0.041 C 
ATOM     11  O   UNL     1      -7.306  -1.593  -3.055  1.00  0.00    -0.550 OA
ATOM     12  O   UNL     1      -7.742  -0.020  -1.445  1.00  0.00    -0.550 OA
ENDBRANCH   9  10
ENDBRANCH   8   9
ENDBRANCH   7   8
ENDBRANCH   6   7
ENDBRANCH   5   6
ENDBRANCH   4   5
ENDBRANCH   3   4
ENDBRANCH   1   3
BRANCH   2  13
ATOM     13  C   UNL     1      -8.182  -5.034  -8.892  1.00  0.00     0.027 C 
BRANCH  13  14
ATOM     14  C   UNL     1      -7.376  -6.315  -8.637  1.00  0.00     0.004 C 
BRANCH  14  15
ATOM     15  C   UNL     1      -5.965  -6.012  -8.108  1.00  0.00     0.000 C 
BRANCH  15  16
ATOM     16  C   UNL     1      -5.802  -6.344  -6.616  1.00  0.00     0.000 C 
BRANCH  16  17
ATOM     17  C   UNL     1      -4.559  -5.690  -5.974  1.00  0.00    -0.000 C 
BRANCH  17  18
ATOM     18  C   UNL     1      -4.573  -4.158  -6.118  1.00  0.00    -0.000 C 
BRANCH  18  19
ATOM     19  C   UNL     1      -3.226  -3.518  -5.749  1.00  0.00    -0.003 C 
ATOM     20  C   UNL     1      -3.243  -1.995  -5.869  1.00  0.00     0.004 C 
ENDBRANCH  18  19
ENDBRANCH  17  18
ENDBRANCH  16  17
ENDBRANCH  15  16
ENDBRANCH  14  15
ENDBRANCH  13  14
ENDBRANCH   2  13
TORSDOF 15
ENDMDL
MODEL 8
REMARK VINA RESULT:    -4.384      1.754      4.478
REMARK INTER + INTRA:          -9.877
REMARK INTER:                  -8.118
REMARK INTRA:                  -1.759
REMARK UNBOUND:                -1.648
REMARK SMILES CCCCCCCCC=CCCCCCCCC(=O)[O-]
REMARK SMILES IDX 10 1 9 2 11 3 12 4 13 5 14 6 15 7 16 8 17 9 18 10 19 11
REMARK SMILES IDX 20 12 8 13 7 14 6 15 5 16 4 17 3 18 2 19 1 20
REMARK H PARENT
REMARK Flexibility Score: inf
ROOT
ATOM      1  C   UNL     1      -5.584  -6.538  -5.656  1.00  0.00    -0.031 C 
ATOM      2  C   UNL     1      -5.179  -6.517  -6.940  1.00  0.00    -0.031 C 
ENDROOT
BRANCH   1   3
ATOM      3  C   UNL     1      -7.019  -6.497  -5.193  1.00  0.00     0.027 C 
BRANCH   3   4
ATOM      4  C   UNL     1      -7.661  -5.107  -5.348  1.00  0.00     0.004 C 
BRANCH   4   5
ATOM      5  C   UNL     1      -9.192  -5.086  -5.163  1.00  0.00     0.000 C 
BRANCH   5   6
ATOM      6  C   UNL     1      -9.825  -3.682  -5.163  1.00  0.00     0.000 C 
BRANCH   6   7
ATOM      7  C   UNL     1     -11.106  -3.542  -4.316  1.00  0.00     0.000 C 
BRANCH   7   8
ATOM      8  C   UNL     1     -11.019  -4.146  -2.903  1.00  0.00     0.006 C 
BRANCH   8   9
ATOM      9  C   UNL     1     -10.559  -3.130  -1.849  1.00  0.00     0.053 C 
BRANCH   9  10
ATOM     10  C   UNL     1      -9.068  -3.155  -1.715  1.00  0.00     0.041 C 
ATOM     11  O   UNL     1      -8.469  -4.241  -1.499  1.00  0.00    -0.550 OA
ATOM     12  O   UNL     1      -8.345  -1.970  -1.781  1.00  0.00    -0.550 OA
ENDBRANCH   9  10
ENDBRANCH   8   9
ENDBRANCH   7   8
ENDBRANCH   6   7
ENDBRANCH   5   6
ENDBRANCH   4   5
ENDBRANCH   3   4
ENDBRANCH   1   3
BRANCH   2  13
ATOM     13  C   UNL     1      -6.093  -6.506  -8.144  1.00  0.00     0.027 C 
BRANCH  13  14
ATOM     14  C   UNL     1      -6.485  -5.072  -8.525  1.00  0.00     0.004 C 
BRANCH  14  15
ATOM     15  C   UNL     1      -7.259  -5.020  -9.852  1.00  0.00     0.000 C 
BRANCH  15  16
ATOM     16  C   UNL     1      -7.924  -3.656 -10.104  1.00  0.00     0.000 C 
BRANCH  16  17
ATOM     17  C   UNL     1      -9.466  -3.721 -10.125  1.00  0.00    -0.000 C 
BRANCH  17  18
ATOM     18  C   UNL     1     -10.059  -3.879  -8.713  1.00  0.00    -0.000 C 
BRANCH  18  19
ATOM     19  C   UNL     1     -11.119  -4.989  -8.638  1.00  0.00    -0.003 C 
ATOM     20  C   UNL     1     -10.517  -6.358  -8.326  1.00  0.00     0.004 C 
ENDBRANCH  18  19
ENDBRANCH  17  18
ENDBRANCH  16  17
ENDBRANCH  15  16
ENDBRANCH  14  15
ENDBRANCH  13  14
ENDBRANCH   2  13
TORSDOF 15
ENDMDL
