MODEL 1
REMARK VINA RESULT:    22.670      0.000      0.000
REMARK INTER + INTRA:          38.093
REMARK INTER:                  34.598
REMARK INTRA:                   3.495
REMARK UNBOUND:                 3.495
REMARK SMILES CC1=CCC[C@H](C)C(=O)C[C@H](C(C)C)C(=O)C1
REMARK SMILES IDX 8 1 9 2 6 3 7 4 5 5 4 6 3 7 2 8 1 9 10 11 11 12 15 13 16 14
REMARK SMILES IDX 17 15 12 17 13 18 14 19
REMARK H PARENT
REMARK Flexibility Score: 70.00
ROOT
ATOM      1  C   UNL     1       9.881  75.354  24.887  1.00  0.00     0.136 C 
ATOM      2  O   UNL     1      10.020  74.143  24.996  1.00  0.00    -0.299 OA
ENDROOT
BRANCH   1   3
ATOM      3  C   UNL     1      10.852  76.266  25.607  1.00  0.00     0.053 C 
ATOM      4  C   UNL     1      11.828  75.448  26.462  1.00  0.00     0.016 C 
BRANCH   3   5
ATOM      5  C   UNL     1      11.607  77.147  24.577  1.00  0.00     0.015 C 
BRANCH   5   6
ATOM      6  C   UNL     1      12.117  76.355  23.355  1.00  0.00     0.028 C 
BRANCH   6   7
ATOM      7  C   UNL     1      12.076  77.190  22.096  1.00  0.00    -0.028 C 
ATOM      8  C   UNL     1      11.484  76.821  20.936  1.00  0.00    -0.070 CG0
ATOM      9  C   UNL     1      11.594  77.750  19.754  1.00  0.00     0.039 C 
ATOM     10  G   UNL     1      10.707  75.527  20.774  1.00  0.00     0.000 G0
ENDBRANCH   6   7
ENDBRANCH   5   6
ENDBRANCH   3   5
ENDBRANCH   1   3
BRANCH   1  11
ATOM     11  C   UNL     1       8.714  75.868  24.069  1.00  0.00     0.087 C 
BRANCH  11  12
ATOM     12  C   UNL     1       8.742  75.569  22.540  1.00  0.00     0.066 C 
BRANCH  12  13
ATOM     13  C   UNL     1      10.089  75.012  22.104  1.00  0.00     0.140 C 
ATOM     14  O   UNL     1      10.592  74.089  22.731  1.00  0.00    -0.299 OA
BRANCH  13  15
ATOM     15  C   UNL     1      10.745  75.512  20.834  1.00  0.00     0.106 CG0
ATOM     16  G   UNL     1      11.433  76.855  21.007  1.00  0.00     0.000 G0
ENDBRANCH  13  15
ENDBRANCH  12  13
BRANCH  12  17
ATOM     17  C   UNL     1       7.590  74.594  22.134  1.00  0.00    -0.006 C 
ATOM     18  C   UNL     1       6.542  75.287  21.243  1.00  0.00     0.008 C 
ATOM     19  C   UNL     1       6.879  73.995  23.362  1.00  0.00     0.008 C 
ENDBRANCH  12  17
ENDBRANCH  11  12
ENDBRANCH   1  11
TORSDOF 1
ENDMDL
MODEL 2
REMARK VINA RESULT:    23.795      6.252      9.200
REMARK INTER + INTRA:          39.809
REMARK INTER:                  39.220
REMARK INTRA:                   0.589
REMARK UNBOUND:                 3.495
REMARK SMILES CC1=CCC[C@H](C)C(=O)C[C@H](C(C)C)C(=O)C1
REMARK SMILES IDX 8 1 9 2 6 3 7 4 5 5 4 6 3 7 2 8 1 9 10 11 11 12 15 13 16 14
REMARK SMILES IDX 17 15 12 17 13 18 14 19
REMARK H PARENT
REMARK Flexibility Score: 70.00
ROOT
ATOM      1  C   UNL     1       3.863  77.192  18.564  1.00  0.00     0.136 C 
ATOM      2  O   UNL     1       3.853  78.014  17.658  1.00  0.00    -0.299 OA
ENDROOT
BRANCH   1   3
ATOM      3  C   UNL     1       3.059  77.477  19.816  1.00  0.00     0.053 C 
ATOM      4  C   UNL     1       2.511  78.910  19.790  1.00  0.00     0.016 C 
BRANCH   3   5
ATOM      5  C   UNL     1       1.915  76.438  19.954  1.00  0.00     0.015 C 
BRANCH   5   6
ATOM      6  C   UNL     1       1.284  76.043  18.603  1.00  0.00     0.028 C 
BRANCH   6   7
ATOM      7  C   UNL     1       0.786  74.616  18.619  1.00  0.00    -0.028 C 
ATOM      8  C   UNL     1       1.374  73.579  17.978  1.00  0.00    -0.070 CG0
ATOM      9  C   UNL     1       0.706  72.229  18.046  1.00  0.00     0.039 C 
ATOM     10  G   UNL     1       2.676  73.707  17.207  1.00  0.00     0.000 G0
ENDBRANCH   6   7
ENDBRANCH   5   6
ENDBRANCH   3   5
ENDBRANCH   1   3
BRANCH   1  11
ATOM     11  C   UNL     1       4.715  75.951  18.394  1.00  0.00     0.087 C 
BRANCH  11  12
ATOM     12  C   UNL     1       4.225  74.658  19.110  1.00  0.00     0.066 C 
BRANCH  12  13
ATOM     13  C   UNL     1       3.889  73.559  18.112  1.00  0.00     0.140 C 
ATOM     14  O   UNL     1       4.552  72.530  18.101  1.00  0.00    -0.299 OA
BRANCH  13  15
ATOM     15  C   UNL     1       2.669  73.685  17.223  1.00  0.00     0.106 CG0
ATOM     16  G   UNL     1       1.361  73.583  17.987  1.00  0.00     0.000 G0
ENDBRANCH  13  15
ENDBRANCH  12  13
BRANCH  12  17
ATOM     17  C   UNL     1       5.280  74.150  20.146  1.00  0.00    -0.006 C 
ATOM     18  C   UNL     1       4.642  73.869  21.519  1.00  0.00     0.008 C 
ATOM     19  C   UNL     1       6.435  75.152  20.331  1.00  0.00     0.008 C 
ENDBRANCH  12  17
ENDBRANCH  11  12
ENDBRANCH   1  11
TORSDOF 1
ENDMDL
MODEL 3
REMARK VINA RESULT:    23.927      7.940      9.791
REMARK INTER + INTRA:          40.010
REMARK INTER:                  38.808
REMARK INTRA:                   1.202
REMARK UNBOUND:                 3.495
REMARK SMILES CC1=CCC[C@H](C)C(=O)C[C@H](C(C)C)C(=O)C1
REMARK SMILES IDX 8 1 9 2 6 3 7 4 5 5 4 6 3 7 2 8 1 9 10 11 11 12 15 13 16 14
REMARK SMILES IDX 17 15 12 17 13 18 14 19
REMARK H PARENT
REMARK Flexibility Score: 70.00
ROOT
ATOM      1  C   UNL     1       4.347  74.463  18.790  1.00  0.00     0.136 C 
ATOM      2  O   UNL     1       4.517  74.129  19.955  1.00  0.00    -0.299 OA
ENDROOT
BRANCH   1   3
ATOM      3  C   UNL     1       4.326  73.391  17.721  1.00  0.00     0.053 C 
ATOM      4  C   UNL     1       4.270  71.996  18.356  1.00  0.00     0.016 C 
BRANCH   3   5
ATOM      5  C   UNL     1       3.124  73.624  16.767  1.00  0.00     0.015 C 
BRANCH   5   6
ATOM      6  C   UNL     1       1.762  73.285  17.408  1.00  0.00     0.028 C 
BRANCH   6   7
ATOM      7  C   UNL     1       0.786  74.430  17.274  1.00  0.00    -0.028 C 
ATOM      8  C   UNL     1       0.375  75.226  18.289  1.00  0.00    -0.070 CG0
ATOM      9  C   UNL     1      -0.658  76.283  17.992  1.00  0.00     0.039 C 
ATOM     10  G   UNL     1       0.913  75.113  19.704  1.00  0.00     0.000 G0
ENDBRANCH   6   7
ENDBRANCH   5   6
ENDBRANCH   3   5
ENDBRANCH   1   3
BRANCH   1  11
ATOM     11  C   UNL     1       4.210  75.940  18.483  1.00  0.00     0.087 C 
BRANCH  11  12
ATOM     12  C   UNL     1       2.870  76.622  18.892  1.00  0.00     0.066 C 
BRANCH  12  13
ATOM     13  C   UNL     1       2.163  75.846  19.995  1.00  0.00     0.140 C 
ATOM     14  O   UNL     1       2.577  75.919  21.144  1.00  0.00    -0.299 OA
BRANCH  13  15
ATOM     15  C   UNL     1       0.886  75.091  19.695  1.00  0.00     0.106 CG0
ATOM     16  G   UNL     1       0.416  75.258  18.260  1.00  0.00     0.000 G0
ENDBRANCH  13  15
ENDBRANCH  12  13
BRANCH  12  17
ATOM     17  C   UNL     1       3.100  78.105  19.328  1.00  0.00    -0.006 C 
ATOM     18  C   UNL     1       1.863  78.690  20.035  1.00  0.00     0.008 C 
ATOM     19  C   UNL     1       3.464  79.008  18.135  1.00  0.00     0.008 C 
ENDBRANCH  12  17
ENDBRANCH  11  12
ENDBRANCH   1  11
TORSDOF 1
ENDMDL
MODEL 4
REMARK VINA RESULT:    24.105      6.797      9.725
REMARK INTER + INTRA:          40.283
REMARK INTER:                  39.034
REMARK INTRA:                   1.249
REMARK UNBOUND:                 3.495
REMARK SMILES CC1=CCC[C@H](C)C(=O)C[C@H](C(C)C)C(=O)C1
REMARK SMILES IDX 8 1 9 2 6 3 7 4 5 5 4 6 3 7 2 8 1 9 10 11 11 12 15 13 16 14
REMARK SMILES IDX 17 15 12 17 13 18 14 19
REMARK H PARENT
REMARK Flexibility Score: 70.00
ROOT
ATOM      1  C   UNL     1       4.195  73.775  18.275  1.00  0.00     0.136 C 
ATOM      2  O   UNL     1       4.509  72.617  18.514  1.00  0.00    -0.299 OA
ENDROOT
BRANCH   1   3
ATOM      3  C   UNL     1       4.375  74.816  19.360  1.00  0.00     0.053 C 
ATOM      4  C   UNL     1       5.688  74.585  20.118  1.00  0.00     0.016 C 
BRANCH   3   5
ATOM      5  C   UNL     1       4.325  76.237  18.739  1.00  0.00     0.015 C 
BRANCH   5   6
ATOM      6  C   UNL     1       3.057  77.027  19.124  1.00  0.00     0.028 C 
BRANCH   6   7
ATOM      7  C   UNL     1       2.163  76.228  20.043  1.00  0.00    -0.028 C 
ATOM      8  C   UNL     1       1.183  75.385  19.640  1.00  0.00    -0.070 CG0
ATOM      9  C   UNL     1       0.340  74.716  20.694  1.00  0.00     0.039 C 
ATOM     10  G   UNL     1       0.904  75.074  18.180  1.00  0.00     0.000 G0
ENDBRANCH   6   7
ENDBRANCH   5   6
ENDBRANCH   3   5
ENDBRANCH   1   3
BRANCH   1  11
ATOM     11  C   UNL     1       3.606  74.091  16.915  1.00  0.00     0.087 C 
BRANCH  11  12
ATOM     12  C   UNL     1       2.219  73.462  16.588  1.00  0.00     0.066 C 
BRANCH  12  13
ATOM     13  C   UNL     1       1.230  73.667  17.727  1.00  0.00     0.140 C 
ATOM     14  O   UNL     1       0.808  72.697  18.342  1.00  0.00    -0.299 OA
BRANCH  13  15
ATOM     15  C   UNL     1       0.865  75.067  18.175  1.00  0.00     0.106 CG0
ATOM     16  G   UNL     1       1.236  75.347  19.621  1.00  0.00     0.000 G0
ENDBRANCH  13  15
ENDBRANCH  12  13
BRANCH  12  17
ATOM     17  C   UNL     1       1.640  74.034  15.253  1.00  0.00    -0.006 C 
ATOM     18  C   UNL     1       2.735  74.691  14.391  1.00  0.00     0.008 C 
ATOM     19  C   UNL     1       0.521  75.062  15.502  1.00  0.00     0.008 C 
ENDBRANCH  12  17
ENDBRANCH  11  12
ENDBRANCH   1  11
TORSDOF 1
ENDMDL
MODEL 5
REMARK VINA RESULT:    24.336      7.122      9.309
REMARK INTER + INTRA:          40.635
REMARK INTER:                  39.242
REMARK INTRA:                   1.393
REMARK UNBOUND:                 3.495
REMARK SMILES CC1=CCC[C@H](C)C(=O)C[C@H](C(C)C)C(=O)C1
REMARK SMILES IDX 8 1 9 2 6 3 7 4 5 5 4 6 3 7 2 8 1 9 10 11 11 12 15 13 16 14
REMARK SMILES IDX 17 15 12 17 13 18 14 19
REMARK H PARENT
REMARK Flexibility Score: 70.00
ROOT
ATOM      1  C   UNL     1       1.149  74.846  18.943  1.00  0.00     0.136 C 
ATOM      2  O   UNL     1       0.398  75.726  18.545  1.00  0.00    -0.299 OA
ENDROOT
BRANCH   1   3
ATOM      3  C   UNL     1       1.149  73.510  18.230  1.00  0.00     0.053 C 
ATOM      4  C   UNL     1      -0.237  72.857  18.307  1.00  0.00     0.016 C 
BRANCH   3   5
ATOM      5  C   UNL     1       1.602  73.700  16.758  1.00  0.00     0.015 C 
BRANCH   5   6
ATOM      6  C   UNL     1       3.089  74.090  16.624  1.00  0.00     0.028 C 
BRANCH   6   7
ATOM      7  C   UNL     1       3.998  72.912  16.883  1.00  0.00    -0.028 C 
ATOM      8  C   UNL     1       4.412  72.501  18.104  1.00  0.00    -0.070 CG0
ATOM      9  C   UNL     1       5.374  71.343  18.178  1.00  0.00     0.039 C 
ATOM     10  G   UNL     1       3.945  73.141  19.399  1.00  0.00     0.000 G0
ENDBRANCH   6   7
ENDBRANCH   5   6
ENDBRANCH   3   5
ENDBRANCH   1   3
BRANCH   1  11
ATOM     11  C   UNL     1       2.008  75.135  20.157  1.00  0.00     0.087 C 
BRANCH  11  12
ATOM     12  C   UNL     1       3.445  75.673  19.890  1.00  0.00     0.066 C 
BRANCH  12  13
ATOM     13  C   UNL     1       4.439  74.538  19.692  1.00  0.00     0.140 C 
ATOM     14  O   UNL     1       5.633  74.745  19.857  1.00  0.00    -0.299 OA
BRANCH  13  15
ATOM     15  C   UNL     1       3.944  73.134  19.413  1.00  0.00     0.106 CG0
ATOM     16  G   UNL     1       4.447  72.575  18.094  1.00  0.00     0.000 G0
ENDBRANCH  13  15
ENDBRANCH  12  13
BRANCH  12  17
ATOM     17  C   UNL     1       3.467  76.639  18.661  1.00  0.00    -0.006 C 
ATOM     18  C   UNL     1       4.833  76.625  17.948  1.00  0.00     0.008 C 
ATOM     19  C   UNL     1       3.130  78.088  19.059  1.00  0.00     0.008 C 
ENDBRANCH  12  17
ENDBRANCH  11  12
ENDBRANCH   1  11
TORSDOF 1
ENDMDL
MODEL 6
REMARK VINA RESULT:    24.401      6.660      9.049
REMARK INTER + INTRA:          40.735
REMARK INTER:                  38.776
REMARK INTRA:                   1.958
REMARK UNBOUND:                 3.495
REMARK SMILES CC1=CCC[C@H](C)C(=O)C[C@H](C(C)C)C(=O)C1
REMARK SMILES IDX 8 1 9 2 6 3 7 4 5 5 4 6 3 7 2 8 1 9 10 11 11 12 15 13 16 14
REMARK SMILES IDX 17 15 12 17 13 18 14 19
REMARK H PARENT
REMARK Flexibility Score: 70.00
ROOT
ATOM      1  C   UNL     1       1.320  75.127  18.663  1.00  0.00     0.136 C 
ATOM      2  O   UNL     1       0.563  75.772  17.950  1.00  0.00    -0.299 OA
ENDROOT
BRANCH   1   3
ATOM      3  C   UNL     1       1.664  73.708  18.263  1.00  0.00     0.053 C 
ATOM      4  C   UNL     1       0.389  72.897  18.000  1.00  0.00     0.016 C 
BRANCH   3   5
ATOM      5  C   UNL     1       2.591  73.722  17.019  1.00  0.00     0.015 C 
BRANCH   5   6
ATOM      6  C   UNL     1       4.047  73.326  17.339  1.00  0.00     0.028 C 
BRANCH   6   7
ATOM      7  C   UNL     1       4.253  73.120  18.822  1.00  0.00    -0.028 C 
ATOM      8  C   UNL     1       4.809  74.021  19.664  1.00  0.00    -0.070 CG0
ATOM      9  C   UNL     1       5.001  73.625  21.106  1.00  0.00     0.039 C 
ATOM     10  G   UNL     1       5.236  75.412  19.230  1.00  0.00     0.000 G0
ENDBRANCH   6   7
ENDBRANCH   5   6
ENDBRANCH   3   5
ENDBRANCH   1   3
BRANCH   1  11
ATOM     11  C   UNL     1       1.837  75.779  19.929  1.00  0.00     0.087 C 
BRANCH  11  12
ATOM     12  C   UNL     1       3.025  76.773  19.774  1.00  0.00     0.066 C 
BRANCH  12  13
ATOM     13  C   UNL     1       4.053  76.263  18.773  1.00  0.00     0.140 C 
ATOM     14  O   UNL     1       3.992  76.627  17.607  1.00  0.00    -0.299 OA
BRANCH  13  15
ATOM     15  C   UNL     1       5.214  75.411  19.243  1.00  0.00     0.106 CG0
ATOM     16  G   UNL     1       4.795  74.015  19.668  1.00  0.00     0.000 G0
ENDBRANCH  13  15
ENDBRANCH  12  13
BRANCH  12  17
ATOM     17  C   UNL     1       2.523  78.195  19.364  1.00  0.00    -0.006 C 
ATOM     18  C   UNL     1       3.294  78.744  18.148  1.00  0.00     0.008 C 
ATOM     19  C   UNL     1       2.638  79.205  20.521  1.00  0.00     0.008 C 
ENDBRANCH  12  17
ENDBRANCH  11  12
ENDBRANCH   1  11
TORSDOF 1
ENDMDL
MODEL 7
REMARK VINA RESULT:    24.668      7.790      9.541
REMARK INTER + INTRA:          41.142
REMARK INTER:                  40.506
REMARK INTRA:                   0.636
REMARK UNBOUND:                 3.495
REMARK SMILES CC1=CCC[C@H](C)C(=O)C[C@H](C(C)C)C(=O)C1
REMARK SMILES IDX 8 1 9 2 6 3 7 4 5 5 4 6 3 7 2 8 1 9 10 11 11 12 15 13 16 14
REMARK SMILES IDX 17 15 12 17 13 18 14 19
REMARK H PARENT
REMARK Flexibility Score: 70.00
ROOT
ATOM      1  C   UNL     1       3.036  76.536  19.553  1.00  0.00     0.136 C 
ATOM      2  O   UNL     1       2.902  77.746  19.431  1.00  0.00    -0.299 OA
ENDROOT
BRANCH   1   3
ATOM      3  C   UNL     1       3.930  75.801  18.576  1.00  0.00     0.053 C 
ATOM      4  C   UNL     1       5.005  76.740  18.015  1.00  0.00     0.016 C 
BRANCH   3   5
ATOM      5  C   UNL     1       4.567  74.568  19.272  1.00  0.00     0.015 C 
BRANCH   5   6
ATOM      6  C   UNL     1       4.282  73.240  18.539  1.00  0.00     0.028 C 
BRANCH   6   7
ATOM      7  C   UNL     1       3.493  73.464  17.270  1.00  0.00    -0.028 C 
ATOM      8  C   UNL     1       2.147  73.586  17.201  1.00  0.00    -0.070 CG0
ATOM      9  C   UNL     1       1.515  73.740  15.842  1.00  0.00     0.039 C 
ATOM     10  G   UNL     1       1.248  73.588  18.425  1.00  0.00     0.000 G0
ENDBRANCH   6   7
ENDBRANCH   5   6
ENDBRANCH   3   5
ENDBRANCH   1   3
BRANCH   1  11
ATOM     11  C   UNL     1       2.263  75.838  20.653  1.00  0.00     0.087 C 
BRANCH  11  12
ATOM     12  C   UNL     1       0.813  75.382  20.314  1.00  0.00     0.066 C 
BRANCH  12  13
ATOM     13  C   UNL     1       0.697  74.921  18.867  1.00  0.00     0.140 C 
ATOM     14  O   UNL     1       0.255  75.688  18.023  1.00  0.00    -0.299 OA
BRANCH  13  15
ATOM     15  C   UNL     1       1.238  73.568  18.455  1.00  0.00     0.106 CG0
ATOM     16  G   UNL     1       2.118  73.628  17.219  1.00  0.00     0.000 G0
ENDBRANCH  13  15
ENDBRANCH  12  13
BRANCH  12  17
ATOM     17  C   UNL     1       0.332  74.256  21.286  1.00  0.00    -0.006 C 
ATOM     18  C   UNL     1      -1.112  74.495  21.766  1.00  0.00     0.008 C 
ATOM     19  C   UNL     1       1.249  74.124  22.516  1.00  0.00     0.008 C 
ENDBRANCH  12  17
ENDBRANCH  11  12
ENDBRANCH   1  11
TORSDOF 1
ENDMDL
MODEL 8
REMARK VINA RESULT:    24.773      7.328      9.096
REMARK INTER + INTRA:          41.302
REMARK INTER:                  39.672
REMARK INTRA:                   1.630
REMARK UNBOUND:                 3.495
REMARK SMILES CC1=CCC[C@H](C)C(=O)C[C@H](C(C)C)C(=O)C1
REMARK SMILES IDX 8 1 9 2 6 3 7 4 5 5 4 6 3 7 2 8 1 9 10 11 11 12 15 13 16 14
REMARK SMILES IDX 17 15 12 17 13 18 14 19
REMARK H PARENT
REMARK Flexibility Score: 70.00
ROOT
ATOM      1  C   UNL     1       0.627  75.077  18.705  1.00  0.00     0.136 C 
ATOM      2  O   UNL     1      -0.189  75.743  18.082  1.00  0.00    -0.299 OA
ENDROOT
BRANCH   1   3
ATOM      3  C   UNL     1       0.910  75.436  20.149  1.00  0.00     0.053 C 
ATOM      4  C   UNL     1       0.567  74.262  21.074  1.00  0.00     0.016 C 
BRANCH   3   5
ATOM      5  C   UNL     1       2.394  75.861  20.303  1.00  0.00     0.015 C 
BRANCH   5   6
ATOM      6  C   UNL     1       2.663  77.312  19.852  1.00  0.00     0.028 C 
BRANCH   6   7
ATOM      7  C   UNL     1       3.692  77.367  18.747  1.00  0.00    -0.028 C 
ATOM      8  C   UNL     1       4.542  76.365  18.423  1.00  0.00    -0.070 CG0
ATOM      9  C   UNL     1       5.553  76.614  17.333  1.00  0.00     0.039 C 
ATOM     10  G   UNL     1       4.516  75.003  19.093  1.00  0.00     0.000 G0
ENDBRANCH   6   7
ENDBRANCH   5   6
ENDBRANCH   3   5
ENDBRANCH   1   3
BRANCH   1  11
ATOM     11  C   UNL     1       1.338  73.954  17.977  1.00  0.00     0.087 C 
BRANCH  11  12
ATOM     12  C   UNL     1       2.700  74.302  17.308  1.00  0.00     0.066 C 
BRANCH  12  13
ATOM     13  C   UNL     1       3.874  73.914  18.196  1.00  0.00     0.140 C 
ATOM     14  O   UNL     1       4.331  72.781  18.132  1.00  0.00    -0.299 OA
BRANCH  13  15
ATOM     15  C   UNL     1       4.550  74.956  19.062  1.00  0.00     0.106 CG0
ATOM     16  G   UNL     1       4.533  76.345  18.447  1.00  0.00     0.000 G0
ENDBRANCH  13  15
ENDBRANCH  12  13
BRANCH  12  17
ATOM     17  C   UNL     1       2.830  73.625  15.905  1.00  0.00    -0.006 C 
ATOM     18  C   UNL     1       4.118  74.058  15.179  1.00  0.00     0.008 C 
ATOM     19  C   UNL     1       1.623  73.934  15.000  1.00  0.00     0.008 C 
ENDBRANCH  12  17
ENDBRANCH  11  12
ENDBRANCH   1  11
TORSDOF 1
ENDMDL
MODEL 9
REMARK VINA RESULT:    24.851      6.875      9.222
REMARK INTER + INTRA:          41.422
REMARK INTER:                  39.270
REMARK INTRA:                   2.151
REMARK UNBOUND:                 3.495
REMARK SMILES CC1=CCC[C@H](C)C(=O)C[C@H](C(C)C)C(=O)C1
REMARK SMILES IDX 8 1 9 2 6 3 7 4 5 5 4 6 3 7 2 8 1 9 10 11 11 12 15 13 16 14
REMARK SMILES IDX 17 15 12 17 13 18 14 19
REMARK H PARENT
REMARK Flexibility Score: 70.00
ROOT
ATOM      1  C   UNL     1       1.820  73.401  17.467  1.00  0.00     0.136 C 
ATOM      2  O   UNL     1       2.004  72.233  17.151  1.00  0.00    -0.299 OA
ENDROOT
BRANCH   1   3
ATOM      3  C   UNL     1       0.540  73.768  18.188  1.00  0.00     0.053 C 
ATOM      4  C   UNL     1       0.250  72.770  19.315  1.00  0.00     0.016 C 
BRANCH   3   5
ATOM      5  C   UNL     1       0.639  75.218  18.730  1.00  0.00     0.015 C 
BRANCH   5   6
ATOM      6  C   UNL     1       1.674  75.376  19.863  1.00  0.00     0.028 C 
BRANCH   6   7
ATOM      7  C   UNL     1       2.034  76.826  20.089  1.00  0.00    -0.028 C 
ATOM      8  C   UNL     1       2.935  77.528  19.362  1.00  0.00    -0.070 CG0
ATOM      9  C   UNL     1       3.223  78.951  19.766  1.00  0.00     0.039 C 
ATOM     10  G   UNL     1       3.658  76.954  18.157  1.00  0.00     0.000 G0
ENDBRANCH   6   7
ENDBRANCH   5   6
ENDBRANCH   3   5
ENDBRANCH   1   3
BRANCH   1  11
ATOM     11  C   UNL     1       2.873  74.420  17.079  1.00  0.00     0.087 C 
BRANCH  11  12
ATOM     12  C   UNL     1       4.201  74.403  17.892  1.00  0.00     0.066 C 
BRANCH  12  13
ATOM     13  C   UNL     1       4.531  75.779  18.453  1.00  0.00     0.140 C 
ATOM     14  O   UNL     1       5.578  75.946  19.063  1.00  0.00    -0.299 OA
BRANCH  13  15
ATOM     15  C   UNL     1       3.630  76.958  18.154  1.00  0.00     0.106 CG0
ATOM     16  G   UNL     1       2.966  77.532  19.393  1.00  0.00     0.000 G0
ENDBRANCH  13  15
ENDBRANCH  12  13
BRANCH  12  17
ATOM     17  C   UNL     1       4.148  73.343  19.040  1.00  0.00    -0.006 C 
ATOM     18  C   UNL     1       4.999  73.770  20.251  1.00  0.00     0.008 C 
ATOM     19  C   UNL     1       4.617  71.955  18.568  1.00  0.00     0.008 C 
ENDBRANCH  12  17
ENDBRANCH  11  12
ENDBRANCH   1  11
TORSDOF 1
ENDMDL
