MODEL 1
REMARK VINA RESULT:    -4.580      0.000      0.000
REMARK INTER + INTRA:          -5.749
REMARK INTER:                  -5.651
REMARK INTRA:                  -0.098
REMARK UNBOUND:                -0.098
REMARK SMILES CCCCCC(=O)[O-]
REMARK SMILES IDX 4 1 5 2 6 3 7 4 8 5 3 6 2 7 1 8
REMARK H PARENT
REMARK Flexibility Score: inf
ROOT
ATOM      1  C   UNL     1       3.664  19.357  51.437  1.00  0.00     0.006 C 
ENDROOT
BRANCH   1   2
ATOM      2  C   UNL     1       2.338  19.874  52.009  1.00  0.00     0.053 C 
BRANCH   2   3
ATOM      3  C   UNL     1       1.758  20.967  51.165  1.00  0.00     0.041 C 
ATOM      4  O   UNL     1       0.542  21.273  51.271  1.00  0.00    -0.550 OA
ATOM      5  O   UNL     1       2.555  21.626  50.238  1.00  0.00    -0.550 OA
ENDBRANCH   2   3
ENDBRANCH   1   2
BRANCH   1   6
ATOM      6  C   UNL     1       4.363  18.374  52.387  1.00  0.00     0.000 C 
BRANCH   6   7
ATOM      7  C   UNL     1       4.070  18.722  53.851  1.00  0.00    -0.003 C 
ATOM      8  C   UNL     1       5.000  17.965  54.795  1.00  0.00     0.004 C 
ENDBRANCH   6   7
ENDBRANCH   1   6
TORSDOF 4
ENDMDL
MODEL 2
REMARK VINA RESULT:    -4.126     13.208     14.203
REMARK INTER + INTRA:          -5.189
REMARK INTER:                  -5.025
REMARK INTRA:                  -0.164
REMARK UNBOUND:                -0.098
REMARK SMILES CCCCCC(=O)[O-]
REMARK SMILES IDX 4 1 5 2 6 3 7 4 8 5 3 6 2 7 1 8
REMARK H PARENT
REMARK Flexibility Score: inf
ROOT
ATOM      1  C   UNL     1      -4.924  16.447  62.776  1.00  0.00     0.006 C 
ENDROOT
BRANCH   1   2
ATOM      2  C   UNL     1      -5.198  15.264  63.715  1.00  0.00     0.053 C 
BRANCH   2   3
ATOM      3  C   UNL     1      -3.972  14.867  64.479  1.00  0.00     0.041 C 
ATOM      4  O   UNL     1      -3.079  15.717  64.732  1.00  0.00    -0.550 OA
ATOM      5  O   UNL     1      -3.802  13.549  64.884  1.00  0.00    -0.550 OA
ENDBRANCH   2   3
ENDBRANCH   1   2
BRANCH   1   6
ATOM      6  C   UNL     1      -5.244  16.113  61.313  1.00  0.00     0.000 C 
BRANCH   6   7
ATOM      7  C   UNL     1      -4.131  16.608  60.381  1.00  0.00    -0.003 C 
ATOM      8  C   UNL     1      -2.887  17.005  61.169  1.00  0.00     0.004 C 
ENDBRANCH   6   7
ENDBRANCH   1   6
TORSDOF 4
ENDMDL
MODEL 3
REMARK VINA RESULT:    -3.926     12.376     13.198
REMARK INTER + INTRA:          -4.942
REMARK INTER:                  -4.829
REMARK INTRA:                  -0.113
REMARK UNBOUND:                -0.098
REMARK SMILES CCCCCC(=O)[O-]
REMARK SMILES IDX 4 1 5 2 6 3 7 4 8 5 3 6 2 7 1 8
REMARK H PARENT
REMARK Flexibility Score: inf
ROOT
ATOM      1  C   UNL     1      -4.921  16.429  62.763  1.00  0.00     0.006 C 
ENDROOT
BRANCH   1   2
ATOM      2  C   UNL     1      -5.339  16.194  61.305  1.00  0.00     0.053 C 
BRANCH   2   3
ATOM      3  C   UNL     1      -4.191  16.383  60.361  1.00  0.00     0.041 C 
ATOM      4  O   UNL     1      -4.198  15.824  59.234  1.00  0.00    -0.550 OA
ATOM      5  O   UNL     1      -3.098  17.153  60.741  1.00  0.00    -0.550 OA
ENDBRANCH   2   3
ENDBRANCH   1   2
BRANCH   1   6
ATOM      6  C   UNL     1      -5.527  15.391  63.717  1.00  0.00     0.000 C 
BRANCH   6   7
ATOM      7  C   UNL     1      -4.430  14.640  64.480  1.00  0.00    -0.003 C 
ATOM      8  C   UNL     1      -3.152  15.468  64.566  1.00  0.00     0.004 C 
ENDBRANCH   6   7
ENDBRANCH   1   6
TORSDOF 4
ENDMDL
MODEL 4
REMARK VINA RESULT:    -3.911     16.489     17.413
REMARK INTER + INTRA:          -4.923
REMARK INTER:                  -4.781
REMARK INTRA:                  -0.141
REMARK UNBOUND:                -0.098
REMARK SMILES CCCCCC(=O)[O-]
REMARK SMILES IDX 4 1 5 2 6 3 7 4 8 5 3 6 2 7 1 8
REMARK H PARENT
REMARK Flexibility Score: inf
ROOT
ATOM      1  C   UNL     1      13.102  11.916  65.195  1.00  0.00     0.006 C 
ENDROOT
BRANCH   1   2
ATOM      2  C   UNL     1      13.481  13.341  64.771  1.00  0.00     0.053 C 
BRANCH   2   3
ATOM      3  C   UNL     1      12.300  14.262  64.806  1.00  0.00     0.041 C 
ATOM      4  O   UNL     1      11.379  14.081  65.643  1.00  0.00    -0.550 OA
ATOM      5  O   UNL     1      12.203  15.302  63.890  1.00  0.00    -0.550 OA
ENDBRANCH   2   3
ENDBRANCH   1   2
BRANCH   1   6
ATOM      6  C   UNL     1      13.397  10.885  64.096  1.00  0.00     0.000 C 
BRANCH   6   7
ATOM      7  C   UNL     1      12.334   9.780  64.080  1.00  0.00    -0.003 C 
ATOM      8  C   UNL     1      11.070  10.219  64.813  1.00  0.00     0.004 C 
ENDBRANCH   6   7
ENDBRANCH   1   6
TORSDOF 4
ENDMDL
MODEL 5
REMARK VINA RESULT:    -3.803     16.458     17.799
REMARK INTER + INTRA:          -4.790
REMARK INTER:                  -4.732
REMARK INTRA:                  -0.059
REMARK UNBOUND:                -0.098
REMARK SMILES CCCCCC(=O)[O-]
REMARK SMILES IDX 4 1 5 2 6 3 7 4 8 5 3 6 2 7 1 8
REMARK H PARENT
REMARK Flexibility Score: inf
ROOT
ATOM      1  C   UNL     1      12.758  11.850  65.176  1.00  0.00     0.006 C 
ENDROOT
BRANCH   1   2
ATOM      2  C   UNL     1      13.364  10.881  64.153  1.00  0.00     0.053 C 
BRANCH   2   3
ATOM      3  C   UNL     1      12.419   9.768  63.815  1.00  0.00     0.041 C 
ATOM      4  O   UNL     1      11.496   9.456  64.612  1.00  0.00    -0.550 OA
ATOM      5  O   UNL     1      12.579   9.055  62.634  1.00  0.00    -0.550 OA
ENDBRANCH   2   3
ENDBRANCH   1   2
BRANCH   1   6
ATOM      6  C   UNL     1      13.136  13.310  64.889  1.00  0.00     0.000 C 
BRANCH   6   7
ATOM      7  C   UNL     1      11.919  14.232  65.039  1.00  0.00    -0.003 C 
ATOM      8  C   UNL     1      12.006  15.420  64.085  1.00  0.00     0.004 C 
ENDBRANCH   6   7
ENDBRANCH   1   6
TORSDOF 4
ENDMDL
MODEL 6
REMARK VINA RESULT:    -3.345     16.550     17.664
REMARK INTER + INTRA:          -4.225
REMARK INTER:                  -4.169
REMARK INTRA:                  -0.055
REMARK UNBOUND:                -0.098
REMARK SMILES CCCCCC(=O)[O-]
REMARK SMILES IDX 4 1 5 2 6 3 7 4 8 5 3 6 2 7 1 8
REMARK H PARENT
REMARK Flexibility Score: inf
ROOT
ATOM      1  C   UNL     1       9.525   4.599  52.375  1.00  0.00     0.006 C 
ENDROOT
BRANCH   1   2
ATOM      2  C   UNL     1      10.006   3.201  51.966  1.00  0.00     0.053 C 
BRANCH   2   3
ATOM      3  C   UNL     1      11.501   3.098  51.995  1.00  0.00     0.041 C 
ATOM      4  O   UNL     1      12.055   2.022  52.339  1.00  0.00    -0.550 OA
ATOM      5  O   UNL     1      12.280   4.201  51.673  1.00  0.00    -0.550 OA
ENDBRANCH   2   3
ENDBRANCH   1   2
BRANCH   1   6
ATOM      6  C   UNL     1       8.246   4.549  53.222  1.00  0.00     0.000 C 
BRANCH   6   7
ATOM      7  C   UNL     1       8.452   5.250  54.570  1.00  0.00    -0.003 C 
ATOM      8  C   UNL     1       7.385   4.832  55.578  1.00  0.00     0.004 C 
ENDBRANCH   6   7
ENDBRANCH   1   6
TORSDOF 4
ENDMDL
MODEL 7
REMARK VINA RESULT:    -3.301     15.906     16.633
REMARK INTER + INTRA:          -4.170
REMARK INTER:                  -4.073
REMARK INTRA:                  -0.097
REMARK UNBOUND:                -0.098
REMARK SMILES CCCCCC(=O)[O-]
REMARK SMILES IDX 4 1 5 2 6 3 7 4 8 5 3 6 2 7 1 8
REMARK H PARENT
REMARK Flexibility Score: inf
ROOT
ATOM      1  C   UNL     1       8.890   5.017  52.970  1.00  0.00     0.006 C 
ENDROOT
BRANCH   1   2
ATOM      2  C   UNL     1       9.895   4.179  52.169  1.00  0.00     0.053 C 
BRANCH   2   3
ATOM      3  C   UNL     1      11.166   4.931  51.914  1.00  0.00     0.041 C 
ATOM      4  O   UNL     1      12.215   4.314  51.594  1.00  0.00    -0.550 OA
ATOM      5  O   UNL     1      11.197   6.312  52.061  1.00  0.00    -0.550 OA
ENDBRANCH   2   3
ENDBRANCH   1   2
BRANCH   1   6
ATOM      6  C   UNL     1       7.596   4.247  53.265  1.00  0.00     0.000 C 
BRANCH   6   7
ATOM      7  C   UNL     1       7.043   4.611  54.648  1.00  0.00    -0.003 C 
ATOM      8  C   UNL     1       8.124   5.229  55.529  1.00  0.00     0.004 C 
ENDBRANCH   6   7
ENDBRANCH   1   6
TORSDOF 4
ENDMDL
MODEL 8
REMARK VINA RESULT:    -3.182     16.462     17.100
REMARK INTER + INTRA:          -4.023
REMARK INTER:                  -3.910
REMARK INTRA:                  -0.113
REMARK UNBOUND:                -0.098
REMARK SMILES CCCCCC(=O)[O-]
REMARK SMILES IDX 4 1 5 2 6 3 7 4 8 5 3 6 2 7 1 8
REMARK H PARENT
REMARK Flexibility Score: inf
ROOT
ATOM      1  C   UNL     1       9.354   5.234  52.187  1.00  0.00     0.006 C 
ENDROOT
BRANCH   1   2
ATOM      2  C   UNL     1      10.817   5.640  52.409  1.00  0.00     0.053 C 
BRANCH   2   3
ATOM      3  C   UNL     1      11.761   4.734  51.678  1.00  0.00     0.041 C 
ATOM      4  O   UNL     1      11.901   3.538  52.041  1.00  0.00    -0.550 OA
ATOM      5  O   UNL     1      12.510   5.223  50.615  1.00  0.00    -0.550 OA
ENDBRANCH   2   3
ENDBRANCH   1   2
BRANCH   1   6
ATOM      6  C   UNL     1       8.643   4.881  53.500  1.00  0.00     0.000 C 
BRANCH   6   7
ATOM      7  C   UNL     1       7.337   4.124  53.232  1.00  0.00    -0.003 C 
ATOM      8  C   UNL     1       7.449   3.257  51.981  1.00  0.00     0.004 C 
ENDBRANCH   6   7
ENDBRANCH   1   6
TORSDOF 4
ENDMDL
MODEL 9
REMARK VINA RESULT:    -3.150     16.573     17.222
REMARK INTER + INTRA:          -3.984
REMARK INTER:                  -3.847
REMARK INTRA:                  -0.137
REMARK UNBOUND:                -0.098
REMARK SMILES CCCCCC(=O)[O-]
REMARK SMILES IDX 4 1 5 2 6 3 7 4 8 5 3 6 2 7 1 8
REMARK H PARENT
REMARK Flexibility Score: inf
ROOT
ATOM      1  C   UNL     1       9.283   5.185  52.133  1.00  0.00     0.006 C 
ENDROOT
BRANCH   1   2
ATOM      2  C   UNL     1      10.765   5.531  52.332  1.00  0.00     0.053 C 
BRANCH   2   3
ATOM      3  C   UNL     1      11.662   4.522  51.681  1.00  0.00     0.041 C 
ATOM      4  O   UNL     1      12.625   4.900  50.964  1.00  0.00    -0.550 OA
ATOM      5  O   UNL     1      11.414   3.165  51.843  1.00  0.00    -0.550 OA
ENDBRANCH   2   3
ENDBRANCH   1   2
BRANCH   1   6
ATOM      6  C   UNL     1       8.582   4.850  53.457  1.00  0.00     0.000 C 
BRANCH   6   7
ATOM      7  C   UNL     1       7.275   4.087  53.209  1.00  0.00    -0.003 C 
ATOM      8  C   UNL     1       7.380   3.201  51.970  1.00  0.00     0.004 C 
ENDBRANCH   6   7
ENDBRANCH   1   6
TORSDOF 4
ENDMDL
