MODEL 1
REMARK VINA RESULT:     0.000      0.000      0.000
REMARK INTER + INTRA:          -3.346
REMARK INTER:                   0.000
REMARK INTRA:                  -3.346
REMARK UNBOUND:                -3.346
REMARK SMILES CCCCCCCCCCCCCC[C@@H](C)C(=O)[O-]
REMARK SMILES IDX 9 1 10 2 11 3 12 4 13 5 14 6 15 7 16 8 17 9 18 10 19 11 8 12
REMARK SMILES IDX 7 13 6 14 5 15 4 16 3 17 2 18 1 19
REMARK H PARENT
REMARK Flexibility Score: inf
ROOT
ATOM      1  C   UNL     1     180.199 189.289 191.851  1.00  0.00     0.000 C 
ENDROOT
BRANCH   1   2
ATOM      2  C   UNL     1     180.348 188.046 192.743  1.00  0.00     0.000 C 
BRANCH   2   3
ATOM      3  C   UNL     1     179.067 187.198 192.795  1.00  0.00     0.000 C 
BRANCH   3   4
ATOM      4  C   UNL     1     178.802 186.693 194.219  1.00  0.00     0.000 C 
BRANCH   4   5
ATOM      5  C   UNL     1     180.076 186.763 195.074  1.00  0.00     0.001 C 
BRANCH   5   6
ATOM      6  C   UNL     1     179.824 187.282 196.503  1.00  0.00     0.009 C 
BRANCH   6   7
ATOM      7  C   UNL     1     181.066 187.922 197.169  1.00  0.00     0.032 C 
ATOM      8  C   UNL     1     182.233 187.997 196.178  1.00  0.00     0.014 C 
BRANCH   7   9
ATOM      9  C   UNL     1     180.777 189.302 197.698  1.00  0.00     0.044 C 
ATOM     10  O   UNL     1     179.706 189.541 198.318  1.00  0.00    -0.550 OA
ATOM     11  O   UNL     1     181.682 190.332 197.472  1.00  0.00    -0.550 OA
ENDBRANCH   7   9
ENDBRANCH   6   7
ENDBRANCH   5   6
ENDBRANCH   4   5
ENDBRANCH   3   4
ENDBRANCH   2   3
ENDBRANCH   1   2
BRANCH   1  12
ATOM     12  C   UNL     1     180.470 190.597 192.613  1.00  0.00     0.000 C 
BRANCH  12  13
ATOM     13  C   UNL     1     180.387 190.428 194.140  1.00  0.00    -0.000 C 
BRANCH  13  14
ATOM     14  C   UNL     1     179.198 191.172 194.782  1.00  0.00    -0.000 C 
BRANCH  14  15
ATOM     15  C   UNL     1     178.076 190.210 195.213  1.00  0.00    -0.000 C 
BRANCH  15  16
ATOM     16  C   UNL     1     177.003 190.022 194.129  1.00  0.00    -0.000 C 
BRANCH  16  17
ATOM     17  C   UNL     1     176.814 191.277 193.260  1.00  0.00    -0.000 C 
BRANCH  17  18
ATOM     18  C   UNL     1     176.827 190.959 191.757  1.00  0.00    -0.003 C 
ATOM     19  C   UNL     1     176.478 189.502 191.456  1.00  0.00     0.004 C 
ENDBRANCH  17  18
ENDBRANCH  16  17
ENDBRANCH  15  16
ENDBRANCH  14  15
ENDBRANCH  13  14
ENDBRANCH  12  13
ENDBRANCH   1  12
TORSDOF 14
ENDMDL
MODEL 2
REMARK VINA RESULT:     0.002      7.165      9.326
REMARK INTER + INTRA:          -3.342
REMARK INTER:                   0.000
REMARK INTRA:                  -3.342
REMARK UNBOUND:                -3.346
REMARK SMILES CCCCCCCCCCCCCC[C@@H](C)C(=O)[O-]
REMARK SMILES IDX 9 1 10 2 11 3 12 4 13 5 14 6 15 7 16 8 17 9 18 10 19 11 8 12
REMARK SMILES IDX 7 13 6 14 5 15 4 16 3 17 2 18 1 19
REMARK H PARENT
REMARK Flexibility Score: inf
ROOT
ATOM      1  C   UNL     1     184.242 189.900 185.464  1.00  0.00     0.000 C 
ENDROOT
BRANCH   1   2
ATOM      2  C   UNL     1     184.016 190.352 186.916  1.00  0.00     0.000 C 
BRANCH   2   3
ATOM      3  C   UNL     1     183.644 189.187 187.847  1.00  0.00     0.000 C 
BRANCH   3   4
ATOM      4  C   UNL     1     182.472 189.569 188.760  1.00  0.00     0.000 C 
BRANCH   4   5
ATOM      5  C   UNL     1     182.428 191.086 188.995  1.00  0.00     0.001 C 
BRANCH   5   6
ATOM      6  C   UNL     1     181.001 191.668 188.958  1.00  0.00     0.009 C 
BRANCH   6   7
ATOM      7  C   UNL     1     180.938 193.156 188.539  1.00  0.00     0.032 C 
ATOM      8  C   UNL     1     182.316 193.649 188.081  1.00  0.00     0.014 C 
BRANCH   7   9
ATOM      9  C   UNL     1     179.938 193.394 187.439  1.00  0.00     0.044 C 
ATOM     10  O   UNL     1     180.206 194.170 186.483  1.00  0.00    -0.550 OA
ATOM     11  O   UNL     1     178.692 192.780 187.494  1.00  0.00    -0.550 OA
ENDBRANCH   7   9
ENDBRANCH   6   7
ENDBRANCH   5   6
ENDBRANCH   4   5
ENDBRANCH   3   4
ENDBRANCH   2   3
ENDBRANCH   1   2
BRANCH   1  12
ATOM     12  C   UNL     1     183.317 190.622 184.470  1.00  0.00     0.000 C 
BRANCH  12  13
ATOM     13  C   UNL     1     182.194 191.411 185.165  1.00  0.00    -0.000 C 
BRANCH  13  14
ATOM     14  C   UNL     1     180.776 190.932 184.787  1.00  0.00    -0.000 C 
BRANCH  14  15
ATOM     15  C   UNL     1     180.193 189.964 185.832  1.00  0.00    -0.000 C 
BRANCH  15  16
ATOM     16  C   UNL     1     180.036 188.533 185.296  1.00  0.00    -0.000 C 
BRANCH  16  17
ATOM     17  C   UNL     1     180.861 187.509 186.094  1.00  0.00    -0.000 C 
BRANCH  17  18
ATOM     18  C   UNL     1     182.034 186.937 185.283  1.00  0.00    -0.003 C 
ATOM     19  C   UNL     1     181.932 187.250 183.791  1.00  0.00     0.004 C 
ENDBRANCH  17  18
ENDBRANCH  16  17
ENDBRANCH  15  16
ENDBRANCH  14  15
ENDBRANCH  13  14
ENDBRANCH  12  13
ENDBRANCH   1  12
TORSDOF 14
ENDMDL
MODEL 3
REMARK VINA RESULT:     0.014      5.255      7.627
REMARK INTER + INTRA:          -3.320
REMARK INTER:                   0.000
REMARK INTRA:                  -3.320
REMARK UNBOUND:                -3.346
REMARK SMILES CCCCCCCCCCCCCC[C@@H](C)C(=O)[O-]
REMARK SMILES IDX 9 1 10 2 11 3 12 4 13 5 14 6 15 7 16 8 17 9 18 10 19 11 8 12
REMARK SMILES IDX 7 13 6 14 5 15 4 16 3 17 2 18 1 19
REMARK H PARENT
REMARK Flexibility Score: inf
ROOT
ATOM      1  C   UNL     1     178.263 187.885 187.125  1.00  0.00     0.000 C 
ENDROOT
BRANCH   1   2
ATOM      2  C   UNL     1     179.025 189.009 186.404  1.00  0.00     0.000 C 
BRANCH   2   3
ATOM      3  C   UNL     1     179.352 190.191 187.331  1.00  0.00     0.000 C 
BRANCH   3   4
ATOM      4  C   UNL     1     178.690 191.480 186.828  1.00  0.00     0.000 C 
BRANCH   4   5
ATOM      5  C   UNL     1     178.126 192.302 187.997  1.00  0.00     0.001 C 
BRANCH   5   6
ATOM      6  C   UNL     1     178.389 191.664 189.374  1.00  0.00     0.009 C 
BRANCH   6   7
ATOM      7  C   UNL     1     177.513 192.239 190.513  1.00  0.00     0.032 C 
ATOM      8  C   UNL     1     176.335 193.037 189.940  1.00  0.00     0.014 C 
BRANCH   7   9
ATOM      9  C   UNL     1     176.984 191.160 191.420  1.00  0.00     0.044 C 
ATOM     10  O   UNL     1     177.767 190.336 191.964  1.00  0.00    -0.550 OA
ATOM     11  O   UNL     1     175.615 191.047 191.635  1.00  0.00    -0.550 OA
ENDBRANCH   7   9
ENDBRANCH   6   7
ENDBRANCH   5   6
ENDBRANCH   4   5
ENDBRANCH   3   4
ENDBRANCH   2   3
ENDBRANCH   1   2
BRANCH   1  12
ATOM     12  C   UNL     1     178.274 188.050 188.654  1.00  0.00     0.000 C 
BRANCH  12  13
ATOM     13  C   UNL     1     176.862 188.180 189.251  1.00  0.00    -0.000 C 
BRANCH  13  14
ATOM     14  C   UNL     1     175.768 188.459 188.198  1.00  0.00    -0.000 C 
BRANCH  14  15
ATOM     15  C   UNL     1     175.246 189.905 188.275  1.00  0.00    -0.000 C 
BRANCH  15  16
ATOM     16  C   UNL     1     175.060 190.546 186.891  1.00  0.00    -0.000 C 
BRANCH  16  17
ATOM     17  C   UNL     1     175.229 189.535 185.744  1.00  0.00    -0.000 C 
BRANCH  17  18
ATOM     18  C   UNL     1     176.014 190.116 184.558  1.00  0.00    -0.003 C 
ATOM     19  C   UNL     1     175.857 191.631 184.428  1.00  0.00     0.004 C 
ENDBRANCH  17  18
ENDBRANCH  16  17
ENDBRANCH  15  16
ENDBRANCH  14  15
ENDBRANCH  13  14
ENDBRANCH  12  13
ENDBRANCH   1  12
TORSDOF 14
ENDMDL
MODEL 4
REMARK VINA RESULT:     0.018      4.820      7.130
REMARK INTER + INTRA:          -3.313
REMARK INTER:                   0.000
REMARK INTRA:                  -3.313
REMARK UNBOUND:                -3.346
REMARK SMILES CCCCCCCCCCCCCC[C@@H](C)C(=O)[O-]
REMARK SMILES IDX 9 1 10 2 11 3 12 4 13 5 14 6 15 7 16 8 17 9 18 10 19 11 8 12
REMARK SMILES IDX 7 13 6 14 5 15 4 16 3 17 2 18 1 19
REMARK H PARENT
REMARK Flexibility Score: inf
ROOT
ATOM      1  C   UNL     1     178.002 188.898 191.802  1.00  0.00     0.000 C 
ENDROOT
BRANCH   1   2
ATOM      2  C   UNL     1     177.641 188.168 193.106  1.00  0.00     0.000 C 
BRANCH   2   3
ATOM      3  C   UNL     1     176.535 187.119 192.910  1.00  0.00     0.000 C 
BRANCH   3   4
ATOM      4  C   UNL     1     176.307 186.836 191.420  1.00  0.00     0.000 C 
BRANCH   4   5
ATOM      5  C   UNL     1     176.739 185.407 191.058  1.00  0.00     0.001 C 
BRANCH   5   6
ATOM      6  C   UNL     1     177.535 185.325 189.741  1.00  0.00     0.009 C 
BRANCH   6   7
ATOM      7  C   UNL     1     177.436 186.597 188.864  1.00  0.00     0.032 C 
ATOM      8  C   UNL     1     178.819 186.998 188.336  1.00  0.00     0.014 C 
BRANCH   7   9
ATOM      9  C   UNL     1     176.497 186.413 187.702  1.00  0.00     0.044 C 
ATOM     10  O   UNL     1     175.613 185.515 187.726  1.00  0.00    -0.550 OA
ATOM     11  O   UNL     1     176.626 187.216 186.575  1.00  0.00    -0.550 OA
ENDBRANCH   7   9
ENDBRANCH   6   7
ENDBRANCH   5   6
ENDBRANCH   4   5
ENDBRANCH   3   4
ENDBRANCH   2   3
ENDBRANCH   1   2
BRANCH   1  12
ATOM     12  C   UNL     1     179.500 188.803 191.467  1.00  0.00     0.000 C 
BRANCH  12  13
ATOM     13  C   UNL     1     180.242 187.776 192.340  1.00  0.00    -0.000 C 
BRANCH  13  14
ATOM     14  C   UNL     1     180.548 186.450 191.612  1.00  0.00    -0.000 C 
BRANCH  14  15
ATOM     15  C   UNL     1     180.157 185.223 192.454  1.00  0.00    -0.000 C 
BRANCH  15  16
ATOM     16  C   UNL     1     180.224 185.491 193.965  1.00  0.00    -0.000 C 
BRANCH  16  17
ATOM     17  C   UNL     1     178.968 185.003 194.708  1.00  0.00    -0.000 C 
BRANCH  17  18
ATOM     18  C   UNL     1     178.302 183.805 194.013  1.00  0.00    -0.003 C 
ATOM     19  C   UNL     1     176.830 183.643 194.392  1.00  0.00     0.004 C 
ENDBRANCH  17  18
ENDBRANCH  16  17
ENDBRANCH  15  16
ENDBRANCH  14  15
ENDBRANCH  13  14
ENDBRANCH  12  13
ENDBRANCH   1  12
TORSDOF 14
ENDMDL
MODEL 5
REMARK VINA RESULT:     0.019      9.233     11.216
REMARK INTER + INTRA:          -3.312
REMARK INTER:                   0.000
REMARK INTRA:                  -3.312
REMARK UNBOUND:                -3.346
REMARK SMILES CCCCCCCCCCCCCC[C@@H](C)C(=O)[O-]
REMARK SMILES IDX 9 1 10 2 11 3 12 4 13 5 14 6 15 7 16 8 17 9 18 10 19 11 8 12
REMARK SMILES IDX 7 13 6 14 5 15 4 16 3 17 2 18 1 19
REMARK H PARENT
REMARK Flexibility Score: inf
ROOT
ATOM      1  C   UNL     1     185.864 185.818 190.782  1.00  0.00     0.000 C 
ENDROOT
BRANCH   1   2
ATOM      2  C   UNL     1     185.845 184.938 192.043  1.00  0.00     0.000 C 
BRANCH   2   3
ATOM      3  C   UNL     1     187.046 185.201 192.965  1.00  0.00     0.000 C 
BRANCH   3   4
ATOM      4  C   UNL     1     187.983 183.988 193.003  1.00  0.00     0.000 C 
BRANCH   4   5
ATOM      5  C   UNL     1     187.299 182.744 192.415  1.00  0.00     0.001 C 
BRANCH   5   6
ATOM      6  C   UNL     1     188.159 182.012 191.367  1.00  0.00     0.009 C 
BRANCH   6   7
ATOM      7  C   UNL     1     187.338 181.251 190.298  1.00  0.00     0.032 C 
ATOM      8  C   UNL     1     185.842 181.545 190.455  1.00  0.00     0.014 C 
BRANCH   7   9
ATOM      9  C   UNL     1     187.767 181.604 188.898  1.00  0.00     0.044 C 
ATOM     10  O   UNL     1     186.914 181.913 188.024  1.00  0.00    -0.550 OA
ATOM     11  O   UNL     1     189.112 181.554 188.554  1.00  0.00    -0.550 OA
ENDBRANCH   7   9
ENDBRANCH   6   7
ENDBRANCH   5   6
ENDBRANCH   4   5
ENDBRANCH   3   4
ENDBRANCH   2   3
ENDBRANCH   1   2
BRANCH   1  12
ATOM     12  C   UNL     1     186.462 185.092 189.565  1.00  0.00     0.000 C 
BRANCH  12  13
ATOM     13  C   UNL     1     187.755 185.750 189.054  1.00  0.00    -0.000 C 
BRANCH  13  14
ATOM     14  C   UNL     1     189.039 185.023 189.505  1.00  0.00    -0.000 C 
BRANCH  14  15
ATOM     15  C   UNL     1     189.874 185.872 190.482  1.00  0.00    -0.000 C 
BRANCH  15  16
ATOM     16  C   UNL     1     189.504 187.363 190.442  1.00  0.00    -0.000 C 
BRANCH  16  17
ATOM     17  C   UNL     1     189.223 187.940 191.839  1.00  0.00    -0.000 C 
BRANCH  17  18
ATOM     18  C   UNL     1     187.897 188.715 191.900  1.00  0.00    -0.003 C 
ATOM     19  C   UNL     1     187.427 189.194 190.528  1.00  0.00     0.004 C 
ENDBRANCH  17  18
ENDBRANCH  16  17
ENDBRANCH  15  16
ENDBRANCH  14  15
ENDBRANCH  13  14
ENDBRANCH  12  13
ENDBRANCH   1  12
TORSDOF 14
ENDMDL
MODEL 6
REMARK VINA RESULT:     0.021      4.256      6.791
REMARK INTER + INTRA:          -3.308
REMARK INTER:                   0.000
REMARK INTRA:                  -3.308
REMARK UNBOUND:                -3.346
REMARK SMILES CCCCCCCCCCCCCC[C@@H](C)C(=O)[O-]
REMARK SMILES IDX 9 1 10 2 11 3 12 4 13 5 14 6 15 7 16 8 17 9 18 10 19 11 8 12
REMARK SMILES IDX 7 13 6 14 5 15 4 16 3 17 2 18 1 19
REMARK H PARENT
REMARK Flexibility Score: inf
ROOT
ATOM      1  C   UNL     1     180.602 183.062 193.037  1.00  0.00     0.000 C 
ENDROOT
BRANCH   1   2
ATOM      2  C   UNL     1     180.220 184.551 193.082  1.00  0.00     0.000 C 
BRANCH   2   3
ATOM      3  C   UNL     1     180.249 185.212 191.695  1.00  0.00     0.000 C 
BRANCH   3   4
ATOM      4  C   UNL     1     179.053 186.154 191.512  1.00  0.00     0.000 C 
BRANCH   4   5
ATOM      5  C   UNL     1     178.480 186.586 192.870  1.00  0.00     0.001 C 
BRANCH   5   6
ATOM      6  C   UNL     1     176.956 186.389 192.980  1.00  0.00     0.009 C 
BRANCH   6   7
ATOM      7  C   UNL     1     176.439 186.268 194.434  1.00  0.00     0.032 C 
ATOM      8  C   UNL     1     177.602 186.346 195.430  1.00  0.00     0.014 C 
BRANCH   7   9
ATOM      9  C   UNL     1     175.430 187.335 194.767  1.00  0.00     0.044 C 
ATOM     10  O   UNL     1     175.494 188.471 194.225  1.00  0.00    -0.550 OA
ATOM     11  O   UNL     1     174.438 187.079 195.706  1.00  0.00    -0.550 OA
ENDBRANCH   7   9
ENDBRANCH   6   7
ENDBRANCH   5   6
ENDBRANCH   4   5
ENDBRANCH   3   4
ENDBRANCH   2   3
ENDBRANCH   1   2
BRANCH   1  12
ATOM     12  C   UNL     1     179.464 182.147 193.520  1.00  0.00     0.000 C 
BRANCH  12  13
ATOM     13  C   UNL     1     178.304 182.925 194.164  1.00  0.00    -0.000 C 
BRANCH  13  14
ATOM     14  C   UNL     1     176.942 182.684 193.481  1.00  0.00    -0.000 C 
BRANCH  14  15
ATOM     15  C   UNL     1     177.099 182.156 192.043  1.00  0.00    -0.000 C 
BRANCH  15  16
ATOM     16  C   UNL     1     176.806 183.227 190.981  1.00  0.00    -0.000 C 
BRANCH  16  17
ATOM     17  C   UNL     1     177.765 183.148 189.781  1.00  0.00    -0.000 C 
BRANCH  17  18
ATOM     18  C   UNL     1     178.749 181.972 189.891  1.00  0.00    -0.003 C 
ATOM     19  C   UNL     1     180.145 182.317 189.374  1.00  0.00     0.004 C 
ENDBRANCH  17  18
ENDBRANCH  16  17
ENDBRANCH  15  16
ENDBRANCH  14  15
ENDBRANCH  13  14
ENDBRANCH  12  13
ENDBRANCH   1  12
TORSDOF 14
ENDMDL
MODEL 7
REMARK VINA RESULT:     0.024      4.589      7.366
REMARK INTER + INTRA:          -3.302
REMARK INTER:                   0.000
REMARK INTRA:                  -3.302
REMARK UNBOUND:                -3.346
REMARK SMILES CCCCCCCCCCCCCC[C@@H](C)C(=O)[O-]
REMARK SMILES IDX 9 1 10 2 11 3 12 4 13 5 14 6 15 7 16 8 17 9 18 10 19 11 8 12
REMARK SMILES IDX 7 13 6 14 5 15 4 16 3 17 2 18 1 19
REMARK H PARENT
REMARK Flexibility Score: inf
ROOT
ATOM      1  C   UNL     1     178.159 186.182 192.260  1.00  0.00     0.000 C 
ENDROOT
BRANCH   1   2
ATOM      2  C   UNL     1     177.571 187.596 192.399  1.00  0.00     0.000 C 
BRANCH   2   3
ATOM      3  C   UNL     1     177.397 188.023 193.865  1.00  0.00     0.000 C 
BRANCH   3   4
ATOM      4  C   UNL     1     175.912 188.172 194.219  1.00  0.00     0.000 C 
BRANCH   4   5
ATOM      5  C   UNL     1     175.043 188.191 192.952  1.00  0.00     0.001 C 
BRANCH   5   6
ATOM      6  C   UNL     1     173.875 187.188 192.999  1.00  0.00     0.009 C 
BRANCH   6   7
ATOM      7  C   UNL     1     173.417 186.688 191.607  1.00  0.00     0.032 C 
ATOM      8  C   UNL     1     174.379 187.170 190.516  1.00  0.00     0.014 C 
BRANCH   7   9
ATOM      9  C   UNL     1     173.317 185.186 191.549  1.00  0.00     0.044 C 
ATOM     10  O   UNL     1     172.718 184.547 192.456  1.00  0.00    -0.550 OA
ATOM     11  O   UNL     1     173.919 184.493 190.507  1.00  0.00    -0.550 OA
ENDBRANCH   7   9
ENDBRANCH   6   7
ENDBRANCH   5   6
ENDBRANCH   4   5
ENDBRANCH   3   4
ENDBRANCH   2   3
ENDBRANCH   1   2
BRANCH   1  12
ATOM     12  C   UNL     1     177.080 185.116 192.008  1.00  0.00     0.000 C 
BRANCH  12  13
ATOM     13  C   UNL     1     176.989 184.079 193.140  1.00  0.00    -0.000 C 
BRANCH  13  14
ATOM     14  C   UNL     1     175.850 184.356 194.144  1.00  0.00    -0.000 C 
BRANCH  14  15
ATOM     15  C   UNL     1     176.384 184.765 195.529  1.00  0.00    -0.000 C 
BRANCH  15  16
ATOM     16  C   UNL     1     177.865 184.405 195.727  1.00  0.00    -0.000 C 
BRANCH  16  17
ATOM     17  C   UNL     1     178.700 185.594 196.231  1.00  0.00    -0.000 C 
BRANCH  17  18
ATOM     18  C   UNL     1     180.039 185.730 195.489  1.00  0.00    -0.003 C 
ATOM     19  C   UNL     1     180.395 184.486 194.677  1.00  0.00     0.004 C 
ENDBRANCH  17  18
ENDBRANCH  16  17
ENDBRANCH  15  16
ENDBRANCH  14  15
ENDBRANCH  13  14
ENDBRANCH  12  13
ENDBRANCH   1  12
TORSDOF 14
ENDMDL
MODEL 8
REMARK VINA RESULT:     0.026      7.458      9.606
REMARK INTER + INTRA:          -3.298
REMARK INTER:                   0.000
REMARK INTRA:                  -3.298
REMARK UNBOUND:                -3.346
REMARK SMILES CCCCCCCCCCCCCC[C@@H](C)C(=O)[O-]
REMARK SMILES IDX 9 1 10 2 11 3 12 4 13 5 14 6 15 7 16 8 17 9 18 10 19 11 8 12
REMARK SMILES IDX 7 13 6 14 5 15 4 16 3 17 2 18 1 19
REMARK H PARENT
REMARK Flexibility Score: inf
ROOT
ATOM      1  C   UNL     1     184.139 190.594 188.631  1.00  0.00     0.000 C 
ENDROOT
BRANCH   1   2
ATOM      2  C   UNL     1     184.348 189.852 189.962  1.00  0.00     0.000 C 
BRANCH   2   3
ATOM      3  C   UNL     1     185.832 189.700 190.328  1.00  0.00     0.000 C 
BRANCH   3   4
ATOM      4  C   UNL     1     186.715 190.535 189.392  1.00  0.00     0.000 C 
BRANCH   4   5
ATOM      5  C   UNL     1     187.434 191.652 190.163  1.00  0.00     0.001 C 
BRANCH   5   6
ATOM      6  C   UNL     1     186.900 193.060 189.837  1.00  0.00     0.009 C 
BRANCH   6   7
ATOM      7  C   UNL     1     186.694 193.322 188.325  1.00  0.00     0.032 C 
ATOM      8  C   UNL     1     185.782 194.534 188.105  1.00  0.00     0.014 C 
BRANCH   7   9
ATOM      9  C   UNL     1     187.998 193.547 187.607  1.00  0.00     0.044 C 
ATOM     10  O   UNL     1     188.607 194.645 187.711  1.00  0.00    -0.550 OA
ATOM     11  O   UNL     1     188.520 192.550 186.792  1.00  0.00    -0.550 OA
ENDBRANCH   7   9
ENDBRANCH   6   7
ENDBRANCH   5   6
ENDBRANCH   4   5
ENDBRANCH   3   4
ENDBRANCH   2   3
ENDBRANCH   1   2
BRANCH   1  12
ATOM     12  C   UNL     1     183.246 191.837 188.782  1.00  0.00     0.000 C 
BRANCH  12  13
ATOM     13  C   UNL     1     182.930 192.170 190.250  1.00  0.00    -0.000 C 
BRANCH  13  14
ATOM     14  C   UNL     1     183.223 193.636 190.629  1.00  0.00    -0.000 C 
BRANCH  14  15
ATOM     15  C   UNL     1     184.018 193.748 191.943  1.00  0.00    -0.000 C 
BRANCH  15  16
ATOM     16  C   UNL     1     184.225 192.390 192.631  1.00  0.00    -0.000 C 
BRANCH  16  17
ATOM     17  C   UNL     1     185.603 192.272 193.304  1.00  0.00    -0.000 C 
BRANCH  17  18
ATOM     18  C   UNL     1     185.875 190.859 193.845  1.00  0.00    -0.003 C 
ATOM     19  C   UNL     1     187.337 190.441 193.703  1.00  0.00     0.004 C 
ENDBRANCH  17  18
ENDBRANCH  16  17
ENDBRANCH  15  16
ENDBRANCH  14  15
ENDBRANCH  13  14
ENDBRANCH  12  13
ENDBRANCH   1  12
TORSDOF 14
ENDMDL
MODEL 9
REMARK VINA RESULT:     0.032      9.267     11.746
REMARK INTER + INTRA:          -3.287
REMARK INTER:                   0.000
REMARK INTRA:                  -3.287
REMARK UNBOUND:                -3.346
REMARK SMILES CCCCCCCCCCCCCC[C@@H](C)C(=O)[O-]
REMARK SMILES IDX 9 1 10 2 11 3 12 4 13 5 14 6 15 7 16 8 17 9 18 10 19 11 8 12
REMARK SMILES IDX 7 13 6 14 5 15 4 16 3 17 2 18 1 19
REMARK H PARENT
REMARK Flexibility Score: inf
ROOT
ATOM      1  C   UNL     1     184.159 182.884 184.483  1.00  0.00     0.000 C 
ENDROOT
BRANCH   1   2
ATOM      2  C   UNL     1     184.564 183.056 185.956  1.00  0.00     0.000 C 
BRANCH   2   3
ATOM      3  C   UNL     1     185.236 184.411 186.231  1.00  0.00     0.000 C 
BRANCH   3   4
ATOM      4  C   UNL     1     184.623 185.513 185.357  1.00  0.00     0.000 C 
BRANCH   4   5
ATOM      5  C   UNL     1     183.437 186.183 186.066  1.00  0.00     0.001 C 
BRANCH   5   6
ATOM      6  C   UNL     1     182.273 186.527 185.115  1.00  0.00     0.009 C 
BRANCH   6   7
ATOM      7  C   UNL     1     182.605 186.333 183.616  1.00  0.00     0.032 C 
ATOM      8  C   UNL     1     181.486 185.560 182.910  1.00  0.00     0.014 C 
BRANCH   7   9
ATOM      9  C   UNL     1     182.822 187.645 182.910  1.00  0.00     0.044 C 
ATOM     10  O   UNL     1     182.038 188.020 181.997  1.00  0.00    -0.550 OA
ATOM     11  O   UNL     1     183.915 188.437 183.241  1.00  0.00    -0.550 OA
ENDBRANCH   7   9
ENDBRANCH   6   7
ENDBRANCH   5   6
ENDBRANCH   4   5
ENDBRANCH   3   4
ENDBRANCH   2   3
ENDBRANCH   1   2
BRANCH   1  12
ATOM     12  C   UNL     1     182.718 182.374 184.322  1.00  0.00     0.000 C 
BRANCH  12  13
ATOM     13  C   UNL     1     181.957 182.302 185.658  1.00  0.00    -0.000 C 
BRANCH  13  14
ATOM     14  C   UNL     1     180.705 183.202 185.706  1.00  0.00    -0.000 C 
BRANCH  14  15
ATOM     15  C   UNL     1     180.547 183.904 187.067  1.00  0.00    -0.000 C 
BRANCH  15  16
ATOM     16  C   UNL     1     181.538 183.388 188.122  1.00  0.00    -0.000 C 
BRANCH  16  17
ATOM     17  C   UNL     1     182.056 184.505 189.044  1.00  0.00    -0.000 C 
BRANCH  17  18
ATOM     18  C   UNL     1     183.511 184.279 189.482  1.00  0.00    -0.003 C 
ATOM     19  C   UNL     1     184.283 185.583 189.670  1.00  0.00     0.004 C 
ENDBRANCH  17  18
ENDBRANCH  16  17
ENDBRANCH  15  16
ENDBRANCH  14  15
ENDBRANCH  13  14
ENDBRANCH  12  13
ENDBRANCH   1  12
TORSDOF 14
ENDMDL
