MODEL 1
REMARK VINA RESULT:    -3.528      0.000      0.000
REMARK INTER + INTRA:          -5.236
REMARK INTER:                  -4.765
REMARK INTRA:                  -0.471
REMARK UNBOUND:                -0.471
REMARK SMILES CCCCCCCC(=O)[O-]
REMARK SMILES IDX 5 1 6 2 7 3 8 4 9 5 10 6 4 7 3 8 2 9 1 10
REMARK H PARENT
REMARK Flexibility Score: inf
ROOT
ATOM      1  C   UNL     1      51.974  25.560  33.879  1.00  0.00     0.000 C 
ENDROOT
BRANCH   1   2
ATOM      2  C   UNL     1      50.811  25.925  32.937  1.00  0.00     0.006 C 
BRANCH   2   3
ATOM      3  C   UNL     1      49.660  26.683  33.616  1.00  0.00     0.053 C 
BRANCH   3   4
ATOM      4  C   UNL     1      49.199  26.001  34.868  1.00  0.00     0.041 C 
ATOM      5  O   UNL     1      48.595  24.898  34.803  1.00  0.00    -0.550 OA
ATOM      6  O   UNL     1      49.465  26.567  36.108  1.00  0.00    -0.550 OA
ENDBRANCH   3   4
ENDBRANCH   2   3
ENDBRANCH   1   2
BRANCH   1   7
ATOM      7  C   UNL     1      53.023  26.678  33.994  1.00  0.00     0.000 C 
BRANCH   7   8
ATOM      8  C   UNL     1      52.927  27.381  35.355  1.00  0.00    -0.000 C 
BRANCH   8   9
ATOM      9  C   UNL     1      52.373  28.810  35.244  1.00  0.00    -0.003 C 
ATOM     10  C   UNL     1      52.963  29.758  36.288  1.00  0.00     0.004 C 
ENDBRANCH   8   9
ENDBRANCH   7   8
ENDBRANCH   1   7
TORSDOF 6
ENDMDL
MODEL 2
REMARK VINA RESULT:    -3.519      2.822      4.944
REMARK INTER + INTRA:          -5.224
REMARK INTER:                  -4.667
REMARK INTRA:                  -0.557
REMARK UNBOUND:                -0.471
REMARK SMILES CCCCCCCC(=O)[O-]
REMARK SMILES IDX 5 1 6 2 7 3 8 4 9 5 10 6 4 7 3 8 2 9 1 10
REMARK H PARENT
REMARK Flexibility Score: inf
ROOT
ATOM      1  C   UNL     1      50.701  24.406  35.917  1.00  0.00     0.000 C 
ENDROOT
BRANCH   1   2
ATOM      2  C   UNL     1      49.571  25.436  35.726  1.00  0.00     0.006 C 
BRANCH   2   3
ATOM      3  C   UNL     1      49.900  26.557  34.728  1.00  0.00     0.053 C 
BRANCH   3   4
ATOM      4  C   UNL     1      49.847  26.080  33.308  1.00  0.00     0.041 C 
ATOM      5  O   UNL     1      48.744  26.007  32.705  1.00  0.00    -0.550 OA
ATOM      6  O   UNL     1      51.019  25.747  32.642  1.00  0.00    -0.550 OA
ENDBRANCH   3   4
ENDBRANCH   2   3
ENDBRANCH   1   2
BRANCH   1   7
ATOM      7  C   UNL     1      50.364  23.033  35.314  1.00  0.00     0.000 C 
BRANCH   7   8
ATOM      8  C   UNL     1      48.845  22.847  35.190  1.00  0.00    -0.000 C 
BRANCH   8   9
ATOM      9  C   UNL     1      48.394  22.621  33.739  1.00  0.00    -0.003 C 
ATOM     10  C   UNL     1      46.992  23.164  33.462  1.00  0.00     0.004 C 
ENDBRANCH   8   9
ENDBRANCH   7   8
ENDBRANCH   1   7
TORSDOF 6
ENDMDL
MODEL 3
REMARK VINA RESULT:    -3.486      2.092      3.391
REMARK INTER + INTRA:          -5.179
REMARK INTER:                  -4.718
REMARK INTRA:                  -0.462
REMARK UNBOUND:                -0.471
REMARK SMILES CCCCCCCC(=O)[O-]
REMARK SMILES IDX 5 1 6 2 7 3 8 4 9 5 10 6 4 7 3 8 2 9 1 10
REMARK H PARENT
REMARK Flexibility Score: inf
ROOT
ATOM      1  C   UNL     1      49.958  24.791  36.129  1.00  0.00     0.000 C 
ENDROOT
BRANCH   1   2
ATOM      2  C   UNL     1      49.943  23.889  34.880  1.00  0.00     0.006 C 
BRANCH   2   3
ATOM      3  C   UNL     1      48.687  23.013  34.747  1.00  0.00     0.053 C 
BRANCH   3   4
ATOM      4  C   UNL     1      47.666  23.630  33.841  1.00  0.00     0.041 C 
ATOM      5  O   UNL     1      48.007  24.509  33.007  1.00  0.00    -0.550 OA
ATOM      6  O   UNL     1      46.344  23.209  33.895  1.00  0.00    -0.550 OA
ENDBRANCH   3   4
ENDBRANCH   2   3
ENDBRANCH   1   2
BRANCH   1   7
ATOM      7  C   UNL     1      49.557  26.243  35.820  1.00  0.00     0.000 C 
BRANCH   7   8
ATOM      8  C   UNL     1      50.216  26.728  34.521  1.00  0.00    -0.000 C 
BRANCH   8   9
ATOM      9  C   UNL     1      51.608  27.336  34.755  1.00  0.00    -0.003 C 
ATOM     10  C   UNL     1      52.691  26.685  33.897  1.00  0.00     0.004 C 
ENDBRANCH   8   9
ENDBRANCH   7   8
ENDBRANCH   1   7
TORSDOF 6
ENDMDL
MODEL 4
REMARK VINA RESULT:    -3.484      1.382      1.701
REMARK INTER + INTRA:          -5.177
REMARK INTER:                  -4.724
REMARK INTRA:                  -0.452
REMARK UNBOUND:                -0.471
REMARK SMILES CCCCCCCC(=O)[O-]
REMARK SMILES IDX 5 1 6 2 7 3 8 4 9 5 10 6 4 7 3 8 2 9 1 10
REMARK H PARENT
REMARK Flexibility Score: inf
ROOT
ATOM      1  C   UNL     1      50.929  25.856  32.944  1.00  0.00     0.000 C 
ENDROOT
BRANCH   1   2
ATOM      2  C   UNL     1      49.578  26.300  33.535  1.00  0.00     0.006 C 
BRANCH   2   3
ATOM      3  C   UNL     1      48.673  25.143  33.988  1.00  0.00     0.053 C 
BRANCH   3   4
ATOM      4  C   UNL     1      49.348  24.262  34.995  1.00  0.00     0.041 C 
ATOM      5  O   UNL     1      49.581  23.054  34.725  1.00  0.00    -0.550 OA
ATOM      6  O   UNL     1      49.750  24.784  36.217  1.00  0.00    -0.550 OA
ENDBRANCH   3   4
ENDBRANCH   2   3
ENDBRANCH   1   2
BRANCH   1   7
ATOM      7  C   UNL     1      52.132  26.384  33.742  1.00  0.00     0.000 C 
BRANCH   7   8
ATOM      8  C   UNL     1      51.683  27.408  34.794  1.00  0.00    -0.000 C 
BRANCH   8   9
ATOM      9  C   UNL     1      52.697  28.549  34.978  1.00  0.00    -0.003 C 
ATOM     10  C   UNL     1      53.940  28.384  34.103  1.00  0.00     0.004 C 
ENDBRANCH   8   9
ENDBRANCH   7   8
ENDBRANCH   1   7
TORSDOF 6
ENDMDL
MODEL 5
REMARK VINA RESULT:    -3.465      2.717      4.907
REMARK INTER + INTRA:          -5.151
REMARK INTER:                  -4.843
REMARK INTRA:                  -0.308
REMARK UNBOUND:                -0.471
REMARK SMILES CCCCCCCC(=O)[O-]
REMARK SMILES IDX 5 1 6 2 7 3 8 4 9 5 10 6 4 7 3 8 2 9 1 10
REMARK H PARENT
REMARK Flexibility Score: inf
ROOT
ATOM      1  C   UNL     1      50.883  25.983  33.297  1.00  0.00     0.000 C 
ENDROOT
BRANCH   1   2
ATOM      2  C   UNL     1      52.142  26.538  33.990  1.00  0.00     0.006 C 
BRANCH   2   3
ATOM      3  C   UNL     1      51.880  27.741  34.909  1.00  0.00     0.053 C 
BRANCH   3   4
ATOM      4  C   UNL     1      52.915  28.812  34.743  1.00  0.00     0.041 C 
ATOM      5  O   UNL     1      53.934  28.603  34.033  1.00  0.00    -0.550 OA
ATOM      6  O   UNL     1      52.738  30.051  35.344  1.00  0.00    -0.550 OA
ENDBRANCH   3   4
ENDBRANCH   2   3
ENDBRANCH   1   2
BRANCH   1   7
ATOM      7  C   UNL     1      49.596  26.698  33.738  1.00  0.00     0.000 C 
BRANCH   7   8
ATOM      8  C   UNL     1      48.716  25.768  34.586  1.00  0.00    -0.000 C 
BRANCH   8   9
ATOM      9  C   UNL     1      48.827  24.296  34.156  1.00  0.00    -0.003 C 
ATOM     10  C   UNL     1      47.483  23.698  33.740  1.00  0.00     0.004 C 
ENDBRANCH   8   9
ENDBRANCH   7   8
ENDBRANCH   1   7
TORSDOF 6
ENDMDL
MODEL 6
REMARK VINA RESULT:    -3.454      1.634      1.977
REMARK INTER + INTRA:          -5.136
REMARK INTER:                  -4.678
REMARK INTRA:                  -0.458
REMARK UNBOUND:                -0.471
REMARK SMILES CCCCCCCC(=O)[O-]
REMARK SMILES IDX 5 1 6 2 7 3 8 4 9 5 10 6 4 7 3 8 2 9 1 10
REMARK H PARENT
REMARK Flexibility Score: inf
ROOT
ATOM      1  C   UNL     1      52.477  26.512  35.389  1.00  0.00     0.000 C 
ENDROOT
BRANCH   1   2
ATOM      2  C   UNL     1      50.956  26.284  35.304  1.00  0.00     0.006 C 
BRANCH   2   3
ATOM      3  C   UNL     1      50.296  26.879  34.050  1.00  0.00     0.053 C 
BRANCH   3   4
ATOM      4  C   UNL     1      49.833  25.816  33.100  1.00  0.00     0.041 C 
ATOM      5  O   UNL     1      48.610  25.703  32.825  1.00  0.00    -0.550 OA
ATOM      6  O   UNL     1      50.756  24.974  32.495  1.00  0.00    -0.550 OA
ENDBRANCH   3   4
ENDBRANCH   2   3
ENDBRANCH   1   2
BRANCH   1   7
ATOM      7  C   UNL     1      53.048  27.201  34.139  1.00  0.00     0.000 C 
BRANCH   7   8
ATOM      8  C   UNL     1      53.738  28.522  34.510  1.00  0.00    -0.000 C 
BRANCH   8   9
ATOM      9  C   UNL     1      52.751  29.577  35.033  1.00  0.00    -0.003 C 
ATOM     10  C   UNL     1      53.119  30.095  36.424  1.00  0.00     0.004 C 
ENDBRANCH   8   9
ENDBRANCH   7   8
ENDBRANCH   1   7
TORSDOF 6
ENDMDL
MODEL 7
REMARK VINA RESULT:    -3.424      1.369      2.038
REMARK INTER + INTRA:          -5.096
REMARK INTER:                  -4.428
REMARK INTRA:                  -0.668
REMARK UNBOUND:                -0.471
REMARK SMILES CCCCCCCC(=O)[O-]
REMARK SMILES IDX 5 1 6 2 7 3 8 4 9 5 10 6 4 7 3 8 2 9 1 10
REMARK H PARENT
REMARK Flexibility Score: inf
ROOT
ATOM      1  C   UNL     1      51.163  24.955  32.978  1.00  0.00     0.000 C 
ENDROOT
BRANCH   1   2
ATOM      2  C   UNL     1      50.227  26.167  33.144  1.00  0.00     0.006 C 
BRANCH   2   3
ATOM      3  C   UNL     1      49.033  25.922  34.080  1.00  0.00     0.053 C 
BRANCH   3   4
ATOM      4  C   UNL     1      49.455  25.816  35.514  1.00  0.00     0.041 C 
ATOM      5  O   UNL     1      49.603  26.856  36.209  1.00  0.00    -0.550 OA
ATOM      6  O   UNL     1      49.654  24.569  36.091  1.00  0.00    -0.550 OA
ENDBRANCH   3   4
ENDBRANCH   2   3
ENDBRANCH   1   2
BRANCH   1   7
ATOM      7  C   UNL     1      52.577  25.214  33.522  1.00  0.00     0.000 C 
BRANCH   7   8
ATOM      8  C   UNL     1      52.763  26.696  33.880  1.00  0.00    -0.000 C 
BRANCH   8   9
ATOM      9  C   UNL     1      53.050  26.911  35.374  1.00  0.00    -0.003 C 
ATOM     10  C   UNL     1      53.180  25.599  36.148  1.00  0.00     0.004 C 
ENDBRANCH   8   9
ENDBRANCH   7   8
ENDBRANCH   1   7
TORSDOF 6
ENDMDL
MODEL 8
REMARK VINA RESULT:    -3.386      2.753      4.398
REMARK INTER + INTRA:          -5.045
REMARK INTER:                  -4.452
REMARK INTRA:                  -0.593
REMARK UNBOUND:                -0.471
REMARK SMILES CCCCCCCC(=O)[O-]
REMARK SMILES IDX 5 1 6 2 7 3 8 4 9 5 10 6 4 7 3 8 2 9 1 10
REMARK H PARENT
REMARK Flexibility Score: inf
ROOT
ATOM      1  C   UNL     1      48.909  25.798  34.406  1.00  0.00     0.000 C 
ENDROOT
BRANCH   1   2
ATOM      2  C   UNL     1      49.771  26.607  33.418  1.00  0.00     0.006 C 
BRANCH   2   3
ATOM      3  C   UNL     1      50.912  25.806  32.771  1.00  0.00     0.053 C 
BRANCH   3   4
ATOM      4  C   UNL     1      52.208  25.982  33.503  1.00  0.00     0.041 C 
ATOM      5  O   UNL     1      52.482  27.083  34.050  1.00  0.00    -0.550 OA
ATOM      6  O   UNL     1      53.098  24.922  33.607  1.00  0.00    -0.550 OA
ENDBRANCH   3   4
ENDBRANCH   2   3
ENDBRANCH   1   2
BRANCH   1   7
ATOM      7  C   UNL     1      49.406  25.903  35.857  1.00  0.00     0.000 C 
BRANCH   7   8
ATOM      8  C   UNL     1      50.269  24.689  36.229  1.00  0.00    -0.000 C 
BRANCH   8   9
ATOM      9  C   UNL     1      49.880  23.426  35.445  1.00  0.00    -0.003 C 
ATOM     10  C   UNL     1      51.054  22.468  35.244  1.00  0.00     0.004 C 
ENDBRANCH   8   9
ENDBRANCH   7   8
ENDBRANCH   1   7
TORSDOF 6
ENDMDL
MODEL 9
REMARK VINA RESULT:    -3.353      2.165      4.828
REMARK INTER + INTRA:          -4.999
REMARK INTER:                  -4.536
REMARK INTRA:                  -0.464
REMARK UNBOUND:                -0.471
REMARK SMILES CCCCCCCC(=O)[O-]
REMARK SMILES IDX 5 1 6 2 7 3 8 4 9 5 10 6 4 7 3 8 2 9 1 10
REMARK H PARENT
REMARK Flexibility Score: inf
ROOT
ATOM      1  C   UNL     1      49.516  26.499  33.734  1.00  0.00     0.000 C 
ENDROOT
BRANCH   1   2
ATOM      2  C   UNL     1      50.773  25.809  33.172  1.00  0.00     0.006 C 
BRANCH   2   3
ATOM      3  C   UNL     1      52.099  26.447  33.619  1.00  0.00     0.053 C 
BRANCH   3   4
ATOM      4  C   UNL     1      52.113  26.742  35.088  1.00  0.00     0.041 C 
ATOM      5  O   UNL     1      52.182  27.932  35.494  1.00  0.00    -0.550 OA
ATOM      6  O   UNL     1      52.017  25.706  36.007  1.00  0.00    -0.550 OA
ENDBRANCH   3   4
ENDBRANCH   2   3
ENDBRANCH   1   2
BRANCH   1   7
ATOM      7  C   UNL     1      48.605  25.536  34.512  1.00  0.00     0.000 C 
BRANCH   7   8
ATOM      8  C   UNL     1      49.223  24.133  34.580  1.00  0.00    -0.000 C 
BRANCH   8   9
ATOM      9  C   UNL     1      48.183  23.019  34.379  1.00  0.00    -0.003 C 
ATOM     10  C   UNL     1      47.095  23.399  33.375  1.00  0.00     0.004 C 
ENDBRANCH   8   9
ENDBRANCH   7   8
ENDBRANCH   1   7
TORSDOF 6
ENDMDL
