MODEL 1
REMARK VINA RESULT:    -3.741      0.000      0.000
REMARK INTER + INTRA:          -8.904
REMARK INTER:                  -6.802
REMARK INTRA:                  -2.102
REMARK UNBOUND:                -2.102
REMARK SMILES CCCCCCCCCCCCCCCC(=O)[O-]
REMARK SMILES IDX 9 1 10 2 11 3 12 4 13 5 14 6 15 7 16 8 17 9 18 10 8 11 7 12
REMARK SMILES IDX 6 13 5 14 4 15 3 16 2 17 1 18
REMARK H PARENT
REMARK Flexibility Score: inf
ROOT
ATOM      1  C   UNL     1      10.242  16.694  11.994  1.00  0.00     0.000 C 
ENDROOT
BRANCH   1   2
ATOM      2  C   UNL     1      10.622  17.196  13.400  1.00  0.00     0.000 C 
BRANCH   2   3
ATOM      3  C   UNL     1      10.493  18.723  13.545  1.00  0.00     0.000 C 
BRANCH   3   4
ATOM      4  C   UNL     1      11.655  19.399  14.296  1.00  0.00     0.000 C 
BRANCH   4   5
ATOM      5  C   UNL     1      12.732  18.400  14.753  1.00  0.00     0.000 C 
BRANCH   5   6
ATOM      6  C   UNL     1      12.867  18.318  16.284  1.00  0.00     0.006 C 
BRANCH   6   7
ATOM      7  C   UNL     1      11.577  17.881  16.999  1.00  0.00     0.053 C 
BRANCH   7   8
ATOM      8  C   UNL     1      11.382  16.395  16.978  1.00  0.00     0.041 C 
ATOM      9  O   UNL     1      10.241  15.909  16.763  1.00  0.00    -0.550 OA
ATOM     10  O   UNL     1      12.455  15.548  17.225  1.00  0.00    -0.550 OA
ENDBRANCH   7   8
ENDBRANCH   6   7
ENDBRANCH   5   6
ENDBRANCH   4   5
ENDBRANCH   3   4
ENDBRANCH   2   3
ENDBRANCH   1   2
BRANCH   1  11
ATOM     11  C   UNL     1       8.835  16.080  11.950  1.00  0.00     0.000 C 
BRANCH  11  12
ATOM     12  C   UNL     1       8.220  16.118  10.541  1.00  0.00    -0.000 C 
BRANCH  12  13
ATOM     13  C   UNL     1       7.135  17.200  10.389  1.00  0.00    -0.000 C 
BRANCH  13  14
ATOM     14  C   UNL     1       6.905  18.072  11.637  1.00  0.00    -0.000 C 
BRANCH  14  15
ATOM     15  C   UNL     1       7.471  19.495  11.486  1.00  0.00    -0.000 C 
BRANCH  15  16
ATOM     16  C   UNL     1       8.069  19.746  10.092  1.00  0.00    -0.000 C 
BRANCH  16  17
ATOM     17  C   UNL     1       9.600  19.867  10.118  1.00  0.00    -0.003 C 
ATOM     18  C   UNL     1      10.240  18.959   9.071  1.00  0.00     0.004 C 
ENDBRANCH  16  17
ENDBRANCH  15  16
ENDBRANCH  14  15
ENDBRANCH  13  14
ENDBRANCH  12  13
ENDBRANCH  11  12
ENDBRANCH   1  11
TORSDOF 14
ENDMDL
MODEL 2
REMARK VINA RESULT:    -3.694      2.452      3.567
REMARK INTER + INTRA:          -8.819
REMARK INTER:                  -7.488
REMARK INTRA:                  -1.331
REMARK UNBOUND:                -2.102
REMARK SMILES CCCCCCCCCCCCCCCC(=O)[O-]
REMARK SMILES IDX 9 1 10 2 11 3 12 4 13 5 14 6 15 7 16 8 17 9 18 10 8 11 7 12
REMARK SMILES IDX 6 13 5 14 4 15 3 16 2 17 1 18
REMARK H PARENT
REMARK Flexibility Score: inf
ROOT
ATOM      1  C   UNL     1      11.020  18.019  14.297  1.00  0.00     0.000 C 
ENDROOT
BRANCH   1   2
ATOM      2  C   UNL     1      10.957  16.640  14.979  1.00  0.00     0.000 C 
BRANCH   2   3
ATOM      3  C   UNL     1      11.126  16.721  16.508  1.00  0.00     0.000 C 
BRANCH   3   4
ATOM      4  C   UNL     1      12.047  15.645  17.112  1.00  0.00     0.000 C 
BRANCH   4   5
ATOM      5  C   UNL     1      13.435  16.190  17.490  1.00  0.00     0.000 C 
BRANCH   5   6
ATOM      6  C   UNL     1      14.436  16.151  16.321  1.00  0.00     0.006 C 
BRANCH   6   7
ATOM      7  C   UNL     1      14.954  17.537  15.900  1.00  0.00     0.053 C 
BRANCH   7   8
ATOM      8  C   UNL     1      16.385  17.508  15.458  1.00  0.00     0.041 C 
ATOM      9  O   UNL     1      16.671  17.580  14.233  1.00  0.00    -0.550 OA
ATOM     10  O   UNL     1      17.403  17.372  16.394  1.00  0.00    -0.550 OA
ENDBRANCH   7   8
ENDBRANCH   6   7
ENDBRANCH   5   6
ENDBRANCH   4   5
ENDBRANCH   3   4
ENDBRANCH   2   3
ENDBRANCH   1   2
BRANCH   1  11
ATOM     11  C   UNL     1      10.365  18.017  12.907  1.00  0.00     0.000 C 
BRANCH  11  12
ATOM     12  C   UNL     1      10.326  16.614  12.277  1.00  0.00    -0.000 C 
BRANCH  12  13
ATOM     13  C   UNL     1       8.910  16.188  11.851  1.00  0.00    -0.000 C 
BRANCH  13  14
ATOM     14  C   UNL     1       8.666  16.168  10.330  1.00  0.00    -0.000 C 
BRANCH  14  15
ATOM     15  C   UNL     1       7.726  17.293   9.861  1.00  0.00    -0.000 C 
BRANCH  15  16
ATOM     16  C   UNL     1       8.456  18.634   9.682  1.00  0.00    -0.000 C 
BRANCH  16  17
ATOM     17  C   UNL     1       9.808  18.482   8.969  1.00  0.00    -0.003 C 
ATOM     18  C   UNL     1      10.837  19.460   9.530  1.00  0.00     0.004 C 
ENDBRANCH  16  17
ENDBRANCH  15  16
ENDBRANCH  14  15
ENDBRANCH  13  14
ENDBRANCH  12  13
ENDBRANCH  11  12
ENDBRANCH   1  11
TORSDOF 14
ENDMDL
MODEL 3
REMARK VINA RESULT:    -3.638      2.633      4.642
REMARK INTER + INTRA:          -8.717
REMARK INTER:                  -7.322
REMARK INTRA:                  -1.395
REMARK UNBOUND:                -2.102
REMARK SMILES CCCCCCCCCCCCCCCC(=O)[O-]
REMARK SMILES IDX 9 1 10 2 11 3 12 4 13 5 14 6 15 7 16 8 17 9 18 10 8 11 7 12
REMARK SMILES IDX 6 13 5 14 4 15 3 16 2 17 1 18
REMARK H PARENT
REMARK Flexibility Score: inf
ROOT
ATOM      1  C   UNL     1      11.669  18.077  16.697  1.00  0.00     0.000 C 
ENDROOT
BRANCH   1   2
ATOM      2  C   UNL     1      11.385  16.565  16.757  1.00  0.00     0.000 C 
BRANCH   2   3
ATOM      3  C   UNL     1      12.567  15.757  17.323  1.00  0.00     0.000 C 
BRANCH   3   4
ATOM      4  C   UNL     1      13.907  16.514  17.358  1.00  0.00     0.000 C 
BRANCH   4   5
ATOM      5  C   UNL     1      14.749  16.297  16.088  1.00  0.00     0.000 C 
BRANCH   5   6
ATOM      6  C   UNL     1      15.304  17.608  15.502  1.00  0.00     0.006 C 
BRANCH   6   7
ATOM      7  C   UNL     1      15.630  18.674  16.563  1.00  0.00     0.053 C 
BRANCH   7   8
ATOM      8  C   UNL     1      16.977  18.474  17.186  1.00  0.00     0.041 C 
ATOM      9  O   UNL     1      18.005  18.403  16.462  1.00  0.00    -0.550 OA
ATOM     10  O   UNL     1      17.097  18.339  18.564  1.00  0.00    -0.550 OA
ENDBRANCH   7   8
ENDBRANCH   6   7
ENDBRANCH   5   6
ENDBRANCH   4   5
ENDBRANCH   3   4
ENDBRANCH   2   3
ENDBRANCH   1   2
BRANCH   1  11
ATOM     11  C   UNL     1      11.634  18.625  15.262  1.00  0.00     0.000 C 
BRANCH  11  12
ATOM     12  C   UNL     1      11.444  17.516  14.213  1.00  0.00    -0.000 C 
BRANCH  12  13
ATOM     13  C   UNL     1      10.354  17.850  13.179  1.00  0.00    -0.000 C 
BRANCH  13  14
ATOM     14  C   UNL     1      10.225  16.844  12.020  1.00  0.00    -0.000 C 
BRANCH  14  15
ATOM     15  C   UNL     1       8.841  16.173  11.960  1.00  0.00    -0.000 C 
BRANCH  15  16
ATOM     16  C   UNL     1       8.415  15.829  10.524  1.00  0.00    -0.000 C 
BRANCH  16  17
ATOM     17  C   UNL     1       8.376  17.060   9.607  1.00  0.00    -0.003 C 
ATOM     18  C   UNL     1       7.256  18.014  10.016  1.00  0.00     0.004 C 
ENDBRANCH  16  17
ENDBRANCH  15  16
ENDBRANCH  14  15
ENDBRANCH  13  14
ENDBRANCH  12  13
ENDBRANCH  11  12
ENDBRANCH   1  11
TORSDOF 14
ENDMDL
MODEL 4
REMARK VINA RESULT:    -3.638      3.741      8.192
REMARK INTER + INTRA:          -8.716
REMARK INTER:                  -6.742
REMARK INTRA:                  -1.975
REMARK UNBOUND:                -2.102
REMARK SMILES CCCCCCCCCCCCCCCC(=O)[O-]
REMARK SMILES IDX 9 1 10 2 11 3 12 4 13 5 14 6 15 7 16 8 17 9 18 10 8 11 7 12
REMARK SMILES IDX 6 13 5 14 4 15 3 16 2 17 1 18
REMARK H PARENT
REMARK Flexibility Score: inf
ROOT
ATOM      1  C   UNL     1      14.914  16.313  16.139  1.00  0.00     0.000 C 
ENDROOT
BRANCH   1   2
ATOM      2  C   UNL     1      14.071  16.559  17.403  1.00  0.00     0.000 C 
BRANCH   2   3
ATOM      3  C   UNL     1      12.847  15.630  17.497  1.00  0.00     0.000 C 
BRANCH   3   4
ATOM      4  C   UNL     1      11.557  16.198  16.876  1.00  0.00     0.000 C 
BRANCH   4   5
ATOM      5  C   UNL     1      11.520  17.736  16.880  1.00  0.00     0.000 C 
BRANCH   5   6
ATOM      6  C   UNL     1      11.500  18.342  15.465  1.00  0.00     0.006 C 
BRANCH   6   7
ATOM      7  C   UNL     1      11.499  17.292  14.340  1.00  0.00     0.053 C 
BRANCH   7   8
ATOM      8  C   UNL     1      10.560  17.641  13.227  1.00  0.00     0.041 C 
ATOM      9  O   UNL     1      10.350  16.821  12.295  1.00  0.00    -0.550 OA
ATOM     10  O   UNL     1       9.936  18.882  13.203  1.00  0.00    -0.550 OA
ENDBRANCH   7   8
ENDBRANCH   6   7
ENDBRANCH   5   6
ENDBRANCH   4   5
ENDBRANCH   3   4
ENDBRANCH   2   3
ENDBRANCH   1   2
BRANCH   1  11
ATOM     11  C   UNL     1      15.295  17.618  15.423  1.00  0.00     0.000 C 
BRANCH  11  12
ATOM     12  C   UNL     1      16.591  17.484  14.606  1.00  0.00    -0.000 C 
BRANCH  12  13
ATOM     13  C   UNL     1      17.493  18.728  14.705  1.00  0.00    -0.000 C 
BRANCH  13  14
ATOM     14  C   UNL     1      18.833  18.505  15.430  1.00  0.00    -0.000 C 
BRANCH  14  15
ATOM     15  C   UNL     1      18.667  17.812  16.794  1.00  0.00    -0.000 C 
BRANCH  15  16
ATOM     16  C   UNL     1      18.353  18.805  17.925  1.00  0.00    -0.000 C 
BRANCH  16  17
ATOM     17  C   UNL     1      17.029  18.492  18.638  1.00  0.00    -0.003 C 
ATOM     18  C   UNL     1      16.025  19.626  18.455  1.00  0.00     0.004 C 
ENDBRANCH  16  17
ENDBRANCH  15  16
ENDBRANCH  14  15
ENDBRANCH  13  14
ENDBRANCH  12  13
ENDBRANCH  11  12
ENDBRANCH   1  11
TORSDOF 14
ENDMDL
MODEL 5
REMARK VINA RESULT:    -3.625      4.934      7.433
REMARK INTER + INTRA:          -8.693
REMARK INTER:                  -6.262
REMARK INTRA:                  -2.431
REMARK UNBOUND:                -2.102
REMARK SMILES CCCCCCCCCCCCCCCC(=O)[O-]
REMARK SMILES IDX 9 1 10 2 11 3 12 4 13 5 14 6 15 7 16 8 17 9 18 10 8 11 7 12
REMARK SMILES IDX 6 13 5 14 4 15 3 16 2 17 1 18
REMARK H PARENT
REMARK Flexibility Score: inf
ROOT
ATOM      1  C   UNL     1      14.290  16.640  17.396  1.00  0.00     0.000 C 
ENDROOT
BRANCH   1   2
ATOM      2  C   UNL     1      14.754  16.325  15.962  1.00  0.00     0.000 C 
BRANCH   2   3
ATOM      3  C   UNL     1      16.246  16.631  15.736  1.00  0.00     0.000 C 
BRANCH   3   4
ATOM      4  C   UNL     1      16.531  17.672  14.637  1.00  0.00     0.000 C 
BRANCH   4   5
ATOM      5  C   UNL     1      17.851  18.430  14.861  1.00  0.00     0.000 C 
BRANCH   5   6
ATOM      6  C   UNL     1      17.785  19.421  16.037  1.00  0.00     0.006 C 
BRANCH   6   7
ATOM      7  C   UNL     1      18.479  18.916  17.314  1.00  0.00     0.053 C 
BRANCH   7   8
ATOM      8  C   UNL     1      19.796  18.261  17.033  1.00  0.00     0.041 C 
ATOM      9  O   UNL     1      20.777  18.950  16.647  1.00  0.00    -0.550 OA
ATOM     10  O   UNL     1      19.935  16.885  17.172  1.00  0.00    -0.550 OA
ENDBRANCH   7   8
ENDBRANCH   6   7
ENDBRANCH   5   6
ENDBRANCH   4   5
ENDBRANCH   3   4
ENDBRANCH   2   3
ENDBRANCH   1   2
BRANCH   1  11
ATOM     11  C   UNL     1      14.837  17.980  17.910  1.00  0.00     0.000 C 
BRANCH  11  12
ATOM     12  C   UNL     1      13.836  19.134  17.725  1.00  0.00    -0.000 C 
BRANCH  12  13
ATOM     13  C   UNL     1      14.064  19.921  16.421  1.00  0.00    -0.000 C 
BRANCH  13  14
ATOM     14  C   UNL     1      12.970  19.742  15.353  1.00  0.00    -0.000 C 
BRANCH  14  15
ATOM     15  C   UNL     1      11.800  18.866  15.835  1.00  0.00    -0.000 C 
BRANCH  15  16
ATOM     16  C   UNL     1      11.500  17.703  14.875  1.00  0.00    -0.000 C 
BRANCH  16  17
ATOM     17  C   UNL     1      10.974  16.456  15.601  1.00  0.00    -0.003 C 
ATOM     18  C   UNL     1      10.801  16.722  17.094  1.00  0.00     0.004 C 
ENDBRANCH  16  17
ENDBRANCH  15  16
ENDBRANCH  14  15
ENDBRANCH  13  14
ENDBRANCH  12  13
ENDBRANCH  11  12
ENDBRANCH   1  11
TORSDOF 14
ENDMDL
MODEL 6
REMARK VINA RESULT:    -3.620      2.936      6.954
REMARK INTER + INTRA:          -8.685
REMARK INTER:                  -6.882
REMARK INTRA:                  -1.803
REMARK UNBOUND:                -2.102
REMARK SMILES CCCCCCCCCCCCCCCC(=O)[O-]
REMARK SMILES IDX 9 1 10 2 11 3 12 4 13 5 14 6 15 7 16 8 17 9 18 10 8 11 7 12
REMARK SMILES IDX 6 13 5 14 4 15 3 16 2 17 1 18
REMARK H PARENT
REMARK Flexibility Score: inf
ROOT
ATOM      1  C   UNL     1      10.993  18.406  12.938  1.00  0.00     0.000 C 
ENDROOT
BRANCH   1   2
ATOM      2  C   UNL     1      10.441  16.968  12.942  1.00  0.00     0.000 C 
BRANCH   2   3
ATOM      3  C   UNL     1       9.815  16.564  11.594  1.00  0.00     0.000 C 
BRANCH   3   4
ATOM      4  C   UNL     1       8.442  15.876  11.703  1.00  0.00     0.000 C 
BRANCH   4   5
ATOM      5  C   UNL     1       7.326  16.654  10.984  1.00  0.00     0.000 C 
BRANCH   5   6
ATOM      6  C   UNL     1       7.073  18.045  11.593  1.00  0.00     0.006 C 
BRANCH   6   7
ATOM      7  C   UNL     1       7.037  19.180  10.554  1.00  0.00     0.053 C 
BRANCH   7   8
ATOM      8  C   UNL     1       8.397  19.739  10.264  1.00  0.00     0.041 C 
ATOM      9  O   UNL     1       9.107  19.235   9.355  1.00  0.00    -0.550 OA
ATOM     10  O   UNL     1       8.891  20.798  11.015  1.00  0.00    -0.550 OA
ENDBRANCH   7   8
ENDBRANCH   6   7
ENDBRANCH   5   6
ENDBRANCH   4   5
ENDBRANCH   3   4
ENDBRANCH   2   3
ENDBRANCH   1   2
BRANCH   1  11
ATOM     11  C   UNL     1      10.255  19.320  13.928  1.00  0.00     0.000 C 
BRANCH  11  12
ATOM     12  C   UNL     1      11.187  19.888  15.012  1.00  0.00    -0.000 C 
BRANCH  12  13
ATOM     13  C   UNL     1      12.453  19.036  15.220  1.00  0.00    -0.000 C 
BRANCH  13  14
ATOM     14  C   UNL     1      12.871  18.838  16.688  1.00  0.00    -0.000 C 
BRANCH  14  15
ATOM     15  C   UNL     1      13.469  17.446  16.958  1.00  0.00    -0.000 C 
BRANCH  15  16
ATOM     16  C   UNL     1      12.847  16.356  16.069  1.00  0.00    -0.000 C 
BRANCH  16  17
ATOM     17  C   UNL     1      11.847  15.471  16.829  1.00  0.00    -0.003 C 
ATOM     18  C   UNL     1      10.409  15.846  16.480  1.00  0.00     0.004 C 
ENDBRANCH  16  17
ENDBRANCH  15  16
ENDBRANCH  14  15
ENDBRANCH  13  14
ENDBRANCH  12  13
ENDBRANCH  11  12
ENDBRANCH   1  11
TORSDOF 14
ENDMDL
MODEL 7
REMARK VINA RESULT:    -3.611      0.856      2.214
REMARK INTER + INTRA:          -8.667
REMARK INTER:                  -6.524
REMARK INTRA:                  -2.143
REMARK UNBOUND:                -2.102
REMARK SMILES CCCCCCCCCCCCCCCC(=O)[O-]
REMARK SMILES IDX 9 1 10 2 11 3 12 4 13 5 14 6 15 7 16 8 17 9 18 10 8 11 7 12
REMARK SMILES IDX 6 13 5 14 4 15 3 16 2 17 1 18
REMARK H PARENT
REMARK Flexibility Score: inf
ROOT
ATOM      1  C   UNL     1       8.555  16.248  10.433  1.00  0.00     0.000 C 
ENDROOT
BRANCH   1   2
ATOM      2  C   UNL     1       8.905  16.007  11.913  1.00  0.00     0.000 C 
BRANCH   2   3
ATOM      3  C   UNL     1      10.250  16.636  12.319  1.00  0.00     0.000 C 
BRANCH   3   4
ATOM      4  C   UNL     1      10.212  17.450  13.626  1.00  0.00     0.000 C 
BRANCH   4   5
ATOM      5  C   UNL     1      11.447  18.349  13.807  1.00  0.00     0.000 C 
BRANCH   5   6
ATOM      6  C   UNL     1      12.209  18.069  15.115  1.00  0.00     0.006 C 
BRANCH   6   7
ATOM      7  C   UNL     1      12.436  16.573  15.394  1.00  0.00     0.053 C 
BRANCH   7   8
ATOM      8  C   UNL     1      11.890  16.145  16.722  1.00  0.00     0.041 C 
ATOM      9  O   UNL     1      12.597  15.461  17.507  1.00  0.00    -0.550 OA
ATOM     10  O   UNL     1      10.590  16.479  17.083  1.00  0.00    -0.550 OA
ENDBRANCH   7   8
ENDBRANCH   6   7
ENDBRANCH   5   6
ENDBRANCH   4   5
ENDBRANCH   3   4
ENDBRANCH   2   3
ENDBRANCH   1   2
BRANCH   1  11
ATOM     11  C   UNL     1       7.412  17.260  10.258  1.00  0.00     0.000 C 
BRANCH  11  12
ATOM     12  C   UNL     1       6.952  17.866  11.595  1.00  0.00    -0.000 C 
BRANCH  12  13
ATOM     13  C   UNL     1       7.388  19.331  11.771  1.00  0.00    -0.000 C 
BRANCH  13  14
ATOM     14  C   UNL     1       8.229  19.904  10.614  1.00  0.00    -0.000 C 
BRANCH  14  15
ATOM     15  C   UNL     1       9.706  20.112  10.994  1.00  0.00    -0.000 C 
BRANCH  15  16
ATOM     16  C   UNL     1      10.665  19.346  10.068  1.00  0.00    -0.000 C 
BRANCH  16  17
ATOM     17  C   UNL     1      10.125  19.211   8.637  1.00  0.00    -0.003 C 
ATOM     18  C   UNL     1      11.248  19.343   7.611  1.00  0.00     0.004 C 
ENDBRANCH  16  17
ENDBRANCH  15  16
ENDBRANCH  14  15
ENDBRANCH  13  14
ENDBRANCH  12  13
ENDBRANCH  11  12
ENDBRANCH   1  11
TORSDOF 14
ENDMDL
MODEL 8
REMARK VINA RESULT:    -3.597      4.686      7.383
REMARK INTER + INTRA:          -8.643
REMARK INTER:                  -6.080
REMARK INTRA:                  -2.563
REMARK UNBOUND:                -2.102
REMARK SMILES CCCCCCCCCCCCCCCC(=O)[O-]
REMARK SMILES IDX 9 1 10 2 11 3 12 4 13 5 14 6 15 7 16 8 17 9 18 10 8 11 7 12
REMARK SMILES IDX 6 13 5 14 4 15 3 16 2 17 1 18
REMARK H PARENT
REMARK Flexibility Score: inf
ROOT
ATOM      1  C   UNL     1      14.959  19.847  15.956  1.00  0.00     0.000 C 
ENDROOT
BRANCH   1   2
ATOM      2  C   UNL     1      13.787  20.084  16.926  1.00  0.00     0.000 C 
BRANCH   2   3
ATOM      3  C   UNL     1      14.150  19.772  18.389  1.00  0.00     0.000 C 
BRANCH   3   4
ATOM      4  C   UNL     1      15.652  19.866  18.714  1.00  0.00     0.000 C 
BRANCH   4   5
ATOM      5  C   UNL     1      16.240  18.534  19.211  1.00  0.00     0.000 C 
BRANCH   5   6
ATOM      6  C   UNL     1      17.761  18.429  18.995  1.00  0.00     0.006 C 
BRANCH   6   7
ATOM      7  C   UNL     1      18.228  18.930  17.617  1.00  0.00     0.053 C 
BRANCH   7   8
ATOM      8  C   UNL     1      19.134  17.957  16.927  1.00  0.00     0.041 C 
ATOM      9  O   UNL     1      19.680  17.028  17.578  1.00  0.00    -0.550 OA
ATOM     10  O   UNL     1      19.397  18.091  15.569  1.00  0.00    -0.550 OA
ENDBRANCH   7   8
ENDBRANCH   6   7
ENDBRANCH   5   6
ENDBRANCH   4   5
ENDBRANCH   3   4
ENDBRANCH   2   3
ENDBRANCH   1   2
BRANCH   1  11
ATOM     11  C   UNL     1      14.781  18.569  15.121  1.00  0.00     0.000 C 
BRANCH  11  12
ATOM     12  C   UNL     1      15.604  17.390  15.667  1.00  0.00    -0.000 C 
BRANCH  12  13
ATOM     13  C   UNL     1      14.735  16.178  16.049  1.00  0.00    -0.000 C 
BRANCH  13  14
ATOM     14  C   UNL     1      13.870  16.369  17.308  1.00  0.00    -0.000 C 
BRANCH  14  15
ATOM     15  C   UNL     1      12.421  15.885  17.118  1.00  0.00    -0.000 C 
BRANCH  15  16
ATOM     16  C   UNL     1      11.474  17.016  16.686  1.00  0.00    -0.000 C 
BRANCH  16  17
ATOM     17  C   UNL     1      11.239  17.045  15.168  1.00  0.00    -0.003 C 
ATOM     18  C   UNL     1      11.169  18.479  14.651  1.00  0.00     0.004 C 
ENDBRANCH  16  17
ENDBRANCH  15  16
ENDBRANCH  14  15
ENDBRANCH  13  14
ENDBRANCH  12  13
ENDBRANCH  11  12
ENDBRANCH   1  11
TORSDOF 14
ENDMDL
MODEL 9
REMARK VINA RESULT:    -3.546      4.250      6.507
REMARK INTER + INTRA:          -8.550
REMARK INTER:                  -6.561
REMARK INTRA:                  -1.989
REMARK UNBOUND:                -2.102
REMARK SMILES CCCCCCCCCCCCCCCC(=O)[O-]
REMARK SMILES IDX 9 1 10 2 11 3 12 4 13 5 14 6 15 7 16 8 17 9 18 10 8 11 7 12
REMARK SMILES IDX 6 13 5 14 4 15 3 16 2 17 1 18
REMARK H PARENT
REMARK Flexibility Score: inf
ROOT
ATOM      1  C   UNL     1      14.790  16.348  16.156  1.00  0.00     0.000 C 
ENDROOT
BRANCH   1   2
ATOM      2  C   UNL     1      15.232  17.612  15.396  1.00  0.00     0.000 C 
BRANCH   2   3
ATOM      3  C   UNL     1      16.609  17.454  14.724  1.00  0.00     0.000 C 
BRANCH   3   4
ATOM      4  C   UNL     1      17.501  18.708  14.781  1.00  0.00     0.000 C 
BRANCH   4   5
ATOM      5  C   UNL     1      18.788  18.489  15.594  1.00  0.00     0.000 C 
BRANCH   5   6
ATOM      6  C   UNL     1      18.531  17.828  16.961  1.00  0.00     0.006 C 
BRANCH   6   7
ATOM      7  C   UNL     1      18.311  18.833  18.105  1.00  0.00     0.053 C 
BRANCH   7   8
ATOM      8  C   UNL     1      16.867  18.975  18.477  1.00  0.00     0.041 C 
ATOM      9  O   UNL     1      16.148  19.837  17.906  1.00  0.00    -0.550 OA
ATOM     10  O   UNL     1      16.321  18.175  19.473  1.00  0.00    -0.550 OA
ENDBRANCH   7   8
ENDBRANCH   6   7
ENDBRANCH   5   6
ENDBRANCH   4   5
ENDBRANCH   3   4
ENDBRANCH   2   3
ENDBRANCH   1   2
BRANCH   1  11
ATOM     11  C   UNL     1      13.863  16.668  17.339  1.00  0.00     0.000 C 
BRANCH  11  12
ATOM     12  C   UNL     1      12.930  15.497  17.689  1.00  0.00    -0.000 C 
BRANCH  12  13
ATOM     13  C   UNL     1      11.640  15.486  16.848  1.00  0.00    -0.000 C 
BRANCH  13  14
ATOM     14  C   UNL     1      11.162  16.870  16.372  1.00  0.00    -0.000 C 
BRANCH  14  15
ATOM     15  C   UNL     1      11.244  17.038  14.844  1.00  0.00    -0.000 C 
BRANCH  15  16
ATOM     16  C   UNL     1      11.654  18.461  14.429  1.00  0.00    -0.000 C 
BRANCH  16  17
ATOM     17  C   UNL     1      11.522  19.473  15.577  1.00  0.00    -0.003 C 
ATOM     18  C   UNL     1      12.857  20.157  15.861  1.00  0.00     0.004 C 
ENDBRANCH  16  17
ENDBRANCH  15  16
ENDBRANCH  14  15
ENDBRANCH  13  14
ENDBRANCH  12  13
ENDBRANCH  11  12
ENDBRANCH   1  11
TORSDOF 14
ENDMDL
