MODEL 1
REMARK VINA RESULT:    -3.804      0.000      0.000
REMARK INTER + INTRA:          -8.815
REMARK INTER:                  -6.696
REMARK INTRA:                  -2.120
REMARK UNBOUND:                -2.120
REMARK SMILES CCCCCCCCCCCCCCC(=O)[O-]
REMARK SMILES IDX 9 1 10 2 11 3 12 4 13 5 14 6 15 7 16 8 17 9 8 10 7 11 6 12
REMARK SMILES IDX 5 13 4 14 3 15 2 16 1 17
REMARK H PARENT
REMARK Flexibility Score: inf
ROOT
ATOM      1  C   UNL     1      27.471  30.519 -13.299  1.00  0.00     0.000 C 
ENDROOT
BRANCH   1   2
ATOM      2  C   UNL     1      27.182  30.323 -14.792  1.00  0.00     0.000 C 
BRANCH   2   3
ATOM      3  C   UNL     1      26.138  29.218 -15.010  1.00  0.00     0.000 C 
BRANCH   3   4
ATOM      4  C   UNL     1      24.764  29.766 -15.439  1.00  0.00     0.000 C 
BRANCH   4   5
ATOM      5  C   UNL     1      23.798  30.074 -14.281  1.00  0.00     0.006 C 
BRANCH   5   6
ATOM      6  C   UNL     1      23.246  31.505 -14.327  1.00  0.00     0.053 C 
BRANCH   6   7
ATOM      7  C   UNL     1      24.299  32.484 -13.919  1.00  0.00     0.041 C 
ATOM      8  O   UNL     1      24.549  32.677 -12.700  1.00  0.00    -0.550 OA
ATOM      9  O   UNL     1      25.044  33.149 -14.886  1.00  0.00    -0.550 OA
ENDBRANCH   6   7
ENDBRANCH   5   6
ENDBRANCH   4   5
ENDBRANCH   3   4
ENDBRANCH   2   3
ENDBRANCH   1   2
BRANCH   1  10
ATOM     10  C   UNL     1      28.933  30.191 -12.974  1.00  0.00     0.000 C 
BRANCH  10  11
ATOM     11  C   UNL     1      29.166  30.164 -11.455  1.00  0.00    -0.000 C 
BRANCH  11  12
ATOM     12  C   UNL     1      27.892  30.482 -10.657  1.00  0.00    -0.000 C 
BRANCH  12  13
ATOM     13  C   UNL     1      27.722  29.576  -9.426  1.00  0.00    -0.000 C 
BRANCH  13  14
ATOM     14  C   UNL     1      26.679  28.464  -9.641  1.00  0.00    -0.000 C 
BRANCH  14  15
ATOM     15  C   UNL     1      25.564  28.809 -10.646  1.00  0.00    -0.000 C 
BRANCH  15  16
ATOM     16  C   UNL     1      25.439  27.778 -11.778  1.00  0.00    -0.003 C 
ATOM     17  C   UNL     1      26.756  27.038 -11.997  1.00  0.00     0.004 C 
ENDBRANCH  15  16
ENDBRANCH  14  15
ENDBRANCH  13  14
ENDBRANCH  12  13
ENDBRANCH  11  12
ENDBRANCH  10  11
ENDBRANCH   1  10
TORSDOF 13
ENDMDL
MODEL 2
REMARK VINA RESULT:    -3.664      3.210      5.397
REMARK INTER + INTRA:          -8.568
REMARK INTER:                  -6.226
REMARK INTRA:                  -2.342
REMARK UNBOUND:                -2.120
REMARK SMILES CCCCCCCCCCCCCCC(=O)[O-]
REMARK SMILES IDX 9 1 10 2 11 3 12 4 13 5 14 6 15 7 16 8 17 9 8 10 7 11 6 12
REMARK SMILES IDX 5 13 4 14 3 15 2 16 1 17
REMARK H PARENT
REMARK Flexibility Score: inf
ROOT
ATOM      1  C   UNL     1      27.766  30.449 -10.893  1.00  0.00     0.000 C 
ENDROOT
BRANCH   1   2
ATOM      2  C   UNL     1      27.060  29.268 -10.215  1.00  0.00     0.000 C 
BRANCH   2   3
ATOM      3  C   UNL     1      25.671  29.034 -10.827  1.00  0.00     0.000 C 
BRANCH   3   4
ATOM      4  C   UNL     1      25.597  27.751 -11.674  1.00  0.00     0.000 C 
BRANCH   4   5
ATOM      5  C   UNL     1      26.956  27.093 -11.978  1.00  0.00     0.006 C 
BRANCH   5   6
ATOM      6  C   UNL     1      26.976  26.351 -13.319  1.00  0.00     0.053 C 
BRANCH   6   7
ATOM      7  C   UNL     1      26.866  24.876 -13.103  1.00  0.00     0.041 C 
ATOM      8  O   UNL     1      26.960  24.396 -11.943  1.00  0.00    -0.550 OA
ATOM      9  O   UNL     1      26.607  24.032 -14.177  1.00  0.00    -0.550 OA
ENDBRANCH   6   7
ENDBRANCH   5   6
ENDBRANCH   4   5
ENDBRANCH   3   4
ENDBRANCH   2   3
ENDBRANCH   1   2
BRANCH   1  10
ATOM     10  C   UNL     1      29.124  30.024 -11.465  1.00  0.00     0.000 C 
BRANCH  10  11
ATOM     11  C   UNL     1      29.097  30.021 -13.002  1.00  0.00    -0.000 C 
BRANCH  11  12
ATOM     12  C   UNL     1      27.902  30.801 -13.572  1.00  0.00    -0.000 C 
BRANCH  12  13
ATOM     13  C   UNL     1      26.972  29.919 -14.422  1.00  0.00    -0.000 C 
BRANCH  13  14
ATOM     14  C   UNL     1      25.497  30.357 -14.345  1.00  0.00    -0.000 C 
BRANCH  14  15
ATOM     15  C   UNL     1      25.282  31.857 -14.072  1.00  0.00    -0.000 C 
BRANCH  15  16
ATOM     16  C   UNL     1      24.562  32.126 -12.741  1.00  0.00    -0.003 C 
ATOM     17  C   UNL     1      23.268  31.324 -12.644  1.00  0.00     0.004 C 
ENDBRANCH  15  16
ENDBRANCH  14  15
ENDBRANCH  13  14
ENDBRANCH  12  13
ENDBRANCH  11  12
ENDBRANCH  10  11
ENDBRANCH   1  10
TORSDOF 13
ENDMDL
MODEL 3
REMARK VINA RESULT:    -3.646      1.373      3.360
REMARK INTER + INTRA:          -8.537
REMARK INTER:                  -6.606
REMARK INTRA:                  -1.930
REMARK UNBOUND:                -2.120
REMARK SMILES CCCCCCCCCCCCCCC(=O)[O-]
REMARK SMILES IDX 9 1 10 2 11 3 12 4 13 5 14 6 15 7 16 8 17 9 8 10 7 11 6 12
REMARK SMILES IDX 5 13 4 14 3 15 2 16 1 17
REMARK H PARENT
REMARK Flexibility Score: inf
ROOT
ATOM      1  C   UNL     1      28.151  30.451 -10.516  1.00  0.00     0.000 C 
ENDROOT
BRANCH   1   2
ATOM      2  C   UNL     1      29.399  30.090 -11.331  1.00  0.00     0.000 C 
BRANCH   2   3
ATOM      3  C   UNL     1      29.094  30.095 -12.836  1.00  0.00     0.000 C 
BRANCH   3   4
ATOM      4  C   UNL     1      27.720  30.707 -13.167  1.00  0.00     0.000 C 
BRANCH   4   5
ATOM      5  C   UNL     1      27.077  30.193 -14.469  1.00  0.00     0.006 C 
BRANCH   5   6
ATOM      6  C   UNL     1      25.545  30.189 -14.418  1.00  0.00     0.053 C 
BRANCH   6   7
ATOM      7  C   UNL     1      25.034  31.509 -13.937  1.00  0.00     0.041 C 
ATOM      8  O   UNL     1      25.148  32.535 -14.658  1.00  0.00    -0.550 OA
ATOM      9  O   UNL     1      24.385  31.600 -12.711  1.00  0.00    -0.550 OA
ENDBRANCH   6   7
ENDBRANCH   5   6
ENDBRANCH   4   5
ENDBRANCH   3   4
ENDBRANCH   2   3
ENDBRANCH   1   2
BRANCH   1  10
ATOM     10  C   UNL     1      27.517  29.201  -9.895  1.00  0.00     0.000 C 
BRANCH  10  11
ATOM     11  C   UNL     1      26.010  29.142 -10.192  1.00  0.00    -0.000 C 
BRANCH  11  12
ATOM     12  C   UNL     1      25.655  28.066 -11.230  1.00  0.00    -0.000 C 
BRANCH  12  13
ATOM     13  C   UNL     1      26.896  27.345 -11.783  1.00  0.00    -0.000 C 
BRANCH  13  14
ATOM     14  C   UNL     1      26.617  25.878 -12.159  1.00  0.00    -0.000 C 
BRANCH  14  15
ATOM     15  C   UNL     1      26.992  25.498 -13.603  1.00  0.00    -0.000 C 
BRANCH  15  16
ATOM     16  C   UNL     1      26.410  26.463 -14.647  1.00  0.00    -0.003 C 
ATOM     17  C   UNL     1      25.009  26.033 -15.072  1.00  0.00     0.004 C 
ENDBRANCH  15  16
ENDBRANCH  14  15
ENDBRANCH  13  14
ENDBRANCH  12  13
ENDBRANCH  11  12
ENDBRANCH  10  11
ENDBRANCH   1  10
TORSDOF 13
ENDMDL
MODEL 4
REMARK VINA RESULT:    -3.635      4.553      6.589
REMARK INTER + INTRA:          -8.517
REMARK INTER:                  -6.632
REMARK INTRA:                  -1.884
REMARK UNBOUND:                -2.120
REMARK SMILES CCCCCCCCCCCCCCC(=O)[O-]
REMARK SMILES IDX 9 1 10 2 11 3 12 4 13 5 14 6 15 7 16 8 17 9 8 10 7 11 6 12
REMARK SMILES IDX 5 13 4 14 3 15 2 16 1 17
REMARK H PARENT
REMARK Flexibility Score: inf
ROOT
ATOM      1  C   UNL     1      25.533  27.702 -11.758  1.00  0.00     0.000 C 
ENDROOT
BRANCH   1   2
ATOM      2  C   UNL     1      25.551  27.083 -13.160  1.00  0.00     0.000 C 
BRANCH   2   3
ATOM      3  C   UNL     1      26.913  26.441 -13.461  1.00  0.00     0.000 C 
BRANCH   3   4
ATOM      4  C   UNL     1      26.800  24.967 -13.892  1.00  0.00     0.000 C 
BRANCH   4   5
ATOM      5  C   UNL     1      27.709  23.993 -13.121  1.00  0.00     0.006 C 
BRANCH   5   6
ATOM      6  C   UNL     1      27.057  23.452 -11.842  1.00  0.00     0.053 C 
BRANCH   6   7
ATOM      7  C   UNL     1      27.249  21.973 -11.744  1.00  0.00     0.041 C 
ATOM      8  O   UNL     1      26.582  21.195 -12.476  1.00  0.00    -0.550 OA
ATOM      9  O   UNL     1      28.203  21.451 -10.878  1.00  0.00    -0.550 OA
ENDBRANCH   6   7
ENDBRANCH   5   6
ENDBRANCH   4   5
ENDBRANCH   3   4
ENDBRANCH   2   3
ENDBRANCH   1   2
BRANCH   1  10
ATOM     10  C   UNL     1      26.958  27.897 -11.224  1.00  0.00     0.000 C 
BRANCH  10  11
ATOM     11  C   UNL     1      27.070  29.203 -10.421  1.00  0.00    -0.000 C 
BRANCH  11  12
ATOM     12  C   UNL     1      28.242  30.082 -10.885  1.00  0.00    -0.000 C 
BRANCH  12  13
ATOM     13  C   UNL     1      28.830  29.621 -12.229  1.00  0.00    -0.000 C 
BRANCH  13  14
ATOM     14  C   UNL     1      28.462  30.558 -13.395  1.00  0.00    -0.000 C 
BRANCH  14  15
ATOM     15  C   UNL     1      27.210  30.142 -14.188  1.00  0.00    -0.000 C 
BRANCH  15  16
ATOM     16  C   UNL     1      26.138  31.241 -14.234  1.00  0.00    -0.003 C 
ATOM     17  C   UNL     1      25.261  31.207 -12.986  1.00  0.00     0.004 C 
ENDBRANCH  15  16
ENDBRANCH  14  15
ENDBRANCH  13  14
ENDBRANCH  12  13
ENDBRANCH  11  12
ENDBRANCH  10  11
ENDBRANCH   1  10
TORSDOF 13
ENDMDL
MODEL 5
REMARK VINA RESULT:    -3.619      2.278      5.054
REMARK INTER + INTRA:          -8.490
REMARK INTER:                  -6.218
REMARK INTRA:                  -2.272
REMARK UNBOUND:                -2.120
REMARK SMILES CCCCCCCCCCCCCCC(=O)[O-]
REMARK SMILES IDX 9 1 10 2 11 3 12 4 13 5 14 6 15 7 16 8 17 9 8 10 7 11 6 12
REMARK SMILES IDX 5 13 4 14 3 15 2 16 1 17
REMARK H PARENT
REMARK Flexibility Score: inf
ROOT
ATOM      1  C   UNL     1      24.311  27.944 -13.093  1.00  0.00     0.000 C 
ENDROOT
BRANCH   1   2
ATOM      2  C   UNL     1      24.735  28.606 -14.409  1.00  0.00     0.000 C 
BRANCH   2   3
ATOM      3  C   UNL     1      26.264  28.639 -14.541  1.00  0.00     0.000 C 
BRANCH   3   4
ATOM      4  C   UNL     1      26.819  30.060 -14.748  1.00  0.00     0.000 C 
BRANCH   4   5
ATOM      5  C   UNL     1      27.908  30.485 -13.747  1.00  0.00     0.006 C 
BRANCH   5   6
ATOM      6  C   UNL     1      28.114  29.466 -12.619  1.00  0.00     0.053 C 
BRANCH   6   7
ATOM      7  C   UNL     1      28.622  30.145 -11.387  1.00  0.00     0.041 C 
ATOM      8  O   UNL     1      27.818  30.685 -10.583  1.00  0.00    -0.550 OA
ATOM      9  O   UNL     1      29.982  30.138 -11.099  1.00  0.00    -0.550 OA
ENDBRANCH   6   7
ENDBRANCH   5   6
ENDBRANCH   4   5
ENDBRANCH   3   4
ENDBRANCH   2   3
ENDBRANCH   1   2
BRANCH   1  10
ATOM     10  C   UNL     1      24.702  28.811 -11.889  1.00  0.00     0.000 C 
BRANCH  10  11
ATOM     11  C   UNL     1      23.862  30.097 -11.842  1.00  0.00    -0.000 C 
BRANCH  11  12
ATOM     12  C   UNL     1      24.719  31.366 -11.981  1.00  0.00    -0.000 C 
BRANCH  12  13
ATOM     13  C   UNL     1      24.017  32.467 -12.793  1.00  0.00    -0.000 C 
BRANCH  13  14
ATOM     14  C   UNL     1      24.621  32.651 -14.198  1.00  0.00    -0.000 C 
BRANCH  14  15
ATOM     15  C   UNL     1      23.675  32.296 -15.360  1.00  0.00    -0.000 C 
BRANCH  15  16
ATOM     16  C   UNL     1      22.440  31.502 -14.906  1.00  0.00    -0.003 C 
ATOM     17  C   UNL     1      22.063  30.438 -15.932  1.00  0.00     0.004 C 
ENDBRANCH  15  16
ENDBRANCH  14  15
ENDBRANCH  13  14
ENDBRANCH  12  13
ENDBRANCH  11  12
ENDBRANCH  10  11
ENDBRANCH   1  10
TORSDOF 13
ENDMDL
MODEL 6
REMARK VINA RESULT:    -3.583      2.861      5.294
REMARK INTER + INTRA:          -8.426
REMARK INTER:                  -6.449
REMARK INTRA:                  -1.976
REMARK UNBOUND:                -2.120
REMARK SMILES CCCCCCCCCCCCCCC(=O)[O-]
REMARK SMILES IDX 9 1 10 2 11 3 12 4 13 5 14 6 15 7 16 8 17 9 8 10 7 11 6 12
REMARK SMILES IDX 5 13 4 14 3 15 2 16 1 17
REMARK H PARENT
REMARK Flexibility Score: inf
ROOT
ATOM      1  C   UNL     1      27.400  30.597 -13.589  1.00  0.00     0.000 C 
ENDROOT
BRANCH   1   2
ATOM      2  C   UNL     1      28.895  30.417 -13.300  1.00  0.00     0.000 C 
BRANCH   2   3
ATOM      3  C   UNL     1      29.129  30.042 -11.830  1.00  0.00     0.000 C 
BRANCH   3   4
ATOM      4  C   UNL     1      27.838  30.060 -10.992  1.00  0.00     0.000 C 
BRANCH   4   5
ATOM      5  C   UNL     1      27.334  28.676 -10.543  1.00  0.00     0.006 C 
BRANCH   5   6
ATOM      6  C   UNL     1      25.991  28.738  -9.806  1.00  0.00     0.053 C 
BRANCH   6   7
ATOM      7  C   UNL     1      26.204  28.685  -8.327  1.00  0.00     0.041 C 
ATOM      8  O   UNL     1      27.370  28.684  -7.853  1.00  0.00    -0.550 OA
ATOM      9  O   UNL     1      25.112  28.688  -7.466  1.00  0.00    -0.550 OA
ENDBRANCH   6   7
ENDBRANCH   5   6
ENDBRANCH   4   5
ENDBRANCH   3   4
ENDBRANCH   2   3
ENDBRANCH   1   2
BRANCH   1  10
ATOM     10  C   UNL     1      27.045  30.092 -14.993  1.00  0.00     0.000 C 
BRANCH  10  11
ATOM     11  C   UNL     1      25.862  29.113 -14.944  1.00  0.00    -0.000 C 
BRANCH  11  12
ATOM     12  C   UNL     1      25.239  29.012 -13.543  1.00  0.00    -0.000 C 
BRANCH  12  13
ATOM     13  C   UNL     1      23.708  29.159 -13.564  1.00  0.00    -0.000 C 
BRANCH  13  14
ATOM     14  C   UNL     1      23.208  30.331 -12.698  1.00  0.00    -0.000 C 
BRANCH  14  15
ATOM     15  C   UNL     1      24.314  31.265 -12.174  1.00  0.00    -0.000 C 
BRANCH  15  16
ATOM     16  C   UNL     1      24.220  32.686 -12.750  1.00  0.00    -0.003 C 
ATOM     17  C   UNL     1      24.466  32.687 -14.255  1.00  0.00     0.004 C 
ENDBRANCH  15  16
ENDBRANCH  14  15
ENDBRANCH  13  14
ENDBRANCH  12  13
ENDBRANCH  11  12
ENDBRANCH  10  11
ENDBRANCH   1  10
TORSDOF 13
ENDMDL
MODEL 7
REMARK VINA RESULT:    -3.565      2.238      4.775
REMARK INTER + INTRA:          -8.394
REMARK INTER:                  -6.413
REMARK INTRA:                  -1.982
REMARK UNBOUND:                -2.120
REMARK SMILES CCCCCCCCCCCCCCC(=O)[O-]
REMARK SMILES IDX 9 1 10 2 11 3 12 4 13 5 14 6 15 7 16 8 17 9 8 10 7 11 6 12
REMARK SMILES IDX 5 13 4 14 3 15 2 16 1 17
REMARK H PARENT
REMARK Flexibility Score: inf
ROOT
ATOM      1  C   UNL     1      24.532  29.669 -14.760  1.00  0.00     0.000 C 
ENDROOT
BRANCH   1   2
ATOM      2  C   UNL     1      25.804  28.916 -15.165  1.00  0.00     0.000 C 
BRANCH   2   3
ATOM      3  C   UNL     1      27.002  29.872 -15.261  1.00  0.00     0.000 C 
BRANCH   3   4
ATOM      4  C   UNL     1      27.212  30.702 -13.981  1.00  0.00     0.000 C 
BRANCH   4   5
ATOM      5  C   UNL     1      28.311  30.178 -13.039  1.00  0.00     0.006 C 
BRANCH   5   6
ATOM      6  C   UNL     1      27.784  29.177 -12.003  1.00  0.00     0.053 C 
BRANCH   6   7
ATOM      7  C   UNL     1      27.966  29.714 -10.619  1.00  0.00     0.041 C 
ATOM      8  O   UNL     1      28.259  30.926 -10.441  1.00  0.00    -0.550 OA
ATOM      9  O   UNL     1      27.761  28.888  -9.520  1.00  0.00    -0.550 OA
ENDBRANCH   6   7
ENDBRANCH   5   6
ENDBRANCH   4   5
ENDBRANCH   3   4
ENDBRANCH   2   3
ENDBRANCH   1   2
BRANCH   1  10
ATOM     10  C   UNL     1      24.040  30.573 -15.897  1.00  0.00     0.000 C 
BRANCH  10  11
ATOM     11  C   UNL     1      23.562  31.929 -15.354  1.00  0.00    -0.000 C 
BRANCH  11  12
ATOM     12  C   UNL     1      23.244  31.883 -13.852  1.00  0.00    -0.000 C 
BRANCH  12  13
ATOM     13  C   UNL     1      24.235  32.706 -13.012  1.00  0.00    -0.000 C 
BRANCH  13  14
ATOM     14  C   UNL     1      24.742  31.946 -11.772  1.00  0.00    -0.000 C 
BRANCH  14  15
ATOM     15  C   UNL     1      23.734  30.953 -11.165  1.00  0.00    -0.000 C 
BRANCH  15  16
ATOM     16  C   UNL     1      24.278  29.519 -11.087  1.00  0.00    -0.003 C 
ATOM     17  C   UNL     1      24.197  28.976  -9.663  1.00  0.00     0.004 C 
ENDBRANCH  15  16
ENDBRANCH  14  15
ENDBRANCH  13  14
ENDBRANCH  12  13
ENDBRANCH  11  12
ENDBRANCH  10  11
ENDBRANCH   1  10
TORSDOF 13
ENDMDL
MODEL 8
REMARK VINA RESULT:    -3.528      1.453      4.124
REMARK INTER + INTRA:          -8.328
REMARK INTER:                  -6.051
REMARK INTRA:                  -2.277
REMARK UNBOUND:                -2.120
REMARK SMILES CCCCCCCCCCCCCCC(=O)[O-]
REMARK SMILES IDX 9 1 10 2 11 3 12 4 13 5 14 6 15 7 16 8 17 9 8 10 7 11 6 12
REMARK SMILES IDX 5 13 4 14 3 15 2 16 1 17
REMARK H PARENT
REMARK Flexibility Score: inf
ROOT
ATOM      1  C   UNL     1      25.103  27.425 -11.591  1.00  0.00     0.000 C 
ENDROOT
BRANCH   1   2
ATOM      2  C   UNL     1      25.343  28.864 -11.121  1.00  0.00     0.000 C 
BRANCH   2   3
ATOM      3  C   UNL     1      24.439  29.848 -11.878  1.00  0.00     0.000 C 
BRANCH   3   4
ATOM      4  C   UNL     1      24.759  31.321 -11.564  1.00  0.00     0.000 C 
BRANCH   4   5
ATOM      5  C   UNL     1      24.090  32.345 -12.499  1.00  0.00     0.006 C 
BRANCH   5   6
ATOM      6  C   UNL     1      23.455  31.699 -13.737  1.00  0.00     0.053 C 
BRANCH   6   7
ATOM      7  C   UNL     1      23.969  32.344 -14.984  1.00  0.00     0.041 C 
ATOM      8  O   UNL     1      23.336  32.226 -16.066  1.00  0.00    -0.550 OA
ATOM      9  O   UNL     1      25.122  33.118 -14.943  1.00  0.00    -0.550 OA
ENDBRANCH   6   7
ENDBRANCH   5   6
ENDBRANCH   4   5
ENDBRANCH   3   4
ENDBRANCH   2   3
ENDBRANCH   1   2
BRANCH   1  10
ATOM     10  C   UNL     1      26.429  26.673 -11.763  1.00  0.00     0.000 C 
BRANCH  10  11
ATOM     11  C   UNL     1      26.942  26.786 -13.207  1.00  0.00    -0.000 C 
BRANCH  11  12
ATOM     12  C   UNL     1      25.803  26.812 -14.238  1.00  0.00    -0.000 C 
BRANCH  12  13
ATOM     13  C   UNL     1      26.120  27.706 -15.448  1.00  0.00    -0.000 C 
BRANCH  13  14
ATOM     14  C   UNL     1      25.886  29.201 -15.164  1.00  0.00    -0.000 C 
BRANCH  14  15
ATOM     15  C   UNL     1      27.165  30.057 -15.111  1.00  0.00    -0.000 C 
BRANCH  15  16
ATOM     16  C   UNL     1      27.402  30.695 -13.733  1.00  0.00    -0.003 C 
ATOM     17  C   UNL     1      28.632  30.100 -13.055  1.00  0.00     0.004 C 
ENDBRANCH  15  16
ENDBRANCH  14  15
ENDBRANCH  13  14
ENDBRANCH  12  13
ENDBRANCH  11  12
ENDBRANCH  10  11
ENDBRANCH   1  10
TORSDOF 13
ENDMDL
MODEL 9
REMARK VINA RESULT:    -3.524      1.876      3.656
REMARK INTER + INTRA:          -8.322
REMARK INTER:                  -6.410
REMARK INTRA:                  -1.913
REMARK UNBOUND:                -2.120
REMARK SMILES CCCCCCCCCCCCCCC(=O)[O-]
REMARK SMILES IDX 9 1 10 2 11 3 12 4 13 5 14 6 15 7 16 8 17 9 8 10 7 11 6 12
REMARK SMILES IDX 5 13 4 14 3 15 2 16 1 17
REMARK H PARENT
REMARK Flexibility Score: inf
ROOT
ATOM      1  C   UNL     1      28.198  29.793 -12.830  1.00  0.00     0.000 C 
ENDROOT
BRANCH   1   2
ATOM      2  C   UNL     1      27.277  29.402 -11.669  1.00  0.00     0.000 C 
BRANCH   2   3
ATOM      3  C   UNL     1      26.298  30.537 -11.337  1.00  0.00     0.000 C 
BRANCH   3   4
ATOM      4  C   UNL     1      24.825  30.141 -11.550  1.00  0.00     0.000 C 
BRANCH   4   5
ATOM      5  C   UNL     1      23.852  31.323 -11.716  1.00  0.00     0.006 C 
BRANCH   5   6
ATOM      6  C   UNL     1      24.472  32.506 -12.470  1.00  0.00     0.053 C 
BRANCH   6   7
ATOM      7  C   UNL     1      24.124  32.440 -13.923  1.00  0.00     0.041 C 
ATOM      8  O   UNL     1      24.921  32.891 -14.788  1.00  0.00    -0.550 OA
ATOM      9  O   UNL     1      22.941  31.833 -14.329  1.00  0.00    -0.550 OA
ENDBRANCH   6   7
ENDBRANCH   5   6
ENDBRANCH   4   5
ENDBRANCH   3   4
ENDBRANCH   2   3
ENDBRANCH   1   2
BRANCH   1  10
ATOM     10  C   UNL     1      27.467  30.692 -13.835  1.00  0.00     0.000 C 
BRANCH  10  11
ATOM     11  C   UNL     1      27.123  29.917 -15.117  1.00  0.00    -0.000 C 
BRANCH  11  12
ATOM     12  C   UNL     1      25.749  29.234 -15.043  1.00  0.00    -0.000 C 
BRANCH  12  13
ATOM     13  C   UNL     1      25.824  27.722 -15.315  1.00  0.00    -0.000 C 
BRANCH  13  14
ATOM     14  C   UNL     1      25.759  26.878 -14.029  1.00  0.00    -0.000 C 
BRANCH  14  15
ATOM     15  C   UNL     1      27.080  26.192 -13.638  1.00  0.00    -0.000 C 
BRANCH  15  16
ATOM     16  C   UNL     1      26.956  24.663 -13.543  1.00  0.00    -0.003 C 
ATOM     17  C   UNL     1      26.012  24.121 -14.612  1.00  0.00     0.004 C 
ENDBRANCH  15  16
ENDBRANCH  14  15
ENDBRANCH  13  14
ENDBRANCH  12  13
ENDBRANCH  11  12
ENDBRANCH  10  11
ENDBRANCH   1  10
TORSDOF 13
ENDMDL
