MODEL 1
REMARK VINA RESULT:    -5.346      0.000      0.000
REMARK INTER + INTRA:          -8.355
REMARK INTER:                  -7.690
REMARK INTRA:                  -0.665
REMARK UNBOUND:                -0.665
REMARK SMILES O=C(CO)[C@@H](O)[C@H](O)[C@@H](O)CO
REMARK SMILES IDX 7 1 9 2 11 3 12 4 10 6 5 8 2 9 1 10 3 11 4 12 6 14 8 16
REMARK H PARENT 12 5 10 7 4 13 6 15 8 17
REMARK Flexibility Score: inf
ROOT
ATOM      1  C   UNL     1      41.613   1.135 -34.407  1.00  0.00     0.181 C 
ENDROOT
BRANCH   1   2
ATOM      2  C   UNL     1      41.954   2.650 -34.398  1.00  0.00     0.171 C 
BRANCH   2   3
ATOM      3  C   UNL     1      42.770   3.063 -35.638  1.00  0.00     0.190 C 
BRANCH   3   4
ATOM      4  O   UNL     1      44.143   2.959 -35.376  1.00  0.00    -0.394 OA
ATOM      5  H   UNL     1      44.550   2.507 -36.160  1.00  0.00     0.210 HD
ENDBRANCH   3   4
ENDBRANCH   2   3
BRANCH   2   6
ATOM      6  O   UNL     1      42.624   3.015 -33.215  1.00  0.00    -0.388 OA
ATOM      7  H   UNL     1      43.135   2.225 -32.901  1.00  0.00     0.211 HD
ENDBRANCH   2   6
ENDBRANCH   1   2
BRANCH   1   8
ATOM      8  C   UNL     1      42.090   0.422 -33.118  1.00  0.00     0.214 C 
BRANCH   8   9
ATOM      9  C   UNL     1      41.128  -0.661 -32.685  1.00  0.00     0.189 C 
ATOM     10  O   UNL     1      40.418  -0.477 -31.708  1.00  0.00    -0.294 OA
BRANCH   9  11
ATOM     11  C   UNL     1      41.015  -1.960 -33.439  1.00  0.00     0.234 C 
BRANCH  11  12
ATOM     12  O   UNL     1      41.856  -2.923 -32.866  1.00  0.00    -0.388 OA
ATOM     13  H   UNL     1      41.595  -2.999 -31.911  1.00  0.00     0.211 HD
ENDBRANCH  11  12
ENDBRANCH   9  11
ENDBRANCH   8   9
BRANCH   8  14
ATOM     14  O   UNL     1      43.352  -0.160 -33.330  1.00  0.00    -0.382 OA
ATOM     15  H   UNL     1      43.545  -0.093 -34.302  1.00  0.00     0.211 HD
ENDBRANCH   8  14
ENDBRANCH   1   8
BRANCH   1  16
ATOM     16  O   UNL     1      42.214   0.514 -35.517  1.00  0.00    -0.387 OA
ATOM     17  H   UNL     1      41.893  -0.425 -35.540  1.00  0.00     0.211 HD
ENDBRANCH   1  16
TORSDOF 10
ENDMDL
MODEL 2
REMARK VINA RESULT:    -5.265      1.120      4.550
REMARK INTER + INTRA:          -8.238
REMARK INTER:                  -7.077
REMARK INTRA:                  -1.162
REMARK UNBOUND:                -0.665
REMARK SMILES O=C(CO)[C@@H](O)[C@H](O)[C@@H](O)CO
REMARK SMILES IDX 7 1 9 2 11 3 12 4 10 6 5 8 2 9 1 10 3 11 4 12 6 14 8 16
REMARK H PARENT 12 5 10 7 4 13 6 15 8 17
REMARK Flexibility Score: inf
ROOT
ATOM      1  C   UNL     1      41.419   1.002 -33.849  1.00  0.00     0.181 C 
ENDROOT
BRANCH   1   2
ATOM      2  C   UNL     1      42.034  -0.419 -33.722  1.00  0.00     0.171 C 
BRANCH   2   3
ATOM      3  C   UNL     1      41.270  -1.288 -32.706  1.00  0.00     0.190 C 
BRANCH   3   4
ATOM      4  O   UNL     1      40.725  -0.489 -31.691  1.00  0.00    -0.394 OA
ATOM      5  H   UNL     1      39.776  -0.758 -31.593  1.00  0.00     0.210 HD
ENDBRANCH   3   4
ENDBRANCH   2   3
BRANCH   2   6
ATOM      6  O   UNL     1      43.402  -0.355 -33.396  1.00  0.00    -0.388 OA
ATOM      7  H   UNL     1      43.793   0.415 -33.886  1.00  0.00     0.211 HD
ENDBRANCH   2   6
ENDBRANCH   1   2
BRANCH   1   8
ATOM      8  C   UNL     1      41.351   1.480 -35.320  1.00  0.00     0.214 C 
BRANCH   8   9
ATOM      9  C   UNL     1      41.730   2.937 -35.454  1.00  0.00     0.189 C 
ATOM     10  O   UNL     1      40.972   3.796 -35.030  1.00  0.00    -0.294 OA
BRANCH   9  11
ATOM     11  C   UNL     1      43.029   3.356 -36.092  1.00  0.00     0.234 C 
BRANCH  11  12
ATOM     12  O   UNL     1      44.110   2.923 -35.313  1.00  0.00    -0.388 OA
ATOM     13  H   UNL     1      44.121   1.931 -35.366  1.00  0.00     0.211 HD
ENDBRANCH  11  12
ENDBRANCH   9  11
ENDBRANCH   8   9
BRANCH   8  14
ATOM     14  O   UNL     1      42.224   0.716 -36.113  1.00  0.00    -0.382 OA
ATOM     15  H   UNL     1      42.644   0.040 -35.519  1.00  0.00     0.211 HD
ENDBRANCH   8  14
ENDBRANCH   1   8
BRANCH   1  16
ATOM     16  O   UNL     1      42.181   1.923 -33.107  1.00  0.00    -0.387 OA
ATOM     17  H   UNL     1      43.136   1.744 -33.308  1.00  0.00     0.211 HD
ENDBRANCH   1  16
TORSDOF 10
ENDMDL
MODEL 3
REMARK VINA RESULT:    -5.196      1.505      4.616
REMARK INTER + INTRA:          -8.140
REMARK INTER:                  -6.925
REMARK INTRA:                  -1.215
REMARK UNBOUND:                -0.665
REMARK SMILES O=C(CO)[C@@H](O)[C@H](O)[C@@H](O)CO
REMARK SMILES IDX 7 1 9 2 11 3 12 4 10 6 5 8 2 9 1 10 3 11 4 12 6 14 8 16
REMARK H PARENT 12 5 10 7 4 13 6 15 8 17
REMARK Flexibility Score: inf
ROOT
ATOM      1  C   UNL     1      41.671   1.446 -33.366  1.00  0.00     0.181 C 
ENDROOT
BRANCH   1   2
ATOM      2  C   UNL     1      40.453   0.497 -33.203  1.00  0.00     0.171 C 
BRANCH   2   3
ATOM      3  C   UNL     1      40.675  -0.536 -32.082  1.00  0.00     0.190 C 
BRANCH   3   4
ATOM      4  O   UNL     1      41.806  -1.318 -32.354  1.00  0.00    -0.394 OA
ATOM      5  H   UNL     1      41.787  -1.522 -33.325  1.00  0.00     0.210 HD
ENDBRANCH   3   4
ENDBRANCH   2   3
BRANCH   2   6
ATOM      6  O   UNL     1      40.139  -0.144 -34.416  1.00  0.00    -0.388 OA
ATOM      7  H   UNL     1      40.930  -0.069 -35.011  1.00  0.00     0.211 HD
ENDBRANCH   2   6
ENDBRANCH   1   2
BRANCH   1   8
ATOM      8  C   UNL     1      41.351   2.654 -34.280  1.00  0.00     0.214 C 
BRANCH   8   9
ATOM      9  C   UNL     1      41.970   2.502 -35.651  1.00  0.00     0.189 C 
ATOM     10  O   UNL     1      41.520   1.670 -36.423  1.00  0.00    -0.294 OA
BRANCH   9  11
ATOM     11  C   UNL     1      43.125   3.362 -36.092  1.00  0.00     0.234 C 
BRANCH  11  12
ATOM     12  O   UNL     1      44.307   2.938 -35.469  1.00  0.00    -0.388 OA
ATOM     13  H   UNL     1      44.762   3.754 -35.133  1.00  0.00     0.211 HD
ENDBRANCH  11  12
ENDBRANCH   9  11
ENDBRANCH   8   9
BRANCH   8  14
ATOM     14  O   UNL     1      39.960   2.788 -34.429  1.00  0.00    -0.382 OA
ATOM     15  H   UNL     1      39.785   2.967 -35.390  1.00  0.00     0.211 HD
ENDBRANCH   8  14
ENDBRANCH   1   8
BRANCH   1  16
ATOM     16  O   UNL     1      42.759   0.741 -33.913  1.00  0.00    -0.387 OA
ATOM     17  H   UNL     1      43.532   1.363 -33.937  1.00  0.00     0.211 HD
ENDBRANCH   1  16
TORSDOF 10
ENDMDL
MODEL 4
REMARK VINA RESULT:    -5.194      1.214      1.538
REMARK INTER + INTRA:          -8.136
REMARK INTER:                  -6.934
REMARK INTRA:                  -1.202
REMARK UNBOUND:                -0.665
REMARK SMILES O=C(CO)[C@@H](O)[C@H](O)[C@@H](O)CO
REMARK SMILES IDX 7 1 9 2 11 3 12 4 10 6 5 8 2 9 1 10 3 11 4 12 6 14 8 16
REMARK H PARENT 12 5 10 7 4 13 6 15 8 17
REMARK Flexibility Score: inf
ROOT
ATOM      1  C   UNL     1      41.409   1.537 -35.541  1.00  0.00     0.181 C 
ENDROOT
BRANCH   1   2
ATOM      2  C   UNL     1      41.799   3.029 -35.353  1.00  0.00     0.171 C 
BRANCH   2   3
ATOM      3  C   UNL     1      43.075   3.393 -36.137  1.00  0.00     0.190 C 
BRANCH   3   4
ATOM      4  O   UNL     1      44.213   2.939 -35.455  1.00  0.00    -0.394 OA
ATOM      5  H   UNL     1      44.625   2.238 -36.022  1.00  0.00     0.210 HD
ENDBRANCH   3   4
ENDBRANCH   2   3
BRANCH   2   6
ATOM      6  O   UNL     1      41.940   3.352 -33.991  1.00  0.00    -0.388 OA
ATOM      7  H   UNL     1      41.914   4.341 -33.910  1.00  0.00     0.211 HD
ENDBRANCH   2   6
ENDBRANCH   1   2
BRANCH   1   8
ATOM      8  C   UNL     1      41.600   0.717 -34.242  1.00  0.00     0.214 C 
BRANCH   8   9
ATOM      9  C   UNL     1      40.929  -0.635 -34.328  1.00  0.00     0.189 C 
ATOM     10  O   UNL     1      40.372  -0.964 -35.364  1.00  0.00    -0.294 OA
BRANCH   9  11
ATOM     11  C   UNL     1      40.939  -1.593 -33.166  1.00  0.00     0.234 C 
BRANCH  11  12
ATOM     12  O   UNL     1      41.819  -1.138 -32.174  1.00  0.00    -0.388 OA
ATOM     13  H   UNL     1      42.558  -1.799 -32.121  1.00  0.00     0.211 HD
ENDBRANCH  11  12
ENDBRANCH   9  11
ENDBRANCH   8   9
BRANCH   8  14
ATOM     14  O   UNL     1      42.969   0.522 -33.993  1.00  0.00    -0.382 OA
ATOM     15  H   UNL     1      43.436   1.360 -34.250  1.00  0.00     0.211 HD
ENDBRANCH   8  14
ENDBRANCH   1   8
BRANCH   1  16
ATOM     16  O   UNL     1      42.191   0.961 -36.559  1.00  0.00    -0.387 OA
ATOM     17  H   UNL     1      42.391   1.676 -37.218  1.00  0.00     0.211 HD
ENDBRANCH   1  16
TORSDOF 10
ENDMDL
MODEL 5
REMARK VINA RESULT:    -5.046      1.467      4.748
REMARK INTER + INTRA:          -7.923
REMARK INTER:                  -6.991
REMARK INTRA:                  -0.932
REMARK UNBOUND:                -0.665
REMARK SMILES O=C(CO)[C@@H](O)[C@H](O)[C@@H](O)CO
REMARK SMILES IDX 7 1 9 2 11 3 12 4 10 6 5 8 2 9 1 10 3 11 4 12 6 14 8 16
REMARK H PARENT 12 5 10 7 4 13 6 15 8 17
REMARK Flexibility Score: inf
ROOT
ATOM      1  C   UNL     1      41.637   1.214 -33.440  1.00  0.00     0.181 C 
ENDROOT
BRANCH   1   2
ATOM      2  C   UNL     1      42.171  -0.234 -33.615  1.00  0.00     0.171 C 
BRANCH   2   3
ATOM      3  C   UNL     1      41.332  -1.255 -32.824  1.00  0.00     0.190 C 
BRANCH   3   4
ATOM      4  O   UNL     1      40.693  -0.631 -31.743  1.00  0.00    -0.394 OA
ATOM      5  H   UNL     1      41.296  -0.724 -30.962  1.00  0.00     0.210 HD
ENDBRANCH   3   4
ENDBRANCH   2   3
BRANCH   2   6
ATOM      6  O   UNL     1      43.530  -0.322 -33.261  1.00  0.00    -0.388 OA
ATOM      7  H   UNL     1      43.927  -1.075 -33.771  1.00  0.00     0.211 HD
ENDBRANCH   2   6
ENDBRANCH   1   2
BRANCH   1   8
ATOM      8  C   UNL     1      41.888   2.085 -34.695  1.00  0.00     0.214 C 
BRANCH   8   9
ATOM      9  C   UNL     1      41.044   3.339 -34.688  1.00  0.00     0.189 C 
ATOM     10  O   UNL     1      40.443   3.651 -33.672  1.00  0.00    -0.294 OA
BRANCH   9  11
ATOM     11  C   UNL     1      40.936   4.220 -35.904  1.00  0.00     0.234 C 
BRANCH  11  12
ATOM     12  O   UNL     1      42.181   4.793 -36.197  1.00  0.00    -0.388 OA
ATOM     13  H   UNL     1      42.561   5.108 -35.335  1.00  0.00     0.211 HD
ENDBRANCH  11  12
ENDBRANCH   9  11
ENDBRANCH   8   9
BRANCH   8  14
ATOM     14  O   UNL     1      43.242   2.457 -34.758  1.00  0.00    -0.382 OA
ATOM     15  H   UNL     1      43.315   3.185 -35.430  1.00  0.00     0.211 HD
ENDBRANCH   8  14
ENDBRANCH   1   8
BRANCH   1  16
ATOM     16  O   UNL     1      42.256   1.824 -32.334  1.00  0.00    -0.387 OA
ATOM     17  H   UNL     1      41.869   2.733 -32.243  1.00  0.00     0.211 HD
ENDBRANCH   1  16
TORSDOF 10
ENDMDL
MODEL 6
REMARK VINA RESULT:    -5.040      1.569      2.360
REMARK INTER + INTRA:          -7.915
REMARK INTER:                  -7.730
REMARK INTRA:                  -0.186
REMARK UNBOUND:                -0.665
REMARK SMILES O=C(CO)[C@@H](O)[C@H](O)[C@@H](O)CO
REMARK SMILES IDX 7 1 9 2 11 3 12 4 10 6 5 8 2 9 1 10 3 11 4 12 6 14 8 16
REMARK H PARENT 12 5 10 7 4 13 6 15 8 17
REMARK Flexibility Score: inf
ROOT
ATOM      1  C   UNL     1      42.002   0.845 -33.013  1.00  0.00     0.181 C 
ENDROOT
BRANCH   1   2
ATOM      2  C   UNL     1      41.726   2.339 -33.338  1.00  0.00     0.171 C 
BRANCH   2   3
ATOM      3  C   UNL     1      42.148   2.701 -34.775  1.00  0.00     0.190 C 
BRANCH   3   4
ATOM      4  O   UNL     1      43.501   3.066 -34.809  1.00  0.00    -0.394 OA
ATOM      5  H   UNL     1      44.003   2.351 -34.340  1.00  0.00     0.210 HD
ENDBRANCH   3   4
ENDBRANCH   2   3
BRANCH   2   6
ATOM      6  O   UNL     1      42.349   3.188 -32.405  1.00  0.00    -0.388 OA
ATOM      7  H   UNL     1      41.790   3.199 -31.586  1.00  0.00     0.211 HD
ENDBRANCH   2   6
ENDBRANCH   1   2
BRANCH   1   8
ATOM      8  C   UNL     1      40.701   0.008 -32.965  1.00  0.00     0.214 C 
BRANCH   8   9
ATOM      9  C   UNL     1      40.680  -1.060 -34.036  1.00  0.00     0.189 C 
ATOM     10  O   UNL     1      40.872  -2.225 -33.724  1.00  0.00    -0.294 OA
BRANCH   9  11
ATOM     11  C   UNL     1      40.418  -0.721 -35.479  1.00  0.00     0.234 C 
BRANCH  11  12
ATOM     12  O   UNL     1      39.324  -1.456 -35.955  1.00  0.00    -0.388 OA
ATOM     13  H   UNL     1      38.738  -0.816 -36.439  1.00  0.00     0.211 HD
ENDBRANCH  11  12
ENDBRANCH   9  11
ENDBRANCH   8   9
BRANCH   8  14
ATOM     14  O   UNL     1      40.574  -0.613 -31.711  1.00  0.00    -0.382 OA
ATOM     15  H   UNL     1      40.327  -1.560 -31.877  1.00  0.00     0.211 HD
ENDBRANCH   8  14
ENDBRANCH   1   8
BRANCH   1  16
ATOM     16  O   UNL     1      42.655   0.737 -31.771  1.00  0.00    -0.387 OA
ATOM     17  H   UNL     1      41.958   0.567 -31.085  1.00  0.00     0.211 HD
ENDBRANCH   1  16
TORSDOF 10
ENDMDL
MODEL 7
REMARK VINA RESULT:    -4.999      1.935      2.747
REMARK INTER + INTRA:          -7.856
REMARK INTER:                  -6.670
REMARK INTRA:                  -1.186
REMARK UNBOUND:                -0.665
REMARK SMILES O=C(CO)[C@@H](O)[C@H](O)[C@@H](O)CO
REMARK SMILES IDX 7 1 9 2 11 3 12 4 10 6 5 8 2 9 1 10 3 11 4 12 6 14 8 16
REMARK H PARENT 12 5 10 7 4 13 6 15 8 17
REMARK Flexibility Score: inf
ROOT
ATOM      1  C   UNL     1      41.763   2.479 -36.265  1.00  0.00     0.181 C 
ENDROOT
BRANCH   1   2
ATOM      2  C   UNL     1      42.963   3.441 -36.053  1.00  0.00     0.171 C 
BRANCH   2   3
ATOM      3  C   UNL     1      43.823   3.576 -37.325  1.00  0.00     0.190 C 
BRANCH   3   4
ATOM      4  O   UNL     1      45.162   3.268 -37.045  1.00  0.00    -0.394 OA
ATOM      5  H   UNL     1      45.487   3.958 -36.411  1.00  0.00     0.210 HD
ENDBRANCH   3   4
ENDBRANCH   2   3
BRANCH   2   6
ATOM      6  O   UNL     1      43.751   3.040 -34.958  1.00  0.00    -0.388 OA
ATOM      7  H   UNL     1      43.143   2.879 -34.191  1.00  0.00     0.211 HD
ENDBRANCH   2   6
ENDBRANCH   1   2
BRANCH   1   8
ATOM      8  C   UNL     1      40.806   2.463 -35.047  1.00  0.00     0.214 C 
BRANCH   8   9
ATOM      9  C   UNL     1      40.764   1.105 -34.384  1.00  0.00     0.189 C 
ATOM     10  O   UNL     1      40.041   0.234 -34.845  1.00  0.00    -0.294 OA
BRANCH   9  11
ATOM     11  C   UNL     1      41.600   0.797 -33.170  1.00  0.00     0.234 C 
BRANCH  11  12
ATOM     12  O   UNL     1      42.955   0.733 -33.523  1.00  0.00    -0.388 OA
ATOM     13  H   UNL     1      43.047   1.204 -34.392  1.00  0.00     0.211 HD
ENDBRANCH  11  12
ENDBRANCH   9  11
ENDBRANCH   8   9
BRANCH   8  14
ATOM     14  O   UNL     1      41.222   3.412 -34.098  1.00  0.00    -0.382 OA
ATOM     15  H   UNL     1      40.480   3.519 -33.447  1.00  0.00     0.211 HD
ENDBRANCH   8  14
ENDBRANCH   1   8
BRANCH   1  16
ATOM     16  O   UNL     1      42.229   1.171 -36.491  1.00  0.00    -0.387 OA
ATOM     17  H   UNL     1      41.653   0.557 -35.966  1.00  0.00     0.211 HD
ENDBRANCH   1  16
TORSDOF 10
ENDMDL
MODEL 8
REMARK VINA RESULT:    -4.906      1.451      4.253
REMARK INTER + INTRA:          -7.723
REMARK INTER:                  -6.320
REMARK INTRA:                  -1.402
REMARK UNBOUND:                -0.665
REMARK SMILES O=C(CO)[C@@H](O)[C@H](O)[C@@H](O)CO
REMARK SMILES IDX 7 1 9 2 11 3 12 4 10 6 5 8 2 9 1 10 3 11 4 12 6 14 8 16
REMARK H PARENT 12 5 10 7 4 13 6 15 8 17
REMARK Flexibility Score: inf
ROOT
ATOM      1  C   UNL     1      40.799   0.168 -34.031  1.00  0.00     0.181 C 
ENDROOT
BRANCH   1   2
ATOM      2  C   UNL     1      41.959  -0.851 -33.864  1.00  0.00     0.171 C 
BRANCH   2   3
ATOM      3  C   UNL     1      41.438  -2.277 -33.602  1.00  0.00     0.190 C 
BRANCH   3   4
ATOM      4  O   UNL     1      41.168  -2.456 -32.238  1.00  0.00    -0.394 OA
ATOM      5  H   UNL     1      41.265  -3.426 -32.052  1.00  0.00     0.210 HD
ENDBRANCH   3   4
ENDBRANCH   2   3
BRANCH   2   6
ATOM      6  O   UNL     1      42.848  -0.451 -32.850  1.00  0.00    -0.388 OA
ATOM      7  H   UNL     1      42.392  -0.583 -31.979  1.00  0.00     0.211 HD
ENDBRANCH   2   6
ENDBRANCH   1   2
BRANCH   1   8
ATOM      8  C   UNL     1      41.291   1.526 -34.589  1.00  0.00     0.214 C 
BRANCH   8   9
ATOM      9  C   UNL     1      40.895   2.678 -33.694  1.00  0.00     0.189 C 
ATOM     10  O   UNL     1      39.748   3.099 -33.731  1.00  0.00    -0.294 OA
BRANCH   9  11
ATOM     11  C   UNL     1      41.879   3.313 -32.748  1.00  0.00     0.234 C 
BRANCH  11  12
ATOM     12  O   UNL     1      42.529   2.327 -31.994  1.00  0.00    -0.388 OA
ATOM     13  H   UNL     1      43.504   2.473 -32.111  1.00  0.00     0.211 HD
ENDBRANCH  11  12
ENDBRANCH   9  11
ENDBRANCH   8   9
BRANCH   8  14
ATOM     14  O   UNL     1      42.691   1.515 -34.711  1.00  0.00    -0.382 OA
ATOM     15  H   UNL     1      43.062   1.315 -33.812  1.00  0.00     0.211 HD
ENDBRANCH   8  14
ENDBRANCH   1   8
BRANCH   1  16
ATOM     16  O   UNL     1      40.171   0.388 -32.792  1.00  0.00    -0.387 OA
ATOM     17  H   UNL     1      40.735   1.030 -32.286  1.00  0.00     0.211 HD
ENDBRANCH   1  16
TORSDOF 10
ENDMDL
MODEL 9
REMARK VINA RESULT:    -4.854      1.759      4.711
REMARK INTER + INTRA:          -7.647
REMARK INTER:                  -6.743
REMARK INTRA:                  -0.903
REMARK UNBOUND:                -0.665
REMARK SMILES O=C(CO)[C@@H](O)[C@H](O)[C@@H](O)CO
REMARK SMILES IDX 7 1 9 2 11 3 12 4 10 6 5 8 2 9 1 10 3 11 4 12 6 14 8 16
REMARK H PARENT 12 5 10 7 4 13 6 15 8 17
REMARK Flexibility Score: inf
ROOT
ATOM      1  C   UNL     1      41.494   2.260 -33.465  1.00  0.00     0.181 C 
ENDROOT
BRANCH   1   2
ATOM      2  C   UNL     1      41.123   0.790 -33.130  1.00  0.00     0.171 C 
BRANCH   2   3
ATOM      3  C   UNL     1      42.323  -0.160 -33.304  1.00  0.00     0.190 C 
BRANCH   3   4
ATOM      4  O   UNL     1      43.218  -0.017 -32.234  1.00  0.00    -0.394 OA
ATOM      5  H   UNL     1      44.129   0.011 -32.625  1.00  0.00     0.210 HD
ENDBRANCH   3   4
ENDBRANCH   2   3
BRANCH   2   6
ATOM      6  O   UNL     1      40.026   0.354 -33.895  1.00  0.00    -0.388 OA
ATOM      7  H   UNL     1      40.330  -0.409 -34.452  1.00  0.00     0.211 HD
ENDBRANCH   2   6
ENDBRANCH   1   2
BRANCH   1   8
ATOM      8  C   UNL     1      42.274   2.376 -34.797  1.00  0.00     0.214 C 
BRANCH   8   9
ATOM      9  C   UNL     1      41.387   2.841 -35.929  1.00  0.00     0.189 C 
ATOM     10  O   UNL     1      40.463   2.132 -36.297  1.00  0.00    -0.294 OA
BRANCH   9  11
ATOM     11  C   UNL     1      41.611   4.165 -36.610  1.00  0.00     0.234 C 
BRANCH  11  12
ATOM     12  O   UNL     1      41.321   5.215 -35.728  1.00  0.00    -0.388 OA
ATOM     13  H   UNL     1      40.717   4.846 -35.032  1.00  0.00     0.211 HD
ENDBRANCH  11  12
ENDBRANCH   9  11
ENDBRANCH   8   9
BRANCH   8  14
ATOM     14  O   UNL     1      43.333   3.289 -34.655  1.00  0.00    -0.382 OA
ATOM     15  H   UNL     1      43.762   3.381 -35.546  1.00  0.00     0.211 HD
ENDBRANCH   8  14
ENDBRANCH   1   8
BRANCH   1  16
ATOM     16  O   UNL     1      42.278   2.805 -32.431  1.00  0.00    -0.387 OA
ATOM     17  H   UNL     1      43.174   2.999 -32.812  1.00  0.00     0.211 HD
ENDBRANCH   1  16
TORSDOF 10
ENDMDL
