MODEL 1
REMARK VINA RESULT:    -4.367      0.000      0.000
REMARK INTER + INTRA:          -7.103
REMARK INTER:                  -6.664
REMARK INTRA:                  -0.439
REMARK UNBOUND:                -0.439
REMARK SMILES O=C([O-])CCCCCCCCC(=O)[O-]
REMARK SMILES IDX 7 1 6 2 5 3 4 4 2 5 1 6 3 7 8 8 9 9 10 10 11 11 12 12 13 13
REMARK SMILES IDX 14 14
REMARK H PARENT
REMARK Flexibility Score: inf
ROOT
ATOM      1  C   UNL     1      -4.042  -2.601   6.770  1.00  0.00     0.000 C 
ENDROOT
BRANCH   1   2
ATOM      2  C   UNL     1      -3.790  -2.329   8.262  1.00  0.00     0.000 C 
BRANCH   2   3
ATOM      3  C   UNL     1      -3.621  -0.833   8.570  1.00  0.00     0.006 C 
BRANCH   3   4
ATOM      4  C   UNL     1      -3.553  -0.013   7.279  1.00  0.00     0.053 C 
BRANCH   4   5
ATOM      5  C   UNL     1      -3.207   1.411   7.581  1.00  0.00     0.041 C 
ATOM      6  O   UNL     1      -2.343   1.681   8.457  1.00  0.00    -0.550 OA
ATOM      7  O   UNL     1      -3.801   2.440   6.861  1.00  0.00    -0.550 OA
ENDBRANCH   4   5
ENDBRANCH   3   4
ENDBRANCH   2   3
ENDBRANCH   1   2
BRANCH   1   8
ATOM      8  C   UNL     1      -5.463  -3.111   6.493  1.00  0.00     0.000 C 
BRANCH   8   9
ATOM      9  C   UNL     1      -5.538  -3.818   5.134  1.00  0.00     0.000 C 
BRANCH   9  10
ATOM     10  C   UNL     1      -6.705  -3.279   4.294  1.00  0.00     0.006 C 
BRANCH  10  11
ATOM     11  C   UNL     1      -6.813  -1.749   4.363  1.00  0.00     0.053 C 
BRANCH  11  12
ATOM     12  C   UNL     1      -7.210  -1.160   3.045  1.00  0.00     0.041 C 
ATOM     13  O   UNL     1      -7.834  -1.857   2.202  1.00  0.00    -0.550 OA
ATOM     14  O   UNL     1      -6.861   0.149   2.733  1.00  0.00    -0.550 OA
ENDBRANCH  11  12
ENDBRANCH  10  11
ENDBRANCH   9  10
ENDBRANCH   8   9
ENDBRANCH   1   8
TORSDOF 9
ENDMDL
MODEL 2
REMARK VINA RESULT:    -4.275      0.930      5.365
REMARK INTER + INTRA:          -6.963
REMARK INTER:                  -6.414
REMARK INTRA:                  -0.549
REMARK UNBOUND:                -0.439
REMARK SMILES O=C([O-])CCCCCCCCC(=O)[O-]
REMARK SMILES IDX 7 1 6 2 5 3 4 4 2 5 1 6 3 7 8 8 9 9 10 10 11 11 12 12 13 13
REMARK SMILES IDX 14 14
REMARK H PARENT
REMARK Flexibility Score: inf
ROOT
ATOM      1  C   UNL     1      -5.245  -3.805   5.277  1.00  0.00     0.000 C 
ENDROOT
BRANCH   1   2
ATOM      2  C   UNL     1      -6.630  -4.062   4.662  1.00  0.00     0.000 C 
BRANCH   2   3
ATOM      3  C   UNL     1      -7.527  -2.814   4.683  1.00  0.00     0.006 C 
BRANCH   3   4
ATOM      4  C   UNL     1      -7.402  -2.029   3.375  1.00  0.00     0.053 C 
BRANCH   4   5
ATOM      5  C   UNL     1      -6.986  -0.618   3.649  1.00  0.00     0.041 C 
ATOM      6  O   UNL     1      -6.650  -0.271   4.812  1.00  0.00    -0.550 OA
ATOM      7  O   UNL     1      -6.921   0.303   2.610  1.00  0.00    -0.550 OA
ENDBRANCH   4   5
ENDBRANCH   3   4
ENDBRANCH   2   3
ENDBRANCH   1   2
BRANCH   1   8
ATOM      8  C   UNL     1      -5.313  -2.958   6.556  1.00  0.00     0.000 C 
BRANCH   8   9
ATOM      9  C   UNL     1      -3.912  -2.527   7.005  1.00  0.00     0.000 C 
BRANCH   9  10
ATOM     10  C   UNL     1      -3.964  -1.204   7.783  1.00  0.00     0.006 C 
BRANCH  10  11
ATOM     11  C   UNL     1      -3.883   0.018   6.857  1.00  0.00     0.053 C 
BRANCH  11  12
ATOM     12  C   UNL     1      -3.269   1.197   7.546  1.00  0.00     0.041 C 
ATOM     13  O   UNL     1      -2.451   1.026   8.488  1.00  0.00    -0.550 OA
ATOM     14  O   UNL     1      -3.626   2.487   7.170  1.00  0.00    -0.550 OA
ENDBRANCH  11  12
ENDBRANCH  10  11
ENDBRANCH   9  10
ENDBRANCH   8   9
ENDBRANCH   1   8
TORSDOF 9
ENDMDL
MODEL 3
REMARK VINA RESULT:    -4.240      1.497      2.499
REMARK INTER + INTRA:          -6.910
REMARK INTER:                  -6.398
REMARK INTRA:                  -0.512
REMARK UNBOUND:                -0.439
REMARK SMILES O=C([O-])CCCCCCCCC(=O)[O-]
REMARK SMILES IDX 7 1 6 2 5 3 4 4 2 5 1 6 3 7 8 8 9 9 10 10 11 11 12 12 13 13
REMARK SMILES IDX 14 14
REMARK H PARENT
REMARK Flexibility Score: inf
ROOT
ATOM      1  C   UNL     1      -3.676  -0.758   8.624  1.00  0.00     0.000 C 
ENDROOT
BRANCH   1   2
ATOM      2  C   UNL     1      -3.417   0.053   7.345  1.00  0.00     0.000 C 
BRANCH   2   3
ATOM      3  C   UNL     1      -2.482   1.250   7.583  1.00  0.00     0.006 C 
BRANCH   3   4
ATOM      4  C   UNL     1      -2.665   1.814   8.995  1.00  0.00     0.053 C 
BRANCH   4   5
ATOM      5  C   UNL     1      -3.581   2.997   8.972  1.00  0.00     0.041 C 
ATOM      6  O   UNL     1      -3.108   4.162   8.902  1.00  0.00    -0.550 OA
ATOM      7  O   UNL     1      -4.958   2.811   8.981  1.00  0.00    -0.550 OA
ENDBRANCH   4   5
ENDBRANCH   3   4
ENDBRANCH   2   3
ENDBRANCH   1   2
BRANCH   1   8
ATOM      8  C   UNL     1      -3.779  -2.267   8.357  1.00  0.00     0.000 C 
BRANCH   8   9
ATOM      9  C   UNL     1      -4.012  -2.547   6.867  1.00  0.00     0.000 C 
BRANCH   9  10
ATOM     10  C   UNL     1      -5.415  -3.125   6.627  1.00  0.00     0.006 C 
BRANCH  10  11
ATOM     11  C   UNL     1      -5.589  -3.655   5.198  1.00  0.00     0.053 C 
BRANCH  11  12
ATOM     12  C   UNL     1      -6.588  -2.852   4.424  1.00  0.00     0.041 C 
ATOM     13  O   UNL     1      -7.498  -3.430   3.773  1.00  0.00    -0.550 OA
ATOM     14  O   UNL     1      -6.495  -1.465   4.394  1.00  0.00    -0.550 OA
ENDBRANCH  11  12
ENDBRANCH  10  11
ENDBRANCH   9  10
ENDBRANCH   8   9
ENDBRANCH   1   8
TORSDOF 9
ENDMDL
MODEL 4
REMARK VINA RESULT:    -4.124      1.060      5.516
REMARK INTER + INTRA:          -6.733
REMARK INTER:                  -6.218
REMARK INTRA:                  -0.515
REMARK UNBOUND:                -0.439
REMARK SMILES O=C([O-])CCCCCCCCC(=O)[O-]
REMARK SMILES IDX 7 1 6 2 5 3 4 4 2 5 1 6 3 7 8 8 9 9 10 10 11 11 12 12 13 13
REMARK SMILES IDX 14 14
REMARK H PARENT
REMARK Flexibility Score: inf
ROOT
ATOM      1  C   UNL     1      -4.118  -2.654   6.769  1.00  0.00     0.000 C 
ENDROOT
BRANCH   1   2
ATOM      2  C   UNL     1      -5.390  -3.419   6.371  1.00  0.00     0.000 C 
BRANCH   2   3
ATOM      3  C   UNL     1      -5.622  -3.431   4.852  1.00  0.00     0.006 C 
BRANCH   3   4
ATOM      4  C   UNL     1      -6.936  -2.732   4.494  1.00  0.00     0.053 C 
BRANCH   4   5
ATOM      5  C   UNL     1      -6.700  -1.280   4.222  1.00  0.00     0.041 C 
ATOM      6  O   UNL     1      -6.722  -0.845   3.040  1.00  0.00    -0.550 OA
ATOM      7  O   UNL     1      -6.504  -0.397   5.277  1.00  0.00    -0.550 OA
ENDBRANCH   4   5
ENDBRANCH   3   4
ENDBRANCH   2   3
ENDBRANCH   1   2
BRANCH   1   8
ATOM      8  C   UNL     1      -4.016  -2.420   8.283  1.00  0.00     0.000 C 
BRANCH   8   9
ATOM      9  C   UNL     1      -3.647  -0.964   8.592  1.00  0.00     0.000 C 
BRANCH   9  10
ATOM     10  C   UNL     1      -3.493  -0.149   7.299  1.00  0.00     0.006 C 
BRANCH  10  11
ATOM     11  C   UNL     1      -2.699   1.146   7.520  1.00  0.00     0.053 C 
BRANCH  11  12
ATOM     12  C   UNL     1      -3.588   2.279   7.931  1.00  0.00     0.041 C 
ATOM     13  O   UNL     1      -3.101   3.290   8.505  1.00  0.00    -0.550 OA
ATOM     14  O   UNL     1      -4.958   2.206   7.713  1.00  0.00    -0.550 OA
ENDBRANCH  11  12
ENDBRANCH  10  11
ENDBRANCH   9  10
ENDBRANCH   8   9
ENDBRANCH   1   8
TORSDOF 9
ENDMDL
MODEL 5
REMARK VINA RESULT:    -3.967      8.382     10.771
REMARK INTER + INTRA:          -6.494
REMARK INTER:                  -6.278
REMARK INTRA:                  -0.216
REMARK UNBOUND:                -0.439
REMARK SMILES O=C([O-])CCCCCCCCC(=O)[O-]
REMARK SMILES IDX 7 1 6 2 5 3 4 4 2 5 1 6 3 7 8 8 9 9 10 10 11 11 12 12 13 13
REMARK SMILES IDX 14 14
REMARK H PARENT
REMARK Flexibility Score: inf
ROOT
ATOM      1  C   UNL     1      -7.419   1.017  -3.622  1.00  0.00     0.000 C 
ENDROOT
BRANCH   1   2
ATOM      2  C   UNL     1      -7.687   2.498  -3.313  1.00  0.00     0.000 C 
BRANCH   2   3
ATOM      3  C   UNL     1      -7.857   2.768  -1.810  1.00  0.00     0.006 C 
BRANCH   3   4
ATOM      4  C   UNL     1      -7.062   4.005  -1.383  1.00  0.00     0.053 C 
BRANCH   4   5
ATOM      5  C   UNL     1      -6.892   4.030   0.103  1.00  0.00     0.041 C 
ATOM      6  O   UNL     1      -6.441   5.060   0.672  1.00  0.00    -0.550 OA
ATOM      7  O   UNL     1      -7.275   2.934   0.867  1.00  0.00    -0.550 OA
ENDBRANCH   4   5
ENDBRANCH   3   4
ENDBRANCH   2   3
ENDBRANCH   1   2
BRANCH   1   8
ATOM      8  C   UNL     1      -6.557   0.820  -4.877  1.00  0.00     0.000 C 
BRANCH   8   9
ATOM      9  C   UNL     1      -5.183   0.243  -4.516  1.00  0.00     0.000 C 
BRANCH   9  10
ATOM     10  C   UNL     1      -4.823  -0.939  -5.429  1.00  0.00     0.006 C 
BRANCH  10  11
ATOM     11  C   UNL     1      -4.210  -0.480  -6.759  1.00  0.00     0.053 C 
BRANCH  11  12
ATOM     12  C   UNL     1      -3.452  -1.582  -7.431  1.00  0.00     0.041 C 
ATOM     13  O   UNL     1      -3.960  -2.731  -7.531  1.00  0.00    -0.550 OA
ATOM     14  O   UNL     1      -2.170  -1.352  -7.918  1.00  0.00    -0.550 OA
ENDBRANCH  11  12
ENDBRANCH  10  11
ENDBRANCH   9  10
ENDBRANCH   8   9
ENDBRANCH   1   8
TORSDOF 9
ENDMDL
MODEL 6
REMARK VINA RESULT:    -3.946     16.875     18.705
REMARK INTER + INTRA:          -6.461
REMARK INTER:                  -5.669
REMARK INTRA:                  -0.791
REMARK UNBOUND:                -0.439
REMARK SMILES O=C([O-])CCCCCCCCC(=O)[O-]
REMARK SMILES IDX 7 1 6 2 5 3 4 4 2 5 1 6 3 7 8 8 9 9 10 10 11 11 12 12 13 13
REMARK SMILES IDX 14 14
REMARK H PARENT
REMARK Flexibility Score: inf
ROOT
ATOM      1  C   UNL     1       1.906  -9.791  -5.991  1.00  0.00     0.000 C 
ENDROOT
BRANCH   1   2
ATOM      2  C   UNL     1       1.404 -10.605  -7.194  1.00  0.00     0.000 C 
BRANCH   2   3
ATOM      3  C   UNL     1       1.805  -9.979  -8.539  1.00  0.00     0.006 C 
BRANCH   3   4
ATOM      4  C   UNL     1       2.402  -8.584  -8.337  1.00  0.00     0.053 C 
BRANCH   4   5
ATOM      5  C   UNL     1       1.568  -7.553  -9.030  1.00  0.00     0.041 C 
ATOM      6  O   UNL     1       0.708  -7.901  -9.883  1.00  0.00    -0.550 OA
ATOM      7  O   UNL     1       1.706  -6.210  -8.701  1.00  0.00    -0.550 OA
ENDBRANCH   4   5
ENDBRANCH   3   4
ENDBRANCH   2   3
ENDBRANCH   1   2
BRANCH   1   8
ATOM      8  C   UNL     1       2.961 -10.544  -5.166  1.00  0.00     0.000 C 
BRANCH   8   9
ATOM      9  C   UNL     1       3.315 -11.885  -5.819  1.00  0.00     0.000 C 
BRANCH   9  10
ATOM     10  C   UNL     1       4.834 -12.030  -5.994  1.00  0.00     0.006 C 
BRANCH  10  11
ATOM     11  C   UNL     1       5.429 -10.915  -6.864  1.00  0.00     0.053 C 
BRANCH  11  12
ATOM     12  C   UNL     1       6.910 -10.798  -6.683  1.00  0.00     0.041 C 
ATOM     13  O   UNL     1       7.594 -11.815  -6.390  1.00  0.00    -0.550 OA
ATOM     14  O   UNL     1       7.533  -9.562  -6.805  1.00  0.00    -0.550 OA
ENDBRANCH  11  12
ENDBRANCH  10  11
ENDBRANCH   9  10
ENDBRANCH   8   9
ENDBRANCH   1   8
TORSDOF 9
ENDMDL
MODEL 7
REMARK VINA RESULT:    -3.920      1.826      5.263
REMARK INTER + INTRA:          -6.421
REMARK INTER:                  -5.740
REMARK INTRA:                  -0.681
REMARK UNBOUND:                -0.439
REMARK SMILES O=C([O-])CCCCCCCCC(=O)[O-]
REMARK SMILES IDX 7 1 6 2 5 3 4 4 2 5 1 6 3 7 8 8 9 9 10 10 11 11 12 12 13 13
REMARK SMILES IDX 14 14
REMARK H PARENT
REMARK Flexibility Score: inf
ROOT
ATOM      1  C   UNL     1      -5.379  -3.032   6.507  1.00  0.00     0.000 C 
ENDROOT
BRANCH   1   2
ATOM      2  C   UNL     1      -5.310  -3.876   5.224  1.00  0.00     0.000 C 
BRANCH   2   3
ATOM      3  C   UNL     1      -6.652  -3.927   4.477  1.00  0.00     0.006 C 
BRANCH   3   4
ATOM      4  C   UNL     1      -7.423  -2.614   4.648  1.00  0.00     0.053 C 
BRANCH   4   5
ATOM      5  C   UNL     1      -7.358  -1.802   3.392  1.00  0.00     0.041 C 
ATOM      6  O   UNL     1      -8.005  -2.160   2.372  1.00  0.00    -0.550 OA
ATOM      7  O   UNL     1      -6.623  -0.624   3.363  1.00  0.00    -0.550 OA
ENDBRANCH   4   5
ENDBRANCH   3   4
ENDBRANCH   2   3
ENDBRANCH   1   2
BRANCH   1   8
ATOM      8  C   UNL     1      -4.001  -2.521   6.954  1.00  0.00     0.000 C 
BRANCH   8   9
ATOM      9  C   UNL     1      -4.053  -1.028   7.296  1.00  0.00     0.000 C 
BRANCH   9  10
ATOM     10  C   UNL     1      -5.385  -0.406   6.851  1.00  0.00     0.006 C 
BRANCH  10  11
ATOM     11  C   UNL     1      -5.255   1.094   6.550  1.00  0.00     0.053 C 
BRANCH  11  12
ATOM     12  C   UNL     1      -6.406   1.874   7.105  1.00  0.00     0.041 C 
ATOM     13  O   UNL     1      -6.377   2.285   8.295  1.00  0.00    -0.550 OA
ATOM     14  O   UNL     1      -7.527   2.118   6.320  1.00  0.00    -0.550 OA
ENDBRANCH  11  12
ENDBRANCH  10  11
ENDBRANCH   9  10
ENDBRANCH   8   9
ENDBRANCH   1   8
TORSDOF 9
ENDMDL
MODEL 8
REMARK VINA RESULT:    -3.901     16.889     18.230
REMARK INTER + INTRA:          -6.392
REMARK INTER:                  -5.628
REMARK INTRA:                  -0.764
REMARK UNBOUND:                -0.439
REMARK SMILES O=C([O-])CCCCCCCCC(=O)[O-]
REMARK SMILES IDX 7 1 6 2 5 3 4 4 2 5 1 6 3 7 8 8 9 9 10 10 11 11 12 12 13 13
REMARK SMILES IDX 14 14
REMARK H PARENT
REMARK Flexibility Score: inf
ROOT
ATOM      1  C   UNL     1       2.806 -10.297  -5.347  1.00  0.00     0.000 C 
ENDROOT
BRANCH   1   2
ATOM      2  C   UNL     1       3.211 -11.692  -5.849  1.00  0.00     0.000 C 
BRANCH   2   3
ATOM      3  C   UNL     1       4.735 -11.881  -5.906  1.00  0.00     0.006 C 
BRANCH   3   4
ATOM      4  C   UNL     1       5.391 -10.780  -6.744  1.00  0.00     0.053 C 
BRANCH   4   5
ATOM      5  C   UNL     1       6.838 -10.642  -6.386  1.00  0.00     0.041 C 
ATOM      6  O   UNL     1       7.394 -11.500  -5.652  1.00  0.00    -0.550 OA
ATOM      7  O   UNL     1       7.585  -9.590  -6.903  1.00  0.00    -0.550 OA
ENDBRANCH   4   5
ENDBRANCH   3   4
ENDBRANCH   2   3
ENDBRANCH   1   2
BRANCH   1   8
ATOM      8  C   UNL     1       1.644  -9.694  -6.150  1.00  0.00     0.000 C 
BRANCH   8   9
ATOM      9  C   UNL     1       1.558 -10.319  -7.547  1.00  0.00     0.000 C 
BRANCH   9  10
ATOM     10  C   UNL     1       1.471  -9.236  -8.632  1.00  0.00     0.006 C 
BRANCH  10  11
ATOM     11  C   UNL     1       2.836  -8.600  -8.931  1.00  0.00     0.053 C 
BRANCH  11  12
ATOM     12  C   UNL     1       2.775  -7.105  -8.883  1.00  0.00     0.041 C 
ATOM     13  O   UNL     1       3.748  -6.419  -9.294  1.00  0.00    -0.550 OA
ATOM     14  O   UNL     1       1.659  -6.468  -8.353  1.00  0.00    -0.550 OA
ENDBRANCH  11  12
ENDBRANCH  10  11
ENDBRANCH   9  10
ENDBRANCH   8   9
ENDBRANCH   1   8
TORSDOF 9
ENDMDL
MODEL 9
REMARK VINA RESULT:    -3.852     12.384     14.261
REMARK INTER + INTRA:          -6.318
REMARK INTER:                  -5.692
REMARK INTRA:                  -0.626
REMARK UNBOUND:                -0.439
REMARK SMILES O=C([O-])CCCCCCCCC(=O)[O-]
REMARK SMILES IDX 7 1 6 2 5 3 4 4 2 5 1 6 3 7 8 8 9 9 10 10 11 11 12 12 13 13
REMARK SMILES IDX 14 14
REMARK H PARENT
REMARK Flexibility Score: inf
ROOT
ATOM      1  C   UNL     1      -6.763  -1.168  -6.966  1.00  0.00     0.000 C 
ENDROOT
BRANCH   1   2
ATOM      2  C   UNL     1      -7.206  -2.631  -7.124  1.00  0.00     0.000 C 
BRANCH   2   3
ATOM      3  C   UNL     1      -6.221  -3.461  -7.962  1.00  0.00     0.006 C 
BRANCH   3   4
ATOM      4  C   UNL     1      -6.355  -4.952  -7.645  1.00  0.00     0.053 C 
BRANCH   4   5
ATOM      5  C   UNL     1      -5.023  -5.533  -7.286  1.00  0.00     0.041 C 
ATOM      6  O   UNL     1      -4.766  -6.738  -7.547  1.00  0.00    -0.550 OA
ATOM      7  O   UNL     1      -4.047  -4.731  -6.707  1.00  0.00    -0.550 OA
ENDBRANCH   4   5
ENDBRANCH   3   4
ENDBRANCH   2   3
ENDBRANCH   1   2
BRANCH   1   8
ATOM      8  C   UNL     1      -6.314  -0.835  -5.536  1.00  0.00     0.000 C 
BRANCH   8   9
ATOM      9  C   UNL     1      -4.844  -0.401  -5.509  1.00  0.00     0.000 C 
BRANCH   9  10
ATOM     10  C   UNL     1      -4.282  -0.264  -6.932  1.00  0.00     0.006 C 
BRANCH  10  11
ATOM     11  C   UNL     1      -3.211  -1.320  -7.238  1.00  0.00     0.053 C 
BRANCH  11  12
ATOM     12  C   UNL     1      -2.100  -0.758  -8.070  1.00  0.00     0.041 C 
ATOM     13  O   UNL     1      -1.803  -1.290  -9.172  1.00  0.00    -0.550 OA
ATOM     14  O   UNL     1      -1.368   0.331  -7.612  1.00  0.00    -0.550 OA
ENDBRANCH  11  12
ENDBRANCH  10  11
ENDBRANCH   9  10
ENDBRANCH   8   9
ENDBRANCH   1   8
TORSDOF 9
ENDMDL
