MODEL 1
REMARK VINA RESULT:    -6.481      0.000      0.000
REMARK INTER + INTRA:          -9.185
REMARK INTER:                  -8.186
REMARK INTRA:                  -0.999
REMARK UNBOUND:                -0.999
REMARK SMILES O=C(C=Cc1ccc(O)cc1)c1ccc(O)cc1O
REMARK SMILES IDX 4 1 3 2 5 3 6 4 7 5 8 6 11 7 10 8 9 9 2 11 1 12 12 13 18 14
REMARK SMILES IDX 13 15 17 16 14 17 15 18 19 19 16 21
REMARK H PARENT 9 10 19 20 16 22
REMARK Flexibility Score: inf
ROOT
ATOM      1  C   UNL     1      18.394  24.651  39.300  1.00  0.00     0.012 C 
ATOM      2  C   UNL     1      18.447  25.976  39.511  1.00  0.00     0.053 C 
ENDROOT
BRANCH   1   3
ATOM      3  C   UNL     1      19.162  23.633  40.045  1.00  0.00    -0.025 A 
ATOM      4  C   UNL     1      20.190  22.935  39.396  1.00  0.00     0.012 A 
ATOM      5  C   UNL     1      20.895  21.931  40.069  1.00  0.00     0.047 A 
ATOM      6  C   UNL     1      20.563  21.601  41.387  1.00  0.00     0.115 A 
ATOM      7  C   UNL     1      18.810  23.277  41.359  1.00  0.00     0.012 A 
ATOM      8  C   UNL     1      19.516  22.275  42.030  1.00  0.00     0.047 A 
BRANCH   6   9
ATOM      9  O   UNL     1      21.274  20.600  42.045  1.00  0.00    -0.508 OA
ATOM     10  H   UNL     1      21.258  19.639  41.723  1.00  0.00     0.293 HD
ENDBRANCH   6   9
ENDBRANCH   1   3
BRANCH   2  11
ATOM     11  C   UNL     1      19.410  26.674  40.400  1.00  0.00     0.189 C 
ATOM     12  O   UNL     1      20.495  27.125  39.947  1.00  0.00    -0.289 OA
BRANCH  11  13
ATOM     13  C   UNL     1      19.112  26.858  41.836  1.00  0.00     0.064 A 
ATOM     14  C   UNL     1      20.135  27.063  42.787  1.00  0.00     0.130 A 
ATOM     15  C   UNL     1      17.777  26.797  42.266  1.00  0.00     0.020 A 
ATOM     16  C   UNL     1      19.802  27.247  44.139  1.00  0.00     0.093 A 
ATOM     17  C   UNL     1      17.456  26.973  43.614  1.00  0.00     0.047 A 
ATOM     18  C   UNL     1      18.468  27.204  44.553  1.00  0.00     0.119 A 
BRANCH  14  19
ATOM     19  O   UNL     1      21.474  27.057  42.400  1.00  0.00    -0.507 OA
ATOM     20  H   UNL     1      22.224  27.142  43.076  1.00  0.00     0.293 HD
ENDBRANCH  14  19
BRANCH  18  21
ATOM     21  O   UNL     1      18.161  27.386  45.899  1.00  0.00    -0.508 OA
ATOM     22  H   UNL     1      17.504  28.096  46.201  1.00  0.00     0.293 HD
ENDBRANCH  18  21
ENDBRANCH  11  13
ENDBRANCH   2  11
TORSDOF 6
ENDMDL
MODEL 2
REMARK VINA RESULT:    -6.289      2.687      3.756
REMARK INTER + INTRA:          -8.943
REMARK INTER:                  -7.920
REMARK INTRA:                  -1.023
REMARK UNBOUND:                -0.999
REMARK SMILES O=C(C=Cc1ccc(O)cc1)c1ccc(O)cc1O
REMARK SMILES IDX 4 1 3 2 5 3 6 4 7 5 8 6 11 7 10 8 9 9 2 11 1 12 12 13 18 14
REMARK SMILES IDX 13 15 17 16 14 17 15 18 19 19 16 21
REMARK H PARENT 9 10 19 20 16 22
REMARK Flexibility Score: inf
ROOT
ATOM      1  C   UNL     1      20.270  25.120  40.494  1.00  0.00     0.012 C 
ATOM      2  C   UNL     1      19.242  25.625  41.195  1.00  0.00     0.053 C 
ENDROOT
BRANCH   1   3
ATOM      3  C   UNL     1      20.238  23.873  39.702  1.00  0.00    -0.025 A 
ATOM      4  C   UNL     1      20.802  22.705  40.235  1.00  0.00     0.012 A 
ATOM      5  C   UNL     1      20.827  21.527  39.481  1.00  0.00     0.047 A 
ATOM      6  C   UNL     1      20.310  21.513  38.181  1.00  0.00     0.115 A 
ATOM      7  C   UNL     1      19.748  23.864  38.384  1.00  0.00     0.012 A 
ATOM      8  C   UNL     1      19.773  22.685  37.633  1.00  0.00     0.047 A 
BRANCH   6   9
ATOM      9  O   UNL     1      20.341  20.332  37.442  1.00  0.00    -0.508 OA
ATOM     10  H   UNL     1      19.863  20.251  36.553  1.00  0.00     0.293 HD
ENDBRANCH   6   9
ENDBRANCH   1   3
BRANCH   2  11
ATOM     11  C   UNL     1      17.949  24.942  41.449  1.00  0.00     0.189 C 
ATOM     12  O   UNL     1      16.972  25.102  40.670  1.00  0.00    -0.289 OA
BRANCH  11  13
ATOM     13  C   UNL     1      17.781  24.056  42.620  1.00  0.00     0.064 A 
ATOM     14  C   UNL     1      17.459  24.563  43.897  1.00  0.00     0.130 A 
ATOM     15  C   UNL     1      17.980  22.675  42.459  1.00  0.00     0.020 A 
ATOM     16  C   UNL     1      17.297  23.680  44.977  1.00  0.00     0.093 A 
ATOM     17  C   UNL     1      17.824  21.805  43.541  1.00  0.00     0.047 A 
ATOM     18  C   UNL     1      17.477  22.305  44.802  1.00  0.00     0.119 A 
BRANCH  14  19
ATOM     19  O   UNL     1      17.327  25.936  44.102  1.00  0.00    -0.507 OA
ATOM     20  H   UNL     1      17.841  26.418  44.830  1.00  0.00     0.293 HD
ENDBRANCH  14  19
BRANCH  18  21
ATOM     21  O   UNL     1      17.314  21.447  45.887  1.00  0.00    -0.508 OA
ATOM     22  H   UNL     1      18.073  21.259  46.531  1.00  0.00     0.293 HD
ENDBRANCH  18  21
ENDBRANCH  11  13
ENDBRANCH   2  11
TORSDOF 6
ENDMDL
MODEL 3
REMARK VINA RESULT:    -6.110      1.483      5.521
REMARK INTER + INTRA:          -8.717
REMARK INTER:                  -7.685
REMARK INTRA:                  -1.032
REMARK UNBOUND:                -0.999
REMARK SMILES O=C(C=Cc1ccc(O)cc1)c1ccc(O)cc1O
REMARK SMILES IDX 4 1 3 2 5 3 6 4 7 5 8 6 11 7 10 8 9 9 2 11 1 12 12 13 18 14
REMARK SMILES IDX 13 15 17 16 14 17 15 18 19 19 16 21
REMARK H PARENT 9 10 19 20 16 22
REMARK Flexibility Score: inf
ROOT
ATOM      1  C   UNL     1      19.601  26.916  40.446  1.00  0.00     0.012 C 
ATOM      2  C   UNL     1      19.464  25.895  39.584  1.00  0.00     0.053 C 
ENDROOT
BRANCH   1   3
ATOM      3  C   UNL     1      19.205  26.895  41.869  1.00  0.00    -0.025 A 
ATOM      4  C   UNL     1      17.844  26.952  42.205  1.00  0.00     0.012 A 
ATOM      5  C   UNL     1      17.451  26.985  43.547  1.00  0.00     0.047 A 
ATOM      6  C   UNL     1      18.413  26.986  44.563  1.00  0.00     0.115 A 
ATOM      7  C   UNL     1      20.170  26.928  42.891  1.00  0.00     0.012 A 
ATOM      8  C   UNL     1      19.775  26.960  44.231  1.00  0.00     0.047 A 
BRANCH   6   9
ATOM      9  O   UNL     1      18.007  27.018  45.895  1.00  0.00    -0.508 OA
ATOM     10  H   UNL     1      18.676  27.097  46.651  1.00  0.00     0.293 HD
ENDBRANCH   6   9
ENDBRANCH   1   3
BRANCH   2  11
ATOM     11  C   UNL     1      18.734  24.631  39.848  1.00  0.00     0.189 C 
ATOM     12  O   UNL     1      17.504  24.532  39.593  1.00  0.00    -0.289 OA
BRANCH  11  13
ATOM     13  C   UNL     1      19.436  23.458  40.411  1.00  0.00     0.064 A 
ATOM     14  C   UNL     1      19.153  22.974  41.706  1.00  0.00     0.130 A 
ATOM     15  C   UNL     1      20.431  22.830  39.644  1.00  0.00     0.020 A 
ATOM     16  C   UNL     1      19.837  21.848  42.193  1.00  0.00     0.093 A 
ATOM     17  C   UNL     1      21.111  21.715  40.141  1.00  0.00     0.047 A 
ATOM     18  C   UNL     1      20.811  21.218  41.414  1.00  0.00     0.119 A 
BRANCH  14  19
ATOM     19  O   UNL     1      18.222  23.620  42.518  1.00  0.00    -0.507 OA
ATOM     20  H   UNL     1      18.282  24.613  42.710  1.00  0.00     0.293 HD
ENDBRANCH  14  19
BRANCH  18  21
ATOM     21  O   UNL     1      21.480  20.104  41.918  1.00  0.00    -0.508 OA
ATOM     22  H   UNL     1      21.283  19.171  41.578  1.00  0.00     0.293 HD
ENDBRANCH  18  21
ENDBRANCH  11  13
ENDBRANCH   2  11
TORSDOF 6
ENDMDL
MODEL 4
REMARK VINA RESULT:    -5.963      1.450      2.108
REMARK INTER + INTRA:          -8.531
REMARK INTER:                  -7.678
REMARK INTRA:                  -0.853
REMARK UNBOUND:                -0.999
REMARK SMILES O=C(C=Cc1ccc(O)cc1)c1ccc(O)cc1O
REMARK SMILES IDX 4 1 3 2 5 3 6 4 7 5 8 6 11 7 10 8 9 9 2 11 1 12 12 13 18 14
REMARK SMILES IDX 13 15 17 16 14 17 15 18 19 19 16 21
REMARK H PARENT 9 10 19 20 16 22
REMARK Flexibility Score: inf
ROOT
ATOM      1  C   UNL     1      18.414  25.466  40.490  1.00  0.00     0.012 C 
ATOM      2  C   UNL     1      18.242  26.520  41.304  1.00  0.00     0.053 C 
ENDROOT
BRANCH   1   3
ATOM      3  C   UNL     1      19.116  24.215  40.843  1.00  0.00    -0.025 A 
ATOM      4  C   UNL     1      20.195  23.786  40.057  1.00  0.00     0.012 A 
ATOM      5  C   UNL     1      20.839  22.578  40.345  1.00  0.00     0.047 A 
ATOM      6  C   UNL     1      20.397  21.779  41.404  1.00  0.00     0.115 A 
ATOM      7  C   UNL     1      18.654  23.395  41.887  1.00  0.00     0.012 A 
ATOM      8  C   UNL     1      19.300  22.189  42.173  1.00  0.00     0.047 A 
BRANCH   6   9
ATOM      9  O   UNL     1      21.049  20.579  41.679  1.00  0.00    -0.508 OA
ATOM     10  H   UNL     1      20.693  19.693  41.341  1.00  0.00     0.293 HD
ENDBRANCH   6   9
ENDBRANCH   1   3
BRANCH   2  11
ATOM     11  C   UNL     1      18.871  26.696  42.637  1.00  0.00     0.189 C 
ATOM     12  O   UNL     1      20.108  26.909  42.742  1.00  0.00    -0.289 OA
BRANCH  11  13
ATOM     13  C   UNL     1      18.058  26.631  43.869  1.00  0.00     0.064 A 
ATOM     14  C   UNL     1      18.305  27.481  44.969  1.00  0.00     0.130 A 
ATOM     15  C   UNL     1      17.031  25.677  43.956  1.00  0.00     0.020 A 
ATOM     16  C   UNL     1      17.497  27.392  46.114  1.00  0.00     0.093 A 
ATOM     17  C   UNL     1      16.238  25.590  45.102  1.00  0.00     0.047 A 
ATOM     18  C   UNL     1      16.465  26.451  46.182  1.00  0.00     0.119 A 
BRANCH  14  19
ATOM     19  O   UNL     1      19.362  28.389  44.939  1.00  0.00    -0.507 OA
ATOM     20  H   UNL     1      19.227  29.356  44.667  1.00  0.00     0.293 HD
ENDBRANCH  14  19
BRANCH  18  21
ATOM     21  O   UNL     1      15.677  26.378  47.328  1.00  0.00    -0.508 OA
ATOM     22  H   UNL     1      15.939  26.855  48.182  1.00  0.00     0.293 HD
ENDBRANCH  18  21
ENDBRANCH  11  13
ENDBRANCH   2  11
TORSDOF 6
ENDMDL
MODEL 5
REMARK VINA RESULT:    -5.935      2.153      5.821
REMARK INTER + INTRA:          -8.495
REMARK INTER:                  -7.580
REMARK INTRA:                  -0.915
REMARK UNBOUND:                -0.999
REMARK SMILES O=C(C=Cc1ccc(O)cc1)c1ccc(O)cc1O
REMARK SMILES IDX 4 1 3 2 5 3 6 4 7 5 8 6 11 7 10 8 9 9 2 11 1 12 12 13 18 14
REMARK SMILES IDX 13 15 17 16 14 17 15 18 19 19 16 21
REMARK H PARENT 9 10 19 20 16 22
REMARK Flexibility Score: inf
ROOT
ATOM      1  C   UNL     1      16.110  25.101  40.758  1.00  0.00     0.012 C 
ATOM      2  C   UNL     1      16.639  25.035  39.525  1.00  0.00     0.053 C 
ENDROOT
BRANCH   1   3
ATOM      3  C   UNL     1      16.852  25.419  41.994  1.00  0.00    -0.025 A 
ATOM      4  C   UNL     1      17.338  24.374  42.793  1.00  0.00     0.012 A 
ATOM      5  C   UNL     1      17.999  24.654  43.994  1.00  0.00     0.047 A 
ATOM      6  C   UNL     1      18.160  25.978  44.417  1.00  0.00     0.115 A 
ATOM      7  C   UNL     1      16.987  26.747  42.438  1.00  0.00     0.012 A 
ATOM      8  C   UNL     1      17.648  27.024  43.637  1.00  0.00     0.047 A 
BRANCH   6   9
ATOM      9  O   UNL     1      18.821  26.241  45.615  1.00  0.00    -0.508 OA
ATOM     10  H   UNL     1      18.340  26.199  46.506  1.00  0.00     0.293 HD
ENDBRANCH   6   9
ENDBRANCH   1   3
BRANCH   2  11
ATOM     11  C   UNL     1      18.087  25.092  39.201  1.00  0.00     0.189 C 
ATOM     12  O   UNL     1      18.734  26.164  39.333  1.00  0.00    -0.289 OA
BRANCH  11  13
ATOM     13  C   UNL     1      18.800  23.889  38.721  1.00  0.00     0.064 A 
ATOM     14  C   UNL     1      19.795  23.257  39.496  1.00  0.00     0.130 A 
ATOM     15  C   UNL     1      18.496  23.384  37.446  1.00  0.00     0.020 A 
ATOM     16  C   UNL     1      20.436  22.109  39.003  1.00  0.00     0.093 A 
ATOM     17  C   UNL     1      19.145  22.246  36.962  1.00  0.00     0.047 A 
ATOM     18  C   UNL     1      20.113  21.602  37.742  1.00  0.00     0.119 A 
BRANCH  14  19
ATOM     19  O   UNL     1      20.168  23.778  40.734  1.00  0.00    -0.507 OA
ATOM     20  H   UNL     1      19.858  24.692  41.042  1.00  0.00     0.293 HD
ENDBRANCH  14  19
BRANCH  18  21
ATOM     21  O   UNL     1      20.763  20.463  37.271  1.00  0.00    -0.508 OA
ATOM     22  H   UNL     1      21.721  20.257  37.527  1.00  0.00     0.293 HD
ENDBRANCH  18  21
ENDBRANCH  11  13
ENDBRANCH   2  11
TORSDOF 6
ENDMDL
MODEL 6
REMARK VINA RESULT:    -5.923      2.720      6.354
REMARK INTER + INTRA:          -8.480
REMARK INTER:                  -7.583
REMARK INTRA:                  -0.896
REMARK UNBOUND:                -0.999
REMARK SMILES O=C(C=Cc1ccc(O)cc1)c1ccc(O)cc1O
REMARK SMILES IDX 4 1 3 2 5 3 6 4 7 5 8 6 11 7 10 8 9 9 2 11 1 12 12 13 18 14
REMARK SMILES IDX 13 15 17 16 14 17 15 18 19 19 16 21
REMARK H PARENT 9 10 19 20 16 22
REMARK Flexibility Score: inf
ROOT
ATOM      1  C   UNL     1      17.795  24.965  44.527  1.00  0.00     0.012 C 
ATOM      2  C   UNL     1      17.221  24.527  43.395  1.00  0.00     0.053 C 
ENDROOT
BRANCH   1   3
ATOM      3  C   UNL     1      18.266  26.343  44.773  1.00  0.00    -0.025 A 
ATOM      4  C   UNL     1      19.568  26.703  44.397  1.00  0.00     0.012 A 
ATOM      5  C   UNL     1      20.049  27.988  44.667  1.00  0.00     0.047 A 
ATOM      6  C   UNL     1      19.244  28.916  45.335  1.00  0.00     0.115 A 
ATOM      7  C   UNL     1      17.469  27.267  45.472  1.00  0.00     0.012 A 
ATOM      8  C   UNL     1      17.953  28.551  45.740  1.00  0.00     0.047 A 
BRANCH   6   9
ATOM      9  O   UNL     1      19.736  30.193  45.597  1.00  0.00    -0.508 OA
ATOM     10  H   UNL     1      19.742  30.914  44.886  1.00  0.00     0.293 HD
ENDBRANCH   6   9
ENDBRANCH   1   3
BRANCH   2  11
ATOM     11  C   UNL     1      17.114  25.291  42.127  1.00  0.00     0.189 C 
ATOM     12  O   UNL     1      16.408  26.332  42.060  1.00  0.00    -0.289 OA
BRANCH  11  13
ATOM     13  C   UNL     1      17.839  24.849  40.917  1.00  0.00     0.064 A 
ATOM     14  C   UNL     1      17.164  24.305  39.803  1.00  0.00     0.130 A 
ATOM     15  C   UNL     1      19.240  24.948  40.891  1.00  0.00     0.020 A 
ATOM     16  C   UNL     1      17.895  23.912  38.670  1.00  0.00     0.093 A 
ATOM     17  C   UNL     1      19.958  24.547  39.762  1.00  0.00     0.047 A 
ATOM     18  C   UNL     1      19.287  24.033  38.647  1.00  0.00     0.119 A 
BRANCH  14  19
ATOM     19  O   UNL     1      15.781  24.129  39.829  1.00  0.00    -0.507 OA
ATOM     20  H   UNL     1      15.359  23.291  40.211  1.00  0.00     0.293 HD
ENDBRANCH  14  19
BRANCH  18  21
ATOM     21  O   UNL     1      19.992  23.634  37.514  1.00  0.00    -0.508 OA
ATOM     22  H   UNL     1      20.181  22.657  37.324  1.00  0.00     0.293 HD
ENDBRANCH  18  21
ENDBRANCH  11  13
ENDBRANCH   2  11
TORSDOF 6
ENDMDL
MODEL 7
REMARK VINA RESULT:    -5.864      3.230      4.763
REMARK INTER + INTRA:          -8.406
REMARK INTER:                  -7.552
REMARK INTRA:                  -0.854
REMARK UNBOUND:                -0.999
REMARK SMILES O=C(C=Cc1ccc(O)cc1)c1ccc(O)cc1O
REMARK SMILES IDX 4 1 3 2 5 3 6 4 7 5 8 6 11 7 10 8 9 9 2 11 1 12 12 13 18 14
REMARK SMILES IDX 13 15 17 16 14 17 15 18 19 19 16 21
REMARK H PARENT 9 10 19 20 16 22
REMARK Flexibility Score: inf
ROOT
ATOM      1  C   UNL     1      14.822  23.300  42.601  1.00  0.00     0.012 C 
ATOM      2  C   UNL     1      14.786  24.483  43.236  1.00  0.00     0.053 C 
ENDROOT
BRANCH   1   3
ATOM      3  C   UNL     1      15.536  22.096  43.070  1.00  0.00    -0.025 A 
ATOM      4  C   UNL     1      14.802  21.015  43.579  1.00  0.00     0.012 A 
ATOM      5  C   UNL     1      15.462  19.886  44.075  1.00  0.00     0.047 A 
ATOM      6  C   UNL     1      16.860  19.838  44.090  1.00  0.00     0.115 A 
ATOM      7  C   UNL     1      16.941  22.058  43.115  1.00  0.00     0.012 A 
ATOM      8  C   UNL     1      17.599  20.929  43.611  1.00  0.00     0.047 A 
BRANCH   6   9
ATOM      9  O   UNL     1      17.504  18.707  44.587  1.00  0.00    -0.508 OA
ATOM     10  H   UNL     1      18.496  18.557  44.445  1.00  0.00     0.293 HD
ENDBRANCH   6   9
ENDBRANCH   1   3
BRANCH   2  11
ATOM     11  C   UNL     1      15.594  24.852  44.425  1.00  0.00     0.189 C 
ATOM     12  O   UNL     1      15.248  24.483  45.579  1.00  0.00    -0.289 OA
BRANCH  11  13
ATOM     13  C   UNL     1      16.826  25.655  44.280  1.00  0.00     0.064 A 
ATOM     14  C   UNL     1      17.270  26.527  45.297  1.00  0.00     0.130 A 
ATOM     15  C   UNL     1      17.556  25.568  43.083  1.00  0.00     0.020 A 
ATOM     16  C   UNL     1      18.454  27.260  45.119  1.00  0.00     0.093 A 
ATOM     17  C   UNL     1      18.729  26.307  42.912  1.00  0.00     0.047 A 
ATOM     18  C   UNL     1      19.184  27.151  43.932  1.00  0.00     0.119 A 
BRANCH  14  19
ATOM     19  O   UNL     1      16.528  26.687  46.467  1.00  0.00    -0.507 OA
ATOM     20  H   UNL     1      16.973  26.765  47.374  1.00  0.00     0.293 HD
ENDBRANCH  14  19
BRANCH  18  21
ATOM     21  O   UNL     1      20.355  27.889  43.775  1.00  0.00    -0.508 OA
ATOM     22  H   UNL     1      21.135  27.536  43.234  1.00  0.00     0.293 HD
ENDBRANCH  18  21
ENDBRANCH  11  13
ENDBRANCH   2  11
TORSDOF 6
ENDMDL
MODEL 8
REMARK VINA RESULT:    -5.854      3.295      4.565
REMARK INTER + INTRA:          -8.393
REMARK INTER:                  -7.253
REMARK INTRA:                  -1.140
REMARK UNBOUND:                -0.999
REMARK SMILES O=C(C=Cc1ccc(O)cc1)c1ccc(O)cc1O
REMARK SMILES IDX 4 1 3 2 5 3 6 4 7 5 8 6 11 7 10 8 9 9 2 11 1 12 12 13 18 14
REMARK SMILES IDX 13 15 17 16 14 17 15 18 19 19 16 21
REMARK H PARENT 9 10 19 20 16 22
REMARK Flexibility Score: inf
ROOT
ATOM      1  C   UNL     1      20.134  25.009  40.499  1.00  0.00     0.012 C 
ATOM      2  C   UNL     1      19.116  25.391  41.288  1.00  0.00     0.053 C 
ENDROOT
BRANCH   1   3
ATOM      3  C   UNL     1      20.166  23.786  39.672  1.00  0.00    -0.025 A 
ATOM      4  C   UNL     1      20.740  22.617  40.194  1.00  0.00     0.012 A 
ATOM      5  C   UNL     1      20.826  21.463  39.408  1.00  0.00     0.047 A 
ATOM      6  C   UNL     1      20.362  21.473  38.089  1.00  0.00     0.115 A 
ATOM      7  C   UNL     1      19.729  23.802  38.336  1.00  0.00     0.012 A 
ATOM      8  C   UNL     1      19.815  22.647  37.553  1.00  0.00     0.047 A 
BRANCH   6   9
ATOM      9  O   UNL     1      20.453  20.316  37.319  1.00  0.00    -0.508 OA
ATOM     10  H   UNL     1      21.127  20.232  36.567  1.00  0.00     0.293 HD
ENDBRANCH   6   9
ENDBRANCH   1   3
BRANCH   2  11
ATOM     11  C   UNL     1      17.920  24.574  41.612  1.00  0.00     0.189 C 
ATOM     12  O   UNL     1      17.992  23.627  42.439  1.00  0.00    -0.289 OA
BRANCH  11  13
ATOM     13  C   UNL     1      16.617  24.860  40.975  1.00  0.00     0.064 A 
ATOM     14  C   UNL     1      15.442  25.045  41.736  1.00  0.00     0.130 A 
ATOM     15  C   UNL     1      16.544  24.917  39.574  1.00  0.00     0.020 A 
ATOM     16  C   UNL     1      14.230  25.328  41.087  1.00  0.00     0.093 A 
ATOM     17  C   UNL     1      15.332  25.191  38.937  1.00  0.00     0.047 A 
ATOM     18  C   UNL     1      14.172  25.403  39.692  1.00  0.00     0.119 A 
BRANCH  14  19
ATOM     19  O   UNL     1      15.470  24.923  43.124  1.00  0.00    -0.507 OA
ATOM     20  H   UNL     1      15.151  25.669  43.731  1.00  0.00     0.293 HD
ENDBRANCH  14  19
BRANCH  18  21
ATOM     21  O   UNL     1      12.959  25.681  39.068  1.00  0.00    -0.508 OA
ATOM     22  H   UNL     1      12.700  25.241  38.193  1.00  0.00     0.293 HD
ENDBRANCH  18  21
ENDBRANCH  11  13
ENDBRANCH   2  11
TORSDOF 6
ENDMDL
MODEL 9
REMARK VINA RESULT:    -5.798      2.409      3.695
REMARK INTER + INTRA:          -8.322
REMARK INTER:                  -7.218
REMARK INTRA:                  -1.104
REMARK UNBOUND:                -0.999
REMARK SMILES O=C(C=Cc1ccc(O)cc1)c1ccc(O)cc1O
REMARK SMILES IDX 4 1 3 2 5 3 6 4 7 5 8 6 11 7 10 8 9 9 2 11 1 12 12 13 18 14
REMARK SMILES IDX 13 15 17 16 14 17 15 18 19 19 16 21
REMARK H PARENT 9 10 19 20 16 22
REMARK Flexibility Score: inf
ROOT
ATOM      1  C   UNL     1      19.865  24.453  39.327  1.00  0.00     0.012 C 
ATOM      2  C   UNL     1      20.509  25.190  40.247  1.00  0.00     0.053 C 
ENDROOT
BRANCH   1   3
ATOM      3  C   UNL     1      18.573  24.801  38.702  1.00  0.00    -0.025 A 
ATOM      4  C   UNL     1      18.552  25.669  37.601  1.00  0.00     0.012 A 
ATOM      5  C   UNL     1      17.335  26.051  37.027  1.00  0.00     0.047 A 
ATOM      6  C   UNL     1      16.128  25.588  37.562  1.00  0.00     0.115 A 
ATOM      7  C   UNL     1      17.357  24.362  39.257  1.00  0.00     0.012 A 
ATOM      8  C   UNL     1      16.142  24.744  38.681  1.00  0.00     0.047 A 
BRANCH   6   9
ATOM      9  O   UNL     1      14.924  25.975  36.980  1.00  0.00    -0.508 OA
ATOM     10  H   UNL     1      14.861  26.205  35.995  1.00  0.00     0.293 HD
ENDBRANCH   6   9
ENDBRANCH   1   3
BRANCH   2  11
ATOM     11  C   UNL     1      19.965  26.388  40.933  1.00  0.00     0.189 C 
ATOM     12  O   UNL     1      19.918  27.501  40.344  1.00  0.00    -0.289 OA
BRANCH  11  13
ATOM     13  C   UNL     1      19.460  26.300  42.319  1.00  0.00     0.064 A 
ATOM     14  C   UNL     1      19.929  27.158  43.337  1.00  0.00     0.130 A 
ATOM     15  C   UNL     1      18.510  25.315  42.635  1.00  0.00     0.020 A 
ATOM     16  C   UNL     1      19.410  27.046  44.637  1.00  0.00     0.093 A 
ATOM     17  C   UNL     1      18.006  25.206  43.933  1.00  0.00     0.047 A 
ATOM     18  C   UNL     1      18.450  26.075  44.936  1.00  0.00     0.119 A 
BRANCH  14  19
ATOM     19  O   UNL     1      20.924  28.098  43.069  1.00  0.00    -0.507 OA
ATOM     20  H   UNL     1      21.892  27.934  43.317  1.00  0.00     0.293 HD
ENDBRANCH  14  19
BRANCH  18  21
ATOM     21  O   UNL     1      17.951  25.979  46.232  1.00  0.00    -0.508 OA
ATOM     22  H   UNL     1      16.959  26.049  46.424  1.00  0.00     0.293 HD
ENDBRANCH  18  21
ENDBRANCH  11  13
ENDBRANCH   2  11
TORSDOF 6
ENDMDL
