MODEL 1
REMARK VINA RESULT:    -3.032      0.000      0.000
REMARK INTER + INTRA:          -3.655
REMARK INTER:                  -3.652
REMARK INTRA:                  -0.002
REMARK UNBOUND:                -0.002
REMARK SMILES OCC(O)CO
REMARK SMILES IDX 3 1 5 2 6 3 2 5 1 6 4 8
REMARK H PARENT 6 4 1 7 4 9
REMARK Flexibility Score: inf
ROOT
ATOM      1  C   UNL     1     -21.299  27.348  18.856  1.00  0.00     0.165 C 
ENDROOT
BRANCH   1   2
ATOM      2  C   UNL     1     -21.192  28.372  17.720  1.00  0.00     0.190 C 
BRANCH   2   3
ATOM      3  O   UNL     1     -22.222  29.319  17.809  1.00  0.00    -0.394 OA
ATOM      4  H   UNL     1     -23.039  28.871  17.467  1.00  0.00     0.210 HD
ENDBRANCH   2   3
ENDBRANCH   1   2
BRANCH   1   5
ATOM      5  C   UNL     1     -20.149  26.326  18.829  1.00  0.00     0.190 C 
BRANCH   5   6
ATOM      6  O   UNL     1     -20.619  25.046  18.495  1.00  0.00    -0.394 OA
ATOM      7  H   UNL     1     -20.900  25.079  17.543  1.00  0.00     0.210 HD
ENDBRANCH   5   6
ENDBRANCH   1   5
BRANCH   1   8
ATOM      8  O   UNL     1     -22.539  26.693  18.785  1.00  0.00    -0.388 OA
ATOM      9  H   UNL     1     -23.234  27.367  19.007  1.00  0.00     0.211 HD
ENDBRANCH   1   8
TORSDOF 5
ENDMDL
MODEL 2
REMARK VINA RESULT:    -3.023      1.699      2.699
REMARK INTER + INTRA:          -3.644
REMARK INTER:                  -3.642
REMARK INTRA:                  -0.003
REMARK UNBOUND:                -0.002
REMARK SMILES OCC(O)CO
REMARK SMILES IDX 3 1 5 2 6 3 2 5 1 6 4 8
REMARK H PARENT 6 4 1 7 4 9
REMARK Flexibility Score: inf
ROOT
ATOM      1  C   UNL     1     -20.415  26.446  18.439  1.00  0.00     0.165 C 
ENDROOT
BRANCH   1   2
ATOM      2  C   UNL     1     -19.207  27.155  19.064  1.00  0.00     0.190 C 
BRANCH   2   3
ATOM      3  O   UNL     1     -18.307  27.566  18.071  1.00  0.00    -0.394 OA
ATOM      4  H   UNL     1     -17.702  26.796  17.912  1.00  0.00     0.210 HD
ENDBRANCH   2   3
ENDBRANCH   1   2
BRANCH   1   5
ATOM      5  C   UNL     1     -21.751  27.025  18.936  1.00  0.00     0.190 C 
BRANCH   5   6
ATOM      6  O   UNL     1     -22.738  26.030  19.003  1.00  0.00    -0.394 OA
ATOM      7  H   UNL     1     -22.503  25.341  18.328  1.00  0.00     0.210 HD
ENDBRANCH   5   6
ENDBRANCH   1   5
BRANCH   1   8
ATOM      8  O   UNL     1     -20.346  25.070  18.709  1.00  0.00    -0.388 OA
ATOM      9  H   UNL     1     -19.459  24.758  18.387  1.00  0.00     0.211 HD
ENDBRANCH   1   8
TORSDOF 5
ENDMDL
MODEL 3
REMARK VINA RESULT:    -2.914      0.784      3.055
REMARK INTER + INTRA:          -3.513
REMARK INTER:                  -3.510
REMARK INTRA:                  -0.002
REMARK UNBOUND:                -0.002
REMARK SMILES OCC(O)CO
REMARK SMILES IDX 3 1 5 2 6 3 2 5 1 6 4 8
REMARK H PARENT 6 4 1 7 4 9
REMARK Flexibility Score: inf
ROOT
ATOM      1  C   UNL     1     -21.399  27.380  18.208  1.00  0.00     0.165 C 
ENDROOT
BRANCH   1   2
ATOM      2  C   UNL     1     -20.301  26.459  18.755  1.00  0.00     0.190 C 
BRANCH   2   3
ATOM      3  O   UNL     1     -20.634  25.114  18.546  1.00  0.00    -0.394 OA
ATOM      4  H   UNL     1     -21.200  24.848  19.317  1.00  0.00     0.210 HD
ENDBRANCH   2   3
ENDBRANCH   1   2
BRANCH   1   5
ATOM      5  C   UNL     1     -20.925  28.838  18.080  1.00  0.00     0.190 C 
BRANCH   5   6
ATOM      6  O   UNL     1     -21.094  29.310  16.769  1.00  0.00    -0.394 OA
ATOM      7  H   UNL     1     -21.735  28.699  16.320  1.00  0.00     0.210 HD
ENDBRANCH   5   6
ENDBRANCH   1   5
BRANCH   1   8
ATOM      8  O   UNL     1     -22.533  27.303  19.031  1.00  0.00    -0.388 OA
ATOM      9  H   UNL     1     -23.316  27.536  18.465  1.00  0.00     0.211 HD
ENDBRANCH   1   8
TORSDOF 5
ENDMDL
MODEL 4
REMARK VINA RESULT:    -2.810      7.153      7.722
REMARK INTER + INTRA:          -3.387
REMARK INTER:                  -3.385
REMARK INTRA:                  -0.003
REMARK UNBOUND:                -0.002
REMARK SMILES OCC(O)CO
REMARK SMILES IDX 3 1 5 2 6 3 2 5 1 6 4 8
REMARK H PARENT 6 4 1 7 4 9
REMARK Flexibility Score: inf
ROOT
ATOM      1  C   UNL     1     -16.533  30.265  13.823  1.00  0.00     0.165 C 
ENDROOT
BRANCH   1   2
ATOM      2  C   UNL     1     -17.537  30.530  12.694  1.00  0.00     0.190 C 
BRANCH   2   3
ATOM      3  O   UNL     1     -18.702  31.124  13.198  1.00  0.00    -0.394 OA
ATOM      4  H   UNL     1     -18.832  30.747  14.107  1.00  0.00     0.210 HD
ENDBRANCH   2   3
ENDBRANCH   1   2
BRANCH   1   5
ATOM      5  C   UNL     1     -15.109  30.718  13.454  1.00  0.00     0.190 C 
BRANCH   5   6
ATOM      6  O   UNL     1     -14.147  29.869  14.022  1.00  0.00    -0.394 OA
ATOM      7  H   UNL     1     -13.405  30.444  14.343  1.00  0.00     0.210 HD
ENDBRANCH   5   6
ENDBRANCH   1   5
BRANCH   1   8
ATOM      8  O   UNL     1     -16.543  28.901  14.153  1.00  0.00    -0.388 OA
ATOM      9  H   UNL     1     -17.199  28.463  13.548  1.00  0.00     0.211 HD
ENDBRANCH   1   8
TORSDOF 5
ENDMDL
MODEL 5
REMARK VINA RESULT:    -2.800      5.938      7.025
REMARK INTER + INTRA:          -3.376
REMARK INTER:                  -3.159
REMARK INTRA:                  -0.216
REMARK UNBOUND:                -0.002
REMARK SMILES OCC(O)CO
REMARK SMILES IDX 3 1 5 2 6 3 2 5 1 6 4 8
REMARK H PARENT 6 4 1 7 4 9
REMARK Flexibility Score: inf
ROOT
ATOM      1  C   UNL     1     -16.715  30.443  14.088  1.00  0.00     0.165 C 
ENDROOT
BRANCH   1   2
ATOM      2  C   UNL     1     -17.505  30.987  15.285  1.00  0.00     0.190 C 
BRANCH   2   3
ATOM      3  O   UNL     1     -18.567  30.131  15.606  1.00  0.00    -0.394 OA
ATOM      4  H   UNL     1     -18.710  30.224  16.584  1.00  0.00     0.210 HD
ENDBRANCH   2   3
ENDBRANCH   1   2
BRANCH   1   5
ATOM      5  C   UNL     1     -17.419  30.726  12.749  1.00  0.00     0.190 C 
BRANCH   5   6
ATOM      6  O   UNL     1     -18.748  31.125  12.953  1.00  0.00    -0.394 OA
ATOM      7  H   UNL     1     -19.307  30.614  12.311  1.00  0.00     0.210 HD
ENDBRANCH   5   6
ENDBRANCH   1   5
BRANCH   1   8
ATOM      8  O   UNL     1     -16.502  29.065  14.249  1.00  0.00    -0.388 OA
ATOM      9  H   UNL     1     -17.031  28.608  13.544  1.00  0.00     0.211 HD
ENDBRANCH   1   8
TORSDOF 5
ENDMDL
MODEL 6
REMARK VINA RESULT:    -2.799      7.765      8.428
REMARK INTER + INTRA:          -3.374
REMARK INTER:                  -3.178
REMARK INTRA:                  -0.196
REMARK UNBOUND:                -0.002
REMARK SMILES OCC(O)CO
REMARK SMILES IDX 3 1 5 2 6 3 2 5 1 6 4 8
REMARK H PARENT 6 4 1 7 4 9
REMARK Flexibility Score: inf
ROOT
ATOM      1  C   UNL     1     -15.061  30.831  13.897  1.00  0.00     0.165 C 
ENDROOT
BRANCH   1   2
ATOM      2  C   UNL     1     -14.714  30.579  15.370  1.00  0.00     0.190 C 
BRANCH   2   3
ATOM      3  O   UNL     1     -14.157  29.304  15.536  1.00  0.00    -0.394 OA
ATOM      4  H   UNL     1     -14.785  28.670  15.101  1.00  0.00     0.210 HD
ENDBRANCH   2   3
ENDBRANCH   1   2
BRANCH   1   5
ATOM      5  C   UNL     1     -16.349  30.106  13.471  1.00  0.00     0.190 C 
BRANCH   5   6
ATOM      6  O   UNL     1     -16.482  28.878  14.137  1.00  0.00    -0.394 OA
ATOM      7  H   UNL     1     -15.564  28.549  14.325  1.00  0.00     0.210 HD
ENDBRANCH   5   6
ENDBRANCH   1   5
BRANCH   1   8
ATOM      8  O   UNL     1     -13.985  30.438  13.085  1.00  0.00    -0.388 OA
ATOM      9  H   UNL     1     -14.305  30.475  12.146  1.00  0.00     0.211 HD
ENDBRANCH   1   8
TORSDOF 5
ENDMDL
MODEL 7
REMARK VINA RESULT:    -2.798      5.880      6.769
REMARK INTER + INTRA:          -3.373
REMARK INTER:                  -3.149
REMARK INTRA:                  -0.224
REMARK UNBOUND:                -0.002
REMARK SMILES OCC(O)CO
REMARK SMILES IDX 3 1 5 2 6 3 2 5 1 6 4 8
REMARK H PARENT 6 4 1 7 4 9
REMARK Flexibility Score: inf
ROOT
ATOM      1  C   UNL     1     -17.103  29.771  14.234  1.00  0.00     0.165 C 
ENDROOT
BRANCH   1   2
ATOM      2  C   UNL     1     -17.234  30.812  13.116  1.00  0.00     0.190 C 
BRANCH   2   3
ATOM      3  O   UNL     1     -18.581  31.125  12.887  1.00  0.00    -0.394 OA
ATOM      4  H   UNL     1     -18.927  30.423  12.276  1.00  0.00     0.210 HD
ENDBRANCH   2   3
ENDBRANCH   1   2
BRANCH   1   5
ATOM      5  C   UNL     1     -17.472  30.348  15.613  1.00  0.00     0.190 C 
BRANCH   5   6
ATOM      6  O   UNL     1     -18.862  30.488  15.746  1.00  0.00    -0.394 OA
ATOM      7  H   UNL     1     -19.080  30.322  16.700  1.00  0.00     0.210 HD
ENDBRANCH   5   6
ENDBRANCH   1   5
BRANCH   1   8
ATOM      8  O   UNL     1     -15.797  29.258  14.251  1.00  0.00    -0.388 OA
ATOM      9  H   UNL     1     -15.578  29.058  15.199  1.00  0.00     0.211 HD
ENDBRANCH   1   8
TORSDOF 5
ENDMDL
MODEL 8
REMARK VINA RESULT:    -2.786      5.746      6.813
REMARK INTER + INTRA:          -3.358
REMARK INTER:                  -3.171
REMARK INTRA:                  -0.187
REMARK UNBOUND:                -0.002
REMARK SMILES OCC(O)CO
REMARK SMILES IDX 3 1 5 2 6 3 2 5 1 6 4 8
REMARK H PARENT 6 4 1 7 4 9
REMARK Flexibility Score: inf
ROOT
ATOM      1  C   UNL     1     -17.469  31.104  14.052  1.00  0.00     0.165 C 
ENDROOT
BRANCH   1   2
ATOM      2  C   UNL     1     -16.475  30.083  13.485  1.00  0.00     0.190 C 
BRANCH   2   3
ATOM      3  O   UNL     1     -16.486  28.907  14.246  1.00  0.00    -0.394 OA
ATOM      4  H   UNL     1     -17.310  28.943  14.798  1.00  0.00     0.210 HD
ENDBRANCH   2   3
ENDBRANCH   1   2
BRANCH   1   5
ATOM      5  C   UNL     1     -17.720  30.899  15.556  1.00  0.00     0.190 C 
BRANCH   5   6
ATOM      6  O   UNL     1     -18.914  30.195  15.777  1.00  0.00    -0.394 OA
ATOM      7  H   UNL     1     -18.664  29.306  16.142  1.00  0.00     0.210 HD
ENDBRANCH   5   6
ENDBRANCH   1   5
BRANCH   1   8
ATOM      8  O   UNL     1     -18.677  31.033  13.339  1.00  0.00    -0.388 OA
ATOM      9  H   UNL     1     -19.399  30.908  14.009  1.00  0.00     0.211 HD
ENDBRANCH   1   8
TORSDOF 5
ENDMDL
