MODEL 1
REMARK VINA RESULT:    -4.248      0.000      0.000
REMARK INTER + INTRA:          -4.372
REMARK INTER:                  -4.372
REMARK INTRA:                   0.000
REMARK UNBOUND:                 0.000
REMARK SMILES Cc1cccc(O)c1C
REMARK SMILES IDX 1 1 2 2 8 3 6 4 5 5 4 6 3 7 9 8 7 9
REMARK H PARENT 7 10
REMARK Flexibility Score: inf
ROOT
ATOM      1  C   UNL     1     145.637 126.875 114.714  1.00  0.00     0.045 C 
ATOM      2  C   UNL     1     145.626 128.184 115.462  1.00  0.00    -0.045 A 
ATOM      3  C   UNL     1     145.789 128.248 116.874  1.00  0.00    -0.006 A 
ATOM      4  C   UNL     1     145.769 129.515 117.512  1.00  0.00     0.118 A 
ATOM      5  C   UNL     1     145.589 130.677 116.757  1.00  0.00     0.046 A 
ATOM      6  C   UNL     1     145.429 130.606 115.376  1.00  0.00     0.004 A 
ATOM      7  C   UNL     1     145.447 129.372 114.732  1.00  0.00     0.004 A 
ATOM      8  C   UNL     1     145.986 127.004 117.710  1.00  0.00     0.048 C 
ENDROOT
BRANCH   4   9
ATOM      9  O   UNL     1     145.923 129.654 118.894  1.00  0.00    -0.508 OA
ATOM     10  H   UNL     1     146.822 129.651 119.359  1.00  0.00     0.293 HD
ENDBRANCH   4   9
TORSDOF 1
ENDMDL
MODEL 2
REMARK VINA RESULT:    -4.007      1.117      2.561
REMARK INTER + INTRA:          -4.124
REMARK INTER:                  -4.124
REMARK INTRA:                   0.000
REMARK UNBOUND:                 0.000
REMARK SMILES Cc1cccc(O)c1C
REMARK SMILES IDX 1 1 2 2 8 3 6 4 5 5 4 6 3 7 9 8 7 9
REMARK H PARENT 7 10
REMARK Flexibility Score: inf
ROOT
ATOM      1  C   UNL     1     145.574 127.798 114.403  1.00  0.00     0.045 C 
ATOM      2  C   UNL     1     145.415 127.953 115.893  1.00  0.00    -0.045 A 
ATOM      3  C   UNL     1     145.779 129.151 116.571  1.00  0.00    -0.006 A 
ATOM      4  C   UNL     1     145.602 129.227 117.976  1.00  0.00     0.118 A 
ATOM      5  C   UNL     1     145.079 128.136 118.677  1.00  0.00     0.046 A 
ATOM      6  C   UNL     1     144.726 126.968 118.007  1.00  0.00     0.004 A 
ATOM      7  C   UNL     1     144.892 126.875 116.628  1.00  0.00     0.004 A 
ATOM      8  C   UNL     1     146.346 130.343 115.833  1.00  0.00     0.048 C 
ENDROOT
BRANCH   4   9
ATOM      9  O   UNL     1     145.937 130.370 118.707  1.00  0.00    -0.508 OA
ATOM     10  H   UNL     1     146.574 130.364 119.493  1.00  0.00     0.293 HD
ENDBRANCH   4   9
TORSDOF 1
ENDMDL
MODEL 3
REMARK VINA RESULT:    -3.992      1.344      2.761
REMARK INTER + INTRA:          -4.108
REMARK INTER:                  -4.108
REMARK INTRA:                   0.000
REMARK UNBOUND:                 0.000
REMARK SMILES Cc1cccc(O)c1C
REMARK SMILES IDX 1 1 2 2 8 3 6 4 5 5 4 6 3 7 9 8 7 9
REMARK H PARENT 7 10
REMARK Flexibility Score: inf
ROOT
ATOM      1  C   UNL     1     144.748 131.033 115.585  1.00  0.00     0.045 C 
ATOM      2  C   UNL     1     145.195 129.594 115.621  1.00  0.00    -0.045 A 
ATOM      3  C   UNL     1     145.564 128.948 116.834  1.00  0.00    -0.006 A 
ATOM      4  C   UNL     1     145.974 127.591 116.794  1.00  0.00     0.118 A 
ATOM      5  C   UNL     1     146.015 126.907 115.575  1.00  0.00     0.046 A 
ATOM      6  C   UNL     1     145.653 127.546 114.392  1.00  0.00     0.004 A 
ATOM      7  C   UNL     1     145.247 128.877 114.413  1.00  0.00     0.004 A 
ATOM      8  C   UNL     1     145.527 129.668 118.163  1.00  0.00     0.048 C 
ENDROOT
BRANCH   4   9
ATOM      9  O   UNL     1     146.351 126.893 117.945  1.00  0.00    -0.508 OA
ATOM     10  H   UNL     1     146.239 127.259 118.881  1.00  0.00     0.293 HD
ENDBRANCH   4   9
TORSDOF 1
ENDMDL
MODEL 4
REMARK VINA RESULT:    -3.928      2.327      2.973
REMARK INTER + INTRA:          -4.043
REMARK INTER:                  -4.043
REMARK INTRA:                   0.000
REMARK UNBOUND:                 0.000
REMARK SMILES Cc1cccc(O)c1C
REMARK SMILES IDX 1 1 2 2 8 3 6 4 5 5 4 6 3 7 9 8 7 9
REMARK H PARENT 7 10
REMARK Flexibility Score: inf
ROOT
ATOM      1  C   UNL     1     141.733 127.624 116.320  1.00  0.00     0.045 C 
ATOM      2  C   UNL     1     143.226 127.490 116.165  1.00  0.00    -0.045 A 
ATOM      3  C   UNL     1     144.080 127.238 117.275  1.00  0.00    -0.006 A 
ATOM      4  C   UNL     1     145.477 127.123 117.056  1.00  0.00     0.118 A 
ATOM      5  C   UNL     1     145.998 127.259 115.765  1.00  0.00     0.046 A 
ATOM      6  C   UNL     1     145.155 127.506 114.685  1.00  0.00     0.004 A 
ATOM      7  C   UNL     1     143.782 127.621 114.880  1.00  0.00     0.004 A 
ATOM      8  C   UNL     1     143.540 127.088 118.679  1.00  0.00     0.048 C 
ENDROOT
BRANCH   4   9
ATOM      9  O   UNL     1     146.376 126.877 118.097  1.00  0.00    -0.508 OA
ATOM     10  H   UNL     1     146.926 126.031 118.172  1.00  0.00     0.293 HD
ENDBRANCH   4   9
TORSDOF 1
ENDMDL
MODEL 5
REMARK VINA RESULT:    -3.904      2.412      3.438
REMARK INTER + INTRA:          -4.019
REMARK INTER:                  -4.019
REMARK INTRA:                   0.000
REMARK UNBOUND:                 0.000
REMARK SMILES Cc1cccc(O)c1C
REMARK SMILES IDX 1 1 2 2 8 3 6 4 5 5 4 6 3 7 9 8 7 9
REMARK H PARENT 7 10
REMARK Flexibility Score: inf
ROOT
ATOM      1  C   UNL     1     145.315 128.114 114.149  1.00  0.00     0.045 C 
ATOM      2  C   UNL     1     144.960 127.687 115.550  1.00  0.00    -0.045 A 
ATOM      3  C   UNL     1     143.615 127.658 116.012  1.00  0.00    -0.006 A 
ATOM      4  C   UNL     1     143.353 127.245 117.344  1.00  0.00     0.118 A 
ATOM      5  C   UNL     1     144.409 126.875 118.183  1.00  0.00     0.046 A 
ATOM      6  C   UNL     1     145.723 126.907 117.723  1.00  0.00     0.004 A 
ATOM      7  C   UNL     1     145.998 127.309 116.419  1.00  0.00     0.004 A 
ATOM      8  C   UNL     1     142.458 128.053 115.123  1.00  0.00     0.048 C 
ENDROOT
BRANCH   4   9
ATOM      9  O   UNL     1     142.058 127.191 117.866  1.00  0.00    -0.508 OA
ATOM     10  H   UNL     1     141.769 126.530 118.576  1.00  0.00     0.293 HD
ENDBRANCH   4   9
TORSDOF 1
ENDMDL
MODEL 6
REMARK VINA RESULT:    -3.890      1.527      2.704
REMARK INTER + INTRA:          -4.004
REMARK INTER:                  -4.004
REMARK INTRA:                   0.000
REMARK UNBOUND:                 0.000
REMARK SMILES Cc1cccc(O)c1C
REMARK SMILES IDX 1 1 2 2 8 3 6 4 5 5 4 6 3 7 9 8 7 9
REMARK H PARENT 7 10
REMARK Flexibility Score: inf
ROOT
ATOM      1  C   UNL     1     145.809 126.875 117.967  1.00  0.00     0.045 C 
ATOM      2  C   UNL     1     145.669 127.675 116.698  1.00  0.00    -0.045 A 
ATOM      3  C   UNL     1     145.531 129.091 116.710  1.00  0.00    -0.006 A 
ATOM      4  C   UNL     1     145.403 129.781 115.476  1.00  0.00     0.118 A 
ATOM      5  C   UNL     1     145.412 129.070 114.272  1.00  0.00     0.046 A 
ATOM      6  C   UNL     1     145.547 127.684 114.269  1.00  0.00     0.004 A 
ATOM      7  C   UNL     1     145.674 126.991 115.469  1.00  0.00     0.004 A 
ATOM      8  C   UNL     1     145.519 129.880 118.000  1.00  0.00     0.048 C 
ENDROOT
BRANCH   4   9
ATOM      9  O   UNL     1     145.264 131.170 115.411  1.00  0.00    -0.508 OA
ATOM     10  H   UNL     1     145.382 131.781 116.209  1.00  0.00     0.293 HD
ENDBRANCH   4   9
TORSDOF 1
ENDMDL
MODEL 7
REMARK VINA RESULT:    -3.648      2.788      3.572
REMARK INTER + INTRA:          -3.755
REMARK INTER:                  -3.755
REMARK INTRA:                   0.000
REMARK UNBOUND:                 0.000
REMARK SMILES Cc1cccc(O)c1C
REMARK SMILES IDX 1 1 2 2 8 3 6 4 5 5 4 6 3 7 9 8 7 9
REMARK H PARENT 7 10
REMARK Flexibility Score: inf
ROOT
ATOM      1  C   UNL     1     146.036 127.022 118.216  1.00  0.00     0.045 C 
ATOM      2  C   UNL     1     144.975 127.206 117.163  1.00  0.00    -0.045 A 
ATOM      3  C   UNL     1     143.587 127.137 117.469  1.00  0.00    -0.006 A 
ATOM      4  C   UNL     1     142.642 127.320 116.427  1.00  0.00     0.118 A 
ATOM      5  C   UNL     1     143.078 127.564 115.121  1.00  0.00     0.046 A 
ATOM      6  C   UNL     1     144.437 127.629 114.829  1.00  0.00     0.004 A 
ATOM      7  C   UNL     1     145.379 127.453 115.839  1.00  0.00     0.004 A 
ATOM      8  C   UNL     1     143.093 126.875 118.874  1.00  0.00     0.048 C 
ENDROOT
BRANCH   4   9
ATOM      9  O   UNL     1     141.264 127.265 116.654  1.00  0.00    -0.508 OA
ATOM     10  H   UNL     1     140.782 126.432 116.965  1.00  0.00     0.293 HD
ENDBRANCH   4   9
TORSDOF 1
ENDMDL
MODEL 8
REMARK VINA RESULT:    -3.567      1.712      3.033
REMARK INTER + INTRA:          -3.672
REMARK INTER:                  -3.672
REMARK INTRA:                   0.000
REMARK UNBOUND:                 0.000
REMARK SMILES Cc1cccc(O)c1C
REMARK SMILES IDX 1 1 2 2 8 3 6 4 5 5 4 6 3 7 9 8 7 9
REMARK H PARENT 7 10
REMARK Flexibility Score: inf
ROOT
ATOM      1  C   UNL     1     142.383 129.918 114.389  1.00  0.00     0.045 C 
ATOM      2  C   UNL     1     143.607 129.353 115.063  1.00  0.00    -0.045 A 
ATOM      3  C   UNL     1     144.410 130.129 115.944  1.00  0.00    -0.006 A 
ATOM      4  C   UNL     1     145.549 129.532 116.543  1.00  0.00     0.118 A 
ATOM      5  C   UNL     1     145.870 128.200 116.265  1.00  0.00     0.046 A 
ATOM      6  C   UNL     1     145.079 127.447 115.400  1.00  0.00     0.004 A 
ATOM      7  C   UNL     1     143.958 128.016 114.804  1.00  0.00     0.004 A 
ATOM      8  C   UNL     1     144.082 131.571 116.260  1.00  0.00     0.048 C 
ENDROOT
BRANCH   4   9
ATOM      9  O   UNL     1     146.383 130.233 117.419  1.00  0.00    -0.508 OA
ATOM     10  H   UNL     1     146.174 130.371 118.399  1.00  0.00     0.293 HD
ENDBRANCH   4   9
TORSDOF 1
ENDMDL
MODEL 9
REMARK VINA RESULT:    -3.557     15.626     16.213
REMARK INTER + INTRA:          -3.661
REMARK INTER:                  -3.661
REMARK INTRA:                   0.000
REMARK UNBOUND:                 0.000
REMARK SMILES Cc1cccc(O)c1C
REMARK SMILES IDX 1 1 2 2 8 3 6 4 5 5 4 6 3 7 9 8 7 9
REMARK H PARENT 7 10
REMARK Flexibility Score: inf
ROOT
ATOM      1  C   UNL     1     127.996 132.506 113.629  1.00  0.00     0.045 C 
ATOM      2  C   UNL     1     128.971 131.474 114.134  1.00  0.00    -0.045 A 
ATOM      3  C   UNL     1     130.378 131.633 113.994  1.00  0.00    -0.006 A 
ATOM      4  C   UNL     1     131.238 130.621 114.494  1.00  0.00     0.118 A 
ATOM      5  C   UNL     1     130.701 129.488 115.113  1.00  0.00     0.046 A 
ATOM      6  C   UNL     1     129.323 129.340 115.246  1.00  0.00     0.004 A 
ATOM      7  C   UNL     1     128.464 130.323 114.762  1.00  0.00     0.004 A 
ATOM      8  C   UNL     1     130.980 132.849 113.328  1.00  0.00     0.048 C 
ENDROOT
BRANCH   4   9
ATOM      9  O   UNL     1     132.629 130.709 114.391  1.00  0.00    -0.508 OA
ATOM     10  H   UNL     1     133.172 131.461 114.795  1.00  0.00     0.293 HD
ENDBRANCH   4   9
TORSDOF 1
ENDMDL
