MODEL 1
REMARK VINA RESULT:    -5.317      0.000      0.000
REMARK INTER + INTRA:          -5.317
REMARK INTER:                  -5.317
REMARK INTRA:                   0.000
REMARK UNBOUND:                 0.000
REMARK SMILES CC1=CC[C@]2(C)CCCC(C)(C)[C@@]23C[C@@H]13
REMARK SMILES IDX 1 1 2 2 3 3 4 4 5 5 7 6 8 7 9 8 10 9 13 10 15 11 14 12 11 13
REMARK SMILES IDX 12 14 6 15
REMARK H PARENT
REMARK Flexibility Score: inf
ROOT
ATOM      1  C   UNL     1     140.878 137.873 136.559  1.00  0.00     0.039 C 
ATOM      2  C   UNL     1     139.607 138.631 136.297  1.00  0.00    -0.074 C 
ATOM      3  C   UNL     1     139.449 139.287 135.143  1.00  0.00    -0.027 C 
ATOM      4  C   UNL     1     138.248 140.146 134.921  1.00  0.00     0.034 C 
ATOM      5  C   UNL     1     136.893 139.493 135.348  1.00  0.00    -0.022 C 
ATOM      6  C   UNL     1     135.868 140.676 135.343  1.00  0.00     0.008 C 
ATOM      7  C   UNL     1     134.618 140.421 136.162  1.00  0.00     0.001 C 
ATOM      8  C   UNL     1     135.018 140.229 137.618  1.00  0.00     0.007 C 
ATOM      9  C   UNL     1     135.808 138.916 137.836  1.00  0.00    -0.029 C 
ATOM     10  C   UNL     1     137.001 138.782 136.782  1.00  0.00    -0.012 C 
ATOM     11  C   UNL     1     138.459 138.512 137.266  1.00  0.00     0.022 C 
ATOM     12  C   UNL     1     137.597 137.351 136.825  1.00  0.00     0.017 C 
ATOM     13  C   UNL     1     134.809 137.728 137.708  1.00  0.00     0.012 C 
ATOM     14  C   UNL     1     136.309 138.947 139.302  1.00  0.00     0.012 C 
ATOM     15  C   UNL     1     136.458 138.479 134.256  1.00  0.00     0.012 C 
ENDROOT
TORSDOF 0
ENDMDL
MODEL 2
REMARK VINA RESULT:    -5.311      4.564      7.043
REMARK INTER + INTRA:          -5.311
REMARK INTER:                  -5.311
REMARK INTRA:                   0.000
REMARK UNBOUND:                 0.000
REMARK SMILES CC1=CC[C@]2(C)CCCC(C)(C)[C@@]23C[C@@H]13
REMARK SMILES IDX 1 1 2 2 3 3 4 4 5 5 7 6 8 7 9 8 10 9 13 10 15 11 14 12 11 13
REMARK SMILES IDX 12 14 6 15
REMARK H PARENT
REMARK Flexibility Score: inf
ROOT
ATOM      1  C   UNL     1     131.827 134.812 136.708  1.00  0.00     0.039 C 
ATOM      2  C   UNL     1     133.058 134.034 136.340  1.00  0.00    -0.074 C 
ATOM      3  C   UNL     1     133.134 133.432 135.149  1.00  0.00    -0.027 C 
ATOM      4  C   UNL     1     134.296 132.554 134.819  1.00  0.00     0.034 C 
ATOM      5  C   UNL     1     135.691 133.149 135.200  1.00  0.00    -0.022 C 
ATOM      6  C   UNL     1     136.679 131.941 135.080  1.00  0.00     0.008 C 
ATOM      7  C   UNL     1     137.979 132.121 135.839  1.00  0.00     0.001 C 
ATOM      8  C   UNL     1     137.664 132.252 137.323  1.00  0.00     0.007 C 
ATOM      9  C   UNL     1     136.927 133.573 137.648  1.00  0.00    -0.029 C 
ATOM     10  C   UNL     1     135.681 133.791 136.670  1.00  0.00    -0.012 C 
ATOM     11  C   UNL     1     134.261 134.075 137.248  1.00  0.00     0.022 C 
ATOM     12  C   UNL     1     135.131 135.233 136.815  1.00  0.00     0.017 C 
ATOM     13  C   UNL     1     137.951 134.739 137.521  1.00  0.00     0.012 C 
ATOM     14  C   UNL     1     136.505 133.483 139.136  1.00  0.00     0.012 C 
ATOM     15  C   UNL     1     136.094 134.203 134.135  1.00  0.00     0.012 C 
ENDROOT
TORSDOF 0
ENDMDL
MODEL 3
REMARK VINA RESULT:    -5.280      3.045      4.914
REMARK INTER + INTRA:          -5.280
REMARK INTER:                  -5.280
REMARK INTRA:                   0.000
REMARK UNBOUND:                 0.000
REMARK SMILES CC1=CC[C@]2(C)CCCC(C)(C)[C@@]23C[C@@H]13
REMARK SMILES IDX 1 1 2 2 3 3 4 4 5 5 7 6 8 7 9 8 10 9 13 10 15 11 14 12 11 13
REMARK SMILES IDX 12 14 6 15
REMARK H PARENT
REMARK Flexibility Score: inf
ROOT
ATOM      1  C   UNL     1     137.877 131.867 136.721  1.00  0.00     0.039 C 
ATOM      2  C   UNL     1     138.640 133.123 136.407  1.00  0.00    -0.074 C 
ATOM      3  C   UNL     1     139.274 133.241 135.236  1.00  0.00    -0.027 C 
ATOM      4  C   UNL     1     140.137 134.429 134.962  1.00  0.00     0.034 C 
ATOM      5  C   UNL     1     139.503 135.801 135.361  1.00  0.00    -0.022 C 
ATOM      6  C   UNL     1     140.693 136.816 135.302  1.00  0.00     0.008 C 
ATOM      7  C   UNL     1     140.464 138.092 136.088  1.00  0.00     0.001 C 
ATOM      8  C   UNL     1     140.297 137.736 137.559  1.00  0.00     0.007 C 
ATOM      9  C   UNL     1     138.982 136.964 137.826  1.00  0.00    -0.029 C 
ATOM     10  C   UNL     1     138.819 135.741 136.811  1.00  0.00    -0.012 C 
ATOM     11  C   UNL     1     138.548 134.301 137.344  1.00  0.00     0.022 C 
ATOM     12  C   UNL     1     137.385 135.158 136.899  1.00  0.00     0.017 C 
ATOM     13  C   UNL     1     137.800 137.968 137.691  1.00  0.00     0.012 C 
ATOM     14  C   UNL     1     139.039 136.506 139.305  1.00  0.00     0.012 C 
ATOM     15  C   UNL     1     138.471 136.211 134.276  1.00  0.00     0.012 C 
ENDROOT
TORSDOF 0
ENDMDL
MODEL 4
REMARK VINA RESULT:    -5.270      3.176      5.025
REMARK INTER + INTRA:          -5.270
REMARK INTER:                  -5.270
REMARK INTRA:                   0.000
REMARK UNBOUND:                 0.000
REMARK SMILES CC1=CC[C@]2(C)CCCC(C)(C)[C@@]23C[C@@H]13
REMARK SMILES IDX 1 1 2 2 3 3 4 4 5 5 7 6 8 7 9 8 10 9 13 10 15 11 14 12 11 13
REMARK SMILES IDX 12 14 6 15
REMARK H PARENT
REMARK Flexibility Score: inf
ROOT
ATOM      1  C   UNL     1     134.798 140.713 136.738  1.00  0.00     0.039 C 
ATOM      2  C   UNL     1     134.012 139.477 136.403  1.00  0.00    -0.074 C 
ATOM      3  C   UNL     1     133.377 139.390 135.230  1.00  0.00    -0.027 C 
ATOM      4  C   UNL     1     132.491 138.223 134.935  1.00  0.00     0.034 C 
ATOM      5  C   UNL     1     133.099 136.833 135.313  1.00  0.00    -0.022 C 
ATOM      6  C   UNL     1     131.890 135.842 135.236  1.00  0.00     0.008 C 
ATOM      7  C   UNL     1     132.094 134.550 136.001  1.00  0.00     0.001 C 
ATOM      8  C   UNL     1     132.265 134.878 137.478  1.00  0.00     0.007 C 
ATOM      9  C   UNL     1     133.594 135.621 137.759  1.00  0.00    -0.029 C 
ATOM     10  C   UNL     1     133.782 136.857 136.764  1.00  0.00    -0.012 C 
ATOM     11  C   UNL     1     134.079 138.283 137.320  1.00  0.00     0.022 C 
ATOM     12  C   UNL     1     135.226 137.410 136.864  1.00  0.00     0.017 C 
ATOM     13  C   UNL     1     134.757 134.596 137.609  1.00  0.00     0.012 C 
ATOM     14  C   UNL     1     133.544 136.056 139.246  1.00  0.00     0.012 C 
ATOM     15  C   UNL     1     134.124 136.421 134.223  1.00  0.00     0.012 C 
ENDROOT
TORSDOF 0
ENDMDL
MODEL 5
REMARK VINA RESULT:    -4.905      2.457      4.563
REMARK INTER + INTRA:          -4.905
REMARK INTER:                  -4.905
REMARK INTRA:                   0.000
REMARK UNBOUND:                 0.000
REMARK SMILES CC1=CC[C@]2(C)CCCC(C)(C)[C@@]23C[C@@H]13
REMARK SMILES IDX 1 1 2 2 3 3 4 4 5 5 7 6 8 7 9 8 10 9 13 10 15 11 14 12 11 13
REMARK SMILES IDX 12 14 6 15
REMARK H PARENT
REMARK Flexibility Score: inf
ROOT
ATOM      1  C   UNL     1     141.391 135.575 131.875  1.00  0.00     0.039 C 
ATOM      2  C   UNL     1     140.604 135.857 133.123  1.00  0.00    -0.074 C 
ATOM      3  C   UNL     1     140.953 135.275 134.276  1.00  0.00    -0.027 C 
ATOM      4  C   UNL     1     140.107 135.448 135.495  1.00  0.00     0.034 C 
ATOM      5  C   UNL     1     139.644 136.917 135.763  1.00  0.00    -0.022 C 
ATOM      6  C   UNL     1     138.528 136.784 136.853  1.00  0.00     0.008 C 
ATOM      7  C   UNL     1     137.599 137.978 136.943  1.00  0.00     0.001 C 
ATOM      8  C   UNL     1     136.865 138.128 135.618  1.00  0.00     0.007 C 
ATOM      9  C   UNL     1     137.814 138.556 134.472  1.00  0.00    -0.029 C 
ATOM     10  C   UNL     1     139.113 137.626 134.426  1.00  0.00    -0.012 C 
ATOM     11  C   UNL     1     139.532 136.917 133.102  1.00  0.00     0.022 C 
ATOM     12  C   UNL     1     140.174 138.234 133.472  1.00  0.00     0.017 C 
ATOM     13  C   UNL     1     138.198 140.048 134.698  1.00  0.00     0.012 C 
ATOM     14  C   UNL     1     136.982 138.481 133.166  1.00  0.00     0.012 C 
ATOM     15  C   UNL     1     140.824 137.711 136.383  1.00  0.00     0.012 C 
ENDROOT
TORSDOF 0
ENDMDL
MODEL 6
REMARK VINA RESULT:    -4.886      2.897      5.455
REMARK INTER + INTRA:          -4.886
REMARK INTER:                  -4.886
REMARK INTRA:                   0.000
REMARK UNBOUND:                 0.000
REMARK SMILES CC1=CC[C@]2(C)CCCC(C)(C)[C@@]23C[C@@H]13
REMARK SMILES IDX 1 1 2 2 3 3 4 4 5 5 7 6 8 7 9 8 10 9 13 10 15 11 14 12 11 13
REMARK SMILES IDX 12 14 6 15
REMARK H PARENT
REMARK Flexibility Score: inf
ROOT
ATOM      1  C   UNL     1     139.519 139.831 136.373  1.00  0.00     0.039 C 
ATOM      2  C   UNL     1     139.421 138.386 136.775  1.00  0.00    -0.074 C 
ATOM      3  C   UNL     1     138.964 138.063 137.989  1.00  0.00    -0.027 C 
ATOM      4  C   UNL     1     138.978 136.642 138.447  1.00  0.00     0.034 C 
ATOM      5  C   UNL     1     138.454 135.613 137.393  1.00  0.00    -0.022 C 
ATOM      6  C   UNL     1     138.881 134.218 137.961  1.00  0.00     0.008 C 
ATOM      7  C   UNL     1     138.919 133.110 136.927  1.00  0.00     0.001 C 
ATOM      8  C   UNL     1     139.958 133.462 135.871  1.00  0.00     0.007 C 
ATOM      9  C   UNL     1     139.528 134.676 135.012  1.00  0.00    -0.029 C 
ATOM     10  C   UNL     1     139.060 135.894 135.935  1.00  0.00    -0.012 C 
ATOM     11  C   UNL     1     139.683 137.311 135.751  1.00  0.00     0.022 C 
ATOM     12  C   UNL     1     138.371 136.984 135.075  1.00  0.00     0.017 C 
ATOM     13  C   UNL     1     138.380 134.213 134.068  1.00  0.00     0.012 C 
ATOM     14  C   UNL     1     140.746 135.036 134.125  1.00  0.00     0.012 C 
ATOM     15  C   UNL     1     136.903 135.664 137.370  1.00  0.00     0.012 C 
ENDROOT
TORSDOF 0
ENDMDL
MODEL 7
REMARK VINA RESULT:    -4.848      1.124      4.648
REMARK INTER + INTRA:          -4.848
REMARK INTER:                  -4.848
REMARK INTRA:                   0.000
REMARK UNBOUND:                 0.000
REMARK SMILES CC1=CC[C@]2(C)CCCC(C)(C)[C@@]23C[C@@H]13
REMARK SMILES IDX 1 1 2 2 3 3 4 4 5 5 7 6 8 7 9 8 10 9 13 10 15 11 14 12 11 13
REMARK SMILES IDX 12 14 6 15
REMARK H PARENT
REMARK Flexibility Score: inf
ROOT
ATOM      1  C   UNL     1     132.802 139.438 136.241  1.00  0.00     0.039 C 
ATOM      2  C   UNL     1     134.235 139.330 136.680  1.00  0.00    -0.074 C 
ATOM      3  C   UNL     1     134.526 138.840 137.889  1.00  0.00    -0.027 C 
ATOM      4  C   UNL     1     135.935 138.842 138.386  1.00  0.00     0.034 C 
ATOM      5  C   UNL     1     136.992 138.347 137.346  1.00  0.00    -0.022 C 
ATOM      6  C   UNL     1     138.371 138.759 137.963  1.00  0.00     0.008 C 
ATOM      7  C   UNL     1     139.507 138.826 136.960  1.00  0.00     0.001 C 
ATOM      8  C   UNL     1     139.182 139.893 135.924  1.00  0.00     0.007 C 
ATOM      9  C   UNL     1     137.992 139.486 135.022  1.00  0.00    -0.029 C 
ATOM     10  C   UNL     1     136.750 138.992 135.898  1.00  0.00    -0.012 C 
ATOM     11  C   UNL     1     135.338 139.619 135.693  1.00  0.00     0.022 C 
ATOM     12  C   UNL     1     135.684 138.326 134.990  1.00  0.00     0.017 C 
ATOM     13  C   UNL     1     138.482 138.363 134.059  1.00  0.00     0.012 C 
ATOM     14  C   UNL     1     137.655 140.727 134.158  1.00  0.00     0.012 C 
ATOM     15  C   UNL     1     136.943 136.797 137.280  1.00  0.00     0.012 C 
ENDROOT
TORSDOF 0
ENDMDL
MODEL 8
REMARK VINA RESULT:    -4.791      4.828      6.909
REMARK INTER + INTRA:          -4.791
REMARK INTER:                  -4.791
REMARK INTRA:                   0.000
REMARK UNBOUND:                 0.000
REMARK SMILES CC1=CC[C@]2(C)CCCC(C)(C)[C@@]23C[C@@H]13
REMARK SMILES IDX 1 1 2 2 3 3 4 4 5 5 7 6 8 7 9 8 10 9 13 10 15 11 14 12 11 13
REMARK SMILES IDX 12 14 6 15
REMARK H PARENT
REMARK Flexibility Score: inf
ROOT
ATOM      1  C   UNL     1     136.481 134.288 140.732  1.00  0.00     0.039 C 
ATOM      2  C   UNL     1     135.773 133.877 139.472  1.00  0.00    -0.074 C 
ATOM      3  C   UNL     1     134.462 134.103 139.342  1.00  0.00    -0.027 C 
ATOM      4  C   UNL     1     133.722 133.588 138.151  1.00  0.00     0.034 C 
ATOM      5  C   UNL     1     134.439 133.834 136.784  1.00  0.00    -0.022 C 
ATOM      6  C   UNL     1     133.665 132.930 135.766  1.00  0.00     0.008 C 
ATOM      7  C   UNL     1     134.434 132.618 134.498  1.00  0.00     0.001 C 
ATOM      8  C   UNL     1     135.690 131.841 134.868  1.00  0.00     0.007 C 
ATOM      9  C   UNL     1     136.707 132.712 135.644  1.00  0.00    -0.029 C 
ATOM     10  C   UNL     1     136.001 133.474 136.858  1.00  0.00    -0.012 C 
ATOM     11  C   UNL     1     136.575 133.364 138.303  1.00  0.00     0.022 C 
ATOM     12  C   UNL     1     136.953 134.548 137.443  1.00  0.00     0.017 C 
ATOM     13  C   UNL     1     137.341 133.720 134.640  1.00  0.00     0.012 C 
ATOM     14  C   UNL     1     137.831 131.754 136.116  1.00  0.00     0.012 C 
ATOM     15  C   UNL     1     134.229 135.313 136.364  1.00  0.00     0.012 C 
ENDROOT
TORSDOF 0
ENDMDL
MODEL 9
REMARK VINA RESULT:    -4.720      3.400      5.044
REMARK INTER + INTRA:          -4.720
REMARK INTER:                  -4.720
REMARK INTRA:                   0.000
REMARK UNBOUND:                 0.000
REMARK SMILES CC1=CC[C@]2(C)CCCC(C)(C)[C@@]23C[C@@H]13
REMARK SMILES IDX 1 1 2 2 3 3 4 4 5 5 7 6 8 7 9 8 10 9 13 10 15 11 14 12 11 13
REMARK SMILES IDX 12 14 6 15
REMARK H PARENT
REMARK Flexibility Score: inf
ROOT
ATOM      1  C   UNL     1     140.862 137.864 136.357  1.00  0.00     0.039 C 
ATOM      2  C   UNL     1     140.078 136.701 135.819  1.00  0.00    -0.074 C 
ATOM      3  C   UNL     1     140.649 135.857 134.953  1.00  0.00    -0.027 C 
ATOM      4  C   UNL     1     139.846 134.771 134.315  1.00  0.00     0.034 C 
ATOM      5  C   UNL     1     138.927 133.977 135.300  1.00  0.00    -0.022 C 
ATOM      6  C   UNL     1     137.967 133.162 134.370  1.00  0.00     0.008 C 
ATOM      7  C   UNL     1     136.695 132.691 135.048  1.00  0.00     0.001 C 
ATOM      8  C   UNL     1     135.900 133.909 135.497  1.00  0.00     0.007 C 
ATOM      9  C   UNL     1     136.602 134.672 136.646  1.00  0.00    -0.029 C 
ATOM     10  C   UNL     1     138.135 134.956 136.294  1.00  0.00    -0.012 C 
ATOM     11  C   UNL     1     138.713 136.401 136.383  1.00  0.00     0.022 C 
ATOM     12  C   UNL     1     138.889 135.458 137.551  1.00  0.00     0.017 C 
ATOM     13  C   UNL     1     136.472 133.815 137.941  1.00  0.00     0.012 C 
ATOM     14  C   UNL     1     135.791 135.974 136.864  1.00  0.00     0.012 C 
ATOM     15  C   UNL     1     139.797 132.965 136.092  1.00  0.00     0.012 C 
ENDROOT
TORSDOF 0
ENDMDL
