MODEL 1
REMARK VINA RESULT:    -1.846      0.000      0.000
REMARK INTER + INTRA:          -5.535
REMARK INTER:                  -4.004
REMARK INTRA:                  -1.531
REMARK UNBOUND:                -1.531
REMARK SMILES CCCCCCCCCCCCCCCCCCCCCC(=O)[O-]
REMARK SMILES IDX 12 1 11 2 10 3 9 4 8 5 7 6 6 7 5 8 4 9 3 10 2 11 1 12 13 13
REMARK SMILES IDX 14 14 15 15 16 16 17 17 18 18 19 19 20 20 21 21 22 22 23 23
REMARK SMILES IDX 24 24
REMARK H PARENT
REMARK Flexibility Score: inf
ROOT
ATOM      1  C   UNL     1     -15.727  10.135   7.020  1.00  0.00     0.000 C 
ENDROOT
BRANCH   1   2
ATOM      2  C   UNL     1     -16.758  11.281   7.046  1.00  0.00     0.000 C 
BRANCH   2   3
ATOM      3  C   UNL     1     -16.191  12.658   7.449  1.00  0.00     0.000 C 
BRANCH   3   4
ATOM      4  C   UNL     1     -15.962  12.858   8.958  1.00  0.00    -0.000 C 
BRANCH   4   5
ATOM      5  C   UNL     1     -14.473  12.976   9.324  1.00  0.00    -0.000 C 
BRANCH   5   6
ATOM      6  C   UNL     1     -14.160  14.231  10.160  1.00  0.00    -0.000 C 
BRANCH   6   7
ATOM      7  C   UNL     1     -13.401  13.972  11.479  1.00  0.00    -0.000 C 
BRANCH   7   8
ATOM      8  C   UNL     1     -14.249  14.094  12.757  1.00  0.00    -0.000 C 
BRANCH   8   9
ATOM      9  C   UNL     1     -15.752  14.217  12.468  1.00  0.00    -0.000 C 
BRANCH   9  10
ATOM     10  C   UNL     1     -16.531  13.066  13.114  1.00  0.00    -0.000 C 
BRANCH  10  11
ATOM     11  C   UNL     1     -15.783  11.738  12.952  1.00  0.00    -0.003 C 
ATOM     12  C   UNL     1     -16.549  10.780  12.043  1.00  0.00     0.004 C 
ENDBRANCH  10  11
ENDBRANCH   9  10
ENDBRANCH   8   9
ENDBRANCH   7   8
ENDBRANCH   6   7
ENDBRANCH   5   6
ENDBRANCH   4   5
ENDBRANCH   3   4
ENDBRANCH   2   3
ENDBRANCH   1   2
BRANCH   1  13
ATOM     13  C   UNL     1     -14.519  10.372   6.093  1.00  0.00     0.000 C 
BRANCH  13  14
ATOM     14  C   UNL     1     -14.661   9.787   4.674  1.00  0.00     0.000 C 
BRANCH  14  15
ATOM     15  C   UNL     1     -13.337   9.554   3.922  1.00  0.00     0.000 C 
BRANCH  15  16
ATOM     16  C   UNL     1     -13.379  10.048   2.467  1.00  0.00     0.000 C 
BRANCH  16  17
ATOM     17  C   UNL     1     -13.640   8.915   1.458  1.00  0.00     0.000 C 
BRANCH  17  18
ATOM     18  C   UNL     1     -12.640   8.831   0.286  1.00  0.00     0.000 C 
BRANCH  18  19
ATOM     19  C   UNL     1     -12.570   7.464  -0.419  1.00  0.00     0.000 C 
BRANCH  19  20
ATOM     20  C   UNL     1     -13.745   6.543  -0.049  1.00  0.00     0.006 C 
BRANCH  20  21
ATOM     21  C   UNL     1     -13.951   5.424  -1.080  1.00  0.00     0.053 C 
BRANCH  21  22
ATOM     22  C   UNL     1     -15.381   4.985  -1.148  1.00  0.00     0.041 C 
ATOM     23  O   UNL     1     -15.769   4.238  -2.085  1.00  0.00    -0.550 OA
ATOM     24  O   UNL     1     -16.280   5.376  -0.164  1.00  0.00    -0.550 OA
ENDBRANCH  21  22
ENDBRANCH  20  21
ENDBRANCH  19  20
ENDBRANCH  18  19
ENDBRANCH  17  18
ENDBRANCH  16  17
ENDBRANCH  15  16
ENDBRANCH  14  15
ENDBRANCH  13  14
ENDBRANCH   1  13
TORSDOF 20
ENDMDL
MODEL 2
REMARK VINA RESULT:    -1.729      3.268     10.495
REMARK INTER + INTRA:          -5.282
REMARK INTER:                  -3.748
REMARK INTRA:                  -1.533
REMARK UNBOUND:                -1.531
REMARK SMILES CCCCCCCCCCCCCCCCCCCCCC(=O)[O-]
REMARK SMILES IDX 12 1 11 2 10 3 9 4 8 5 7 6 6 7 5 8 4 9 3 10 2 11 1 12 13 13
REMARK SMILES IDX 14 14 15 15 16 16 17 17 18 18 19 19 20 20 21 21 22 22 23 23
REMARK SMILES IDX 24 24
REMARK H PARENT
REMARK Flexibility Score: inf
ROOT
ATOM      1  C   UNL     1     -15.426  11.052   8.827  1.00  0.00     0.000 C 
ENDROOT
BRANCH   1   2
ATOM      2  C   UNL     1     -16.053  10.458   7.550  1.00  0.00     0.000 C 
BRANCH   2   3
ATOM      3  C   UNL     1     -15.306  10.788   6.242  1.00  0.00     0.000 C 
BRANCH   3   4
ATOM      4  C   UNL     1     -14.530   9.615   5.616  1.00  0.00    -0.000 C 
BRANCH   4   5
ATOM      5  C   UNL     1     -13.600  10.058   4.473  1.00  0.00    -0.000 C 
BRANCH   5   6
ATOM      6  C   UNL     1     -13.882   9.320   3.152  1.00  0.00    -0.000 C 
BRANCH   6   7
ATOM      7  C   UNL     1     -13.102   9.841   1.926  1.00  0.00    -0.000 C 
BRANCH   7   8
ATOM      8  C   UNL     1     -13.098   8.904   0.706  1.00  0.00    -0.000 C 
BRANCH   8   9
ATOM      9  C   UNL     1     -14.281   7.925   0.701  1.00  0.00    -0.000 C 
BRANCH   9  10
ATOM     10  C   UNL     1     -13.925   6.637  -0.052  1.00  0.00    -0.000 C 
BRANCH  10  11
ATOM     11  C   UNL     1     -15.153   5.732  -0.204  1.00  0.00    -0.003 C 
ATOM     12  C   UNL     1     -16.436   6.477   0.156  1.00  0.00     0.004 C 
ENDBRANCH  10  11
ENDBRANCH   9  10
ENDBRANCH   8   9
ENDBRANCH   7   8
ENDBRANCH   6   7
ENDBRANCH   5   6
ENDBRANCH   4   5
ENDBRANCH   3   4
ENDBRANCH   2   3
ENDBRANCH   1   2
BRANCH   1  13
ATOM     13  C   UNL     1     -15.526  12.586   8.943  1.00  0.00     0.000 C 
BRANCH  13  14
ATOM     14  C   UNL     1     -14.194  13.307   9.229  1.00  0.00     0.000 C 
BRANCH  14  15
ATOM     15  C   UNL     1     -14.195  14.228  10.462  1.00  0.00     0.000 C 
BRANCH  15  16
ATOM     16  C   UNL     1     -14.002  13.464  11.782  1.00  0.00     0.000 C 
BRANCH  16  17
ATOM     17  C   UNL     1     -15.334  13.124  12.475  1.00  0.00     0.000 C 
BRANCH  17  18
ATOM     18  C   UNL     1     -15.461  11.673  12.986  1.00  0.00     0.000 C 
BRANCH  18  19
ATOM     19  C   UNL     1     -16.335  10.748  12.119  1.00  0.00     0.000 C 
BRANCH  19  20
ATOM     20  C   UNL     1     -15.921   9.270  12.223  1.00  0.00     0.006 C 
BRANCH  20  21
ATOM     21  C   UNL     1     -16.754   8.369  11.300  1.00  0.00     0.053 C 
BRANCH  21  22
ATOM     22  C   UNL     1     -15.891   7.563  10.380  1.00  0.00     0.041 C 
ATOM     23  O   UNL     1     -14.810   7.069  10.796  1.00  0.00    -0.550 OA
ATOM     24  O   UNL     1     -16.293   7.332   9.070  1.00  0.00    -0.550 OA
ENDBRANCH  21  22
ENDBRANCH  20  21
ENDBRANCH  19  20
ENDBRANCH  18  19
ENDBRANCH  17  18
ENDBRANCH  16  17
ENDBRANCH  15  16
ENDBRANCH  14  15
ENDBRANCH  13  14
ENDBRANCH   1  13
TORSDOF 20
ENDMDL
MODEL 3
REMARK VINA RESULT:    -1.705      2.436      4.233
REMARK INTER + INTRA:          -5.229
REMARK INTER:                  -4.024
REMARK INTRA:                  -1.205
REMARK UNBOUND:                -1.531
REMARK SMILES CCCCCCCCCCCCCCCCCCCCCC(=O)[O-]
REMARK SMILES IDX 12 1 11 2 10 3 9 4 8 5 7 6 6 7 5 8 4 9 3 10 2 11 1 12 13 13
REMARK SMILES IDX 14 14 15 15 16 16 17 17 18 18 19 19 20 20 21 21 22 22 23 23
REMARK SMILES IDX 24 24
REMARK H PARENT
REMARK Flexibility Score: inf
ROOT
ATOM      1  C   UNL     1     -14.124  12.875   7.942  1.00  0.00     0.000 C 
ENDROOT
BRANCH   1   2
ATOM      2  C   UNL     1     -14.322  13.637   9.267  1.00  0.00     0.000 C 
BRANCH   2   3
ATOM      3  C   UNL     1     -15.641  13.330  10.006  1.00  0.00     0.000 C 
BRANCH   3   4
ATOM      4  C   UNL     1     -15.605  12.096  10.926  1.00  0.00    -0.000 C 
BRANCH   4   5
ATOM      5  C   UNL     1     -17.001  11.499  11.176  1.00  0.00    -0.000 C 
BRANCH   5   6
ATOM      6  C   UNL     1     -17.040  10.561  12.397  1.00  0.00    -0.000 C 
BRANCH   6   7
ATOM      7  C   UNL     1     -16.878   9.059  12.080  1.00  0.00    -0.000 C 
BRANCH   7   8
ATOM      8  C   UNL     1     -16.327   8.741  10.679  1.00  0.00    -0.000 C 
BRANCH   8   9
ATOM      9  C   UNL     1     -15.547   7.418  10.629  1.00  0.00    -0.000 C 
BRANCH   9  10
ATOM     10  C   UNL     1     -14.827   7.156  11.957  1.00  0.00    -0.000 C 
BRANCH  10  11
ATOM     11  C   UNL     1     -13.660   6.181  11.766  1.00  0.00    -0.003 C 
ATOM     12  C   UNL     1     -14.137   4.732  11.820  1.00  0.00     0.004 C 
ENDBRANCH  10  11
ENDBRANCH   9  10
ENDBRANCH   8   9
ENDBRANCH   7   8
ENDBRANCH   6   7
ENDBRANCH   5   6
ENDBRANCH   4   5
ENDBRANCH   3   4
ENDBRANCH   2   3
ENDBRANCH   1   2
BRANCH   1  13
ATOM     13  C   UNL     1     -15.426  12.409   7.263  1.00  0.00     0.000 C 
BRANCH  13  14
ATOM     14  C   UNL     1     -15.774  10.921   7.467  1.00  0.00     0.000 C 
BRANCH  14  15
ATOM     15  C   UNL     1     -15.638  10.036   6.215  1.00  0.00     0.000 C 
BRANCH  15  16
ATOM     16  C   UNL     1     -14.251  10.130   5.561  1.00  0.00     0.000 C 
BRANCH  16  17
ATOM     17  C   UNL     1     -14.208   9.500   4.156  1.00  0.00     0.000 C 
BRANCH  17  18
ATOM     18  C   UNL     1     -13.017   9.933   3.275  1.00  0.00     0.000 C 
BRANCH  18  19
ATOM     19  C   UNL     1     -13.326  10.055   1.772  1.00  0.00     0.000 C 
BRANCH  19  20
ATOM     20  C   UNL     1     -13.089   8.742   1.007  1.00  0.00     0.006 C 
BRANCH  20  21
ATOM     21  C   UNL     1     -14.393   7.970   0.762  1.00  0.00     0.053 C 
BRANCH  21  22
ATOM     22  C   UNL     1     -14.155   6.697   0.009  1.00  0.00     0.041 C 
ATOM     23  O   UNL     1     -15.031   5.792   0.003  1.00  0.00    -0.550 OA
ATOM     24  O   UNL     1     -12.980   6.520  -0.710  1.00  0.00    -0.550 OA
ENDBRANCH  21  22
ENDBRANCH  20  21
ENDBRANCH  19  20
ENDBRANCH  18  19
ENDBRANCH  17  18
ENDBRANCH  16  17
ENDBRANCH  15  16
ENDBRANCH  14  15
ENDBRANCH  13  14
ENDBRANCH   1  13
TORSDOF 20
ENDMDL
MODEL 4
REMARK VINA RESULT:    -1.501      1.225      2.671
REMARK INTER + INTRA:          -4.787
REMARK INTER:                  -3.338
REMARK INTRA:                  -1.449
REMARK UNBOUND:                -1.531
REMARK SMILES CCCCCCCCCCCCCCCCCCCCCC(=O)[O-]
REMARK SMILES IDX 12 1 11 2 10 3 9 4 8 5 7 6 6 7 5 8 4 9 3 10 2 11 1 12 13 13
REMARK SMILES IDX 14 14 15 15 16 16 17 17 18 18 19 19 20 20 21 21 22 22 23 23
REMARK SMILES IDX 24 24
REMARK H PARENT
REMARK Flexibility Score: inf
ROOT
ATOM      1  C   UNL     1     -15.221   9.760   6.294  1.00  0.00     0.000 C 
ENDROOT
BRANCH   1   2
ATOM      2  C   UNL     1     -15.953  10.918   7.000  1.00  0.00     0.000 C 
BRANCH   2   3
ATOM      3  C   UNL     1     -16.629  10.545   8.335  1.00  0.00     0.000 C 
BRANCH   3   4
ATOM      4  C   UNL     1     -16.010   9.344   9.071  1.00  0.00    -0.000 C 
BRANCH   4   5
ATOM      5  C   UNL     1     -16.758   8.989  10.368  1.00  0.00    -0.000 C 
BRANCH   5   6
ATOM      6  C   UNL     1     -17.074  10.223  11.233  1.00  0.00    -0.000 C 
BRANCH   6   7
ATOM      7  C   UNL     1     -16.039  10.541  12.332  1.00  0.00    -0.000 C 
BRANCH   7   8
ATOM      8  C   UNL     1     -16.005  12.008  12.795  1.00  0.00    -0.000 C 
BRANCH   8   9
ATOM      9  C   UNL     1     -15.788  12.995  11.638  1.00  0.00    -0.000 C 
BRANCH   9  10
ATOM     10  C   UNL     1     -14.451  13.729  11.787  1.00  0.00    -0.000 C 
BRANCH  10  11
ATOM     11  C   UNL     1     -13.978  14.287  10.440  1.00  0.00    -0.003 C 
ATOM     12  C   UNL     1     -14.342  13.346   9.295  1.00  0.00     0.004 C 
ENDBRANCH  10  11
ENDBRANCH   9  10
ENDBRANCH   8   9
ENDBRANCH   7   8
ENDBRANCH   6   7
ENDBRANCH   5   6
ENDBRANCH   4   5
ENDBRANCH   3   4
ENDBRANCH   2   3
ENDBRANCH   1   2
BRANCH   1  13
ATOM     13  C   UNL     1     -14.114  10.195   5.314  1.00  0.00     0.000 C 
BRANCH  13  14
ATOM     14  C   UNL     1     -14.138   9.487   3.945  1.00  0.00     0.000 C 
BRANCH  14  15
ATOM     15  C   UNL     1     -12.987   9.857   2.992  1.00  0.00     0.000 C 
BRANCH  15  16
ATOM     16  C   UNL     1     -13.402   9.830   1.512  1.00  0.00     0.000 C 
BRANCH  16  17
ATOM     17  C   UNL     1     -12.683   8.729   0.710  1.00  0.00     0.000 C 
BRANCH  17  18
ATOM     18  C   UNL     1     -13.559   7.521   0.316  1.00  0.00     0.000 C 
BRANCH  18  19
ATOM     19  C   UNL     1     -15.030   7.606   0.762  1.00  0.00     0.000 C 
BRANCH  19  20
ATOM     20  C   UNL     1     -15.910   6.521   0.119  1.00  0.00     0.006 C 
BRANCH  20  21
ATOM     21  C   UNL     1     -15.094   5.299  -0.324  1.00  0.00     0.053 C 
BRANCH  21  22
ATOM     22  C   UNL     1     -15.768   4.548  -1.431  1.00  0.00     0.041 C 
ATOM     23  O   UNL     1     -17.008   4.331  -1.385  1.00  0.00    -0.550 OA
ATOM     24  O   UNL     1     -15.035   4.112  -2.526  1.00  0.00    -0.550 OA
ENDBRANCH  21  22
ENDBRANCH  20  21
ENDBRANCH  19  20
ENDBRANCH  18  19
ENDBRANCH  17  18
ENDBRANCH  16  17
ENDBRANCH  15  16
ENDBRANCH  14  15
ENDBRANCH  13  14
ENDBRANCH   1  13
TORSDOF 20
ENDMDL
MODEL 5
REMARK VINA RESULT:    -1.296      1.336      2.217
REMARK INTER + INTRA:          -4.342
REMARK INTER:                  -2.938
REMARK INTRA:                  -1.404
REMARK UNBOUND:                -1.531
REMARK SMILES CCCCCCCCCCCCCCCCCCCCCC(=O)[O-]
REMARK SMILES IDX 12 1 11 2 10 3 9 4 8 5 7 6 6 7 5 8 4 9 3 10 2 11 1 12 13 13
REMARK SMILES IDX 14 14 15 15 16 16 17 17 18 18 19 19 20 20 21 21 22 22 23 23
REMARK SMILES IDX 24 24
REMARK H PARENT
REMARK Flexibility Score: inf
ROOT
ATOM      1  C   UNL     1     -14.965  10.904   6.498  1.00  0.00     0.000 C 
ENDROOT
BRANCH   1   2
ATOM      2  C   UNL     1     -16.135  10.766   7.493  1.00  0.00     0.000 C 
BRANCH   2   3
ATOM      3  C   UNL     1     -17.046  12.006   7.604  1.00  0.00     0.000 C 
BRANCH   3   4
ATOM      4  C   UNL     1     -17.032  12.710   8.973  1.00  0.00    -0.000 C 
BRANCH   4   5
ATOM      5  C   UNL     1     -15.617  12.835   9.565  1.00  0.00    -0.000 C 
BRANCH   5   6
ATOM      6  C   UNL     1     -15.596  12.696  11.097  1.00  0.00    -0.000 C 
BRANCH   6   7
ATOM      7  C   UNL     1     -16.963  12.408  11.753  1.00  0.00    -0.000 C 
BRANCH   7   8
ATOM      8  C   UNL     1     -16.959  11.294  12.814  1.00  0.00    -0.000 C 
BRANCH   8   9
ATOM      9  C   UNL     1     -16.255  10.015  12.335  1.00  0.00    -0.000 C 
BRANCH   9  10
ATOM     10  C   UNL     1     -17.078   9.310  11.251  1.00  0.00    -0.000 C 
BRANCH  10  11
ATOM     11  C   UNL     1     -16.508   7.919  10.946  1.00  0.00    -0.003 C 
ATOM     12  C   UNL     1     -15.743   7.914   9.626  1.00  0.00     0.004 C 
ENDBRANCH  10  11
ENDBRANCH   9  10
ENDBRANCH   8   9
ENDBRANCH   7   8
ENDBRANCH   6   7
ENDBRANCH   5   6
ENDBRANCH   4   5
ENDBRANCH   3   4
ENDBRANCH   2   3
ENDBRANCH   1   2
BRANCH   1  13
ATOM     13  C   UNL     1     -14.691   9.652   5.643  1.00  0.00     0.000 C 
BRANCH  13  14
ATOM     14  C   UNL     1     -13.682   9.853   4.495  1.00  0.00     0.000 C 
BRANCH  14  15
ATOM     15  C   UNL     1     -14.175   9.422   3.101  1.00  0.00     0.000 C 
BRANCH  15  16
ATOM     16  C   UNL     1     -13.076   9.489   2.029  1.00  0.00     0.000 C 
BRANCH  16  17
ATOM     17  C   UNL     1     -13.450   8.733   0.741  1.00  0.00     0.000 C 
BRANCH  17  18
ATOM     18  C   UNL     1     -12.259   8.251  -0.112  1.00  0.00     0.000 C 
BRANCH  18  19
ATOM     19  C   UNL     1     -12.529   6.999  -0.966  1.00  0.00     0.000 C 
BRANCH  19  20
ATOM     20  C   UNL     1     -13.742   6.193  -0.474  1.00  0.00     0.006 C 
BRANCH  20  21
ATOM     21  C   UNL     1     -14.131   5.075  -1.451  1.00  0.00     0.053 C 
BRANCH  21  22
ATOM     22  C   UNL     1     -15.569   4.682  -1.307  1.00  0.00     0.041 C 
ATOM     23  O   UNL     1     -16.163   4.096  -2.250  1.00  0.00    -0.550 OA
ATOM     24  O   UNL     1     -16.248   4.938  -0.122  1.00  0.00    -0.550 OA
ENDBRANCH  21  22
ENDBRANCH  20  21
ENDBRANCH  19  20
ENDBRANCH  18  19
ENDBRANCH  17  18
ENDBRANCH  16  17
ENDBRANCH  15  16
ENDBRANCH  14  15
ENDBRANCH  13  14
ENDBRANCH   1  13
TORSDOF 20
ENDMDL
MODEL 6
REMARK VINA RESULT:    -1.196      4.160     10.471
REMARK INTER + INTRA:          -4.126
REMARK INTER:                  -2.773
REMARK INTRA:                  -1.354
REMARK UNBOUND:                -1.531
REMARK SMILES CCCCCCCCCCCCCCCCCCCCCC(=O)[O-]
REMARK SMILES IDX 12 1 11 2 10 3 9 4 8 5 7 6 6 7 5 8 4 9 3 10 2 11 1 12 13 13
REMARK SMILES IDX 14 14 15 15 16 16 17 17 18 18 19 19 20 20 21 21 22 22 23 23
REMARK SMILES IDX 24 24
REMARK H PARENT
REMARK Flexibility Score: inf
ROOT
ATOM      1  C   UNL     1     -15.307  13.283   9.108  1.00  0.00     0.000 C 
ENDROOT
BRANCH   1   2
ATOM      2  C   UNL     1     -14.587  12.138   8.368  1.00  0.00     0.000 C 
BRANCH   2   3
ATOM      3  C   UNL     1     -15.347  10.796   8.347  1.00  0.00     0.000 C 
BRANCH   3   4
ATOM      4  C   UNL     1     -15.674  10.248   6.946  1.00  0.00    -0.000 C 
BRANCH   4   5
ATOM      5  C   UNL     1     -14.578  10.561   5.913  1.00  0.00    -0.000 C 
BRANCH   5   6
ATOM      6  C   UNL     1     -14.495   9.509   4.792  1.00  0.00    -0.000 C 
BRANCH   6   7
ATOM      7  C   UNL     1     -13.536   9.854   3.633  1.00  0.00    -0.000 C 
BRANCH   7   8
ATOM      8  C   UNL     1     -13.905   9.237   2.272  1.00  0.00    -0.000 C 
BRANCH   8   9
ATOM      9  C   UNL     1     -12.865   9.532   1.181  1.00  0.00    -0.000 C 
BRANCH   9  10
ATOM     10  C   UNL     1     -12.787   8.380   0.172  1.00  0.00    -0.000 C 
BRANCH  10  11
ATOM     11  C   UNL     1     -13.876   7.337   0.444  1.00  0.00    -0.003 C 
ATOM     12  C   UNL     1     -13.745   6.144  -0.500  1.00  0.00     0.004 C 
ENDBRANCH  10  11
ENDBRANCH   9  10
ENDBRANCH   8   9
ENDBRANCH   7   8
ENDBRANCH   6   7
ENDBRANCH   5   6
ENDBRANCH   4   5
ENDBRANCH   3   4
ENDBRANCH   2   3
ENDBRANCH   1   2
BRANCH   1  13
ATOM     13  C   UNL     1     -14.606  13.766  10.392  1.00  0.00     0.000 C 
BRANCH  13  14
ATOM     14  C   UNL     1     -14.802  12.859  11.623  1.00  0.00     0.000 C 
BRANCH  14  15
ATOM     15  C   UNL     1     -16.243  12.778  12.159  1.00  0.00     0.000 C 
BRANCH  15  16
ATOM     16  C   UNL     1     -16.962  11.482  11.752  1.00  0.00     0.000 C 
BRANCH  16  17
ATOM     17  C   UNL     1     -17.076  10.473  12.910  1.00  0.00     0.000 C 
BRANCH  17  18
ATOM     18  C   UNL     1     -16.087   9.291  12.855  1.00  0.00     0.000 C 
BRANCH  18  19
ATOM     19  C   UNL     1     -16.608   8.034  12.135  1.00  0.00     0.000 C 
BRANCH  19  20
ATOM     20  C   UNL     1     -15.669   7.558  11.014  1.00  0.00     0.006 C 
BRANCH  20  21
ATOM     21  C   UNL     1     -15.411   6.046  11.077  1.00  0.00     0.053 C 
BRANCH  21  22
ATOM     22  C   UNL     1     -14.153   5.724  11.824  1.00  0.00     0.041 C 
ATOM     23  O   UNL     1     -13.217   6.565  11.878  1.00  0.00    -0.550 OA
ATOM     24  O   UNL     1     -14.024   4.509  12.483  1.00  0.00    -0.550 OA
ENDBRANCH  21  22
ENDBRANCH  20  21
ENDBRANCH  19  20
ENDBRANCH  18  19
ENDBRANCH  17  18
ENDBRANCH  16  17
ENDBRANCH  15  16
ENDBRANCH  14  15
ENDBRANCH  13  14
ENDBRANCH   1  13
TORSDOF 20
ENDMDL
MODEL 7
REMARK VINA RESULT:    -1.172      4.022     11.837
REMARK INTER + INTRA:          -4.074
REMARK INTER:                  -3.036
REMARK INTRA:                  -1.038
REMARK UNBOUND:                -1.531
REMARK SMILES CCCCCCCCCCCCCCCCCCCCCC(=O)[O-]
REMARK SMILES IDX 12 1 11 2 10 3 9 4 8 5 7 6 6 7 5 8 4 9 3 10 2 11 1 12 13 13
REMARK SMILES IDX 14 14 15 15 16 16 17 17 18 18 19 19 20 20 21 21 22 22 23 23
REMARK SMILES IDX 24 24
REMARK H PARENT
REMARK Flexibility Score: inf
ROOT
ATOM      1  C   UNL     1     -14.889  10.518   6.408  1.00  0.00     0.000 C 
ENDROOT
BRANCH   1   2
ATOM      2  C   UNL     1     -14.766   9.538   5.224  1.00  0.00     0.000 C 
BRANCH   2   3
ATOM      3  C   UNL     1     -13.658   9.881   4.207  1.00  0.00     0.000 C 
BRANCH   3   4
ATOM      4  C   UNL     1     -13.829   9.251   2.812  1.00  0.00    -0.000 C 
BRANCH   4   5
ATOM      5  C   UNL     1     -12.978   9.946   1.736  1.00  0.00    -0.000 C 
BRANCH   5   6
ATOM      6  C   UNL     1     -13.054   9.244   0.368  1.00  0.00    -0.000 C 
BRANCH   6   7
ATOM      7  C   UNL     1     -12.243   7.936   0.252  1.00  0.00    -0.000 C 
BRANCH   7   8
ATOM      8  C   UNL     1     -12.513   7.109  -1.018  1.00  0.00    -0.000 C 
BRANCH   8   9
ATOM      9  C   UNL     1     -13.315   5.829  -0.737  1.00  0.00    -0.000 C 
BRANCH   9  10
ATOM     10  C   UNL     1     -14.720   6.164  -0.223  1.00  0.00    -0.000 C 
BRANCH  10  11
ATOM     11  C   UNL     1     -15.687   5.000  -0.470  1.00  0.00    -0.003 C 
ATOM     12  C   UNL     1     -15.402   4.321  -1.807  1.00  0.00     0.004 C 
ENDBRANCH  10  11
ENDBRANCH   9  10
ENDBRANCH   8   9
ENDBRANCH   7   8
ENDBRANCH   6   7
ENDBRANCH   5   6
ENDBRANCH   4   5
ENDBRANCH   3   4
ENDBRANCH   2   3
ENDBRANCH   1   2
BRANCH   1  13
ATOM     13  C   UNL     1     -16.090  10.261   7.338  1.00  0.00     0.000 C 
BRANCH  13  14
ATOM     14  C   UNL     1     -15.800   9.342   8.541  1.00  0.00     0.000 C 
BRANCH  14  15
ATOM     15  C   UNL     1     -16.931   9.242   9.581  1.00  0.00     0.000 C 
BRANCH  15  16
ATOM     16  C   UNL     1     -16.445   9.479  11.020  1.00  0.00     0.000 C 
BRANCH  16  17
ATOM     17  C   UNL     1     -16.828  10.870  11.558  1.00  0.00     0.000 C 
BRANCH  17  18
ATOM     18  C   UNL     1     -15.844  11.477  12.580  1.00  0.00     0.000 C 
BRANCH  18  19
ATOM     19  C   UNL     1     -16.201  12.891  13.073  1.00  0.00     0.000 C 
BRANCH  19  20
ATOM     20  C   UNL     1     -15.148  13.941  12.683  1.00  0.00     0.006 C 
BRANCH  20  21
ATOM     21  C   UNL     1     -13.985  13.329  11.890  1.00  0.00     0.053 C 
BRANCH  21  22
ATOM     22  C   UNL     1     -14.038  13.705  10.441  1.00  0.00     0.041 C 
ATOM     23  O   UNL     1     -13.533  14.791  10.050  1.00  0.00    -0.550 OA
ATOM     24  O   UNL     1     -14.619  12.846   9.517  1.00  0.00    -0.550 OA
ENDBRANCH  21  22
ENDBRANCH  20  21
ENDBRANCH  19  20
ENDBRANCH  18  19
ENDBRANCH  17  18
ENDBRANCH  16  17
ENDBRANCH  15  16
ENDBRANCH  14  15
ENDBRANCH  13  14
ENDBRANCH   1  13
TORSDOF 20
ENDMDL
