MODEL 1
REMARK VINA RESULT:    -3.872      0.000      0.000
REMARK INTER + INTRA:          -5.350
REMARK INTER:                  -5.004
REMARK INTRA:                  -0.346
REMARK UNBOUND:                -0.346
REMARK SMILES CCCCCCC(=O)[O-]
REMARK SMILES IDX 5 1 6 2 7 3 8 4 9 5 4 6 3 7 2 8 1 9
REMARK H PARENT
REMARK Flexibility Score: inf
ROOT
ATOM      1  C   UNL     1      16.303 -21.974  22.204  1.00  0.00     0.006 C 
ENDROOT
BRANCH   1   2
ATOM      2  C   UNL     1      16.689 -21.057  23.371  1.00  0.00     0.053 C 
BRANCH   2   3
ATOM      3  C   UNL     1      15.682 -21.114  24.478  1.00  0.00     0.041 C 
ATOM      4  O   UNL     1      15.925 -21.769  25.526  1.00  0.00    -0.550 OA
ATOM      5  O   UNL     1      14.486 -20.415  24.366  1.00  0.00    -0.550 OA
ENDBRANCH   2   3
ENDBRANCH   1   2
BRANCH   1   6
ATOM      6  C   UNL     1      15.520 -21.229  21.113  1.00  0.00     0.000 C 
BRANCH   6   7
ATOM      7  C   UNL     1      14.445 -22.130  20.496  1.00  0.00    -0.000 C 
BRANCH   7   8
ATOM      8  C   UNL     1      13.642 -22.853  21.584  1.00  0.00    -0.003 C 
ATOM      9  C   UNL     1      12.395 -22.060  21.968  1.00  0.00     0.004 C 
ENDBRANCH   7   8
ENDBRANCH   6   7
ENDBRANCH   1   6
TORSDOF 5
ENDMDL
MODEL 2
REMARK VINA RESULT:    -3.661      1.604      3.633
REMARK INTER + INTRA:          -5.077
REMARK INTER:                  -4.721
REMARK INTRA:                  -0.357
REMARK UNBOUND:                -0.346
REMARK SMILES CCCCCCC(=O)[O-]
REMARK SMILES IDX 5 1 6 2 7 3 8 4 9 5 4 6 3 7 2 8 1 9
REMARK H PARENT
REMARK Flexibility Score: inf
ROOT
ATOM      1  C   UNL     1      14.394 -22.264  20.694  1.00  0.00     0.006 C 
ENDROOT
BRANCH   1   2
ATOM      2  C   UNL     1      13.530 -22.690  21.887  1.00  0.00     0.053 C 
BRANCH   2   3
ATOM      3  C   UNL     1      12.517 -21.645  22.241  1.00  0.00     0.041 C 
ATOM      4  O   UNL     1      11.332 -21.743  21.827  1.00  0.00    -0.550 OA
ATOM      5  O   UNL     1      12.875 -20.578  23.057  1.00  0.00    -0.550 OA
ENDBRANCH   2   3
ENDBRANCH   1   2
BRANCH   1   6
ATOM      6  C   UNL     1      15.562 -21.360  21.115  1.00  0.00     0.000 C 
BRANCH   6   7
ATOM      7  C   UNL     1      16.338 -21.974  22.286  1.00  0.00    -0.000 C 
BRANCH   7   8
ATOM      8  C   UNL     1      16.649 -20.918  23.354  1.00  0.00    -0.003 C 
ATOM      9  C   UNL     1      15.973 -21.259  24.679  1.00  0.00     0.004 C 
ENDBRANCH   7   8
ENDBRANCH   6   7
ENDBRANCH   1   6
TORSDOF 5
ENDMDL
MODEL 3
REMARK VINA RESULT:    -3.480      1.524      2.303
REMARK INTER + INTRA:          -4.843
REMARK INTER:                  -4.568
REMARK INTRA:                  -0.275
REMARK UNBOUND:                -0.346
REMARK SMILES CCCCCCC(=O)[O-]
REMARK SMILES IDX 5 1 6 2 7 3 8 4 9 5 4 6 3 7 2 8 1 9
REMARK H PARENT
REMARK Flexibility Score: inf
ROOT
ATOM      1  C   UNL     1      14.215 -21.910  22.566  1.00  0.00     0.006 C 
ENDROOT
BRANCH   1   2
ATOM      2  C   UNL     1      15.049 -20.715  23.044  1.00  0.00     0.053 C 
BRANCH   2   3
ATOM      3  C   UNL     1      16.235 -21.150  23.848  1.00  0.00     0.041 C 
ATOM      4  O   UNL     1      17.385 -21.147  23.335  1.00  0.00    -0.550 OA
ATOM      5  O   UNL     1      16.074 -21.529  25.175  1.00  0.00    -0.550 OA
ENDBRANCH   2   3
ENDBRANCH   1   2
BRANCH   1   6
ATOM      6  C   UNL     1      14.914 -22.696  21.446  1.00  0.00     0.000 C 
BRANCH   6   7
ATOM      7  C   UNL     1      14.018 -22.801  20.207  1.00  0.00    -0.000 C 
BRANCH   7   8
ATOM      8  C   UNL     1      13.905 -21.448  19.494  1.00  0.00    -0.003 C 
ATOM      9  C   UNL     1      15.273 -20.951  19.035  1.00  0.00     0.004 C 
ENDBRANCH   7   8
ENDBRANCH   6   7
ENDBRANCH   1   6
TORSDOF 5
ENDMDL
MODEL 4
REMARK VINA RESULT:    -3.439      1.608      2.153
REMARK INTER + INTRA:          -4.790
REMARK INTER:                  -4.424
REMARK INTRA:                  -0.366
REMARK UNBOUND:                -0.346
REMARK SMILES CCCCCCC(=O)[O-]
REMARK SMILES IDX 5 1 6 2 7 3 8 4 9 5 4 6 3 7 2 8 1 9
REMARK H PARENT
REMARK Flexibility Score: inf
ROOT
ATOM      1  C   UNL     1      14.360 -19.713  22.481  1.00  0.00     0.006 C 
ENDROOT
BRANCH   1   2
ATOM      2  C   UNL     1      14.356 -20.805  23.558  1.00  0.00     0.053 C 
BRANCH   2   3
ATOM      3  C   UNL     1      15.743 -21.244  23.910  1.00  0.00     0.041 C 
ATOM      4  O   UNL     1      16.589 -21.465  23.002  1.00  0.00    -0.550 OA
ATOM      5  O   UNL     1      16.113 -21.377  25.242  1.00  0.00    -0.550 OA
ENDBRANCH   2   3
ENDBRANCH   1   2
BRANCH   1   6
ATOM      6  C   UNL     1      13.763 -20.202  21.153  1.00  0.00     0.000 C 
BRANCH   6   7
ATOM      7  C   UNL     1      13.218 -21.628  21.288  1.00  0.00    -0.000 C 
BRANCH   7   8
ATOM      8  C   UNL     1      14.048 -22.616  20.459  1.00  0.00    -0.003 C 
ATOM      9  C   UNL     1      14.326 -23.896  21.243  1.00  0.00     0.004 C 
ENDBRANCH   7   8
ENDBRANCH   6   7
ENDBRANCH   1   6
TORSDOF 5
ENDMDL
MODEL 5
REMARK VINA RESULT:    -3.351      2.628      4.380
REMARK INTER + INTRA:          -4.676
REMARK INTER:                  -4.401
REMARK INTRA:                  -0.276
REMARK UNBOUND:                -0.346
REMARK SMILES CCCCCCC(=O)[O-]
REMARK SMILES IDX 5 1 6 2 7 3 8 4 9 5 4 6 3 7 2 8 1 9
REMARK H PARENT
REMARK Flexibility Score: inf
ROOT
ATOM      1  C   UNL     1      13.379 -20.682  22.041  1.00  0.00     0.006 C 
ENDROOT
BRANCH   1   2
ATOM      2  C   UNL     1      13.512 -20.919  20.531  1.00  0.00     0.053 C 
BRANCH   2   3
ATOM      3  C   UNL     1      14.088 -22.267  20.229  1.00  0.00     0.041 C 
ATOM      4  O   UNL     1      14.318 -22.607  19.037  1.00  0.00    -0.550 OA
ATOM      5  O   UNL     1      14.401 -23.138  21.265  1.00  0.00    -0.550 OA
ENDBRANCH   2   3
ENDBRANCH   1   2
BRANCH   1   6
ATOM      6  C   UNL     1      14.631 -20.023  22.639  1.00  0.00     0.000 C 
BRANCH   6   7
ATOM      7  C   UNL     1      14.818 -20.428  24.105  1.00  0.00    -0.000 C 
BRANCH   7   8
ATOM      8  C   UNL     1      16.182 -21.094  24.322  1.00  0.00    -0.003 C 
ATOM      9  C   UNL     1      16.926 -21.269  23.001  1.00  0.00     0.004 C 
ENDBRANCH   7   8
ENDBRANCH   6   7
ENDBRANCH   1   6
TORSDOF 5
ENDMDL
MODEL 6
REMARK VINA RESULT:    -3.277      2.838      4.352
REMARK INTER + INTRA:          -4.581
REMARK INTER:                  -4.259
REMARK INTRA:                  -0.323
REMARK UNBOUND:                -0.346
REMARK SMILES CCCCCCC(=O)[O-]
REMARK SMILES IDX 5 1 6 2 7 3 8 4 9 5 4 6 3 7 2 8 1 9
REMARK H PARENT
REMARK Flexibility Score: inf
ROOT
ATOM      1  C   UNL     1      14.169 -22.575  21.194  1.00  0.00     0.006 C 
ENDROOT
BRANCH   1   2
ATOM      2  C   UNL     1      14.081 -22.209  19.708  1.00  0.00     0.053 C 
BRANCH   2   3
ATOM      3  C   UNL     1      14.475 -20.786  19.461  1.00  0.00     0.041 C 
ATOM      4  O   UNL     1      13.599 -19.921  19.194  1.00  0.00    -0.550 OA
ATOM      5  O   UNL     1      15.808 -20.406  19.559  1.00  0.00    -0.550 OA
ENDBRANCH   2   3
ENDBRANCH   1   2
BRANCH   1   6
ATOM      6  C   UNL     1      13.109 -21.849  22.036  1.00  0.00     0.000 C 
BRANCH   6   7
ATOM      7  C   UNL     1      13.765 -20.916  23.061  1.00  0.00    -0.000 C 
BRANCH   7   8
ATOM      8  C   UNL     1      15.274 -21.174  23.153  1.00  0.00    -0.003 C 
ATOM      9  C   UNL     1      15.749 -21.155  24.603  1.00  0.00     0.004 C 
ENDBRANCH   7   8
ENDBRANCH   6   7
ENDBRANCH   1   6
TORSDOF 5
ENDMDL
MODEL 7
REMARK VINA RESULT:    -3.120      2.348      3.492
REMARK INTER + INTRA:          -4.378
REMARK INTER:                  -4.180
REMARK INTRA:                  -0.197
REMARK UNBOUND:                -0.346
REMARK SMILES CCCCCCC(=O)[O-]
REMARK SMILES IDX 5 1 6 2 7 3 8 4 9 5 4 6 3 7 2 8 1 9
REMARK H PARENT
REMARK Flexibility Score: inf
ROOT
ATOM      1  C   UNL     1      12.964 -22.464  21.841  1.00  0.00     0.006 C 
ENDROOT
BRANCH   1   2
ATOM      2  C   UNL     1      14.119 -21.567  21.379  1.00  0.00     0.053 C 
BRANCH   2   3
ATOM      3  C   UNL     1      15.257 -21.582  22.352  1.00  0.00     0.041 C 
ATOM      4  O   UNL     1      16.446 -21.643  21.939  1.00  0.00    -0.550 OA
ATOM      5  O   UNL     1      15.006 -21.495  23.716  1.00  0.00    -0.550 OA
ENDBRANCH   2   3
ENDBRANCH   1   2
BRANCH   1   6
ATOM      6  C   UNL     1      11.652 -21.682  22.010  1.00  0.00     0.000 C 
BRANCH   6   7
ATOM      7  C   UNL     1      11.818 -20.226  21.560  1.00  0.00    -0.000 C 
BRANCH   7   8
ATOM      8  C   UNL     1      10.468 -19.500  21.539  1.00  0.00    -0.003 C 
ATOM      9  C   UNL     1      10.528 -18.201  22.338  1.00  0.00     0.004 C 
ENDBRANCH   7   8
ENDBRANCH   6   7
ENDBRANCH   1   6
TORSDOF 5
ENDMDL
MODEL 8
REMARK VINA RESULT:    -3.074      2.826      3.314
REMARK INTER + INTRA:          -4.319
REMARK INTER:                  -3.885
REMARK INTRA:                  -0.433
REMARK UNBOUND:                -0.346
REMARK SMILES CCCCCCC(=O)[O-]
REMARK SMILES IDX 5 1 6 2 7 3 8 4 9 5 4 6 3 7 2 8 1 9
REMARK H PARENT
REMARK Flexibility Score: inf
ROOT
ATOM      1  C   UNL     1      15.032 -21.268  19.124  1.00  0.00     0.006 C 
ENDROOT
BRANCH   1   2
ATOM      2  C   UNL     1      14.594 -19.822  19.388  1.00  0.00     0.053 C 
BRANCH   2   3
ATOM      3  C   UNL     1      15.251 -19.256  20.608  1.00  0.00     0.041 C 
ATOM      4  O   UNL     1      16.064 -19.952  21.273  1.00  0.00    -0.550 OA
ATOM      5  O   UNL     1      14.991 -17.946  20.993  1.00  0.00    -0.550 OA
ENDBRANCH   2   3
ENDBRANCH   1   2
BRANCH   1   6
ATOM      6  C   UNL     1      13.933 -22.282  19.474  1.00  0.00     0.000 C 
BRANCH   6   7
ATOM      7  C   UNL     1      14.309 -23.093  20.719  1.00  0.00    -0.000 C 
BRANCH   7   8
ATOM      8  C   UNL     1      13.656 -22.507  21.976  1.00  0.00    -0.003 C 
ATOM      9  C   UNL     1      12.303 -21.879  21.652  1.00  0.00     0.004 C 
ENDBRANCH   7   8
ENDBRANCH   6   7
ENDBRANCH   1   6
TORSDOF 5
ENDMDL
MODEL 9
REMARK VINA RESULT:    -2.988      2.962      4.019
REMARK INTER + INTRA:          -4.208
REMARK INTER:                  -3.957
REMARK INTRA:                  -0.251
REMARK UNBOUND:                -0.346
REMARK SMILES CCCCCCC(=O)[O-]
REMARK SMILES IDX 5 1 6 2 7 3 8 4 9 5 4 6 3 7 2 8 1 9
REMARK H PARENT
REMARK Flexibility Score: inf
ROOT
ATOM      1  C   UNL     1      16.356 -19.995  20.846  1.00  0.00     0.006 C 
ENDROOT
BRANCH   1   2
ATOM      2  C   UNL     1      15.294 -19.686  19.783  1.00  0.00     0.053 C 
BRANCH   2   3
ATOM      3  C   UNL     1      13.989 -19.288  20.401  1.00  0.00     0.041 C 
ATOM      4  O   UNL     1      13.923 -18.276  21.149  1.00  0.00    -0.550 OA
ATOM      5  O   UNL     1      12.838 -20.016  20.125  1.00  0.00    -0.550 OA
ENDBRANCH   2   3
ENDBRANCH   1   2
BRANCH   1   6
ATOM      6  C   UNL     1      15.937 -21.148  21.770  1.00  0.00     0.000 C 
BRANCH   6   7
ATOM      7  C   UNL     1      16.983 -21.381  22.866  1.00  0.00    -0.000 C 
BRANCH   7   8
ATOM      8  C   UNL     1      16.401 -21.084  24.253  1.00  0.00    -0.003 C 
ATOM      9  C   UNL     1      14.904 -20.795  24.173  1.00  0.00     0.004 C 
ENDBRANCH   7   8
ENDBRANCH   6   7
ENDBRANCH   1   6
TORSDOF 5
ENDMDL
