MODEL 1
REMARK VINA RESULT:    -3.767      0.000      0.000
REMARK INTER + INTRA:          -4.513
REMARK INTER:                  -4.208
REMARK INTRA:                  -0.305
REMARK UNBOUND:                -0.305
REMARK SMILES CC(=O)c1ccc(O)cc1O
REMARK SMILES IDX 4 1 10 2 9 3 7 4 6 5 5 6 2 7 1 8 3 9 11 10 8 12
REMARK H PARENT 11 11 8 13
REMARK Flexibility Score: inf
ROOT
ATOM      1  C   UNL     1     -23.407 -10.442  -7.037  1.00  0.00     0.059 A 
ATOM      2  C   UNL     1     -23.396 -11.716  -6.413  1.00  0.00     0.130 A 
ATOM      3  C   UNL     1     -22.355 -12.612  -6.684  1.00  0.00     0.093 A 
ATOM      4  C   UNL     1     -21.308 -12.254  -7.537  1.00  0.00     0.119 A 
ATOM      5  C   UNL     1     -21.300 -10.989  -8.131  1.00  0.00     0.047 A 
ATOM      6  C   UNL     1     -22.341 -10.090  -7.883  1.00  0.00     0.019 A 
ENDROOT
BRANCH   1   7
ATOM      7  C   UNL     1     -24.526  -9.488  -6.853  1.00  0.00     0.163 C 
ATOM      8  C   UNL     1     -24.271  -8.028  -6.635  1.00  0.00     0.093 C 
ATOM      9  O   UNL     1     -25.717  -9.886  -6.959  1.00  0.00    -0.294 OA
ENDBRANCH   1   7
BRANCH   2  10
ATOM     10  O   UNL     1     -24.376 -12.112  -5.501  1.00  0.00    -0.507 OA
ATOM     11  H   UNL     1     -24.567 -11.619  -4.639  1.00  0.00     0.293 HD
ENDBRANCH   2  10
BRANCH   4  12
ATOM     12  O   UNL     1     -20.281 -13.161  -7.784  1.00  0.00    -0.508 OA
ATOM     13  H   UNL     1     -19.350 -12.852  -8.041  1.00  0.00     0.293 HD
ENDBRANCH   4  12
TORSDOF 3
ENDMDL
MODEL 2
REMARK VINA RESULT:    -3.702      1.313      3.919
REMARK INTER + INTRA:          -4.441
REMARK INTER:                  -4.150
REMARK INTRA:                  -0.291
REMARK UNBOUND:                -0.305
REMARK SMILES CC(=O)c1ccc(O)cc1O
REMARK SMILES IDX 4 1 10 2 9 3 7 4 6 5 5 6 2 7 1 8 3 9 11 10 8 12
REMARK H PARENT 11 11 8 13
REMARK Flexibility Score: inf
ROOT
ATOM      1  C   UNL     1     -22.406 -10.877  -7.623  1.00  0.00     0.059 A 
ATOM      2  C   UNL     1     -23.025 -11.819  -6.762  1.00  0.00     0.130 A 
ATOM      3  C   UNL     1     -24.052 -11.406  -5.904  1.00  0.00     0.093 A 
ATOM      4  C   UNL     1     -24.497 -10.081  -5.910  1.00  0.00     0.119 A 
ATOM      5  C   UNL     1     -23.911  -9.157  -6.779  1.00  0.00     0.047 A 
ATOM      6  C   UNL     1     -22.874  -9.550  -7.628  1.00  0.00     0.019 A 
ENDROOT
BRANCH   1   7
ATOM      7  C   UNL     1     -21.260 -11.240  -8.489  1.00  0.00     0.163 C 
ATOM      8  C   UNL     1     -21.262 -10.916  -9.952  1.00  0.00     0.093 C 
ATOM      9  O   UNL     1     -20.228 -11.757  -7.984  1.00  0.00    -0.294 OA
ENDBRANCH   1   7
BRANCH   2  10
ATOM     10  O   UNL     1     -22.671 -13.170  -6.752  1.00  0.00    -0.507 OA
ATOM     11  H   UNL     1     -23.347 -13.922  -6.751  1.00  0.00     0.293 HD
ENDBRANCH   2  10
BRANCH   4  12
ATOM     12  O   UNL     1     -25.525  -9.698  -5.052  1.00  0.00    -0.508 OA
ATOM     13  H   UNL     1     -26.312 -10.308  -4.862  1.00  0.00     0.293 HD
ENDBRANCH   4  12
TORSDOF 3
ENDMDL
MODEL 3
REMARK VINA RESULT:    -3.639     13.257     15.236
REMARK INTER + INTRA:          -4.370
REMARK INTER:                  -4.066
REMARK INTRA:                  -0.304
REMARK UNBOUND:                -0.305
REMARK SMILES CC(=O)c1ccc(O)cc1O
REMARK SMILES IDX 4 1 10 2 9 3 7 4 6 5 5 6 2 7 1 8 3 9 11 10 8 12
REMARK H PARENT 11 11 8 13
REMARK Flexibility Score: inf
ROOT
ATOM      1  C   UNL     1      -8.489 -13.635  -3.548  1.00  0.00     0.059 A 
ATOM      2  C   UNL     1      -8.825 -13.955  -4.888  1.00  0.00     0.130 A 
ATOM      3  C   UNL     1      -9.551 -13.040  -5.660  1.00  0.00     0.093 A 
ATOM      4  C   UNL     1      -9.921 -11.798  -5.136  1.00  0.00     0.119 A 
ATOM      5  C   UNL     1      -9.565 -11.466  -3.825  1.00  0.00     0.047 A 
ATOM      6  C   UNL     1      -8.856 -12.376  -3.037  1.00  0.00     0.019 A 
ENDROOT
BRANCH   1   7
ATOM      7  C   UNL     1      -7.798 -14.598  -2.660  1.00  0.00     0.163 C 
ATOM      8  C   UNL     1      -8.435 -15.078  -1.392  1.00  0.00     0.093 C 
ATOM      9  O   UNL     1      -6.690 -15.090  -3.006  1.00  0.00    -0.294 OA
ENDBRANCH   1   7
BRANCH   2  10
ATOM     10  O   UNL     1      -8.432 -15.151  -5.493  1.00  0.00    -0.507 OA
ATOM     11  H   UNL     1      -9.085 -15.823  -5.874  1.00  0.00     0.293 HD
ENDBRANCH   2  10
BRANCH   4  12
ATOM     12  O   UNL     1     -10.635 -10.903  -5.927  1.00  0.00    -0.508 OA
ATOM     13  H   UNL     1     -11.648 -10.872  -5.911  1.00  0.00     0.293 HD
ENDBRANCH   4  12
TORSDOF 3
ENDMDL
MODEL 4
REMARK VINA RESULT:    -3.603     13.958     15.026
REMARK INTER + INTRA:          -4.330
REMARK INTER:                  -4.022
REMARK INTRA:                  -0.307
REMARK UNBOUND:                -0.305
REMARK SMILES CC(=O)c1ccc(O)cc1O
REMARK SMILES IDX 4 1 10 2 9 3 7 4 6 5 5 6 2 7 1 8 3 9 11 10 8 12
REMARK H PARENT 11 11 8 13
REMARK Flexibility Score: inf
ROOT
ATOM      1  C   UNL     1     -24.722  -4.667   6.333  1.00  0.00     0.059 A 
ATOM      2  C   UNL     1     -25.019  -6.004   5.965  1.00  0.00     0.130 A 
ATOM      3  C   UNL     1     -24.685  -7.053   6.830  1.00  0.00     0.093 A 
ATOM      4  C   UNL     1     -24.091  -6.797   8.068  1.00  0.00     0.119 A 
ATOM      5  C   UNL     1     -23.824  -5.478   8.448  1.00  0.00     0.047 A 
ATOM      6  C   UNL     1     -24.136  -4.422   7.588  1.00  0.00     0.019 A 
ENDROOT
BRANCH   1   7
ATOM      7  C   UNL     1     -24.976  -3.527   5.422  1.00  0.00     0.163 C 
ATOM      8  C   UNL     1     -23.866  -2.616   4.993  1.00  0.00     0.093 C 
ATOM      9  O   UNL     1     -26.124  -3.357   4.930  1.00  0.00    -0.294 OA
ENDBRANCH   1   7
BRANCH   2  10
ATOM     10  O   UNL     1     -25.669  -6.325   4.771  1.00  0.00    -0.507 OA
ATOM     11  H   UNL     1     -25.292  -6.968   4.088  1.00  0.00     0.293 HD
ENDBRANCH   2  10
BRANCH   4  12
ATOM     12  O   UNL     1     -23.776  -7.858   8.913  1.00  0.00    -0.508 OA
ATOM     13  H   UNL     1     -23.370  -8.716   8.557  1.00  0.00     0.293 HD
ENDBRANCH   4  12
TORSDOF 3
ENDMDL
MODEL 5
REMARK VINA RESULT:    -3.540     17.408     18.214
REMARK INTER + INTRA:          -4.259
REMARK INTER:                  -3.951
REMARK INTRA:                  -0.307
REMARK UNBOUND:                -0.305
REMARK SMILES CC(=O)c1ccc(O)cc1O
REMARK SMILES IDX 4 1 10 2 9 3 7 4 6 5 5 6 2 7 1 8 3 9 11 10 8 12
REMARK H PARENT 11 11 8 13
REMARK Flexibility Score: inf
ROOT
ATOM      1  C   UNL     1     -11.569   0.121   1.771  1.00  0.00     0.059 A 
ATOM      2  C   UNL     1     -10.520  -0.321   0.926  1.00  0.00     0.130 A 
ATOM      3  C   UNL     1     -10.711  -0.351  -0.461  1.00  0.00     0.093 A 
ATOM      4  C   UNL     1     -11.914   0.081  -1.025  1.00  0.00     0.119 A 
ATOM      5  C   UNL     1     -12.940   0.546  -0.197  1.00  0.00     0.047 A 
ATOM      6  C   UNL     1     -12.770   0.566   1.189  1.00  0.00     0.019 A 
ENDROOT
BRANCH   1   7
ATOM      7  C   UNL     1     -11.452   0.094   3.248  1.00  0.00     0.163 C 
ATOM      8  C   UNL     1     -12.548  -0.467   4.102  1.00  0.00     0.093 C 
ATOM      9  O   UNL     1     -10.385   0.472   3.802  1.00  0.00    -0.294 OA
ENDBRANCH   1   7
BRANCH   2  10
ATOM     10  O   UNL     1      -9.272  -0.706   1.420  1.00  0.00    -0.507 OA
ATOM     11  H   UNL     1      -8.501  -0.985   0.828  1.00  0.00     0.293 HD
ENDBRANCH   2  10
BRANCH   4  12
ATOM     12  O   UNL     1     -12.076   0.048  -2.408  1.00  0.00    -0.508 OA
ATOM     13  H   UNL     1     -12.440  -0.772  -2.880  1.00  0.00     0.293 HD
ENDBRANCH   4  12
TORSDOF 3
ENDMDL
MODEL 6
REMARK VINA RESULT:    -3.523      1.781      4.186
REMARK INTER + INTRA:          -4.240
REMARK INTER:                  -3.930
REMARK INTRA:                  -0.310
REMARK UNBOUND:                -0.305
REMARK SMILES CC(=O)c1ccc(O)cc1O
REMARK SMILES IDX 4 1 10 2 9 3 7 4 6 5 5 6 2 7 1 8 3 9 11 10 8 12
REMARK H PARENT 11 11 8 13
REMARK Flexibility Score: inf
ROOT
ATOM      1  C   UNL     1     -23.659 -10.257  -6.624  1.00  0.00     0.059 A 
ATOM      2  C   UNL     1     -24.202 -10.680  -5.385  1.00  0.00     0.130 A 
ATOM      3  C   UNL     1     -24.819  -9.748  -4.542  1.00  0.00     0.093 A 
ATOM      4  C   UNL     1     -24.936  -8.409  -4.923  1.00  0.00     0.119 A 
ATOM      5  C   UNL     1     -24.430  -7.993  -6.158  1.00  0.00     0.047 A 
ATOM      6  C   UNL     1     -23.796  -8.908  -7.001  1.00  0.00     0.019 A 
ENDROOT
BRANCH   1   7
ATOM      7  C   UNL     1     -22.922 -11.182  -7.516  1.00  0.00     0.163 C 
ATOM      8  C   UNL     1     -21.561 -10.835  -8.039  1.00  0.00     0.093 C 
ATOM      9  O   UNL     1     -23.402 -12.317  -7.782  1.00  0.00    -0.294 OA
ENDBRANCH   1   7
BRANCH   2  10
ATOM     10  O   UNL     1     -24.175 -12.014  -4.972  1.00  0.00    -0.507 OA
ATOM     11  H   UNL     1     -23.725 -12.324  -4.121  1.00  0.00     0.293 HD
ENDBRANCH   2  10
BRANCH   4  12
ATOM     12  O   UNL     1     -25.562  -7.503  -4.070  1.00  0.00    -0.508 OA
ATOM     13  H   UNL     1     -25.257  -7.381  -3.111  1.00  0.00     0.293 HD
ENDBRANCH   4  12
TORSDOF 3
ENDMDL
MODEL 7
REMARK VINA RESULT:    -3.510      1.445      2.410
REMARK INTER + INTRA:          -4.226
REMARK INTER:                  -3.917
REMARK INTRA:                  -0.310
REMARK UNBOUND:                -0.305
REMARK SMILES CC(=O)c1ccc(O)cc1O
REMARK SMILES IDX 4 1 10 2 9 3 7 4 6 5 5 6 2 7 1 8 3 9 11 10 8 12
REMARK H PARENT 11 11 8 13
REMARK Flexibility Score: inf
ROOT
ATOM      1  C   UNL     1     -23.184 -11.274  -6.727  1.00  0.00     0.059 A 
ATOM      2  C   UNL     1     -22.812 -10.306  -7.694  1.00  0.00     0.130 A 
ATOM      3  C   UNL     1     -21.634 -10.478  -8.431  1.00  0.00     0.093 A 
ATOM      4  C   UNL     1     -20.835 -11.609  -8.247  1.00  0.00     0.119 A 
ATOM      5  C   UNL     1     -21.214 -12.581  -7.316  1.00  0.00     0.047 A 
ATOM      6  C   UNL     1     -22.378 -12.415  -6.562  1.00  0.00     0.019 A 
ENDROOT
BRANCH   1   7
ATOM      7  C   UNL     1     -24.374 -11.102  -5.861  1.00  0.00     0.163 C 
ATOM      8  C   UNL     1     -24.283 -11.275  -4.376  1.00  0.00     0.093 C 
ATOM      9  O   UNL     1     -25.468 -10.726  -6.362  1.00  0.00    -0.294 OA
ENDBRANCH   1   7
BRANCH   2  10
ATOM     10  O   UNL     1     -23.597  -9.186  -7.973  1.00  0.00    -0.507 OA
ATOM     11  H   UNL     1     -23.348  -8.489  -8.663  1.00  0.00     0.293 HD
ENDBRANCH   2  10
BRANCH   4  12
ATOM     12  O   UNL     1     -19.671 -11.760  -8.997  1.00  0.00    -0.508 OA
ATOM     13  H   UNL     1     -18.840 -11.215  -8.801  1.00  0.00     0.293 HD
ENDBRANCH   4  12
TORSDOF 3
ENDMDL
MODEL 8
REMARK VINA RESULT:    -3.474     16.159     17.289
REMARK INTER + INTRA:          -4.186
REMARK INTER:                  -3.914
REMARK INTRA:                  -0.272
REMARK UNBOUND:                -0.305
REMARK SMILES CC(=O)c1ccc(O)cc1O
REMARK SMILES IDX 4 1 10 2 9 3 7 4 6 5 5 6 2 7 1 8 3 9 11 10 8 12
REMARK H PARENT 11 11 8 13
REMARK Flexibility Score: inf
ROOT
ATOM      1  C   UNL     1      -8.013 -15.068  -0.609  1.00  0.00     0.059 A 
ATOM      2  C   UNL     1      -7.499 -15.378   0.675  1.00  0.00     0.130 A 
ATOM      3  C   UNL     1      -8.218 -16.229   1.524  1.00  0.00     0.093 A 
ATOM      4  C   UNL     1      -9.421 -16.803   1.107  1.00  0.00     0.119 A 
ATOM      5  C   UNL     1      -9.916 -16.525  -0.170  1.00  0.00     0.047 A 
ATOM      6  C   UNL     1      -9.219 -15.664  -1.021  1.00  0.00     0.019 A 
ENDROOT
BRANCH   1   7
ATOM      7  C   UNL     1      -7.338 -14.108  -1.514  1.00  0.00     0.163 C 
ATOM      8  C   UNL     1      -8.112 -13.329  -2.533  1.00  0.00     0.093 C 
ATOM      9  O   UNL     1      -6.106 -13.877  -1.381  1.00  0.00    -0.294 OA
ENDBRANCH   1   7
BRANCH   2  10
ATOM     10  O   UNL     1      -6.272 -14.889   1.129  1.00  0.00    -0.507 OA
ATOM     11  H   UNL     1      -5.914 -15.062   2.059  1.00  0.00     0.293 HD
ENDBRANCH   2  10
BRANCH   4  12
ATOM     12  O   UNL     1     -10.113 -17.652   1.968  1.00  0.00    -0.508 OA
ATOM     13  H   UNL     1     -10.283 -18.623   1.731  1.00  0.00     0.293 HD
ENDBRANCH   4  12
TORSDOF 3
ENDMDL
MODEL 9
REMARK VINA RESULT:    -3.450     14.401     15.712
REMARK INTER + INTRA:          -4.158
REMARK INTER:                  -3.891
REMARK INTRA:                  -0.268
REMARK UNBOUND:                -0.305
REMARK SMILES CC(=O)c1ccc(O)cc1O
REMARK SMILES IDX 4 1 10 2 9 3 7 4 6 5 5 6 2 7 1 8 3 9 11 10 8 12
REMARK H PARENT 11 11 8 13
REMARK Flexibility Score: inf
ROOT
ATOM      1  C   UNL     1     -23.872  -5.784   7.981  1.00  0.00     0.059 A 
ATOM      2  C   UNL     1     -24.261  -7.091   7.594  1.00  0.00     0.130 A 
ATOM      3  C   UNL     1     -25.021  -7.275   6.432  1.00  0.00     0.093 A 
ATOM      4  C   UNL     1     -25.375  -6.186   5.631  1.00  0.00     0.119 A 
ATOM      5  C   UNL     1     -24.968  -4.898   5.994  1.00  0.00     0.047 A 
ATOM      6  C   UNL     1     -24.224  -4.698   7.159  1.00  0.00     0.019 A 
ENDROOT
BRANCH   1   7
ATOM      7  C   UNL     1     -23.141  -5.524   9.244  1.00  0.00     0.163 C 
ATOM      8  C   UNL     1     -23.230  -4.195   9.930  1.00  0.00     0.093 C 
ATOM      9  O   UNL     1     -22.495  -6.452   9.800  1.00  0.00    -0.294 OA
ENDBRANCH   1   7
BRANCH   2  10
ATOM     10  O   UNL     1     -23.887  -8.228   8.314  1.00  0.00    -0.507 OA
ATOM     11  H   UNL     1     -24.441  -9.073   8.347  1.00  0.00     0.293 HD
ENDBRANCH   2  10
BRANCH   4  12
ATOM     12  O   UNL     1     -26.125  -6.396   4.477  1.00  0.00    -0.508 OA
ATOM     13  H   UNL     1     -25.683  -6.531   3.575  1.00  0.00     0.293 HD
ENDBRANCH   4  12
TORSDOF 3
ENDMDL
