MODEL 1
REMARK VINA RESULT:    -3.856      0.000      0.000
REMARK INTER + INTRA:          -5.237
REMARK INTER:                  -4.983
REMARK INTRA:                  -0.253
REMARK UNBOUND:                -0.253
REMARK SMILES CCCCCCC(=O)[O-]
REMARK SMILES IDX 5 1 6 2 7 3 8 4 9 5 4 6 3 7 2 8 1 9
REMARK H PARENT
REMARK Flexibility Score: inf
ROOT
ATOM      1  C   UNL     1       3.605  26.178  13.074  1.00  0.00     0.006 C 
ENDROOT
BRANCH   1   2
ATOM      2  C   UNL     1       4.121  27.365  12.254  1.00  0.00     0.053 C 
BRANCH   2   3
ATOM      3  C   UNL     1       4.564  28.472  13.157  1.00  0.00     0.041 C 
ATOM      4  O   UNL     1       4.032  28.618  14.288  1.00  0.00    -0.550 OA
ATOM      5  O   UNL     1       5.599  29.314  12.768  1.00  0.00    -0.550 OA
ENDBRANCH   2   3
ENDBRANCH   1   2
BRANCH   1   6
ATOM      6  C   UNL     1       4.739  25.201  13.403  1.00  0.00     0.000 C 
BRANCH   6   7
ATOM      7  C   UNL     1       5.200  25.360  14.856  1.00  0.00    -0.000 C 
BRANCH   7   8
ATOM      8  C   UNL     1       6.613  25.950  14.924  1.00  0.00    -0.003 C 
ATOM      9  C   UNL     1       7.041  26.192  16.368  1.00  0.00     0.004 C 
ENDBRANCH   7   8
ENDBRANCH   6   7
ENDBRANCH   1   6
TORSDOF 5
ENDMDL
MODEL 2
REMARK VINA RESULT:    -3.728      2.319      4.238
REMARK INTER + INTRA:          -5.071
REMARK INTER:                  -4.849
REMARK INTRA:                  -0.222
REMARK UNBOUND:                -0.253
REMARK SMILES CCCCCCC(=O)[O-]
REMARK SMILES IDX 5 1 6 2 7 3 8 4 9 5 4 6 3 7 2 8 1 9
REMARK H PARENT
REMARK Flexibility Score: inf
ROOT
ATOM      1  C   UNL     1       5.669  26.070  13.706  1.00  0.00     0.006 C 
ENDROOT
BRANCH   1   2
ATOM      2  C   UNL     1       5.544  25.665  15.179  1.00  0.00     0.053 C 
BRANCH   2   3
ATOM      3  C   UNL     1       6.609  26.325  15.995  1.00  0.00     0.041 C 
ATOM      4  O   UNL     1       6.321  26.864  17.096  1.00  0.00    -0.550 OA
ATOM      5  O   UNL     1       7.930  26.303  15.565  1.00  0.00    -0.550 OA
ENDBRANCH   2   3
ENDBRANCH   1   2
BRANCH   1   6
ATOM      6  C   UNL     1       5.256  27.532  13.501  1.00  0.00     0.000 C 
BRANCH   6   7
ATOM      7  C   UNL     1       4.388  27.689  12.247  1.00  0.00    -0.000 C 
BRANCH   7   8
ATOM      8  C   UNL     1       3.341  26.573  12.158  1.00  0.00    -0.003 C 
ATOM      9  C   UNL     1       2.270  26.903  11.125  1.00  0.00     0.004 C 
ENDBRANCH   7   8
ENDBRANCH   6   7
ENDBRANCH   1   6
TORSDOF 5
ENDMDL
MODEL 3
REMARK VINA RESULT:    -3.725      1.789      2.085
REMARK INTER + INTRA:          -5.067
REMARK INTER:                  -4.867
REMARK INTRA:                  -0.199
REMARK UNBOUND:                -0.253
REMARK SMILES CCCCCCC(=O)[O-]
REMARK SMILES IDX 5 1 6 2 7 3 8 4 9 5 4 6 3 7 2 8 1 9
REMARK H PARENT
REMARK Flexibility Score: inf
ROOT
ATOM      1  C   UNL     1       4.156  25.686  13.251  1.00  0.00     0.006 C 
ENDROOT
BRANCH   1   2
ATOM      2  C   UNL     1       4.378  27.061  12.612  1.00  0.00     0.053 C 
BRANCH   2   3
ATOM      3  C   UNL     1       3.173  27.474  11.828  1.00  0.00     0.041 C 
ATOM      4  O   UNL     1       2.848  28.688  11.759  1.00  0.00    -0.550 OA
ATOM      5  O   UNL     1       2.435  26.523  11.133  1.00  0.00    -0.550 OA
ENDBRANCH   2   3
ENDBRANCH   1   2
BRANCH   1   6
ATOM      6  C   UNL     1       5.015  25.520  14.510  1.00  0.00     0.000 C 
BRANCH   6   7
ATOM      7  C   UNL     1       6.471  25.912  14.240  1.00  0.00    -0.000 C 
BRANCH   7   8
ATOM      8  C   UNL     1       7.212  26.215  15.547  1.00  0.00    -0.003 C 
ATOM      9  C   UNL     1       6.248  26.278  16.726  1.00  0.00     0.004 C 
ENDBRANCH   7   8
ENDBRANCH   6   7
ENDBRANCH   1   6
TORSDOF 5
ENDMDL
MODEL 4
REMARK VINA RESULT:    -3.703      1.234      1.512
REMARK INTER + INTRA:          -5.039
REMARK INTER:                  -4.788
REMARK INTRA:                  -0.251
REMARK UNBOUND:                -0.253
REMARK SMILES CCCCCCC(=O)[O-]
REMARK SMILES IDX 5 1 6 2 7 3 8 4 9 5 4 6 3 7 2 8 1 9
REMARK H PARENT
REMARK Flexibility Score: inf
ROOT
ATOM      1  C   UNL     1       3.919  26.293  14.251  1.00  0.00     0.006 C 
ENDROOT
BRANCH   1   2
ATOM      2  C   UNL     1       4.157  26.330  12.738  1.00  0.00     0.053 C 
BRANCH   2   3
ATOM      3  C   UNL     1       4.017  27.726  12.221  1.00  0.00     0.041 C 
ATOM      4  O   UNL     1       3.042  28.035  11.486  1.00  0.00    -0.550 OA
ATOM      5  O   UNL     1       4.937  28.701  12.588  1.00  0.00    -0.550 OA
ENDBRANCH   2   3
ENDBRANCH   1   2
BRANCH   1   6
ATOM      6  C   UNL     1       5.032  25.517  14.965  1.00  0.00     0.000 C 
BRANCH   6   7
ATOM      7  C   UNL     1       6.409  25.887  14.403  1.00  0.00    -0.000 C 
BRANCH   7   8
ATOM      8  C   UNL     1       7.380  26.262  15.527  1.00  0.00    -0.003 C 
ATOM      9  C   UNL     1       6.786  25.951  16.897  1.00  0.00     0.004 C 
ENDBRANCH   7   8
ENDBRANCH   6   7
ENDBRANCH   1   6
TORSDOF 5
ENDMDL
MODEL 5
REMARK VINA RESULT:    -3.701      2.116      3.767
REMARK INTER + INTRA:          -5.036
REMARK INTER:                  -4.735
REMARK INTRA:                  -0.301
REMARK UNBOUND:                -0.253
REMARK SMILES CCCCCCC(=O)[O-]
REMARK SMILES IDX 5 1 6 2 7 3 8 4 9 5 4 6 3 7 2 8 1 9
REMARK H PARENT
REMARK Flexibility Score: inf
ROOT
ATOM      1  C   UNL     1       4.717  25.133  13.899  1.00  0.00     0.006 C 
ENDROOT
BRANCH   1   2
ATOM      2  C   UNL     1       6.041  25.848  14.186  1.00  0.00     0.053 C 
BRANCH   2   3
ATOM      3  C   UNL     1       6.250  25.993  15.660  1.00  0.00     0.041 C 
ATOM      4  O   UNL     1       7.406  25.897  16.149  1.00  0.00    -0.550 OA
ATOM      5  O   UNL     1       5.173  26.282  16.490  1.00  0.00    -0.550 OA
ENDBRANCH   2   3
ENDBRANCH   1   2
BRANCH   1   6
ATOM      6  C   UNL     1       3.870  25.924  12.896  1.00  0.00     0.000 C 
BRANCH   6   7
ATOM      7  C   UNL     1       3.654  27.365  13.372  1.00  0.00    -0.000 C 
BRANCH   7   8
ATOM      8  C   UNL     1       4.088  28.370  12.299  1.00  0.00    -0.003 C 
ATOM      9  C   UNL     1       5.295  29.181  12.759  1.00  0.00     0.004 C 
ENDBRANCH   7   8
ENDBRANCH   6   7
ENDBRANCH   1   6
TORSDOF 5
ENDMDL
MODEL 6
REMARK VINA RESULT:    -3.689      2.136      4.195
REMARK INTER + INTRA:          -5.020
REMARK INTER:                  -4.779
REMARK INTRA:                  -0.241
REMARK UNBOUND:                -0.253
REMARK SMILES CCCCCCC(=O)[O-]
REMARK SMILES IDX 5 1 6 2 7 3 8 4 9 5 4 6 3 7 2 8 1 9
REMARK H PARENT
REMARK Flexibility Score: inf
ROOT
ATOM      1  C   UNL     1       4.846  25.128  13.712  1.00  0.00     0.006 C 
ENDROOT
BRANCH   1   2
ATOM      2  C   UNL     1       6.054  25.989  14.097  1.00  0.00     0.053 C 
BRANCH   2   3
ATOM      3  C   UNL     1       6.217  26.029  15.583  1.00  0.00     0.041 C 
ATOM      4  O   UNL     1       7.358  25.903  16.098  1.00  0.00    -0.550 OA
ATOM      5  O   UNL     1       5.114  26.253  16.399  1.00  0.00    -0.550 OA
ENDBRANCH   2   3
ENDBRANCH   1   2
BRANCH   1   6
ATOM      6  C   UNL     1       3.843  25.929  12.875  1.00  0.00     0.000 C 
BRANCH   6   7
ATOM      7  C   UNL     1       4.353  27.351  12.614  1.00  0.00    -0.000 C 
BRANCH   7   8
ATOM      8  C   UNL     1       3.297  28.192  11.889  1.00  0.00    -0.003 C 
ATOM      9  C   UNL     1       2.250  27.307  11.222  1.00  0.00     0.004 C 
ENDBRANCH   7   8
ENDBRANCH   6   7
ENDBRANCH   1   6
TORSDOF 5
ENDMDL
MODEL 7
REMARK VINA RESULT:    -3.463      1.808      2.679
REMARK INTER + INTRA:          -4.729
REMARK INTER:                  -4.283
REMARK INTRA:                  -0.447
REMARK UNBOUND:                -0.253
REMARK SMILES CCCCCCC(=O)[O-]
REMARK SMILES IDX 5 1 6 2 7 3 8 4 9 5 4 6 3 7 2 8 1 9
REMARK H PARENT
REMARK Flexibility Score: inf
ROOT
ATOM      1  C   UNL     1       5.283  27.695  13.551  1.00  0.00     0.006 C 
ENDROOT
BRANCH   1   2
ATOM      2  C   UNL     1       4.496  27.850  12.246  1.00  0.00     0.053 C 
BRANCH   2   3
ATOM      3  C   UNL     1       3.136  27.242  12.380  1.00  0.00     0.041 C 
ATOM      4  O   UNL     1       2.712  26.440  11.507  1.00  0.00    -0.550 OA
ATOM      5  O   UNL     1       2.354  27.525  13.494  1.00  0.00    -0.550 OA
ENDBRANCH   2   3
ENDBRANCH   1   2
BRANCH   1   6
ATOM      6  C   UNL     1       5.771  26.253  13.732  1.00  0.00     0.000 C 
BRANCH   6   7
ATOM      7  C   UNL     1       5.701  25.828  15.203  1.00  0.00    -0.000 C 
BRANCH   7   8
ATOM      8  C   UNL     1       4.272  25.443  15.599  1.00  0.00    -0.003 C 
ATOM      9  C   UNL     1       3.730  24.337  14.699  1.00  0.00     0.004 C 
ENDBRANCH   7   8
ENDBRANCH   6   7
ENDBRANCH   1   6
TORSDOF 5
ENDMDL
MODEL 8
REMARK VINA RESULT:    -3.360      2.147      2.788
REMARK INTER + INTRA:          -4.596
REMARK INTER:                  -4.264
REMARK INTRA:                  -0.333
REMARK UNBOUND:                -0.253
REMARK SMILES CCCCCCC(=O)[O-]
REMARK SMILES IDX 5 1 6 2 7 3 8 4 9 5 4 6 3 7 2 8 1 9
REMARK H PARENT
REMARK Flexibility Score: inf
ROOT
ATOM      1  C   UNL     1       4.438  26.390  13.081  1.00  0.00     0.006 C 
ENDROOT
BRANCH   1   2
ATOM      2  C   UNL     1       3.733  25.286  13.877  1.00  0.00     0.053 C 
BRANCH   2   3
ATOM      3  C   UNL     1       2.906  25.879  14.973  1.00  0.00     0.041 C 
ATOM      4  O   UNL     1       2.026  26.739  14.708  1.00  0.00    -0.550 OA
ATOM      5  O   UNL     1       3.073  25.446  16.283  1.00  0.00    -0.550 OA
ENDBRANCH   2   3
ENDBRANCH   1   2
BRANCH   1   6
ATOM      6  C   UNL     1       5.629  26.957  13.862  1.00  0.00     0.000 C 
BRANCH   6   7
ATOM      7  C   UNL     1       6.497  25.833  14.437  1.00  0.00    -0.000 C 
BRANCH   7   8
ATOM      8  C   UNL     1       7.325  26.330  15.628  1.00  0.00    -0.003 C 
ATOM      9  C   UNL     1       6.518  26.280  16.920  1.00  0.00     0.004 C 
ENDBRANCH   7   8
ENDBRANCH   6   7
ENDBRANCH   1   6
TORSDOF 5
ENDMDL
MODEL 9
REMARK VINA RESULT:    -3.290      2.363      4.390
REMARK INTER + INTRA:          -4.506
REMARK INTER:                  -4.264
REMARK INTRA:                  -0.242
REMARK UNBOUND:                -0.253
REMARK SMILES CCCCCCC(=O)[O-]
REMARK SMILES IDX 5 1 6 2 7 3 8 4 9 5 4 6 3 7 2 8 1 9
REMARK H PARENT
REMARK Flexibility Score: inf
ROOT
ATOM      1  C   UNL     1       5.889  26.914  14.170  1.00  0.00     0.006 C 
ENDROOT
BRANCH   1   2
ATOM      2  C   UNL     1       5.196  25.609  13.767  1.00  0.00     0.053 C 
BRANCH   2   3
ATOM      3  C   UNL     1       4.360  25.091  14.893  1.00  0.00     0.041 C 
ATOM      4  O   UNL     1       3.788  23.973  14.796  1.00  0.00    -0.550 OA
ATOM      5  O   UNL     1       4.250  25.820  16.071  1.00  0.00    -0.550 OA
ENDBRANCH   2   3
ENDBRANCH   1   2
BRANCH   1   6
ATOM      6  C   UNL     1       5.232  28.120  13.489  1.00  0.00     0.000 C 
BRANCH   6   7
ATOM      7  C   UNL     1       4.485  27.696  12.219  1.00  0.00    -0.000 C 
BRANCH   7   8
ATOM      8  C   UNL     1       3.078  28.304  12.178  1.00  0.00    -0.003 C 
ATOM      9  C   UNL     1       2.148  27.483  11.291  1.00  0.00     0.004 C 
ENDBRANCH   7   8
ENDBRANCH   6   7
ENDBRANCH   1   6
TORSDOF 5
ENDMDL
