MODEL 1
REMARK VINA RESULT:    -3.216      0.000      0.000
REMARK INTER + INTRA:          -4.057
REMARK INTER:                  -3.968
REMARK INTRA:                  -0.088
REMARK UNBOUND:                -0.088
REMARK SMILES CCCCCC(=O)[O-]
REMARK SMILES IDX 4 1 5 2 6 3 7 4 8 5 3 6 2 7 1 8
REMARK H PARENT
REMARK Flexibility Score: inf
ROOT
ATOM      1  C   UNL     1     -22.292   7.434  22.149  1.00  0.00     0.006 C 
ENDROOT
BRANCH   1   2
ATOM      2  C   UNL     1     -21.908   7.841  20.724  1.00  0.00     0.053 C 
BRANCH   2   3
ATOM      3  C   UNL     1     -21.079   6.776  20.079  1.00  0.00     0.041 C 
ATOM      4  O   UNL     1     -20.078   6.304  20.679  1.00  0.00    -0.550 OA
ATOM      5  O   UNL     1     -21.382   6.339  18.797  1.00  0.00    -0.550 OA
ENDBRANCH   2   3
ENDBRANCH   1   2
BRANCH   1   6
ATOM      6  C   UNL     1     -23.670   6.764  22.179  1.00  0.00     0.000 C 
BRANCH   6   7
ATOM      7  C   UNL     1     -23.698   5.607  23.184  1.00  0.00    -0.003 C 
ATOM      8  C   UNL     1     -25.055   5.509  23.874  1.00  0.00     0.004 C 
ENDBRANCH   6   7
ENDBRANCH   1   6
TORSDOF 4
ENDMDL
MODEL 2
REMARK VINA RESULT:    -3.171      1.067      1.618
REMARK INTER + INTRA:          -4.001
REMARK INTER:                  -3.944
REMARK INTRA:                  -0.056
REMARK UNBOUND:                -0.088
REMARK SMILES CCCCCC(=O)[O-]
REMARK SMILES IDX 4 1 5 2 6 3 7 4 8 5 3 6 2 7 1 8
REMARK H PARENT
REMARK Flexibility Score: inf
ROOT
ATOM      1  C   UNL     1     -23.558   6.631  22.336  1.00  0.00     0.006 C 
ENDROOT
BRANCH   1   2
ATOM      2  C   UNL     1     -22.140   7.207  22.394  1.00  0.00     0.053 C 
BRANCH   2   3
ATOM      3  C   UNL     1     -21.560   7.311  21.019  1.00  0.00     0.041 C 
ATOM      4  O   UNL     1     -20.499   6.697  20.731  1.00  0.00    -0.550 OA
ATOM      5  O   UNL     1     -22.163   8.125  20.069  1.00  0.00    -0.550 OA
ENDBRANCH   2   3
ENDBRANCH   1   2
BRANCH   1   6
ATOM      6  C   UNL     1     -23.728   5.485  23.340  1.00  0.00     0.000 C 
BRANCH   6   7
ATOM      7  C   UNL     1     -25.125   5.509  23.971  1.00  0.00    -0.003 C 
ATOM      8  C   UNL     1     -25.085   5.026  25.417  1.00  0.00     0.004 C 
ENDBRANCH   6   7
ENDBRANCH   1   6
TORSDOF 4
ENDMDL
MODEL 3
REMARK VINA RESULT:    -3.070      2.370      4.078
REMARK INTER + INTRA:          -3.876
REMARK INTER:                  -3.658
REMARK INTRA:                  -0.217
REMARK UNBOUND:                -0.088
REMARK SMILES CCCCCC(=O)[O-]
REMARK SMILES IDX 4 1 5 2 6 3 7 4 8 5 3 6 2 7 1 8
REMARK H PARENT
REMARK Flexibility Score: inf
ROOT
ATOM      1  C   UNL     1     -22.183   7.506  21.973  1.00  0.00     0.006 C 
ENDROOT
BRANCH   1   2
ATOM      2  C   UNL     1     -23.596   6.998  22.274  1.00  0.00     0.053 C 
BRANCH   2   3
ATOM      3  C   UNL     1     -23.540   5.654  22.928  1.00  0.00     0.041 C 
ATOM      4  O   UNL     1     -22.679   4.809  22.567  1.00  0.00    -0.550 OA
ATOM      5  O   UNL     1     -24.470   5.315  23.902  1.00  0.00    -0.550 OA
ENDBRANCH   2   3
ENDBRANCH   1   2
BRANCH   1   6
ATOM      6  C   UNL     1     -22.067   7.978  20.519  1.00  0.00     0.000 C 
BRANCH   6   7
ATOM      7  C   UNL     1     -21.361   6.927  19.654  1.00  0.00    -0.003 C 
ATOM      8  C   UNL     1     -20.220   6.261  20.416  1.00  0.00     0.004 C 
ENDBRANCH   6   7
ENDBRANCH   1   6
TORSDOF 4
ENDMDL
MODEL 4
REMARK VINA RESULT:    -3.069      1.899      3.071
REMARK INTER + INTRA:          -3.874
REMARK INTER:                  -3.801
REMARK INTRA:                  -0.073
REMARK UNBOUND:                -0.088
REMARK SMILES CCCCCC(=O)[O-]
REMARK SMILES IDX 4 1 5 2 6 3 7 4 8 5 3 6 2 7 1 8
REMARK H PARENT
REMARK Flexibility Score: inf
ROOT
ATOM      1  C   UNL     1     -23.783   5.590  23.587  1.00  0.00     0.006 C 
ENDROOT
BRANCH   1   2
ATOM      2  C   UNL     1     -23.989   6.684  22.535  1.00  0.00     0.053 C 
BRANCH   2   3
ATOM      3  C   UNL     1     -22.675   7.259  22.113  1.00  0.00     0.041 C 
ATOM      4  O   UNL     1     -22.551   7.788  20.977  1.00  0.00    -0.550 OA
ATOM      5  O   UNL     1     -21.574   7.169  22.954  1.00  0.00    -0.550 OA
ENDBRANCH   2   3
ENDBRANCH   1   2
BRANCH   1   6
ATOM      6  C   UNL     1     -25.125   5.112  24.154  1.00  0.00     0.000 C 
BRANCH   6   7
ATOM      7  C   UNL     1     -25.107   5.115  25.687  1.00  0.00    -0.003 C 
ATOM      8  C   UNL     1     -23.907   4.341  26.226  1.00  0.00     0.004 C 
ENDBRANCH   6   7
ENDBRANCH   1   6
TORSDOF 4
ENDMDL
MODEL 5
REMARK VINA RESULT:    -3.006      3.515      5.145
REMARK INTER + INTRA:          -3.798
REMARK INTER:                  -3.754
REMARK INTRA:                  -0.044
REMARK UNBOUND:                -0.088
REMARK SMILES CCCCCC(=O)[O-]
REMARK SMILES IDX 4 1 5 2 6 3 7 4 8 5 3 6 2 7 1 8
REMARK H PARENT
REMARK Flexibility Score: inf
ROOT
ATOM      1  C   UNL     1     -23.429   5.912  23.052  1.00  0.00     0.006 C 
ENDROOT
BRANCH   1   2
ATOM      2  C   UNL     1     -24.819   5.671  23.647  1.00  0.00     0.053 C 
BRANCH   2   3
ATOM      3  C   UNL     1     -24.782   4.541  24.626  1.00  0.00     0.041 C 
ATOM      4  O   UNL     1     -24.509   3.375  24.237  1.00  0.00    -0.550 OA
ATOM      5  O   UNL     1     -25.097   4.765  25.959  1.00  0.00    -0.550 OA
ENDBRANCH   2   3
ENDBRANCH   1   2
BRANCH   1   6
ATOM      6  C   UNL     1     -23.421   7.156  22.156  1.00  0.00     0.000 C 
BRANCH   6   7
ATOM      7  C   UNL     1     -21.989   7.565  21.795  1.00  0.00    -0.003 C 
ATOM      8  C   UNL     1     -21.916   8.125  20.378  1.00  0.00     0.004 C 
ENDBRANCH   6   7
ENDBRANCH   1   6
TORSDOF 4
ENDMDL
MODEL 6
REMARK VINA RESULT:    -3.006     25.218     25.941
REMARK INTER + INTRA:          -3.797
REMARK INTER:                  -3.671
REMARK INTRA:                  -0.126
REMARK UNBOUND:                -0.088
REMARK SMILES CCCCCC(=O)[O-]
REMARK SMILES IDX 4 1 5 2 6 3 7 4 8 5 3 6 2 7 1 8
REMARK H PARENT
REMARK Flexibility Score: inf
ROOT
ATOM      1  C   UNL     1      -6.914  -8.674  33.573  1.00  0.00     0.006 C 
ENDROOT
BRANCH   1   2
ATOM      2  C   UNL     1      -7.107  -9.852  32.613  1.00  0.00     0.053 C 
BRANCH   2   3
ATOM      3  C   UNL     1      -5.839 -10.140  31.874  1.00  0.00     0.041 C 
ATOM      4  O   UNL     1      -5.272  -9.230  31.212  1.00  0.00    -0.550 OA
ATOM      5  O   UNL     1      -5.309 -11.423  31.876  1.00  0.00    -0.550 OA
ENDBRANCH   2   3
ENDBRANCH   1   2
BRANCH   1   6
ATOM      6  C   UNL     1      -6.350  -9.147  34.917  1.00  0.00     0.000 C 
BRANCH   6   7
ATOM      7  C   UNL     1      -5.117  -8.328  35.314  1.00  0.00    -0.003 C 
ATOM      8  C   UNL     1      -5.444  -7.345  36.434  1.00  0.00     0.004 C 
ENDBRANCH   6   7
ENDBRANCH   1   6
TORSDOF 4
ENDMDL
MODEL 7
REMARK VINA RESULT:    -2.921     25.319     25.972
REMARK INTER + INTRA:          -3.692
REMARK INTER:                  -3.533
REMARK INTRA:                  -0.159
REMARK UNBOUND:                -0.088
REMARK SMILES CCCCCC(=O)[O-]
REMARK SMILES IDX 4 1 5 2 6 3 7 4 8 5 3 6 2 7 1 8
REMARK H PARENT
REMARK Flexibility Score: inf
ROOT
ATOM      1  C   UNL     1      -4.875  -8.547  34.052  1.00  0.00     0.006 C 
ENDROOT
BRANCH   1   2
ATOM      2  C   UNL     1      -5.584  -8.593  32.695  1.00  0.00     0.053 C 
BRANCH   2   3
ATOM      3  C   UNL     1      -6.000  -9.992  32.369  1.00  0.00     0.041 C 
ATOM      4  O   UNL     1      -5.141 -10.910  32.308  1.00  0.00    -0.550 OA
ATOM      5  O   UNL     1      -7.329 -10.274  32.083  1.00  0.00    -0.550 OA
ENDBRANCH   2   3
ENDBRANCH   1   2
BRANCH   1   6
ATOM      6  C   UNL     1      -5.876  -8.703  35.202  1.00  0.00     0.000 C 
BRANCH   6   7
ATOM      7  C   UNL     1      -5.660  -7.624  36.270  1.00  0.00    -0.003 C 
ATOM      8  C   UNL     1      -5.603  -6.233  35.645  1.00  0.00     0.004 C 
ENDBRANCH   6   7
ENDBRANCH   1   6
TORSDOF 4
ENDMDL
MODEL 8
REMARK VINA RESULT:    -2.854     24.531     25.304
REMARK INTER + INTRA:          -3.610
REMARK INTER:                  -3.362
REMARK INTRA:                  -0.247
REMARK UNBOUND:                -0.088
REMARK SMILES CCCCCC(=O)[O-]
REMARK SMILES IDX 4 1 5 2 6 3 7 4 8 5 3 6 2 7 1 8
REMARK H PARENT
REMARK Flexibility Score: inf
ROOT
ATOM      1  C   UNL     1      -5.211  -8.277  35.333  1.00  0.00     0.006 C 
ENDROOT
BRANCH   1   2
ATOM      2  C   UNL     1      -5.573  -6.986  36.074  1.00  0.00     0.053 C 
BRANCH   2   3
ATOM      3  C   UNL     1      -5.762  -5.862  35.106  1.00  0.00     0.041 C 
ATOM      4  O   UNL     1      -6.750  -5.089  35.218  1.00  0.00    -0.550 OA
ATOM      5  O   UNL     1      -4.875  -5.696  34.050  1.00  0.00    -0.550 OA
ENDBRANCH   2   3
ENDBRANCH   1   2
BRANCH   1   6
ATOM      6  C   UNL     1      -6.465  -9.101  35.020  1.00  0.00     0.000 C 
BRANCH   6   7
ATOM      7  C   UNL     1      -6.695  -9.200  33.507  1.00  0.00    -0.003 C 
ATOM      8  C   UNL     1      -7.797  -8.248  33.053  1.00  0.00     0.004 C 
ENDBRANCH   6   7
ENDBRANCH   1   6
TORSDOF 4
ENDMDL
MODEL 9
REMARK VINA RESULT:    -2.773      1.579      2.306
REMARK INTER + INTRA:          -3.510
REMARK INTER:                  -3.307
REMARK INTRA:                  -0.203
REMARK UNBOUND:                -0.088
REMARK SMILES CCCCCC(=O)[O-]
REMARK SMILES IDX 4 1 5 2 6 3 7 4 8 5 3 6 2 7 1 8
REMARK H PARENT
REMARK Flexibility Score: inf
ROOT
ATOM      1  C   UNL     1     -20.962   4.657  22.034  1.00  0.00     0.006 C 
ENDROOT
BRANCH   1   2
ATOM      2  C   UNL     1     -20.366   4.802  20.631  1.00  0.00     0.053 C 
BRANCH   2   3
ATOM      3  C   UNL     1     -20.941   5.995  19.937  1.00  0.00     0.041 C 
ATOM      4  O   UNL     1     -21.390   5.890  18.765  1.00  0.00    -0.550 OA
ATOM      5  O   UNL     1     -20.938   7.233  20.565  1.00  0.00    -0.550 OA
ENDBRANCH   2   3
ENDBRANCH   1   2
BRANCH   1   6
ATOM      6  C   UNL     1     -22.492   4.603  21.979  1.00  0.00     0.000 C 
BRANCH   6   7
ATOM      7  C   UNL     1     -23.114   5.467  23.083  1.00  0.00    -0.003 C 
ATOM      8  C   UNL     1     -23.872   6.653  22.495  1.00  0.00     0.004 C 
ENDBRANCH   6   7
ENDBRANCH   1   6
TORSDOF 4
ENDMDL
