MODEL 1
REMARK VINA RESULT:    -6.501      0.000      0.000
REMARK INTER + INTRA:          -7.775
REMARK INTER:                  -7.642
REMARK INTRA:                  -0.133
REMARK UNBOUND:                -0.133
REMARK SMILES O=c1c(O)c(-c2ccc(O)c(O)c2)oc2cc(O)ccc12
REMARK SMILES IDX 5 1 3 2 2 3 1 4 21 5 15 6 14 7 16 8 17 9 19 10 20 11 6 12
REMARK SMILES IDX 7 13 8 14 9 15 13 16 11 17 10 18 12 20 4 22 18 24
REMARK H PARENT 10 19 12 21 4 23 18 25
REMARK Flexibility Score: inf
ROOT
ATOM      1  C   UNL     1      18.019  20.752  20.679  1.00  0.00     0.180 A 
ATOM      2  C   UNL     1      18.076  19.526  19.984  1.00  0.00     0.208 A 
ATOM      3  C   UNL     1      18.065  19.542  18.581  1.00  0.00     0.235 A 
ATOM      4  O   UNL     1      18.126  18.459  17.937  1.00  0.00    -0.285 OA
ATOM      5  C   UNL     1      17.978  20.770  17.905  1.00  0.00     0.069 A 
ATOM      6  C   UNL     1      17.901  21.952  18.673  1.00  0.00     0.142 A 
ATOM      7  O   UNL     1      17.922  21.894  20.000  1.00  0.00    -0.452 OA
ATOM      8  C   UNL     1      17.802  23.194  18.037  1.00  0.00     0.094 A 
ATOM      9  C   UNL     1      17.782  23.272  16.638  1.00  0.00     0.119 A 
ATOM     10  C   UNL     1      17.861  22.101  15.875  1.00  0.00     0.047 A 
ATOM     11  C   UNL     1      17.958  20.855  16.501  1.00  0.00     0.020 A 
ENDROOT
BRANCH   1  12
ATOM     12  C   UNL     1      18.044  20.820  22.157  1.00  0.00     0.025 A 
ATOM     13  C   UNL     1      19.128  20.310  22.895  1.00  0.00     0.016 A 
ATOM     14  C   UNL     1      19.141  20.407  24.289  1.00  0.00     0.051 A 
ATOM     15  C   UNL     1      18.081  21.025  24.964  1.00  0.00     0.157 A 
ATOM     16  C   UNL     1      16.994  21.457  22.838  1.00  0.00     0.062 A 
ATOM     17  C   UNL     1      17.007  21.554  24.237  1.00  0.00     0.158 A 
BRANCH  15  18
ATOM     18  O   UNL     1      18.089  21.122  26.354  1.00  0.00    -0.504 OA
ATOM     19  H   UNL     1      17.495  20.538  26.930  1.00  0.00     0.293 HD
ENDBRANCH  15  18
BRANCH  17  20
ATOM     20  O   UNL     1      15.957  22.175  24.911  1.00  0.00    -0.504 OA
ATOM     21  H   UNL     1      16.060  23.098  25.316  1.00  0.00     0.293 HD
ENDBRANCH  17  20
ENDBRANCH   1  12
BRANCH   2  22
ATOM     22  O   UNL     1      18.113  18.317  20.683  1.00  0.00    -0.502 OA
ATOM     23  H   UNL     1      17.272  17.827  20.962  1.00  0.00     0.293 HD
ENDBRANCH   2  22
BRANCH   9  24
ATOM     24  O   UNL     1      17.685  24.504  15.997  1.00  0.00    -0.508 OA
ATOM     25  H   UNL     1      17.666  25.373  16.518  1.00  0.00     0.293 HD
ENDBRANCH   9  24
TORSDOF 5
ENDMDL
MODEL 2
REMARK VINA RESULT:    -6.383      0.676      1.487
REMARK INTER + INTRA:          -7.636
REMARK INTER:                  -7.779
REMARK INTRA:                   0.143
REMARK UNBOUND:                -0.133
REMARK SMILES O=c1c(O)c(-c2ccc(O)c(O)c2)oc2cc(O)ccc12
REMARK SMILES IDX 5 1 3 2 2 3 1 4 21 5 15 6 14 7 16 8 17 9 19 10 20 11 6 12
REMARK SMILES IDX 7 13 8 14 9 15 13 16 11 17 10 18 12 20 4 22 18 24
REMARK H PARENT 10 19 12 21 4 23 18 25
REMARK Flexibility Score: inf
ROOT
ATOM      1  C   UNL     1      17.864  21.085  20.669  1.00  0.00     0.180 A 
ATOM      2  C   UNL     1      18.095  19.884  19.966  1.00  0.00     0.208 A 
ATOM      3  C   UNL     1      18.139  19.918  18.564  1.00  0.00     0.235 A 
ATOM      4  O   UNL     1      18.354  18.859  17.914  1.00  0.00    -0.285 OA
ATOM      5  C   UNL     1      17.933  21.136  17.896  1.00  0.00     0.069 A 
ATOM      6  C   UNL     1      17.685  22.290  18.671  1.00  0.00     0.142 A 
ATOM      7  O   UNL     1      17.660  22.217  19.997  1.00  0.00    -0.452 OA
ATOM      8  C   UNL     1      17.465  23.520  18.043  1.00  0.00     0.094 A 
ATOM      9  C   UNL     1      17.492  23.615  16.645  1.00  0.00     0.119 A 
ATOM     10  C   UNL     1      17.740  22.472  15.875  1.00  0.00     0.047 A 
ATOM     11  C   UNL     1      17.960  21.238  16.493  1.00  0.00     0.020 A 
ENDROOT
BRANCH   1  12
ATOM     12  C   UNL     1      17.822  21.136  22.148  1.00  0.00     0.025 A 
ATOM     13  C   UNL     1      16.826  21.861  22.827  1.00  0.00     0.016 A 
ATOM     14  C   UNL     1      16.791  21.875  24.224  1.00  0.00     0.051 A 
ATOM     15  C   UNL     1      17.741  21.156  24.961  1.00  0.00     0.157 A 
ATOM     16  C   UNL     1      18.758  20.400  22.892  1.00  0.00     0.062 A 
ATOM     17  C   UNL     1      18.724  20.415  24.294  1.00  0.00     0.158 A 
BRANCH  15  18
ATOM     18  O   UNL     1      17.710  21.168  26.355  1.00  0.00    -0.504 OA
ATOM     19  H   UNL     1      17.813  20.318  26.894  1.00  0.00     0.293 HD
ENDBRANCH  15  18
BRANCH  17  20
ATOM     20  O   UNL     1      19.663  19.694  25.030  1.00  0.00    -0.504 OA
ATOM     21  H   UNL     1      19.677  19.723  26.043  1.00  0.00     0.293 HD
ENDBRANCH  17  20
ENDBRANCH   1  12
BRANCH   2  22
ATOM     22  O   UNL     1      18.247  18.679  20.656  1.00  0.00    -0.502 OA
ATOM     23  H   UNL     1      18.205  18.623  21.666  1.00  0.00     0.293 HD
ENDBRANCH   2  22
BRANCH   9  24
ATOM     24  O   UNL     1      17.275  24.835  16.011  1.00  0.00    -0.508 OA
ATOM     25  H   UNL     1      17.627  25.703  16.398  1.00  0.00     0.293 HD
ENDBRANCH   9  24
TORSDOF 5
ENDMDL
MODEL 3
REMARK VINA RESULT:    -6.327     18.472     19.521
REMARK INTER + INTRA:          -7.570
REMARK INTER:                  -7.286
REMARK INTRA:                  -0.283
REMARK UNBOUND:                -0.133
REMARK SMILES O=c1c(O)c(-c2ccc(O)c(O)c2)oc2cc(O)ccc12
REMARK SMILES IDX 5 1 3 2 2 3 1 4 21 5 15 6 14 7 16 8 17 9 19 10 20 11 6 12
REMARK SMILES IDX 7 13 8 14 9 15 13 16 11 17 10 18 12 20 4 22 18 24
REMARK H PARENT 10 19 12 21 4 23 18 25
REMARK Flexibility Score: inf
ROOT
ATOM      1  C   UNL     1      31.930  34.954  20.992  1.00  0.00     0.180 A 
ATOM      2  C   UNL     1      33.134  34.571  20.364  1.00  0.00     0.208 A 
ATOM      3  C   UNL     1      33.204  34.597  18.962  1.00  0.00     0.235 A 
ATOM      4  O   UNL     1      34.272  34.269  18.378  1.00  0.00    -0.285 OA
ATOM      5  C   UNL     1      32.075  34.982  18.221  1.00  0.00     0.069 A 
ATOM      6  C   UNL     1      30.900  35.329  18.924  1.00  0.00     0.142 A 
ATOM      7  O   UNL     1      30.878  35.299  20.251  1.00  0.00    -0.452 OA
ATOM      8  C   UNL     1      29.752  35.708  18.221  1.00  0.00     0.094 A 
ATOM      9  C   UNL     1      29.761  35.748  16.821  1.00  0.00     0.119 A 
ATOM     10  C   UNL     1      30.925  35.406  16.123  1.00  0.00     0.047 A 
ATOM     11  C   UNL     1      32.078  35.025  16.815  1.00  0.00     0.020 A 
ENDROOT
BRANCH   1  12
ATOM     12  C   UNL     1      31.782  34.971  22.465  1.00  0.00     0.025 A 
ATOM     13  C   UNL     1      32.330  36.007  23.243  1.00  0.00     0.016 A 
ATOM     14  C   UNL     1      32.157  36.015  24.629  1.00  0.00     0.051 A 
ATOM     15  C   UNL     1      31.425  34.998  25.256  1.00  0.00     0.157 A 
ATOM     16  C   UNL     1      31.032  33.966  23.095  1.00  0.00     0.062 A 
ATOM     17  C   UNL     1      30.859  33.973  24.487  1.00  0.00     0.158 A 
BRANCH  15  18
ATOM     18  O   UNL     1      31.252  35.001  26.639  1.00  0.00    -0.504 OA
ATOM     19  H   UNL     1      30.681  35.699  27.099  1.00  0.00     0.293 HD
ENDBRANCH  15  18
BRANCH  17  20
ATOM     20  O   UNL     1      30.125  32.966  25.112  1.00  0.00    -0.504 OA
ATOM     21  H   UNL     1      29.936  32.989  26.108  1.00  0.00     0.293 HD
ENDBRANCH  17  20
ENDBRANCH   1  12
BRANCH   2  22
ATOM     22  O   UNL     1      34.225  34.145  21.125  1.00  0.00    -0.502 OA
ATOM     23  H   UNL     1      34.158  33.980  22.122  1.00  0.00     0.293 HD
ENDBRANCH   2  22
BRANCH   9  24
ATOM     24  O   UNL     1      28.622  36.124  16.113  1.00  0.00    -0.508 OA
ATOM     25  H   UNL     1      27.769  36.394  16.588  1.00  0.00     0.293 HD
ENDBRANCH   9  24
TORSDOF 5
ENDMDL
MODEL 4
REMARK VINA RESULT:    -6.259     10.443     12.963
REMARK INTER + INTRA:          -7.490
REMARK INTER:                  -7.887
REMARK INTRA:                   0.397
REMARK UNBOUND:                -0.133
REMARK SMILES O=c1c(O)c(-c2ccc(O)c(O)c2)oc2cc(O)ccc12
REMARK SMILES IDX 5 1 3 2 2 3 1 4 21 5 15 6 14 7 16 8 17 9 19 10 20 11 6 12
REMARK SMILES IDX 7 13 8 14 9 15 13 16 11 17 10 18 12 20 4 22 18 24
REMARK H PARENT 10 19 12 21 4 23 18 25
REMARK Flexibility Score: inf
ROOT
ATOM      1  C   UNL     1      22.240  31.923  18.505  1.00  0.00     0.180 A 
ATOM      2  C   UNL     1      22.309  32.308  19.861  1.00  0.00     0.208 A 
ATOM      3  C   UNL     1      21.546  33.404  20.292  1.00  0.00     0.235 A 
ATOM      4  O   UNL     1      21.582  33.761  21.501  1.00  0.00    -0.285 OA
ATOM      5  C   UNL     1      20.754  34.102  19.365  1.00  0.00     0.069 A 
ATOM      6  C   UNL     1      20.758  33.668  18.022  1.00  0.00     0.142 A 
ATOM      7  O   UNL     1      21.487  32.621  17.656  1.00  0.00    -0.452 OA
ATOM      8  C   UNL     1      19.990  34.343  17.067  1.00  0.00     0.094 A 
ATOM      9  C   UNL     1      19.212  35.448  17.439  1.00  0.00     0.119 A 
ATOM     10  C   UNL     1      19.205  35.877  18.771  1.00  0.00     0.047 A 
ATOM     11  C   UNL     1      19.970  35.211  19.732  1.00  0.00     0.020 A 
ENDROOT
BRANCH   1  12
ATOM     12  C   UNL     1      23.000  30.767  17.976  1.00  0.00     0.025 A 
ATOM     13  C   UNL     1      23.370  30.694  16.621  1.00  0.00     0.016 A 
ATOM     14  C   UNL     1      24.107  29.604  16.149  1.00  0.00     0.051 A 
ATOM     15  C   UNL     1      24.495  28.581  17.024  1.00  0.00     0.157 A 
ATOM     16  C   UNL     1      23.408  29.750  18.853  1.00  0.00     0.062 A 
ATOM     17  C   UNL     1      24.148  28.656  18.379  1.00  0.00     0.158 A 
BRANCH  15  18
ATOM     18  O   UNL     1      25.229  27.493  16.557  1.00  0.00    -0.504 OA
ATOM     19  H   UNL     1      26.229  27.553  16.407  1.00  0.00     0.293 HD
ENDBRANCH  15  18
BRANCH  17  20
ATOM     20  O   UNL     1      24.542  27.640  19.249  1.00  0.00    -0.504 OA
ATOM     21  H   UNL     1      24.978  27.846  20.140  1.00  0.00     0.293 HD
ENDBRANCH  17  20
ENDBRANCH   1  12
BRANCH   2  22
ATOM     22  O   UNL     1      23.144  31.626  20.749  1.00  0.00    -0.502 OA
ATOM     23  H   UNL     1      22.918  31.518  21.730  1.00  0.00     0.293 HD
ENDBRANCH   2  22
BRANCH   9  24
ATOM     24  O   UNL     1      18.444  36.125  16.495  1.00  0.00    -0.508 OA
ATOM     25  H   UNL     1      17.446  36.254  16.618  1.00  0.00     0.293 HD
ENDBRANCH   9  24
TORSDOF 5
ENDMDL
MODEL 5
REMARK VINA RESULT:    -6.231     19.188     21.914
REMARK INTER + INTRA:          -7.457
REMARK INTER:                  -7.620
REMARK INTRA:                   0.163
REMARK UNBOUND:                -0.133
REMARK SMILES O=c1c(O)c(-c2ccc(O)c(O)c2)oc2cc(O)ccc12
REMARK SMILES IDX 5 1 3 2 2 3 1 4 21 5 15 6 14 7 16 8 17 9 19 10 20 11 6 12
REMARK SMILES IDX 7 13 8 14 9 15 13 16 11 17 10 18 12 20 4 22 18 24
REMARK H PARENT 10 19 12 21 4 23 18 25
REMARK Flexibility Score: inf
ROOT
ATOM      1  C   UNL     1      32.451  27.144  34.791  1.00  0.00     0.180 A 
ATOM      2  C   UNL     1      33.486  26.497  34.083  1.00  0.00     0.208 A 
ATOM      3  C   UNL     1      34.698  27.176  33.887  1.00  0.00     0.235 A 
ATOM      4  O   UNL     1      35.642  26.615  33.267  1.00  0.00    -0.285 OA
ATOM      5  C   UNL     1      34.844  28.484  34.377  1.00  0.00     0.069 A 
ATOM      6  C   UNL     1      33.753  29.071  35.055  1.00  0.00     0.142 A 
ATOM      7  O   UNL     1      32.626  28.391  35.227  1.00  0.00    -0.452 OA
ATOM      8  C   UNL     1      33.857  30.375  35.549  1.00  0.00     0.094 A 
ATOM      9  C   UNL     1      35.041  31.103  35.379  1.00  0.00     0.119 A 
ATOM     10  C   UNL     1      36.125  30.523  34.710  1.00  0.00     0.047 A 
ATOM     11  C   UNL     1      36.031  29.220  34.210  1.00  0.00     0.020 A 
ENDROOT
BRANCH   1  12
ATOM     12  C   UNL     1      31.149  26.489  35.055  1.00  0.00     0.025 A 
ATOM     13  C   UNL     1      31.067  25.112  35.333  1.00  0.00     0.016 A 
ATOM     14  C   UNL     1      29.830  24.521  35.603  1.00  0.00     0.051 A 
ATOM     15  C   UNL     1      28.663  25.295  35.613  1.00  0.00     0.157 A 
ATOM     16  C   UNL     1      29.979  27.264  35.086  1.00  0.00     0.062 A 
ATOM     17  C   UNL     1      28.738  26.670  35.357  1.00  0.00     0.158 A 
BRANCH  15  18
ATOM     18  O   UNL     1      27.427  24.708  35.880  1.00  0.00    -0.504 OA
ATOM     19  H   UNL     1      26.559  25.169  35.640  1.00  0.00     0.293 HD
ENDBRANCH  15  18
BRANCH  17  20
ATOM     20  O   UNL     1      27.576  27.440  35.375  1.00  0.00    -0.504 OA
ATOM     21  H   UNL     1      26.715  27.108  34.956  1.00  0.00     0.293 HD
ENDBRANCH  17  20
ENDBRANCH   1  12
BRANCH   2  22
ATOM     22  O   UNL     1      33.293  25.215  33.564  1.00  0.00    -0.502 OA
ATOM     23  H   UNL     1      32.768  24.503  34.058  1.00  0.00     0.293 HD
ENDBRANCH   2  22
BRANCH   9  24
ATOM     24  O   UNL     1      35.153  32.402  35.869  1.00  0.00    -0.508 OA
ATOM     25  H   UNL     1      35.367  32.584  36.843  1.00  0.00     0.293 HD
ENDBRANCH   9  24
TORSDOF 5
ENDMDL
MODEL 6
REMARK VINA RESULT:    -6.114     10.632     12.627
REMARK INTER + INTRA:          -7.320
REMARK INTER:                  -7.574
REMARK INTRA:                   0.254
REMARK UNBOUND:                -0.133
REMARK SMILES O=c1c(O)c(-c2ccc(O)c(O)c2)oc2cc(O)ccc12
REMARK SMILES IDX 5 1 3 2 2 3 1 4 21 5 15 6 14 7 16 8 17 9 19 10 20 11 6 12
REMARK SMILES IDX 7 13 8 14 9 15 13 16 11 17 10 18 12 20 4 22 18 24
REMARK H PARENT 10 19 12 21 4 23 18 25
REMARK Flexibility Score: inf
ROOT
ATOM      1  C   UNL     1      22.010  32.623  19.406  1.00  0.00     0.180 A 
ATOM      2  C   UNL     1      22.032  33.041  18.058  1.00  0.00     0.208 A 
ATOM      3  C   UNL     1      22.547  32.168  17.088  1.00  0.00     0.235 A 
ATOM      4  O   UNL     1      22.568  32.514  15.875  1.00  0.00    -0.285 OA
ATOM      5  C   UNL     1      23.044  30.914  17.480  1.00  0.00     0.069 A 
ATOM      6  C   UNL     1      23.007  30.580  18.852  1.00  0.00     0.142 A 
ATOM      7  O   UNL     1      22.504  31.432  19.738  1.00  0.00    -0.452 OA
ATOM      8  C   UNL     1      23.502  29.345  19.284  1.00  0.00     0.094 A 
ATOM      9  C   UNL     1      24.032  28.434  18.360  1.00  0.00     0.119 A 
ATOM     10  C   UNL     1      24.067  28.763  17.000  1.00  0.00     0.047 A 
ATOM     11  C   UNL     1      23.576  29.995  16.558  1.00  0.00     0.020 A 
ENDROOT
BRANCH   1  12
ATOM     12  C   UNL     1      21.467  33.478  20.485  1.00  0.00     0.025 A 
ATOM     13  C   UNL     1      20.441  34.408  20.236  1.00  0.00     0.016 A 
ATOM     14  C   UNL     1      19.928  35.188  21.276  1.00  0.00     0.051 A 
ATOM     15  C   UNL     1      20.421  35.042  22.579  1.00  0.00     0.157 A 
ATOM     16  C   UNL     1      21.943  33.321  21.797  1.00  0.00     0.062 A 
ATOM     17  C   UNL     1      21.428  34.104  22.840  1.00  0.00     0.158 A 
BRANCH  15  18
ATOM     18  O   UNL     1      19.912  35.819  23.618  1.00  0.00    -0.504 OA
ATOM     19  H   UNL     1      19.415  36.682  23.439  1.00  0.00     0.293 HD
ENDBRANCH  15  18
BRANCH  17  20
ATOM     20  O   UNL     1      21.912  33.955  24.139  1.00  0.00    -0.504 OA
ATOM     21  H   UNL     1      22.834  34.284  24.402  1.00  0.00     0.293 HD
ENDBRANCH  17  20
ENDBRANCH   1  12
BRANCH   2  22
ATOM     22  O   UNL     1      21.577  34.313  17.704  1.00  0.00    -0.502 OA
ATOM     23  H   UNL     1      21.710  34.698  16.776  1.00  0.00     0.293 HD
ENDBRANCH   2  22
BRANCH   9  24
ATOM     24  O   UNL     1      24.526  27.202  18.781  1.00  0.00    -0.508 OA
ATOM     25  H   UNL     1      23.944  26.372  18.787  1.00  0.00     0.293 HD
ENDBRANCH   9  24
TORSDOF 5
ENDMDL
MODEL 7
REMARK VINA RESULT:    -6.073     10.144     12.806
REMARK INTER + INTRA:          -7.272
REMARK INTER:                  -7.483
REMARK INTRA:                   0.211
REMARK UNBOUND:                -0.133
REMARK SMILES O=c1c(O)c(-c2ccc(O)c(O)c2)oc2cc(O)ccc12
REMARK SMILES IDX 5 1 3 2 2 3 1 4 21 5 15 6 14 7 16 8 17 9 19 10 20 11 6 12
REMARK SMILES IDX 7 13 8 14 9 15 13 16 11 17 10 18 12 20 4 22 18 24
REMARK H PARENT 10 19 12 21 4 23 18 25
REMARK Flexibility Score: inf
ROOT
ATOM      1  C   UNL     1      22.586  31.302  18.093  1.00  0.00     0.180 A 
ATOM      2  C   UNL     1      21.781  32.065  17.221  1.00  0.00     0.208 A 
ATOM      3  C   UNL     1      21.082  33.168  17.735  1.00  0.00     0.235 A 
ATOM      4  O   UNL     1      20.365  33.872  16.973  1.00  0.00    -0.285 OA
ATOM      5  C   UNL     1      21.182  33.471  19.103  1.00  0.00     0.069 A 
ATOM      6  C   UNL     1      21.990  32.645  19.915  1.00  0.00     0.142 A 
ATOM      7  O   UNL     1      22.642  31.616  19.386  1.00  0.00    -0.452 OA
ATOM      8  C   UNL     1      22.107  32.908  21.283  1.00  0.00     0.094 A 
ATOM      9  C   UNL     1      21.428  33.993  21.854  1.00  0.00     0.119 A 
ATOM     10  C   UNL     1      20.629  34.815  21.051  1.00  0.00     0.047 A 
ATOM     11  C   UNL     1      20.505  34.559  19.682  1.00  0.00     0.020 A 
ENDROOT
BRANCH   1  12
ATOM     12  C   UNL     1      23.368  30.136  17.624  1.00  0.00     0.025 A 
ATOM     13  C   UNL     1      23.920  30.098  16.330  1.00  0.00     0.016 A 
ATOM     14  C   UNL     1      24.674  28.997  15.917  1.00  0.00     0.051 A 
ATOM     15  C   UNL     1      24.900  27.926  16.792  1.00  0.00     0.157 A 
ATOM     16  C   UNL     1      23.614  29.069  18.503  1.00  0.00     0.062 A 
ATOM     17  C   UNL     1      24.371  27.964  18.089  1.00  0.00     0.158 A 
BRANCH  15  18
ATOM     18  O   UNL     1      25.651  26.826  16.383  1.00  0.00    -0.504 OA
ATOM     19  H   UNL     1      26.165  26.259  17.047  1.00  0.00     0.293 HD
ENDBRANCH  15  18
BRANCH  17  20
ATOM     20  O   UNL     1      24.603  26.901  18.960  1.00  0.00    -0.504 OA
ATOM     21  H   UNL     1      23.915  26.170  19.099  1.00  0.00     0.293 HD
ENDBRANCH  17  20
ENDBRANCH   1  12
BRANCH   2  22
ATOM     22  O   UNL     1      21.662  31.710  15.875  1.00  0.00    -0.502 OA
ATOM     23  H   UNL     1      22.409  31.860  15.207  1.00  0.00     0.293 HD
ENDBRANCH   2  22
BRANCH   9  24
ATOM     24  O   UNL     1      21.539  34.264  23.216  1.00  0.00    -0.508 OA
ATOM     25  H   UNL     1      22.399  34.086  23.722  1.00  0.00     0.293 HD
ENDBRANCH   9  24
TORSDOF 5
ENDMDL
MODEL 8
REMARK VINA RESULT:    -6.002     15.404     18.492
REMARK INTER + INTRA:          -7.188
REMARK INTER:                  -6.867
REMARK INTRA:                  -0.321
REMARK UNBOUND:                -0.133
REMARK SMILES O=c1c(O)c(-c2ccc(O)c(O)c2)oc2cc(O)ccc12
REMARK SMILES IDX 5 1 3 2 2 3 1 4 21 5 15 6 14 7 16 8 17 9 19 10 20 11 6 12
REMARK SMILES IDX 7 13 8 14 9 15 13 16 11 17 10 18 12 20 4 22 18 24
REMARK H PARENT 10 19 12 21 4 23 18 25
REMARK Flexibility Score: inf
ROOT
ATOM      1  C   UNL     1      20.958  33.820  31.317  1.00  0.00     0.180 A 
ATOM      2  C   UNL     1      20.464  32.619  31.868  1.00  0.00     0.208 A 
ATOM      3  C   UNL     1      20.736  32.331  33.215  1.00  0.00     0.235 A 
ATOM      4  O   UNL     1      20.296  31.269  33.734  1.00  0.00    -0.285 OA
ATOM      5  C   UNL     1      21.506  33.230  33.971  1.00  0.00     0.069 A 
ATOM      6  C   UNL     1      21.983  34.399  33.340  1.00  0.00     0.142 A 
ATOM      7  O   UNL     1      21.697  34.638  32.065  1.00  0.00    -0.452 OA
ATOM      8  C   UNL     1      22.762  35.312  34.057  1.00  0.00     0.094 A 
ATOM      9  C   UNL     1      23.069  35.076  35.403  1.00  0.00     0.119 A 
ATOM     10  C   UNL     1      22.595  33.919  36.032  1.00  0.00     0.047 A 
ATOM     11  C   UNL     1      21.817  32.998  35.323  1.00  0.00     0.020 A 
ENDROOT
BRANCH   1  12
ATOM     12  C   UNL     1      20.700  34.205  29.910  1.00  0.00     0.025 A 
ATOM     13  C   UNL     1      19.599  35.008  29.562  1.00  0.00     0.016 A 
ATOM     14  C   UNL     1      19.389  35.378  28.231  1.00  0.00     0.051 A 
ATOM     15  C   UNL     1      20.279  34.963  27.233  1.00  0.00     0.157 A 
ATOM     16  C   UNL     1      21.601  33.808  28.909  1.00  0.00     0.062 A 
ATOM     17  C   UNL     1      21.389  34.179  27.573  1.00  0.00     0.158 A 
BRANCH  15  18
ATOM     18  O   UNL     1      20.072  35.329  25.904  1.00  0.00    -0.504 OA
ATOM     19  H   UNL     1      19.950  34.635  25.177  1.00  0.00     0.293 HD
ENDBRANCH  15  18
BRANCH  17  20
ATOM     20  O   UNL     1      22.278  33.774  26.579  1.00  0.00    -0.504 OA
ATOM     21  H   UNL     1      22.047  33.028  25.933  1.00  0.00     0.293 HD
ENDBRANCH  17  20
ENDBRANCH   1  12
BRANCH   2  22
ATOM     22  O   UNL     1      19.743  31.722  31.078  1.00  0.00    -0.502 OA
ATOM     23  H   UNL     1      18.844  31.956  30.674  1.00  0.00     0.293 HD
ENDBRANCH   2  22
BRANCH   9  24
ATOM     24  O   UNL     1      23.843  35.981  36.125  1.00  0.00    -0.508 OA
ATOM     25  H   UNL     1      24.854  35.990  36.051  1.00  0.00     0.293 HD
ENDBRANCH   9  24
TORSDOF 5
ENDMDL
