MODEL 1
REMARK VINA RESULT:    -5.669      0.000      0.000
REMARK INTER + INTRA:          -6.485
REMARK INTER:                  -6.332
REMARK INTRA:                  -0.153
REMARK UNBOUND:                -0.153
REMARK SMILES COc1cc2ccc(=O)oc2cc1OC
REMARK SMILES IDX 3 1 13 2 12 3 11 4 5 5 4 6 6 7 7 8 8 9 9 10 10 11 2 12 1 13
REMARK SMILES IDX 14 14 15 15
REMARK H PARENT
REMARK Flexibility Score: inf
ROOT
ATOM      1  C   UNL     1     -23.750  61.254  28.676  1.00  0.00     0.161 A 
ATOM      2  C   UNL     1     -24.202  59.923  28.691  1.00  0.00     0.164 A 
ATOM      3  C   UNL     1     -25.187  59.528  29.617  1.00  0.00     0.098 A 
ATOM      4  C   UNL     1     -25.718  60.452  30.521  1.00  0.00     0.142 A 
ATOM      5  C   UNL     1     -25.266  61.786  30.507  1.00  0.00     0.022 A 
ATOM      6  C   UNL     1     -24.287  62.184  29.588  1.00  0.00     0.062 A 
ATOM      7  C   UNL     1     -25.818  62.687  31.425  1.00  0.00     0.019 A 
ATOM      8  C   UNL     1     -26.790  62.243  32.320  1.00  0.00     0.094 A 
ATOM      9  C   UNL     1     -27.190  60.903  32.275  1.00  0.00     0.336 A 
ATOM     10  O   UNL     1     -28.067  60.482  33.075  1.00  0.00    -0.246 OA
ATOM     11  O   UNL     1     -26.649  60.068  31.392  1.00  0.00    -0.423 OA
ENDROOT
BRANCH   1  12
ATOM     12  O   UNL     1     -22.767  61.611  27.740  1.00  0.00    -0.493 OA
ATOM     13  C   UNL     1     -21.368  61.626  28.004  1.00  0.00     0.278 C 
ENDBRANCH   1  12
BRANCH   2  14
ATOM     14  O   UNL     1     -23.646  59.022  27.768  1.00  0.00    -0.493 OA
ATOM     15  C   UNL     1     -22.692  58.016  28.096  1.00  0.00     0.278 C 
ENDBRANCH   2  14
TORSDOF 2
ENDMDL
MODEL 2
REMARK VINA RESULT:    -5.562     18.698     20.750
REMARK INTER + INTRA:          -6.365
REMARK INTER:                  -6.236
REMARK INTRA:                  -0.129
REMARK UNBOUND:                -0.153
REMARK SMILES COc1cc2ccc(=O)oc2cc1OC
REMARK SMILES IDX 3 1 13 2 12 3 11 4 5 5 4 6 6 7 7 8 8 9 9 10 10 11 2 12 1 13
REMARK SMILES IDX 14 14 15 15
REMARK H PARENT
REMARK Flexibility Score: inf
ROOT
ATOM      1  C   UNL     1     -12.738  44.744  22.017  1.00  0.00     0.161 A 
ATOM      2  C   UNL     1     -13.717  43.772  21.748  1.00  0.00     0.164 A 
ATOM      3  C   UNL     1     -14.744  43.534  22.681  1.00  0.00     0.098 A 
ATOM      4  C   UNL     1     -14.796  44.258  23.875  1.00  0.00     0.142 A 
ATOM      5  C   UNL     1     -13.815  45.233  24.147  1.00  0.00     0.022 A 
ATOM      6  C   UNL     1     -12.792  45.474  23.222  1.00  0.00     0.062 A 
ATOM      7  C   UNL     1     -13.895  45.942  25.351  1.00  0.00     0.019 A 
ATOM      8  C   UNL     1     -14.932  45.666  26.240  1.00  0.00     0.094 A 
ATOM      9  C   UNL     1     -15.871  44.685  25.903  1.00  0.00     0.336 A 
ATOM     10  O   UNL     1     -16.815  44.420  26.691  1.00  0.00    -0.246 OA
ATOM     11  O   UNL     1     -15.771  44.025  24.751  1.00  0.00    -0.423 OA
ENDROOT
BRANCH   1  12
ATOM     12  O   UNL     1     -11.729  44.954  21.064  1.00  0.00    -0.493 OA
ATOM     13  C   UNL     1     -10.441  44.349  21.106  1.00  0.00     0.278 C 
ENDBRANCH   1  12
BRANCH   2  14
ATOM     14  O   UNL     1     -13.633  43.063  20.538  1.00  0.00    -0.493 OA
ATOM     15  C   UNL     1     -14.455  43.306  19.401  1.00  0.00     0.278 C 
ENDBRANCH   2  14
TORSDOF 2
ENDMDL
MODEL 3
REMARK VINA RESULT:    -5.561     16.932     20.755
REMARK INTER + INTRA:          -6.364
REMARK INTER:                  -6.228
REMARK INTRA:                  -0.136
REMARK UNBOUND:                -0.153
REMARK SMILES COc1cc2ccc(=O)oc2cc1OC
REMARK SMILES IDX 3 1 13 2 12 3 11 4 5 5 4 6 6 7 7 8 8 9 9 10 10 11 2 12 1 13
REMARK SMILES IDX 14 14 15 15
REMARK H PARENT
REMARK Flexibility Score: inf
ROOT
ATOM      1  C   UNL     1     -15.591  44.731  25.099  1.00  0.00     0.161 A 
ATOM      2  C   UNL     1     -14.708  45.753  25.485  1.00  0.00     0.164 A 
ATOM      3  C   UNL     1     -13.560  46.017  24.712  1.00  0.00     0.098 A 
ATOM      4  C   UNL     1     -13.294  45.266  23.564  1.00  0.00     0.142 A 
ATOM      5  C   UNL     1     -14.179  44.240  23.176  1.00  0.00     0.022 A 
ATOM      6  C   UNL     1     -15.322  43.975  23.941  1.00  0.00     0.062 A 
ATOM      7  C   UNL     1     -13.885  43.508  22.021  1.00  0.00     0.019 A 
ATOM      8  C   UNL     1     -12.735  43.809  21.293  1.00  0.00     0.094 A 
ATOM      9  C   UNL     1     -11.903  44.842  21.738  1.00  0.00     0.336 A 
ATOM     10  O   UNL     1     -10.860  45.130  21.096  1.00  0.00    -0.246 OA
ATOM     11  O   UNL     1     -12.206  45.523  22.840  1.00  0.00    -0.423 OA
ENDROOT
BRANCH   1  12
ATOM     12  O   UNL     1     -16.725  44.497  25.894  1.00  0.00    -0.493 OA
ATOM     13  C   UNL     1     -16.841  43.442  26.843  1.00  0.00     0.278 C 
ENDBRANCH   1  12
BRANCH   2  14
ATOM     14  O   UNL     1     -15.007  46.487  26.645  1.00  0.00    -0.493 OA
ATOM     15  C   UNL     1     -15.617  47.774  26.652  1.00  0.00     0.278 C 
ENDBRANCH   2  14
TORSDOF 2
ENDMDL
MODEL 4
REMARK VINA RESULT:    -5.381      0.974      2.492
REMARK INTER + INTRA:          -6.163
REMARK INTER:                  -6.073
REMARK INTRA:                  -0.090
REMARK UNBOUND:                -0.153
REMARK SMILES COc1cc2ccc(=O)oc2cc1OC
REMARK SMILES IDX 3 1 13 2 12 3 11 4 5 5 4 6 6 7 7 8 8 9 9 10 10 11 2 12 1 13
REMARK SMILES IDX 14 14 15 15
REMARK H PARENT
REMARK Flexibility Score: inf
ROOT
ATOM      1  C   UNL     1     -23.995  59.686  28.709  1.00  0.00     0.161 A 
ATOM      2  C   UNL     1     -23.814  61.080  28.676  1.00  0.00     0.164 A 
ATOM      3  C   UNL     1     -24.476  61.895  29.614  1.00  0.00     0.098 A 
ATOM      4  C   UNL     1     -25.314  61.327  30.578  1.00  0.00     0.142 A 
ATOM      5  C   UNL     1     -25.497  59.930  30.612  1.00  0.00     0.022 A 
ATOM      6  C   UNL     1     -24.840  59.115  29.682  1.00  0.00     0.062 A 
ATOM      7  C   UNL     1     -26.341  59.392  31.590  1.00  0.00     0.019 A 
ATOM      8  C   UNL     1     -26.972  60.244  32.493  1.00  0.00     0.094 A 
ATOM      9  C   UNL     1     -26.743  61.621  32.400  1.00  0.00     0.336 A 
ATOM     10  O   UNL     1     -27.304  62.408  33.206  1.00  0.00    -0.246 OA
ATOM     11  O   UNL     1     -25.936  62.106  31.460  1.00  0.00    -0.423 OA
ENDROOT
BRANCH   1  12
ATOM     12  O   UNL     1     -23.319  58.905  27.759  1.00  0.00    -0.493 OA
ATOM     13  C   UNL     1     -22.274  57.987  28.064  1.00  0.00     0.278 C 
ENDBRANCH   1  12
BRANCH   2  14
ATOM     14  O   UNL     1     -22.966  61.616  27.693  1.00  0.00    -0.493 OA
ATOM     15  C   UNL     1     -21.550  61.708  27.812  1.00  0.00     0.278 C 
ENDBRANCH   2  14
TORSDOF 2
ENDMDL
MODEL 5
REMARK VINA RESULT:    -5.297      2.242      3.111
REMARK INTER + INTRA:          -6.069
REMARK INTER:                  -5.954
REMARK INTRA:                  -0.115
REMARK UNBOUND:                -0.153
REMARK SMILES COc1cc2ccc(=O)oc2cc1OC
REMARK SMILES IDX 3 1 13 2 12 3 11 4 5 5 4 6 6 7 7 8 8 9 9 10 10 11 2 12 1 13
REMARK SMILES IDX 14 14 15 15
REMARK H PARENT
REMARK Flexibility Score: inf
ROOT
ATOM      1  C   UNL     1     -25.434  59.715  30.646  1.00  0.00     0.161 A 
ATOM      2  C   UNL     1     -25.001  58.854  31.669  1.00  0.00     0.164 A 
ATOM      3  C   UNL     1     -25.372  59.110  33.004  1.00  0.00     0.098 A 
ATOM      4  C   UNL     1     -26.166  60.216  33.317  1.00  0.00     0.142 A 
ATOM      5  C   UNL     1     -26.601  61.080  32.293  1.00  0.00     0.022 A 
ATOM      6  C   UNL     1     -26.236  60.829  30.964  1.00  0.00     0.062 A 
ATOM      7  C   UNL     1     -27.396  62.178  32.639  1.00  0.00     0.019 A 
ATOM      8  C   UNL     1     -27.732  62.385  33.975  1.00  0.00     0.094 A 
ATOM      9  C   UNL     1     -27.265  61.485  34.939  1.00  0.00     0.336 A 
ATOM     10  O   UNL     1     -27.557  61.654  36.151  1.00  0.00    -0.246 OA
ATOM     11  O   UNL     1     -26.510  60.449  34.582  1.00  0.00    -0.423 OA
ENDROOT
BRANCH   1  12
ATOM     12  O   UNL     1     -25.046  59.428  29.328  1.00  0.00    -0.493 OA
ATOM     13  C   UNL     1     -24.319  60.320  28.489  1.00  0.00     0.278 C 
ENDBRANCH   1  12
BRANCH   2  14
ATOM     14  O   UNL     1     -24.204  57.752  31.318  1.00  0.00    -0.493 OA
ATOM     15  C   UNL     1     -23.332  57.068  32.212  1.00  0.00     0.278 C 
ENDBRANCH   2  14
TORSDOF 2
ENDMDL
MODEL 6
REMARK VINA RESULT:    -5.292      2.024      5.490
REMARK INTER + INTRA:          -6.063
REMARK INTER:                  -6.035
REMARK INTRA:                  -0.028
REMARK UNBOUND:                -0.153
REMARK SMILES COc1cc2ccc(=O)oc2cc1OC
REMARK SMILES IDX 3 1 13 2 12 3 11 4 5 5 4 6 6 7 7 8 8 9 9 10 10 11 2 12 1 13
REMARK SMILES IDX 14 14 15 15
REMARK H PARENT
REMARK Flexibility Score: inf
ROOT
ATOM      1  C   UNL     1     -25.749  60.930  31.537  1.00  0.00     0.161 A 
ATOM      2  C   UNL     1     -24.696  60.842  32.463  1.00  0.00     0.164 A 
ATOM      3  C   UNL     1     -23.365  60.978  32.025  1.00  0.00     0.098 A 
ATOM      4  C   UNL     1     -23.084  61.198  30.674  1.00  0.00     0.142 A 
ATOM      5  C   UNL     1     -24.139  61.287  29.744  1.00  0.00     0.022 A 
ATOM      6  C   UNL     1     -25.465  61.153  30.174  1.00  0.00     0.062 A 
ATOM      7  C   UNL     1     -23.825  61.509  28.399  1.00  0.00     0.019 A 
ATOM      8  C   UNL     1     -22.490  61.635  28.019  1.00  0.00     0.094 A 
ATOM      9  C   UNL     1     -21.495  61.537  28.998  1.00  0.00     0.336 A 
ATOM     10  O   UNL     1     -20.283  61.648  28.677  1.00  0.00    -0.246 OA
ATOM     11  O   UNL     1     -21.821  61.325  30.270  1.00  0.00    -0.423 OA
ENDROOT
BRANCH   1  12
ATOM     12  O   UNL     1     -27.064  60.790  32.009  1.00  0.00    -0.493 OA
ATOM     13  C   UNL     1     -27.819  61.833  32.617  1.00  0.00     0.278 C 
ENDBRANCH   1  12
BRANCH   2  14
ATOM     14  O   UNL     1     -25.016  60.619  33.812  1.00  0.00    -0.493 OA
ATOM     15  C   UNL     1     -24.139  60.882  34.904  1.00  0.00     0.278 C 
ENDBRANCH   2  14
TORSDOF 2
ENDMDL
MODEL 7
REMARK VINA RESULT:    -5.281     16.899     20.655
REMARK INTER + INTRA:          -6.051
REMARK INTER:                  -5.915
REMARK INTRA:                  -0.136
REMARK UNBOUND:                -0.153
REMARK SMILES COc1cc2ccc(=O)oc2cc1OC
REMARK SMILES IDX 3 1 13 2 12 3 11 4 5 5 4 6 6 7 7 8 8 9 9 10 10 11 2 12 1 13
REMARK SMILES IDX 14 14 15 15
REMARK H PARENT
REMARK Flexibility Score: inf
ROOT
ATOM      1  C   UNL     1     -14.717  45.786  25.469  1.00  0.00     0.161 A 
ATOM      2  C   UNL     1     -15.600  44.740  25.149  1.00  0.00     0.164 A 
ATOM      3  C   UNL     1     -15.361  43.946  24.011  1.00  0.00     0.098 A 
ATOM      4  C   UNL     1     -14.253  44.192  23.197  1.00  0.00     0.142 A 
ATOM      5  C   UNL     1     -13.367  45.241  23.516  1.00  0.00     0.022 A 
ATOM      6  C   UNL     1     -13.600  46.033  24.647  1.00  0.00     0.062 A 
ATOM      7  C   UNL     1     -12.266  45.461  22.682  1.00  0.00     0.019 A 
ATOM      8  C   UNL     1     -12.078  44.646  21.567  1.00  0.00     0.094 A 
ATOM      9  C   UNL     1     -12.998  43.623  21.313  1.00  0.00     0.336 A 
ATOM     10  O   UNL     1     -12.847  42.875  20.312  1.00  0.00    -0.246 OA
ATOM     11  O   UNL     1     -14.037  43.435  22.123  1.00  0.00    -0.423 OA
ENDROOT
BRANCH   1  12
ATOM     12  O   UNL     1     -14.987  46.557  26.611  1.00  0.00    -0.493 OA
ATOM     13  C   UNL     1     -15.593  47.846  26.591  1.00  0.00     0.278 C 
ENDBRANCH   1  12
BRANCH   2  14
ATOM     14  O   UNL     1     -16.704  44.522  25.990  1.00  0.00    -0.493 OA
ATOM     15  C   UNL     1     -16.774  43.504  26.983  1.00  0.00     0.278 C 
ENDBRANCH   2  14
TORSDOF 2
ENDMDL
MODEL 8
REMARK VINA RESULT:    -5.249      2.322      2.923
REMARK INTER + INTRA:          -6.015
REMARK INTER:                  -5.883
REMARK INTRA:                  -0.132
REMARK UNBOUND:                -0.153
REMARK SMILES COc1cc2ccc(=O)oc2cc1OC
REMARK SMILES IDX 3 1 13 2 12 3 11 4 5 5 4 6 6 7 7 8 8 9 9 10 10 11 2 12 1 13
REMARK SMILES IDX 14 14 15 15
REMARK H PARENT
REMARK Flexibility Score: inf
ROOT
ATOM      1  C   UNL     1     -23.899  61.698  30.853  1.00  0.00     0.161 A 
ATOM      2  C   UNL     1     -23.319  60.935  31.881  1.00  0.00     0.164 A 
ATOM      3  C   UNL     1     -24.103  60.521  32.975  1.00  0.00     0.098 A 
ATOM      4  C   UNL     1     -25.455  60.867  33.046  1.00  0.00     0.142 A 
ATOM      5  C   UNL     1     -26.039  61.632  32.017  1.00  0.00     0.022 A 
ATOM      6  C   UNL     1     -25.263  62.045  30.927  1.00  0.00     0.062 A 
ATOM      7  C   UNL     1     -27.395  61.960  32.117  1.00  0.00     0.019 A 
ATOM      8  C   UNL     1     -28.125  61.526  33.222  1.00  0.00     0.094 A 
ATOM      9  C   UNL     1     -27.479  60.768  34.205  1.00  0.00     0.336 A 
ATOM     10  O   UNL     1     -28.120  60.366  35.211  1.00  0.00    -0.246 OA
ATOM     11  O   UNL     1     -26.188  60.471  34.085  1.00  0.00    -0.423 OA
ENDROOT
BRANCH   1  12
ATOM     12  O   UNL     1     -23.087  62.093  29.779  1.00  0.00    -0.493 OA
ATOM     13  C   UNL     1     -23.316  61.734  28.419  1.00  0.00     0.278 C 
ENDBRANCH   1  12
BRANCH   2  14
ATOM     14  O   UNL     1     -21.957  60.608  31.777  1.00  0.00    -0.493 OA
ATOM     15  C   UNL     1     -20.912  61.265  32.486  1.00  0.00     0.278 C 
ENDBRANCH   2  14
TORSDOF 2
ENDMDL
MODEL 9
REMARK VINA RESULT:    -5.247      4.266      6.176
REMARK INTER + INTRA:          -6.013
REMARK INTER:                  -5.884
REMARK INTRA:                  -0.129
REMARK UNBOUND:                -0.153
REMARK SMILES COc1cc2ccc(=O)oc2cc1OC
REMARK SMILES IDX 3 1 13 2 12 3 11 4 5 5 4 6 6 7 7 8 8 9 9 10 10 11 2 12 1 13
REMARK SMILES IDX 14 14 15 15
REMARK H PARENT
REMARK Flexibility Score: inf
ROOT
ATOM      1  C   UNL     1     -25.603  60.586  34.190  1.00  0.00     0.161 A 
ATOM      2  C   UNL     1     -25.139  60.621  32.864  1.00  0.00     0.164 A 
ATOM      3  C   UNL     1     -23.786  60.913  32.603  1.00  0.00     0.098 A 
ATOM      4  C   UNL     1     -22.903  61.171  33.655  1.00  0.00     0.142 A 
ATOM      5  C   UNL     1     -23.367  61.136  34.985  1.00  0.00     0.022 A 
ATOM      6  C   UNL     1     -24.711  60.845  35.250  1.00  0.00     0.062 A 
ATOM      7  C   UNL     1     -22.458  61.397  36.015  1.00  0.00     0.019 A 
ATOM      8  C   UNL     1     -21.130  61.682  35.701  1.00  0.00     0.094 A 
ATOM      9  C   UNL     1     -20.740  61.698  34.357  1.00  0.00     0.336 A 
ATOM     10  O   UNL     1     -19.546  61.953  34.052  1.00  0.00    -0.246 OA
ATOM     11  O   UNL     1     -21.626  61.446  33.397  1.00  0.00    -0.423 OA
ENDROOT
BRANCH   1  12
ATOM     12  O   UNL     1     -26.957  60.291  34.413  1.00  0.00    -0.493 OA
ATOM     13  C   UNL     1     -27.905  61.206  34.955  1.00  0.00     0.278 C 
ENDBRANCH   1  12
BRANCH   2  14
ATOM     14  O   UNL     1     -26.055  60.358  31.832  1.00  0.00    -0.493 OA
ATOM     15  C   UNL     1     -25.884  59.352  30.838  1.00  0.00     0.278 C 
ENDBRANCH   2  14
TORSDOF 2
ENDMDL
