MODEL 1
REMARK VINA RESULT:    -4.266      0.000      0.000
REMARK INTER + INTRA:          -5.350
REMARK INTER:                  -5.138
REMARK INTRA:                  -0.212
REMARK UNBOUND:                -0.212
REMARK SMILES C=CCc1ccc(O)c(OC)c1
REMARK SMILES IDX 9 1 7 2 6 3 5 4 4 5 12 6 10 7 11 8 8 9 3 11 2 12 1 13
REMARK H PARENT 8 10
REMARK Flexibility Score: inf
ROOT
ATOM      1  C   UNL     1       0.082 -25.897 -46.845  1.00  0.00     0.160 A 
ATOM      2  C   UNL     1       1.489 -25.866 -46.840  1.00  0.00     0.157 A 
ATOM      3  C   UNL     1       2.166 -24.882 -46.111  1.00  0.00     0.050 A 
ATOM      4  C   UNL     1       1.454 -23.928 -45.383  1.00  0.00     0.008 A 
ATOM      5  C   UNL     1       0.053 -23.950 -45.369  1.00  0.00    -0.040 A 
ATOM      6  C   UNL     1      -0.629 -24.930 -46.106  1.00  0.00     0.054 A 
ENDROOT
BRANCH   1   7
ATOM      7  O   UNL     1      -0.570 -26.893 -47.590  1.00  0.00    -0.493 OA
ATOM      8  C   UNL     1      -1.980 -27.088 -47.615  1.00  0.00     0.278 C 
ENDBRANCH   1   7
BRANCH   2   9
ATOM      9  O   UNL     1       2.233 -26.804 -47.555  1.00  0.00    -0.504 OA
ATOM     10  H   UNL     1       1.849 -27.698 -47.837  1.00  0.00     0.293 HD
ENDBRANCH   2   9
BRANCH   5  11
ATOM     11  C   UNL     1      -0.717 -22.904 -44.607  1.00  0.00     0.062 C 
BRANCH  11  12
ATOM     12  C   UNL     1       0.028 -21.599 -44.593  1.00  0.00    -0.030 C 
ATOM     13  C   UNL     1      -0.024 -20.772 -43.545  1.00  0.00     0.004 C 
ENDBRANCH  11  12
ENDBRANCH   5  11
TORSDOF 4
ENDMDL
MODEL 2
REMARK VINA RESULT:    -4.203     13.839     15.648
REMARK INTER + INTRA:          -5.275
REMARK INTER:                  -5.080
REMARK INTRA:                  -0.195
REMARK UNBOUND:                -0.212
REMARK SMILES C=CCc1ccc(O)c(OC)c1
REMARK SMILES IDX 9 1 7 2 6 3 5 4 4 5 12 6 10 7 11 8 8 9 3 11 2 12 1 13
REMARK H PARENT 8 10
REMARK Flexibility Score: inf
ROOT
ATOM      1  C   UNL     1       1.100 -10.260 -42.029  1.00  0.00     0.160 A 
ATOM      2  C   UNL     1       0.309 -11.214 -42.695  1.00  0.00     0.157 A 
ATOM      3  C   UNL     1      -1.060 -11.307 -42.417  1.00  0.00     0.050 A 
ATOM      4  C   UNL     1      -1.650 -10.454 -41.483  1.00  0.00     0.008 A 
ATOM      5  C   UNL     1      -0.878  -9.492 -40.817  1.00  0.00    -0.040 A 
ATOM      6  C   UNL     1       0.496  -9.402 -41.087  1.00  0.00     0.054 A 
ENDROOT
BRANCH   1   7
ATOM      7  O   UNL     1       2.471 -10.193 -42.324  1.00  0.00    -0.493 OA
ATOM      8  C   UNL     1       3.477 -10.948 -41.658  1.00  0.00     0.278 C 
ENDBRANCH   1   7
BRANCH   2   9
ATOM      9  O   UNL     1       0.864 -12.081 -43.635  1.00  0.00    -0.504 OA
ATOM     10  H   UNL     1       1.843 -12.046 -43.890  1.00  0.00     0.293 HD
ENDBRANCH   2   9
BRANCH   5  11
ATOM     11  C   UNL     1      -1.508  -8.591 -39.788  1.00  0.00     0.062 C 
BRANCH  11  12
ATOM     12  C   UNL     1      -0.671  -8.542 -38.540  1.00  0.00    -0.030 C 
ATOM     13  C   UNL     1      -0.532  -7.417 -37.832  1.00  0.00     0.004 C 
ENDBRANCH  11  12
ENDBRANCH   5  11
TORSDOF 4
ENDMDL
MODEL 3
REMARK VINA RESULT:    -4.008      1.974      4.074
REMARK INTER + INTRA:          -5.040
REMARK INTER:                  -4.842
REMARK INTRA:                  -0.198
REMARK UNBOUND:                -0.212
REMARK SMILES C=CCc1ccc(O)c(OC)c1
REMARK SMILES IDX 9 1 7 2 6 3 5 4 4 5 12 6 10 7 11 8 8 9 3 11 2 12 1 13
REMARK H PARENT 8 10
REMARK Flexibility Score: inf
ROOT
ATOM      1  C   UNL     1       0.703 -24.244 -45.831  1.00  0.00     0.160 A 
ATOM      2  C   UNL     1       1.765 -25.064 -46.255  1.00  0.00     0.157 A 
ATOM      3  C   UNL     1       1.506 -26.205 -47.022  1.00  0.00     0.050 A 
ATOM      4  C   UNL     1       0.197 -26.537 -47.375  1.00  0.00     0.008 A 
ATOM      5  C   UNL     1      -0.871 -25.725 -46.969  1.00  0.00    -0.040 A 
ATOM      6  C   UNL     1      -0.616 -24.585 -46.192  1.00  0.00     0.054 A 
ENDROOT
BRANCH   1   7
ATOM      7  O   UNL     1       0.993 -23.108 -45.057  1.00  0.00    -0.493 OA
ATOM      8  C   UNL     1       0.017 -22.189 -44.577  1.00  0.00     0.278 C 
ENDBRANCH   1   7
BRANCH   2   9
ATOM      9  O   UNL     1       3.085 -24.764 -45.922  1.00  0.00    -0.504 OA
ATOM     10  H   UNL     1       3.869 -25.285 -46.296  1.00  0.00     0.293 HD
ENDBRANCH   2   9
BRANCH   5  11
ATOM     11  C   UNL     1      -2.287 -26.097 -47.325  1.00  0.00     0.062 C 
BRANCH  11  12
ATOM     12  C   UNL     1      -3.034 -26.572 -46.110  1.00  0.00    -0.030 C 
ATOM     13  C   UNL     1      -4.100 -25.917 -45.641  1.00  0.00     0.004 C 
ENDBRANCH  11  12
ENDBRANCH   5  11
TORSDOF 4
ENDMDL
MODEL 4
REMARK VINA RESULT:    -3.932      1.218      1.531
REMARK INTER + INTRA:          -4.948
REMARK INTER:                  -4.756
REMARK INTRA:                  -0.191
REMARK UNBOUND:                -0.212
REMARK SMILES C=CCc1ccc(O)c(OC)c1
REMARK SMILES IDX 9 1 7 2 6 3 5 4 4 5 12 6 10 7 11 8 8 9 3 11 2 12 1 13
REMARK H PARENT 8 10
REMARK Flexibility Score: inf
ROOT
ATOM      1  C   UNL     1      -1.457 -25.234 -46.436  1.00  0.00     0.160 A 
ATOM      2  C   UNL     1      -0.201 -25.560 -46.981  1.00  0.00     0.157 A 
ATOM      3  C   UNL     1       0.961 -24.978 -46.462  1.00  0.00     0.050 A 
ATOM      4  C   UNL     1       0.886 -24.075 -45.400  1.00  0.00     0.008 A 
ATOM      5  C   UNL     1      -0.356 -23.747 -44.839  1.00  0.00    -0.040 A 
ATOM      6  C   UNL     1      -1.524 -24.321 -45.363  1.00  0.00     0.054 A 
ENDROOT
BRANCH   1   7
ATOM      7  O   UNL     1      -2.606 -25.829 -46.980  1.00  0.00    -0.493 OA
ATOM      8  C   UNL     1      -3.664 -26.392 -46.211  1.00  0.00     0.278 C 
ENDBRANCH   1   7
BRANCH   2   9
ATOM      9  O   UNL     1      -0.087 -26.458 -48.041  1.00  0.00    -0.504 OA
ATOM     10  H   UNL     1      -0.123 -26.160 -49.008  1.00  0.00     0.293 HD
ENDBRANCH   2   9
BRANCH   5  11
ATOM     11  C   UNL     1      -0.442 -22.751 -43.713  1.00  0.00     0.062 C 
BRANCH  11  12
ATOM     12  C   UNL     1      -0.047 -21.379 -44.183  1.00  0.00    -0.030 C 
ATOM     13  C   UNL     1      -0.041 -20.328 -43.357  1.00  0.00     0.004 C 
ENDBRANCH  11  12
ENDBRANCH   5  11
TORSDOF 4
ENDMDL
MODEL 5
REMARK VINA RESULT:    -3.929     14.616     16.473
REMARK INTER + INTRA:          -4.945
REMARK INTER:                  -4.714
REMARK INTRA:                  -0.231
REMARK UNBOUND:                -0.212
REMARK SMILES C=CCc1ccc(O)c(OC)c1
REMARK SMILES IDX 9 1 7 2 6 3 5 4 4 5 12 6 10 7 11 8 8 9 3 11 2 12 1 13
REMARK H PARENT 8 10
REMARK Flexibility Score: inf
ROOT
ATOM      1  C   UNL     1      -2.022  -9.700 -41.897  1.00  0.00     0.160 A 
ATOM      2  C   UNL     1      -1.055 -10.711 -41.747  1.00  0.00     0.157 A 
ATOM      3  C   UNL     1      -0.177 -10.686 -40.658  1.00  0.00     0.050 A 
ATOM      4  C   UNL     1      -0.255  -9.663 -39.711  1.00  0.00     0.008 A 
ATOM      5  C   UNL     1      -1.219  -8.653 -39.840  1.00  0.00    -0.040 A 
ATOM      6  C   UNL     1      -2.095  -8.671 -40.936  1.00  0.00     0.054 A 
ENDROOT
BRANCH   1   7
ATOM      7  O   UNL     1      -2.886  -9.748 -43.003  1.00  0.00    -0.493 OA
ATOM      8  C   UNL     1      -3.373  -8.605 -43.696  1.00  0.00     0.278 C 
ENDBRANCH   1   7
BRANCH   2   9
ATOM      9  O   UNL     1      -0.948 -11.749 -42.672  1.00  0.00    -0.504 OA
ATOM     10  H   UNL     1      -1.600 -12.523 -42.693  1.00  0.00     0.293 HD
ENDBRANCH   2   9
BRANCH   5  11
ATOM     11  C   UNL     1      -1.286  -7.533 -38.836  1.00  0.00     0.062 C 
BRANCH  11  12
ATOM     12  C   UNL     1      -0.297  -7.753 -37.725  1.00  0.00    -0.030 C 
ATOM     13  C   UNL     1      -0.675  -7.783 -36.444  1.00  0.00     0.004 C 
ENDBRANCH  11  12
ENDBRANCH   5  11
TORSDOF 4
ENDMDL
MODEL 6
REMARK VINA RESULT:    -3.911     13.625     15.235
REMARK INTER + INTRA:          -4.923
REMARK INTER:                  -4.636
REMARK INTRA:                  -0.286
REMARK UNBOUND:                -0.212
REMARK SMILES C=CCc1ccc(O)c(OC)c1
REMARK SMILES IDX 9 1 7 2 6 3 5 4 4 5 12 6 10 7 11 8 8 9 3 11 2 12 1 13
REMARK H PARENT 8 10
REMARK Flexibility Score: inf
ROOT
ATOM      1  C   UNL     1       1.374 -10.751 -42.042  1.00  0.00     0.160 A 
ATOM      2  C   UNL     1       1.145 -11.936 -41.320  1.00  0.00     0.157 A 
ATOM      3  C   UNL     1       0.034 -12.039 -40.475  1.00  0.00     0.050 A 
ATOM      4  C   UNL     1      -0.855 -10.971 -40.346  1.00  0.00     0.008 A 
ATOM      5  C   UNL     1      -0.647  -9.786 -41.065  1.00  0.00    -0.040 A 
ATOM      6  C   UNL     1       0.471  -9.677 -41.906  1.00  0.00     0.054 A 
ENDROOT
BRANCH   1   7
ATOM      7  O   UNL     1       2.500 -10.674 -42.878  1.00  0.00    -0.493 OA
ATOM      8  C   UNL     1       2.491 -10.961 -44.272  1.00  0.00     0.278 C 
ENDBRANCH   1   7
BRANCH   2   9
ATOM      9  O   UNL     1       2.011 -13.024 -41.425  1.00  0.00    -0.504 OA
ATOM     10  H   UNL     1       2.519 -13.389 -40.629  1.00  0.00     0.293 HD
ENDBRANCH   2   9
BRANCH   5  11
ATOM     11  C   UNL     1      -1.589  -8.622 -40.904  1.00  0.00     0.062 C 
BRANCH  11  12
ATOM     12  C   UNL     1      -1.829  -8.328 -39.450  1.00  0.00    -0.030 C 
ATOM     13  C   UNL     1      -0.967  -7.606 -38.728  1.00  0.00     0.004 C 
ENDBRANCH  11  12
ENDBRANCH   5  11
TORSDOF 4
ENDMDL
MODEL 7
REMARK VINA RESULT:    -3.849     16.171     16.922
REMARK INTER + INTRA:          -4.848
REMARK INTER:                  -4.632
REMARK INTRA:                  -0.217
REMARK UNBOUND:                -0.212
REMARK SMILES C=CCc1ccc(O)c(OC)c1
REMARK SMILES IDX 9 1 7 2 6 3 5 4 4 5 12 6 10 7 11 8 8 9 3 11 2 12 1 13
REMARK H PARENT 8 10
REMARK Flexibility Score: inf
ROOT
ATOM      1  C   UNL     1      -4.356  -8.509 -47.500  1.00  0.00     0.160 A 
ATOM      2  C   UNL     1      -5.442  -9.403 -47.555  1.00  0.00     0.157 A 
ATOM      3  C   UNL     1      -6.047  -9.844 -46.373  1.00  0.00     0.050 A 
ATOM      4  C   UNL     1      -5.585  -9.399 -45.134  1.00  0.00     0.008 A 
ATOM      5  C   UNL     1      -4.511  -8.501 -45.061  1.00  0.00    -0.040 A 
ATOM      6  C   UNL     1      -3.895  -8.064 -46.244  1.00  0.00     0.054 A 
ENDROOT
BRANCH   1   7
ATOM      7  O   UNL     1      -3.765  -8.088 -48.702  1.00  0.00    -0.493 OA
ATOM      8  C   UNL     1      -4.094  -6.883 -49.384  1.00  0.00     0.278 C 
ENDBRANCH   1   7
BRANCH   2   9
ATOM      9  O   UNL     1      -5.931  -9.868 -48.775  1.00  0.00    -0.504 OA
ATOM     10  H   UNL     1      -5.465 -10.597 -49.302  1.00  0.00     0.293 HD
ENDBRANCH   2   9
BRANCH   5  11
ATOM     11  C   UNL     1      -3.992  -8.042 -43.724  1.00  0.00     0.062 C 
BRANCH  11  12
ATOM     12  C   UNL     1      -3.123  -9.098 -43.100  1.00  0.00    -0.030 C 
ATOM     13  C   UNL     1      -1.978  -8.791 -42.483  1.00  0.00     0.004 C 
ENDBRANCH  11  12
ENDBRANCH   5  11
TORSDOF 4
ENDMDL
MODEL 8
REMARK VINA RESULT:    -3.848     16.381     18.251
REMARK INTER + INTRA:          -4.847
REMARK INTER:                  -4.642
REMARK INTRA:                  -0.205
REMARK UNBOUND:                -0.212
REMARK SMILES C=CCc1ccc(O)c(OC)c1
REMARK SMILES IDX 9 1 7 2 6 3 5 4 4 5 12 6 10 7 11 8 8 9 3 11 2 12 1 13
REMARK H PARENT 8 10
REMARK Flexibility Score: inf
ROOT
ATOM      1  C   UNL     1      -0.697  -9.001 -36.661  1.00  0.00     0.160 A 
ATOM      2  C   UNL     1      -0.865  -7.604 -36.645  1.00  0.00     0.157 A 
ATOM      3  C   UNL     1      -1.054  -6.906 -37.843  1.00  0.00     0.050 A 
ATOM      4  C   UNL     1      -1.083  -7.588 -39.061  1.00  0.00     0.008 A 
ATOM      5  C   UNL     1      -0.927  -8.981 -39.094  1.00  0.00    -0.040 A 
ATOM      6  C   UNL     1      -0.727  -9.682 -37.895  1.00  0.00     0.054 A 
ENDROOT
BRANCH   1   7
ATOM      7  O   UNL     1      -0.504  -9.674 -35.444  1.00  0.00    -0.493 OA
ATOM      8  C   UNL     1      -1.022 -10.965 -35.145  1.00  0.00     0.278 C 
ENDBRANCH   1   7
BRANCH   2   9
ATOM      9  O   UNL     1      -0.844  -6.889 -35.448  1.00  0.00    -0.504 OA
ATOM     10  H   UNL     1      -0.652  -7.332 -34.558  1.00  0.00     0.293 HD
ENDBRANCH   2   9
BRANCH   5  11
ATOM     11  C   UNL     1      -0.928  -9.715 -40.409  1.00  0.00     0.062 C 
BRANCH  11  12
ATOM     12  C   UNL     1       0.476  -9.915 -40.908  1.00  0.00    -0.030 C 
ATOM     13  C   UNL     1       0.854  -9.506 -42.123  1.00  0.00     0.004 C 
ENDBRANCH  11  12
ENDBRANCH   5  11
TORSDOF 4
ENDMDL
MODEL 9
REMARK VINA RESULT:    -3.834     13.814     15.878
REMARK INTER + INTRA:          -4.830
REMARK INTER:                  -4.562
REMARK INTRA:                  -0.268
REMARK UNBOUND:                -0.212
REMARK SMILES C=CCc1ccc(O)c(OC)c1
REMARK SMILES IDX 9 1 7 2 6 3 5 4 4 5 12 6 10 7 11 8 8 9 3 11 2 12 1 13
REMARK H PARENT 8 10
REMARK Flexibility Score: inf
ROOT
ATOM      1  C   UNL     1      -0.213 -10.475 -41.627  1.00  0.00     0.160 A 
ATOM      2  C   UNL     1      -1.472 -11.040 -41.904  1.00  0.00     0.157 A 
ATOM      3  C   UNL     1      -2.616 -10.552 -41.263  1.00  0.00     0.050 A 
ATOM      4  C   UNL     1      -2.519  -9.502 -40.348  1.00  0.00     0.008 A 
ATOM      5  C   UNL     1      -1.275  -8.922 -40.068  1.00  0.00    -0.040 A 
ATOM      6  C   UNL     1      -0.124  -9.414 -40.703  1.00  0.00     0.054 A 
ENDROOT
BRANCH   1   7
ATOM      7  O   UNL     1       0.918 -10.988 -42.282  1.00  0.00    -0.493 OA
ATOM      8  C   UNL     1       1.919 -11.784 -41.658  1.00  0.00     0.278 C 
ENDBRANCH   1   7
BRANCH   2   9
ATOM      9  O   UNL     1      -1.606 -12.089 -42.813  1.00  0.00    -0.504 OA
ATOM     10  H   UNL     1      -0.828 -12.683 -43.071  1.00  0.00     0.293 HD
ENDBRANCH   2   9
BRANCH   5  11
ATOM     11  C   UNL     1      -1.165  -7.808 -39.060  1.00  0.00     0.062 C 
BRANCH  11  12
ATOM     12  C   UNL     1      -0.376  -8.252 -37.860  1.00  0.00    -0.030 C 
ATOM     13  C   UNL     1      -0.810  -9.228 -37.056  1.00  0.00     0.004 C 
ENDBRANCH  11  12
ENDBRANCH   5  11
TORSDOF 4
ENDMDL
