MODEL 1
REMARK VINA RESULT:     2.198      0.000      0.000
REMARK INTER + INTRA:           3.391
REMARK INTER:                   3.354
REMARK INTRA:                   0.038
REMARK UNBOUND:                 0.038
REMARK SMILES O=C([O-])CCCCCCCCC(=O)[O-]
REMARK SMILES IDX 7 1 6 2 5 3 4 4 2 5 1 6 3 7 8 8 9 9 10 10 11 11 12 12 13 13
REMARK SMILES IDX 14 14
REMARK H PARENT
REMARK Flexibility Score: inf
ROOT
ATOM      1  C   UNL     1      -4.751 -15.785   6.252  1.00  0.00     0.000 C 
ENDROOT
BRANCH   1   2
ATOM      2  C   UNL     1      -5.971 -16.033   7.157  1.00  0.00     0.000 C 
BRANCH   2   3
ATOM      3  C   UNL     1      -7.075 -14.960   7.075  1.00  0.00     0.006 C 
BRANCH   3   4
ATOM      4  C   UNL     1      -6.952 -14.006   5.876  1.00  0.00     0.053 C 
BRANCH   4   5
ATOM      5  C   UNL     1      -6.423 -12.665   6.279  1.00  0.00     0.041 C 
ATOM      6  O   UNL     1      -5.367 -12.577   6.959  1.00  0.00    -0.550 OA
ATOM      7  O   UNL     1      -7.079 -11.509   5.875  1.00  0.00    -0.550 OA
ENDBRANCH   4   5
ENDBRANCH   3   4
ENDBRANCH   2   3
ENDBRANCH   1   2
BRANCH   1   8
ATOM      8  C   UNL     1      -3.442 -16.319   6.851  1.00  0.00     0.000 C 
BRANCH   8   9
ATOM      9  C   UNL     1      -2.229 -15.577   6.268  1.00  0.00     0.000 C 
BRANCH   9  10
ATOM     10  C   UNL     1      -2.493 -14.077   6.063  1.00  0.00     0.006 C 
BRANCH  10  11
ATOM     11  C   UNL     1      -2.243 -13.255   7.335  1.00  0.00     0.053 C 
BRANCH  11  12
ATOM     12  C   UNL     1      -1.290 -13.971   8.239  1.00  0.00     0.041 C 
ATOM     13  O   UNL     1      -1.725 -14.732   9.143  1.00  0.00    -0.550 OA
ATOM     14  O   UNL     1       0.077 -13.760   8.114  1.00  0.00    -0.550 OA
ENDBRANCH  11  12
ENDBRANCH  10  11
ENDBRANCH   9  10
ENDBRANCH   8   9
ENDBRANCH   1   8
TORSDOF 9
ENDMDL
MODEL 2
REMARK VINA RESULT:     2.351      0.541      5.059
REMARK INTER + INTRA:           3.626
REMARK INTER:                   3.958
REMARK INTRA:                  -0.332
REMARK UNBOUND:                 0.038
REMARK SMILES O=C([O-])CCCCCCCCC(=O)[O-]
REMARK SMILES IDX 7 1 6 2 5 3 4 4 2 5 1 6 3 7 8 8 9 9 10 10 11 11 12 12 13 13
REMARK SMILES IDX 14 14
REMARK H PARENT
REMARK Flexibility Score: inf
ROOT
ATOM      1  C   UNL     1      -3.967 -16.679   7.128  1.00  0.00     0.000 C 
ENDROOT
BRANCH   1   2
ATOM      2  C   UNL     1      -2.690 -16.022   6.575  1.00  0.00     0.000 C 
BRANCH   2   3
ATOM      3  C   UNL     1      -2.814 -14.519   6.253  1.00  0.00     0.006 C 
BRANCH   3   4
ATOM      4  C   UNL     1      -1.563 -13.690   6.583  1.00  0.00     0.053 C 
BRANCH   4   5
ATOM      5  C   UNL     1      -1.066 -13.953   7.971  1.00  0.00     0.041 C 
ATOM      6  O   UNL     1      -1.869 -14.298   8.877  1.00  0.00    -0.550 OA
ATOM      7  O   UNL     1       0.289 -13.850   8.255  1.00  0.00    -0.550 OA
ENDBRANCH   4   5
ENDBRANCH   3   4
ENDBRANCH   2   3
ENDBRANCH   1   2
BRANCH   1   8
ATOM      8  C   UNL     1      -5.228 -16.297   6.338  1.00  0.00     0.000 C 
BRANCH   8   9
ATOM      9  C   UNL     1      -6.433 -16.127   7.277  1.00  0.00     0.000 C 
BRANCH   9  10
ATOM     10  C   UNL     1      -7.125 -14.765   7.112  1.00  0.00     0.006 C 
BRANCH  10  11
ATOM     11  C   UNL     1      -6.626 -13.994   5.882  1.00  0.00     0.053 C 
BRANCH  11  12
ATOM     12  C   UNL     1      -6.329 -12.572   6.244  1.00  0.00     0.041 C 
ATOM     13  O   UNL     1      -7.122 -11.654   5.906  1.00  0.00    -0.550 OA
ATOM     14  O   UNL     1      -5.154 -12.256   6.912  1.00  0.00    -0.550 OA
ENDBRANCH  11  12
ENDBRANCH  10  11
ENDBRANCH   9  10
ENDBRANCH   8   9
ENDBRANCH   1   8
TORSDOF 9
ENDMDL
MODEL 3
REMARK VINA RESULT:     2.856      2.115      3.022
REMARK INTER + INTRA:           4.396
REMARK INTER:                   4.927
REMARK INTRA:                  -0.531
REMARK UNBOUND:                 0.038
REMARK SMILES O=C([O-])CCCCCCCCC(=O)[O-]
REMARK SMILES IDX 7 1 6 2 5 3 4 4 2 5 1 6 3 7 8 8 9 9 10 10 11 11 12 12 13 13
REMARK SMILES IDX 14 14
REMARK H PARENT
REMARK Flexibility Score: inf
ROOT
ATOM      1  C   UNL     1      -3.353 -13.476   7.735  1.00  0.00     0.000 C 
ENDROOT
BRANCH   1   2
ATOM      2  C   UNL     1      -4.566 -12.683   7.218  1.00  0.00     0.000 C 
BRANCH   2   3
ATOM      3  C   UNL     1      -5.148 -13.177   5.878  1.00  0.00     0.006 C 
BRANCH   3   4
ATOM      4  C   UNL     1      -6.533 -13.835   5.986  1.00  0.00     0.053 C 
BRANCH   4   5
ATOM      5  C   UNL     1      -6.552 -14.935   7.003  1.00  0.00     0.041 C 
ATOM      6  O   UNL     1      -7.123 -14.764   8.112  1.00  0.00    -0.550 OA
ATOM      7  O   UNL     1      -5.968 -16.160   6.711  1.00  0.00    -0.550 OA
ENDBRANCH   4   5
ENDBRANCH   3   4
ENDBRANCH   2   3
ENDBRANCH   1   2
BRANCH   1   8
ATOM      8  C   UNL     1      -2.679 -14.319   6.643  1.00  0.00     0.000 C 
BRANCH   8   9
ATOM      9  C   UNL     1      -1.178 -14.488   6.927  1.00  0.00     0.000 C 
BRANCH   9  10
ATOM     10  C   UNL     1      -0.784 -14.007   8.332  1.00  0.00     0.006 C 
BRANCH  10  11
ATOM     11  C   UNL     1       0.703 -13.639   8.435  1.00  0.00     0.053 C 
BRANCH  11  12
ATOM     12  C   UNL     1       1.478 -14.766   9.040  1.00  0.00     0.041 C 
ATOM     13  O   UNL     1       1.911 -15.699   8.313  1.00  0.00    -0.550 OA
ATOM     14  O   UNL     1       1.681 -14.812  10.413  1.00  0.00    -0.550 OA
ENDBRANCH  11  12
ENDBRANCH  10  11
ENDBRANCH   9  10
ENDBRANCH   8   9
ENDBRANCH   1   8
TORSDOF 9
ENDMDL
MODEL 4
REMARK VINA RESULT:     3.131      1.162      4.497
REMARK INTER + INTRA:           4.815
REMARK INTER:                   3.815
REMARK INTRA:                   1.000
REMARK UNBOUND:                 0.038
REMARK SMILES O=C([O-])CCCCCCCCC(=O)[O-]
REMARK SMILES IDX 7 1 6 2 5 3 4 4 2 5 1 6 3 7 8 8 9 9 10 10 11 11 12 12 13 13
REMARK SMILES IDX 14 14
REMARK H PARENT
REMARK Flexibility Score: inf
ROOT
ATOM      1  C   UNL     1      -4.877 -15.964   6.356  1.00  0.00     0.000 C 
ENDROOT
BRANCH   1   2
ATOM      2  C   UNL     1      -3.679 -16.469   7.180  1.00  0.00     0.000 C 
BRANCH   2   3
ATOM      3  C   UNL     1      -2.293 -16.122   6.600  1.00  0.00     0.006 C 
BRANCH   3   4
ATOM      4  C   UNL     1      -2.027 -14.617   6.439  1.00  0.00     0.053 C 
BRANCH   4   5
ATOM      5  C   UNL     1      -1.512 -14.002   7.703  1.00  0.00     0.041 C 
ATOM      6  O   UNL     1      -2.312 -13.520   8.547  1.00  0.00    -0.550 OA
ATOM      7  O   UNL     1      -0.148 -13.991   7.965  1.00  0.00    -0.550 OA
ENDBRANCH   4   5
ENDBRANCH   3   4
ENDBRANCH   2   3
ENDBRANCH   1   2
BRANCH   1   8
ATOM      8  C   UNL     1      -6.222 -16.167   7.069  1.00  0.00     0.000 C 
BRANCH   8   9
ATOM      9  C   UNL     1      -6.894 -14.817   7.368  1.00  0.00     0.000 C 
BRANCH   9  10
ATOM     10  C   UNL     1      -6.895 -13.874   6.154  1.00  0.00     0.006 C 
BRANCH  10  11
ATOM     11  C   UNL     1      -6.368 -12.473   6.495  1.00  0.00     0.053 C 
BRANCH  11  12
ATOM     12  C   UNL     1      -4.876 -12.491   6.611  1.00  0.00     0.041 C 
ATOM     13  O   UNL     1      -4.193 -13.256   5.879  1.00  0.00    -0.550 OA
ATOM     14  O   UNL     1      -4.243 -11.700   7.560  1.00  0.00    -0.550 OA
ENDBRANCH  11  12
ENDBRANCH  10  11
ENDBRANCH   9  10
ENDBRANCH   8   9
ENDBRANCH   1   8
TORSDOF 9
ENDMDL
MODEL 5
REMARK VINA RESULT:     3.140      2.220      5.105
REMARK INTER + INTRA:           4.829
REMARK INTER:                   5.101
REMARK INTRA:                  -0.272
REMARK UNBOUND:                 0.038
REMARK SMILES O=C([O-])CCCCCCCCC(=O)[O-]
REMARK SMILES IDX 7 1 6 2 5 3 4 4 2 5 1 6 3 7 8 8 9 9 10 10 11 11 12 12 13 13
REMARK SMILES IDX 14 14
REMARK H PARENT
REMARK Flexibility Score: inf
ROOT
ATOM      1  C   UNL     1      -4.983 -12.686   7.453  1.00  0.00     0.000 C 
ENDROOT
BRANCH   1   2
ATOM      2  C   UNL     1      -3.472 -12.763   7.172  1.00  0.00     0.000 C 
BRANCH   2   3
ATOM      3  C   UNL     1      -3.057 -13.791   6.100  1.00  0.00     0.006 C 
BRANCH   3   4
ATOM      4  C   UNL     1      -1.674 -14.424   6.323  1.00  0.00     0.053 C 
BRANCH   4   5
ATOM      5  C   UNL     1      -1.230 -14.310   7.749  1.00  0.00     0.041 C 
ATOM      6  O   UNL     1      -1.951 -14.763   8.676  1.00  0.00    -0.550 OA
ATOM      7  O   UNL     1      -0.002 -13.734   8.050  1.00  0.00    -0.550 OA
ENDBRANCH   4   5
ENDBRANCH   3   4
ENDBRANCH   2   3
ENDBRANCH   1   2
BRANCH   1   8
ATOM      8  C   UNL     1      -5.797 -12.239   6.229  1.00  0.00     0.000 C 
BRANCH   8   9
ATOM      9  C   UNL     1      -6.982 -13.186   5.983  1.00  0.00     0.000 C 
BRANCH   9  10
ATOM     10  C   UNL     1      -6.852 -14.510   6.752  1.00  0.00     0.006 C 
BRANCH  10  11
ATOM     11  C   UNL     1      -6.103 -15.586   5.953  1.00  0.00     0.053 C 
BRANCH  11  12
ATOM     12  C   UNL     1      -5.557 -16.632   6.873  1.00  0.00     0.041 C 
ATOM     13  O   UNL     1      -6.338 -17.381   7.515  1.00  0.00    -0.550 OA
ATOM     14  O   UNL     1      -4.185 -16.747   7.057  1.00  0.00    -0.550 OA
ENDBRANCH  11  12
ENDBRANCH  10  11
ENDBRANCH   9  10
ENDBRANCH   8   9
ENDBRANCH   1   8
TORSDOF 9
ENDMDL
MODEL 6
REMARK VINA RESULT:     3.248      1.448      2.039
REMARK INTER + INTRA:           4.994
REMARK INTER:                   4.959
REMARK INTRA:                   0.035
REMARK UNBOUND:                 0.038
REMARK SMILES O=C([O-])CCCCCCCCC(=O)[O-]
REMARK SMILES IDX 7 1 6 2 5 3 4 4 2 5 1 6 3 7 8 8 9 9 10 10 11 11 12 12 13 13
REMARK SMILES IDX 14 14
REMARK H PARENT
REMARK Flexibility Score: inf
ROOT
ATOM      1  C   UNL     1      -6.295 -16.096   7.363  1.00  0.00     0.000 C 
ENDROOT
BRANCH   1   2
ATOM      2  C   UNL     1      -7.055 -14.758   7.317  1.00  0.00     0.000 C 
BRANCH   2   3
ATOM      3  C   UNL     1      -6.646 -13.813   6.169  1.00  0.00     0.006 C 
BRANCH   3   4
ATOM      4  C   UNL     1      -5.990 -12.500   6.627  1.00  0.00     0.053 C 
BRANCH   4   5
ATOM      5  C   UNL     1      -4.503 -12.627   6.742  1.00  0.00     0.041 C 
ATOM      6  O   UNL     1      -3.851 -13.267   5.875  1.00  0.00    -0.550 OA
ATOM      7  O   UNL     1      -3.832 -12.011   7.791  1.00  0.00    -0.550 OA
ENDBRANCH   4   5
ENDBRANCH   3   4
ENDBRANCH   2   3
ENDBRANCH   1   2
BRANCH   1   8
ATOM      8  C   UNL     1      -5.131 -16.158   6.363  1.00  0.00     0.000 C 
BRANCH   8   9
ATOM      9  C   UNL     1      -3.839 -16.622   7.053  1.00  0.00     0.000 C 
BRANCH   9  10
ATOM     10  C   UNL     1      -2.648 -15.694   6.766  1.00  0.00     0.006 C 
BRANCH  10  11
ATOM     11  C   UNL     1      -2.122 -15.001   8.031  1.00  0.00     0.053 C 
BRANCH  11  12
ATOM     12  C   UNL     1      -0.971 -14.107   7.694  1.00  0.00     0.041 C 
ATOM     13  O   UNL     1      -1.002 -13.398   6.654  1.00  0.00    -0.550 OA
ATOM     14  O   UNL     1       0.158 -14.094   8.503  1.00  0.00    -0.550 OA
ENDBRANCH  11  12
ENDBRANCH  10  11
ENDBRANCH   9  10
ENDBRANCH   8   9
ENDBRANCH   1   8
TORSDOF 9
ENDMDL
MODEL 7
REMARK VINA RESULT:     3.356      2.338      3.029
REMARK INTER + INTRA:           5.159
REMARK INTER:                   5.885
REMARK INTRA:                  -0.725
REMARK UNBOUND:                 0.038
REMARK SMILES O=C([O-])CCCCCCCCC(=O)[O-]
REMARK SMILES IDX 7 1 6 2 5 3 4 4 2 5 1 6 3 7 8 8 9 9 10 10 11 11 12 12 13 13
REMARK SMILES IDX 14 14
REMARK H PARENT
REMARK Flexibility Score: inf
ROOT
ATOM      1  C   UNL     1      -4.970 -12.274   7.023  1.00  0.00     0.000 C 
ENDROOT
BRANCH   1   2
ATOM      2  C   UNL     1      -6.110 -12.975   6.262  1.00  0.00     0.000 C 
BRANCH   2   3
ATOM      3  C   UNL     1      -6.604 -14.292   6.893  1.00  0.00     0.006 C 
BRANCH   3   4
ATOM      4  C   UNL     1      -6.288 -15.552   6.071  1.00  0.00     0.053 C 
BRANCH   4   5
ATOM      5  C   UNL     1      -5.698 -16.639   6.916  1.00  0.00     0.041 C 
ATOM      6  O   UNL     1      -4.449 -16.744   7.033  1.00  0.00    -0.550 OA
ATOM      7  O   UNL     1      -6.530 -17.515   7.601  1.00  0.00    -0.550 OA
ENDBRANCH   4   5
ENDBRANCH   3   4
ENDBRANCH   2   3
ENDBRANCH   1   2
BRANCH   1   8
ATOM      8  C   UNL     1      -3.783 -13.203   7.312  1.00  0.00     0.000 C 
BRANCH   8   9
ATOM      9  C   UNL     1      -3.133 -13.686   6.006  1.00  0.00     0.000 C 
BRANCH   9  10
ATOM     10  C   UNL     1      -1.886 -14.551   6.249  1.00  0.00     0.006 C 
BRANCH  10  11
ATOM     11  C   UNL     1      -1.606 -14.778   7.741  1.00  0.00     0.053 C 
BRANCH  11  12
ATOM     12  C   UNL     1      -0.349 -14.075   8.147  1.00  0.00     0.041 C 
ATOM     13  O   UNL     1      -0.291 -12.817   8.129  1.00  0.00    -0.550 OA
ATOM     14  O   UNL     1       0.775 -14.811   8.500  1.00  0.00    -0.550 OA
ENDBRANCH  11  12
ENDBRANCH  10  11
ENDBRANCH   9  10
ENDBRANCH   8   9
ENDBRANCH   1   8
TORSDOF 9
ENDMDL
MODEL 8
REMARK VINA RESULT:     3.444      2.232      3.616
REMARK INTER + INTRA:           5.294
REMARK INTER:                   5.295
REMARK INTRA:                  -0.001
REMARK UNBOUND:                 0.038
REMARK SMILES O=C([O-])CCCCCCCCC(=O)[O-]
REMARK SMILES IDX 7 1 6 2 5 3 4 4 2 5 1 6 3 7 8 8 9 9 10 10 11 11 12 12 13 13
REMARK SMILES IDX 14 14
REMARK H PARENT
REMARK Flexibility Score: inf
ROOT
ATOM      1  C   UNL     1      -6.742 -13.989   6.168  1.00  0.00     0.000 C 
ENDROOT
BRANCH   1   2
ATOM      2  C   UNL     1      -6.642 -14.963   7.357  1.00  0.00     0.000 C 
BRANCH   2   3
ATOM      3  C   UNL     1      -6.019 -16.334   7.028  1.00  0.00     0.006 C 
BRANCH   3   4
ATOM      4  C   UNL     1      -4.659 -16.264   6.314  1.00  0.00     0.053 C 
BRANCH   4   5
ATOM      5  C   UNL     1      -3.635 -17.135   6.972  1.00  0.00     0.041 C 
ATOM      6  O   UNL     1      -3.350 -16.973   8.188  1.00  0.00    -0.550 OA
ATOM      7  O   UNL     1      -3.020 -18.150   6.251  1.00  0.00    -0.550 OA
ENDBRANCH   4   5
ENDBRANCH   3   4
ENDBRANCH   2   3
ENDBRANCH   1   2
BRANCH   1   8
ATOM      8  C   UNL     1      -5.807 -12.779   6.306  1.00  0.00     0.000 C 
BRANCH   8   9
ATOM      9  C   UNL     1      -4.338 -13.224   6.370  1.00  0.00     0.000 C 
BRANCH   9  10
ATOM     10  C   UNL     1      -3.583 -12.609   7.558  1.00  0.00     0.006 C 
BRANCH  10  11
ATOM     11  C   UNL     1      -2.735 -13.639   8.317  1.00  0.00     0.053 C 
BRANCH  11  12
ATOM     12  C   UNL     1      -1.536 -14.023   7.508  1.00  0.00     0.041 C 
ATOM     13  O   UNL     1      -0.387 -13.985   8.021  1.00  0.00    -0.550 OA
ATOM     14  O   UNL     1      -1.683 -14.377   6.173  1.00  0.00    -0.550 OA
ENDBRANCH  11  12
ENDBRANCH  10  11
ENDBRANCH   9  10
ENDBRANCH   8   9
ENDBRANCH   1   8
TORSDOF 9
ENDMDL
