MODEL 1
REMARK VINA RESULT:    -5.291      0.000      0.000
REMARK INTER + INTRA:          -6.128
REMARK INTER:                  -5.910
REMARK INTRA:                  -0.219
REMARK UNBOUND:                -0.219
REMARK SMILES O=C([O-])c1ccccc1C(=O)[O-]
REMARK SMILES IDX 4 1 9 2 5 3 8 4 6 5 7 6 2 7 1 8 3 9 10 10 11 11 12 12
REMARK H PARENT
REMARK Flexibility Score: inf
ROOT
ATOM      1  C   UNL     1     -18.590   9.095  30.399  1.00  0.00     0.006 A 
ATOM      2  C   UNL     1     -18.276   9.377  31.759  1.00  0.00     0.006 A 
ATOM      3  C   UNL     1     -19.908   9.292  29.947  1.00  0.00     0.010 A 
ATOM      4  C   UNL     1     -19.276   9.906  32.595  1.00  0.00     0.010 A 
ATOM      5  C   UNL     1     -20.889   9.795  30.801  1.00  0.00     0.001 A 
ATOM      6  C   UNL     1     -20.571  10.112  32.119  1.00  0.00     0.001 A 
ENDROOT
BRANCH   1   7
ATOM      7  C   UNL     1     -17.570   8.670  29.414  1.00  0.00     0.072 C 
ATOM      8  O   UNL     1     -17.508   7.468  29.044  1.00  0.00    -0.545 OA
ATOM      9  O   UNL     1     -16.713   9.599  28.836  1.00  0.00    -0.545 OA
ENDBRANCH   1   7
BRANCH   2  10
ATOM     10  C   UNL     1     -16.958   9.075  32.360  1.00  0.00     0.072 C 
ATOM     11  O   UNL     1     -16.739   7.962  32.909  1.00  0.00    -0.545 OA
ATOM     12  O   UNL     1     -15.964  10.047  32.384  1.00  0.00    -0.545 OA
ENDBRANCH   2  10
TORSDOF 2
ENDMDL
MODEL 2
REMARK VINA RESULT:    -4.926     10.511     11.868
REMARK INTER + INTRA:          -5.720
REMARK INTER:                  -5.496
REMARK INTRA:                  -0.225
REMARK UNBOUND:                -0.219
REMARK SMILES O=C([O-])c1ccccc1C(=O)[O-]
REMARK SMILES IDX 4 1 9 2 5 3 8 4 6 5 7 6 2 7 1 8 3 9 10 10 11 11 12 12
REMARK H PARENT
REMARK Flexibility Score: inf
ROOT
ATOM      1  C   UNL     1     -17.605  -0.607  36.376  1.00  0.00     0.006 A 
ATOM      2  C   UNL     1     -17.158  -1.540  35.399  1.00  0.00     0.006 A 
ATOM      3  C   UNL     1     -17.397  -0.891  37.739  1.00  0.00     0.010 A 
ATOM      4  C   UNL     1     -16.465  -2.690  35.818  1.00  0.00     0.010 A 
ATOM      5  C   UNL     1     -16.727  -2.049  38.132  1.00  0.00     0.001 A 
ATOM      6  C   UNL     1     -16.252  -2.941  37.173  1.00  0.00     0.001 A 
ENDROOT
BRANCH   1   7
ATOM      7  C   UNL     1     -18.217   0.694  36.019  1.00  0.00     0.072 C 
ATOM      8  O   UNL     1     -19.470   0.813  35.974  1.00  0.00    -0.545 OA
ATOM      9  O   UNL     1     -17.424   1.813  35.796  1.00  0.00    -0.545 OA
ENDBRANCH   1   7
BRANCH   2  10
ATOM     10  C   UNL     1     -17.450  -1.395  33.954  1.00  0.00     0.072 C 
ATOM     11  O   UNL     1     -16.605  -0.882  33.174  1.00  0.00    -0.545 OA
ATOM     12  O   UNL     1     -18.694  -1.764  33.454  1.00  0.00    -0.545 OA
ENDBRANCH   2  10
TORSDOF 2
ENDMDL
MODEL 3
REMARK VINA RESULT:    -4.922     10.488     11.594
REMARK INTER + INTRA:          -5.716
REMARK INTER:                  -5.492
REMARK INTRA:                  -0.224
REMARK UNBOUND:                -0.219
REMARK SMILES O=C([O-])c1ccccc1C(=O)[O-]
REMARK SMILES IDX 4 1 9 2 5 3 8 4 6 5 7 6 2 7 1 8 3 9 10 10 11 11 12 12
REMARK H PARENT
REMARK Flexibility Score: inf
ROOT
ATOM      1  C   UNL     1     -17.187  -1.503  35.410  1.00  0.00     0.006 A 
ATOM      2  C   UNL     1     -17.620  -0.569  36.393  1.00  0.00     0.006 A 
ATOM      3  C   UNL     1     -16.504  -2.663  35.821  1.00  0.00     0.010 A 
ATOM      4  C   UNL     1     -17.409  -0.862  37.753  1.00  0.00     0.010 A 
ATOM      5  C   UNL     1     -16.286  -2.921  37.174  1.00  0.00     0.001 A 
ATOM      6  C   UNL     1     -16.748  -2.028  38.139  1.00  0.00     0.001 A 
ENDROOT
BRANCH   1   7
ATOM      7  C   UNL     1     -17.489  -1.345  33.969  1.00  0.00     0.072 C 
ATOM      8  O   UNL     1     -16.625  -0.864  33.189  1.00  0.00    -0.545 OA
ATOM      9  O   UNL     1     -18.700  -1.785  33.446  1.00  0.00    -0.545 OA
ENDBRANCH   1   7
BRANCH   2  10
ATOM     10  C   UNL     1     -18.224   0.738  36.051  1.00  0.00     0.072 C 
ATOM     11  O   UNL     1     -19.473   0.864  35.945  1.00  0.00    -0.545 OA
ATOM     12  O   UNL     1     -17.410   1.831  35.775  1.00  0.00    -0.545 OA
ENDBRANCH   2  10
TORSDOF 2
ENDMDL
MODEL 4
REMARK VINA RESULT:    -4.554      1.619      2.284
REMARK INTER + INTRA:          -5.306
REMARK INTER:                  -5.262
REMARK INTRA:                  -0.043
REMARK UNBOUND:                -0.219
REMARK SMILES O=C([O-])c1ccccc1C(=O)[O-]
REMARK SMILES IDX 4 1 9 2 5 3 8 4 6 5 7 6 2 7 1 8 3 9 10 10 11 11 12 12
REMARK H PARENT
REMARK Flexibility Score: inf
ROOT
ATOM      1  C   UNL     1     -17.459   9.385  28.952  1.00  0.00     0.006 A 
ATOM      2  C   UNL     1     -18.219   9.188  30.140  1.00  0.00     0.006 A 
ATOM      3  C   UNL     1     -18.129   9.704  27.756  1.00  0.00     0.010 A 
ATOM      4  C   UNL     1     -19.612   9.380  30.099  1.00  0.00     0.010 A 
ATOM      5  C   UNL     1     -19.514   9.867  27.735  1.00  0.00     0.001 A 
ATOM      6  C   UNL     1     -20.253   9.717  28.907  1.00  0.00     0.001 A 
ENDROOT
BRANCH   1   7
ATOM      7  C   UNL     1     -15.979   9.341  28.933  1.00  0.00     0.072 C 
ATOM      8  O   UNL     1     -15.377   8.637  28.080  1.00  0.00    -0.545 OA
ATOM      9  O   UNL     1     -15.236  10.125  29.808  1.00  0.00    -0.545 OA
ENDBRANCH   1   7
BRANCH   2  10
ATOM     10  C   UNL     1     -17.621   8.720  31.410  1.00  0.00     0.072 C 
ATOM     11  O   UNL     1     -17.265   7.519  31.551  1.00  0.00    -0.545 OA
ATOM     12  O   UNL     1     -17.507   9.588  32.489  1.00  0.00    -0.545 OA
ENDBRANCH   2  10
TORSDOF 2
ENDMDL
MODEL 5
REMARK VINA RESULT:    -4.528     11.576     12.575
REMARK INTER + INTRA:          -5.276
REMARK INTER:                  -5.056
REMARK INTRA:                  -0.220
REMARK UNBOUND:                -0.219
REMARK SMILES O=C([O-])c1ccccc1C(=O)[O-]
REMARK SMILES IDX 4 1 9 2 5 3 8 4 6 5 7 6 2 7 1 8 3 9 10 10 11 11 12 12
REMARK H PARENT
REMARK Flexibility Score: inf
ROOT
ATOM      1  C   UNL     1     -16.852  -2.617  33.596  1.00  0.00     0.006 A 
ATOM      2  C   UNL     1     -16.095  -2.707  32.394  1.00  0.00     0.006 A 
ATOM      3  C   UNL     1     -18.180  -2.154  33.534  1.00  0.00     0.010 A 
ATOM      4  C   UNL     1     -16.714  -2.391  31.171  1.00  0.00     0.010 A 
ATOM      5  C   UNL     1     -18.766  -1.825  32.312  1.00  0.00     0.001 A 
ATOM      6  C   UNL     1     -18.038  -1.955  31.132  1.00  0.00     0.001 A 
ENDROOT
BRANCH   1   7
ATOM      7  C   UNL     1     -16.328  -3.061  34.908  1.00  0.00     0.072 C 
ATOM      8  O   UNL     1     -16.322  -4.284  35.207  1.00  0.00    -0.545 OA
ATOM      9  O   UNL     1     -15.774  -2.146  35.796  1.00  0.00    -0.545 OA
ENDBRANCH   1   7
BRANCH   2  10
ATOM     10  C   UNL     1     -14.655  -3.051  32.374  1.00  0.00     0.072 C 
ATOM     11  O   UNL     1     -14.275  -4.218  32.087  1.00  0.00    -0.545 OA
ATOM     12  O   UNL     1     -13.706  -2.103  32.740  1.00  0.00    -0.545 OA
ENDBRANCH   2  10
TORSDOF 2
ENDMDL
MODEL 6
REMARK VINA RESULT:    -4.515      2.100      3.296
REMARK INTER + INTRA:          -5.262
REMARK INTER:                  -5.319
REMARK INTRA:                   0.057
REMARK UNBOUND:                -0.219
REMARK SMILES O=C([O-])c1ccccc1C(=O)[O-]
REMARK SMILES IDX 4 1 9 2 5 3 8 4 6 5 7 6 2 7 1 8 3 9 10 10 11 11 12 12
REMARK H PARENT
REMARK Flexibility Score: inf
ROOT
ATOM      1  C   UNL     1     -18.675   9.355  30.396  1.00  0.00     0.006 A 
ATOM      2  C   UNL     1     -17.371   8.862  30.110  1.00  0.00     0.006 A 
ATOM      3  C   UNL     1     -18.978   9.767  31.708  1.00  0.00     0.010 A 
ATOM      4  C   UNL     1     -16.402   8.859  31.130  1.00  0.00     0.010 A 
ATOM      5  C   UNL     1     -18.007   9.734  32.709  1.00  0.00     0.001 A 
ATOM      6  C   UNL     1     -16.719   9.292  32.418  1.00  0.00     0.001 A 
ENDROOT
BRANCH   1   7
ATOM      7  C   UNL     1     -19.713   9.525  29.354  1.00  0.00     0.072 C 
ATOM      8  O   UNL     1     -20.907   9.200  29.589  1.00  0.00    -0.545 OA
ATOM      9  O   UNL     1     -19.400  10.105  28.130  1.00  0.00    -0.545 OA
ENDBRANCH   1   7
BRANCH   2  10
ATOM     10  C   UNL     1     -17.000   8.281  28.799  1.00  0.00     0.072 C 
ATOM     11  O   UNL     1     -17.453   7.163  28.438  1.00  0.00    -0.545 OA
ATOM     12  O   UNL     1     -16.088   8.937  27.980  1.00  0.00    -0.545 OA
ENDBRANCH   2  10
TORSDOF 2
ENDMDL
MODEL 7
REMARK VINA RESULT:    -4.515     12.454     13.697
REMARK INTER + INTRA:          -5.262
REMARK INTER:                  -5.051
REMARK INTRA:                  -0.211
REMARK UNBOUND:                -0.219
REMARK SMILES O=C([O-])c1ccccc1C(=O)[O-]
REMARK SMILES IDX 4 1 9 2 5 3 8 4 6 5 7 6 2 7 1 8 3 9 10 10 11 11 12 12
REMARK H PARENT
REMARK Flexibility Score: inf
ROOT
ATOM      1  C   UNL     1     -24.515  -0.383  24.118  1.00  0.00     0.006 A 
ATOM      2  C   UNL     1     -23.731  -1.026  25.118  1.00  0.00     0.006 A 
ATOM      3  C   UNL     1     -23.937   0.648  23.354  1.00  0.00     0.010 A 
ATOM      4  C   UNL     1     -22.383  -0.657  25.270  1.00  0.00     0.010 A 
ATOM      5  C   UNL     1     -22.604   1.013  23.539  1.00  0.00     0.001 A 
ATOM      6  C   UNL     1     -21.825   0.354  24.488  1.00  0.00     0.001 A 
ENDROOT
BRANCH   1   7
ATOM      7  C   UNL     1     -25.898  -0.803  23.794  1.00  0.00     0.072 C 
ATOM      8  O   UNL     1     -26.109  -1.624  22.863  1.00  0.00    -0.545 OA
ATOM      9  O   UNL     1     -26.972  -0.350  24.550  1.00  0.00    -0.545 OA
ENDBRANCH   1   7
BRANCH   2  10
ATOM     10  C   UNL     1     -24.288  -2.024  26.059  1.00  0.00     0.072 C 
ATOM     11  O   UNL     1     -24.627  -1.690  27.227  1.00  0.00    -0.545 OA
ATOM     12  O   UNL     1     -24.380  -3.359  25.686  1.00  0.00    -0.545 OA
ENDBRANCH   2  10
TORSDOF 2
ENDMDL
MODEL 8
REMARK VINA RESULT:    -4.511     11.559     12.373
REMARK INTER + INTRA:          -5.257
REMARK INTER:                  -5.051
REMARK INTRA:                  -0.206
REMARK UNBOUND:                -0.219
REMARK SMILES O=C([O-])c1ccccc1C(=O)[O-]
REMARK SMILES IDX 4 1 9 2 5 3 8 4 6 5 7 6 2 7 1 8 3 9 10 10 11 11 12 12
REMARK H PARENT
REMARK Flexibility Score: inf
ROOT
ATOM      1  C   UNL     1     -16.041  -2.682  32.425  1.00  0.00     0.006 A 
ATOM      2  C   UNL     1     -16.823  -2.576  33.610  1.00  0.00     0.006 A 
ATOM      3  C   UNL     1     -16.633  -2.377  31.186  1.00  0.00     0.010 A 
ATOM      4  C   UNL     1     -18.146  -2.109  33.516  1.00  0.00     0.010 A 
ATOM      5  C   UNL     1     -17.955  -1.937  31.114  1.00  0.00     0.001 A 
ATOM      6  C   UNL     1     -18.706  -1.792  32.278  1.00  0.00     0.001 A 
ENDROOT
BRANCH   1   7
ATOM      7  C   UNL     1     -14.602  -3.030  32.445  1.00  0.00     0.072 C 
ATOM      8  O   UNL     1     -13.743  -2.158  32.740  1.00  0.00    -0.545 OA
ATOM      9  O   UNL     1     -14.185  -4.334  32.206  1.00  0.00    -0.545 OA
ENDBRANCH   1   7
BRANCH   2  10
ATOM     10  C   UNL     1     -16.332  -3.004  34.940  1.00  0.00     0.072 C 
ATOM     11  O   UNL     1     -16.340  -4.220  35.270  1.00  0.00    -0.545 OA
ATOM     12  O   UNL     1     -15.919  -2.055  35.868  1.00  0.00    -0.545 OA
ENDBRANCH   2  10
TORSDOF 2
ENDMDL
MODEL 9
REMARK VINA RESULT:    -4.491     12.501     13.976
REMARK INTER + INTRA:          -5.235
REMARK INTER:                  -5.022
REMARK INTRA:                  -0.213
REMARK UNBOUND:                -0.219
REMARK SMILES O=C([O-])c1ccccc1C(=O)[O-]
REMARK SMILES IDX 4 1 9 2 5 3 8 4 6 5 7 6 2 7 1 8 3 9 10 10 11 11 12 12
REMARK H PARENT
REMARK Flexibility Score: inf
ROOT
ATOM      1  C   UNL     1     -23.741  -1.068  25.101  1.00  0.00     0.006 A 
ATOM      2  C   UNL     1     -24.528  -0.439  24.097  1.00  0.00     0.006 A 
ATOM      3  C   UNL     1     -22.400  -0.673  25.267  1.00  0.00     0.010 A 
ATOM      4  C   UNL     1     -23.965   0.606  23.342  1.00  0.00     0.010 A 
ATOM      5  C   UNL     1     -21.856   0.350  24.491  1.00  0.00     0.001 A 
ATOM      6  C   UNL     1     -22.640   0.996  23.538  1.00  0.00     0.001 A 
ENDROOT
BRANCH   1   7
ATOM      7  C   UNL     1     -24.292  -2.077  26.034  1.00  0.00     0.072 C 
ATOM      8  O   UNL     1     -24.743  -1.723  27.156  1.00  0.00    -0.545 OA
ATOM      9  O   UNL     1     -24.381  -3.414  25.662  1.00  0.00    -0.545 OA
ENDBRANCH   1   7
BRANCH   2  10
ATOM     10  C   UNL     1     -25.901  -0.878  23.757  1.00  0.00     0.072 C 
ATOM     11  O   UNL     1     -26.111  -1.633  22.770  1.00  0.00    -0.545 OA
ATOM     12  O   UNL     1     -26.985  -0.404  24.486  1.00  0.00    -0.545 OA
ENDBRANCH   2  10
TORSDOF 2
ENDMDL
