MODEL 1
REMARK VINA RESULT:    -3.799      0.000      0.000
REMARK INTER + INTRA:          -4.465
REMARK INTER:                  -4.244
REMARK INTRA:                  -0.222
REMARK UNBOUND:                -0.222
REMARK SMILES O=C([O-])C=Cc1ccccc1
REMARK SMILES IDX 4 1 5 2 2 3 1 4 3 5 6 6 7 7 11 8 8 9 10 10 9 11
REMARK H PARENT
REMARK Flexibility Score: inf
ROOT
ATOM      1  C   UNL     1       8.837  18.527  -9.119  1.00  0.00     0.025 C 
ATOM      2  C   UNL     1       8.637  17.807  -8.005  1.00  0.00     0.010 C 
ENDROOT
BRANCH   1   3
ATOM      3  C   UNL     1       7.793  19.252  -9.869  1.00  0.00     0.064 C 
ATOM      4  O   UNL     1       7.412  20.380  -9.459  1.00  0.00    -0.545 OA
ATOM      5  O   UNL     1       7.272  18.752 -11.055  1.00  0.00    -0.545 OA
ENDBRANCH   1   3
BRANCH   2   6
ATOM      6  C   UNL     1       7.382  17.769  -7.226  1.00  0.00    -0.026 A 
ATOM      7  C   UNL     1       6.333  16.900  -7.577  1.00  0.00     0.008 A 
ATOM      8  C   UNL     1       7.192  18.688  -6.182  1.00  0.00     0.008 A 
ATOM      9  C   UNL     1       5.133  16.917  -6.858  1.00  0.00     0.001 A 
ATOM     10  C   UNL     1       5.991  18.702  -5.465  1.00  0.00     0.001 A 
ATOM     11  C   UNL     1       4.965  17.814  -5.800  1.00  0.00     0.000 A 
ENDBRANCH   2   6
TORSDOF 2
ENDMDL
MODEL 2
REMARK VINA RESULT:    -3.761     17.023     18.302
REMARK INTER + INTRA:          -4.423
REMARK INTER:                  -4.156
REMARK INTRA:                  -0.267
REMARK UNBOUND:                -0.222
REMARK SMILES O=C([O-])C=Cc1ccccc1
REMARK SMILES IDX 4 1 5 2 2 3 1 4 3 5 6 6 7 7 11 8 8 9 10 10 9 11
REMARK H PARENT
REMARK Flexibility Score: inf
ROOT
ATOM      1  C   UNL     1      -2.986  31.004 -17.909  1.00  0.00     0.025 C 
ATOM      2  C   UNL     1      -2.243  32.032 -17.470  1.00  0.00     0.010 C 
ENDROOT
BRANCH   1   3
ATOM      3  C   UNL     1      -3.443  29.867 -17.089  1.00  0.00     0.064 C 
ATOM      4  O   UNL     1      -2.770  28.802 -17.083  1.00  0.00    -0.545 OA
ATOM      5  O   UNL     1      -4.558  29.966 -16.267  1.00  0.00    -0.545 OA
ENDBRANCH   1   3
BRANCH   2   6
ATOM      6  C   UNL     1      -1.913  32.305 -16.056  1.00  0.00    -0.026 A 
ATOM      7  C   UNL     1      -0.729  31.817 -15.476  1.00  0.00     0.008 A 
ATOM      8  C   UNL     1      -2.847  32.974 -15.250  1.00  0.00     0.008 A 
ATOM      9  C   UNL     1      -0.462  32.043 -14.122  1.00  0.00     0.001 A 
ATOM     10  C   UNL     1      -2.577  33.198 -13.896  1.00  0.00     0.001 A 
ATOM     11  C   UNL     1      -1.383  32.737 -13.334  1.00  0.00     0.000 A 
ENDBRANCH   2   6
TORSDOF 2
ENDMDL
MODEL 3
REMARK VINA RESULT:    -3.751     17.070     18.349
REMARK INTER + INTRA:          -4.411
REMARK INTER:                  -4.145
REMARK INTRA:                  -0.266
REMARK UNBOUND:                -0.222
REMARK SMILES O=C([O-])C=Cc1ccccc1
REMARK SMILES IDX 4 1 5 2 2 3 1 4 3 5 6 6 7 7 11 8 8 9 10 10 9 11
REMARK H PARENT
REMARK Flexibility Score: inf
ROOT
ATOM      1  C   UNL     1      -2.902  31.111 -18.024  1.00  0.00     0.025 C 
ATOM      2  C   UNL     1      -2.209  32.122 -17.479  1.00  0.00     0.010 C 
ENDROOT
BRANCH   1   3
ATOM      3  C   UNL     1      -3.372  29.911 -17.307  1.00  0.00     0.064 C 
ATOM      4  O   UNL     1      -2.708  28.844 -17.390  1.00  0.00    -0.545 OA
ATOM      5  O   UNL     1      -4.491  29.948 -16.485  1.00  0.00    -0.545 OA
ENDBRANCH   1   3
BRANCH   2   6
ATOM      6  C   UNL     1      -1.960  32.306 -16.034  1.00  0.00    -0.026 A 
ATOM      7  C   UNL     1      -2.876  32.994 -15.218  1.00  0.00     0.008 A 
ATOM      8  C   UNL     1      -0.740  31.879 -15.487  1.00  0.00     0.008 A 
ATOM      9  C   UNL     1      -2.596  33.203 -13.864  1.00  0.00     0.001 A 
ATOM     10  C   UNL     1      -0.463  32.089 -14.132  1.00  0.00     0.001 A 
ATOM     11  C   UNL     1      -1.392  32.746 -13.321  1.00  0.00     0.000 A 
ENDBRANCH   2   6
TORSDOF 2
ENDMDL
MODEL 4
REMARK VINA RESULT:    -3.726     14.579     15.370
REMARK INTER + INTRA:          -4.383
REMARK INTER:                  -4.134
REMARK INTRA:                  -0.249
REMARK UNBOUND:                -0.222
REMARK SMILES O=C([O-])C=Cc1ccccc1
REMARK SMILES IDX 4 1 5 2 2 3 1 4 3 5 6 6 7 7 11 8 8 9 10 10 9 11
REMARK H PARENT
REMARK Flexibility Score: inf
ROOT
ATOM      1  C   UNL     1      -7.229  21.729  -7.469  1.00  0.00     0.025 C 
ATOM      2  C   UNL     1      -6.554  20.903  -8.283  1.00  0.00     0.010 C 
ENDROOT
BRANCH   1   3
ATOM      3  C   UNL     1      -8.680  21.679  -7.210  1.00  0.00     0.064 C 
ATOM      4  O   UNL     1      -9.090  21.346  -6.067  1.00  0.00    -0.545 OA
ATOM      5  O   UNL     1      -9.604  22.060  -8.175  1.00  0.00    -0.545 OA
ENDBRANCH   1   3
BRANCH   2   6
ATOM      6  C   UNL     1      -7.106  19.685  -8.913  1.00  0.00    -0.026 A 
ATOM      7  C   UNL     1      -7.225  18.482  -8.194  1.00  0.00     0.008 A 
ATOM      8  C   UNL     1      -7.419  19.701 -10.281  1.00  0.00     0.008 A 
ATOM      9  C   UNL     1      -7.700  17.328  -8.825  1.00  0.00     0.001 A 
ATOM     10  C   UNL     1      -7.894  18.545 -10.909  1.00  0.00     0.001 A 
ATOM     11  C   UNL     1      -8.039  17.361 -10.180  1.00  0.00     0.000 A 
ENDBRANCH   2   6
TORSDOF 2
ENDMDL
MODEL 5
REMARK VINA RESULT:    -3.714      1.396      2.361
REMARK INTER + INTRA:          -4.370
REMARK INTER:                  -4.161
REMARK INTRA:                  -0.210
REMARK UNBOUND:                -0.222
REMARK SMILES O=C([O-])C=Cc1ccccc1
REMARK SMILES IDX 4 1 5 2 2 3 1 4 3 5 6 6 7 7 11 8 8 9 10 10 9 11
REMARK H PARENT
REMARK Flexibility Score: inf
ROOT
ATOM      1  C   UNL     1       8.602  20.141  -8.143  1.00  0.00     0.025 C 
ATOM      2  C   UNL     1       8.433  18.908  -7.641  1.00  0.00     0.010 C 
ENDROOT
BRANCH   1   3
ATOM      3  C   UNL     1       7.541  21.154  -8.300  1.00  0.00     0.064 C 
ATOM      4  O   UNL     1       6.849  21.164  -9.352  1.00  0.00    -0.545 OA
ATOM      5  O   UNL     1       7.239  22.052  -7.284  1.00  0.00    -0.545 OA
ENDBRANCH   1   3
BRANCH   2   6
ATOM      6  C   UNL     1       7.206  18.414  -6.984  1.00  0.00    -0.026 A 
ATOM      7  C   UNL     1       6.827  18.870  -5.708  1.00  0.00     0.008 A 
ATOM      8  C   UNL     1       6.460  17.394  -7.597  1.00  0.00     0.008 A 
ATOM      9  C   UNL     1       5.690  18.350  -5.082  1.00  0.00     0.001 A 
ATOM     10  C   UNL     1       5.324  16.876  -6.968  1.00  0.00     0.001 A 
ATOM     11  C   UNL     1       4.936  17.357  -5.714  1.00  0.00     0.000 A 
ENDBRANCH   2   6
TORSDOF 2
ENDMDL
MODEL 6
REMARK VINA RESULT:    -3.633     14.485     15.332
REMARK INTER + INTRA:          -4.279
REMARK INTER:                  -4.014
REMARK INTRA:                  -0.264
REMARK UNBOUND:                -0.222
REMARK SMILES O=C([O-])C=Cc1ccccc1
REMARK SMILES IDX 4 1 5 2 2 3 1 4 3 5 6 6 7 7 11 8 8 9 10 10 9 11
REMARK H PARENT
REMARK Flexibility Score: inf
ROOT
ATOM      1  C   UNL     1      -7.122  21.768  -7.404  1.00  0.00     0.025 C 
ATOM      2  C   UNL     1      -6.440  20.935  -8.205  1.00  0.00     0.010 C 
ENDROOT
BRANCH   1   3
ATOM      3  C   UNL     1      -8.584  21.764  -7.212  1.00  0.00     0.064 C 
ATOM      4  O   UNL     1      -9.061  21.354  -6.121  1.00  0.00    -0.545 OA
ATOM      5  O   UNL     1      -9.445  22.269  -8.178  1.00  0.00    -0.545 OA
ENDBRANCH   1   3
BRANCH   2   6
ATOM      6  C   UNL     1      -7.004  19.751  -8.886  1.00  0.00    -0.026 A 
ATOM      7  C   UNL     1      -7.506  19.834 -10.197  1.00  0.00     0.008 A 
ATOM      8  C   UNL     1      -7.136  18.548  -8.175  1.00  0.00     0.008 A 
ATOM      9  C   UNL     1      -8.084  18.714 -10.803  1.00  0.00     0.001 A 
ATOM     10  C   UNL     1      -7.715  17.429  -8.784  1.00  0.00     0.001 A 
ATOM     11  C   UNL     1      -8.183  17.511 -10.098  1.00  0.00     0.000 A 
ENDBRANCH   2   6
TORSDOF 2
ENDMDL
MODEL 7
REMARK VINA RESULT:    -3.580     17.323     18.582
REMARK INTER + INTRA:          -4.220
REMARK INTER:                  -3.948
REMARK INTRA:                  -0.273
REMARK UNBOUND:                -0.222
REMARK SMILES O=C([O-])C=Cc1ccccc1
REMARK SMILES IDX 4 1 5 2 2 3 1 4 3 5 6 6 7 7 11 8 8 9 10 10 9 11
REMARK H PARENT
REMARK Flexibility Score: inf
ROOT
ATOM      1  C   UNL     1      -2.585  33.264 -13.861  1.00  0.00     0.025 C 
ATOM      2  C   UNL     1      -3.005  33.286 -15.135  1.00  0.00     0.010 C 
ENDROOT
BRANCH   1   3
ATOM      3  C   UNL     1      -1.872  32.145 -13.215  1.00  0.00     0.064 C 
ATOM      4  O   UNL     1      -0.632  32.238 -13.017  1.00  0.00    -0.545 OA
ATOM      5  O   UNL     1      -2.548  31.023 -12.754  1.00  0.00    -0.545 OA
ENDBRANCH   1   3
BRANCH   2   6
ATOM      6  C   UNL     1      -2.664  32.284 -16.166  1.00  0.00    -0.026 A 
ATOM      7  C   UNL     1      -1.470  32.373 -16.904  1.00  0.00     0.008 A 
ATOM      8  C   UNL     1      -3.595  31.283 -16.486  1.00  0.00     0.008 A 
ATOM      9  C   UNL     1      -1.192  31.444 -17.911  1.00  0.00     0.001 A 
ATOM     10  C   UNL     1      -3.314  30.355 -17.494  1.00  0.00     0.001 A 
ATOM     11  C   UNL     1      -2.112  30.432 -18.202  1.00  0.00     0.000 A 
ENDBRANCH   2   6
TORSDOF 2
ENDMDL
MODEL 8
REMARK VINA RESULT:    -3.546      8.000      8.661
REMARK INTER + INTRA:          -4.183
REMARK INTER:                  -4.069
REMARK INTRA:                  -0.114
REMARK UNBOUND:                -0.222
REMARK SMILES O=C([O-])C=Cc1ccccc1
REMARK SMILES IDX 4 1 5 2 2 3 1 4 3 5 6 6 7 7 11 8 8 9 10 10 9 11
REMARK H PARENT
REMARK Flexibility Score: inf
ROOT
ATOM      1  C   UNL     1       0.879  20.715 -13.398  1.00  0.00     0.025 C 
ATOM      2  C   UNL     1       1.040  20.608 -12.070  1.00  0.00     0.010 C 
ENDROOT
BRANCH   1   3
ATOM      3  C   UNL     1       0.417  21.922 -14.109  1.00  0.00     0.064 C 
ATOM      4  O   UNL     1      -0.794  22.017 -14.438  1.00  0.00    -0.545 OA
ATOM      5  O   UNL     1       1.272  22.989 -14.361  1.00  0.00    -0.545 OA
ENDBRANCH   1   3
BRANCH   2   6
ATOM      6  C   UNL     1       0.968  21.726 -11.107  1.00  0.00    -0.026 A 
ATOM      7  C   UNL     1       2.102  22.141 -10.386  1.00  0.00     0.008 A 
ATOM      8  C   UNL     1      -0.275  22.315 -10.830  1.00  0.00     0.008 A 
ATOM      9  C   UNL     1       1.999  23.167  -9.440  1.00  0.00     0.001 A 
ATOM     10  C   UNL     1      -0.374  23.341  -9.884  1.00  0.00     0.001 A 
ATOM     11  C   UNL     1       0.763  23.769  -9.193  1.00  0.00     0.000 A 
ENDBRANCH   2   6
TORSDOF 2
ENDMDL
MODEL 9
REMARK VINA RESULT:    -3.501      3.277      4.411
REMARK INTER + INTRA:          -4.132
REMARK INTER:                  -4.166
REMARK INTRA:                   0.034
REMARK UNBOUND:                -0.222
REMARK SMILES O=C([O-])C=Cc1ccccc1
REMARK SMILES IDX 4 1 5 2 2 3 1 4 3 5 6 6 7 7 11 8 8 9 10 10 9 11
REMARK H PARENT
REMARK Flexibility Score: inf
ROOT
ATOM      1  C   UNL     1       6.911  17.750  -6.776  1.00  0.00     0.025 C 
ATOM      2  C   UNL     1       7.721  18.819  -6.788  1.00  0.00     0.010 C 
ENDROOT
BRANCH   1   3
ATOM      3  C   UNL     1       5.765  17.555  -5.867  1.00  0.00     0.064 C 
ATOM      4  O   UNL     1       4.624  17.955  -6.220  1.00  0.00    -0.545 OA
ATOM      5  O   UNL     1       5.901  16.877  -4.662  1.00  0.00    -0.545 OA
ENDBRANCH   1   3
BRANCH   2   6
ATOM      6  C   UNL     1       7.499  20.069  -6.032  1.00  0.00    -0.026 A 
ATOM      7  C   UNL     1       7.466  21.317  -6.679  1.00  0.00     0.008 A 
ATOM      8  C   UNL     1       7.424  20.020  -4.631  1.00  0.00     0.008 A 
ATOM      9  C   UNL     1       7.307  22.492  -5.937  1.00  0.00     0.001 A 
ATOM     10  C   UNL     1       7.266  21.197  -3.892  1.00  0.00     0.001 A 
ATOM     11  C   UNL     1       7.202  22.431  -4.545  1.00  0.00     0.000 A 
ENDBRANCH   2   6
TORSDOF 2
ENDMDL
