MODEL 1
REMARK VINA RESULT:    -4.660      0.000      0.000
REMARK INTER + INTRA:         -10.178
REMARK INTER:                  -8.202
REMARK INTRA:                  -1.976
REMARK UNBOUND:                -1.976
REMARK SMILES CCCCCCCCCCCCCCC(=O)[O-]
REMARK SMILES IDX 9 1 10 2 11 3 12 4 13 5 14 6 15 7 16 8 17 9 8 10 7 11 6 12
REMARK SMILES IDX 5 13 4 14 3 15 2 16 1 17
REMARK H PARENT
REMARK Flexibility Score: inf
ROOT
ATOM      1  C   UNL     1     -12.441 -27.565 -34.635  1.00  0.00     0.000 C 
ENDROOT
BRANCH   1   2
ATOM      2  C   UNL     1     -11.140 -26.875 -35.077  1.00  0.00     0.000 C 
BRANCH   2   3
ATOM      3  C   UNL     1     -11.394 -25.590 -35.887  1.00  0.00     0.000 C 
BRANCH   3   4
ATOM      4  C   UNL     1     -12.624 -24.814 -35.390  1.00  0.00     0.000 C 
BRANCH   4   5
ATOM      5  C   UNL     1     -12.612 -23.341 -35.835  1.00  0.00     0.006 C 
BRANCH   5   6
ATOM      6  C   UNL     1     -12.971 -22.388 -34.689  1.00  0.00     0.053 C 
BRANCH   6   7
ATOM      7  C   UNL     1     -12.179 -21.118 -34.754  1.00  0.00     0.041 C 
ATOM      8  O   UNL     1     -11.778 -20.565 -33.696  1.00  0.00    -0.550 OA
ATOM      9  O   UNL     1     -11.853 -20.565 -35.986  1.00  0.00    -0.550 OA
ENDBRANCH   6   7
ENDBRANCH   5   6
ENDBRANCH   4   5
ENDBRANCH   3   4
ENDBRANCH   2   3
ENDBRANCH   1   2
BRANCH   1  10
ATOM     10  C   UNL     1     -12.235 -28.489 -33.423  1.00  0.00     0.000 C 
BRANCH  10  11
ATOM     11  C   UNL     1     -13.226 -28.198 -32.285  1.00  0.00    -0.000 C 
BRANCH  11  12
ATOM     12  C   UNL     1     -12.707 -28.660 -30.913  1.00  0.00    -0.000 C 
BRANCH  12  13
ATOM     13  C   UNL     1     -11.284 -28.160 -30.613  1.00  0.00    -0.000 C 
BRANCH  13  14
ATOM     14  C   UNL     1     -11.195 -26.632 -30.418  1.00  0.00    -0.000 C 
BRANCH  14  15
ATOM     15  C   UNL     1     -10.264 -25.967 -31.443  1.00  0.00    -0.000 C 
BRANCH  15  16
ATOM     16  C   UNL     1     -10.923 -24.731 -32.064  1.00  0.00    -0.003 C 
ATOM     17  C   UNL     1     -12.406 -24.659 -31.711  1.00  0.00     0.004 C 
ENDBRANCH  15  16
ENDBRANCH  14  15
ENDBRANCH  13  14
ENDBRANCH  12  13
ENDBRANCH  11  12
ENDBRANCH  10  11
ENDBRANCH   1  10
TORSDOF 13
ENDMDL
MODEL 2
REMARK VINA RESULT:    -4.576      1.057      1.357
REMARK INTER + INTRA:         -10.030
REMARK INTER:                  -8.247
REMARK INTRA:                  -1.783
REMARK UNBOUND:                -1.976
REMARK SMILES CCCCCCCCCCCCCCC(=O)[O-]
REMARK SMILES IDX 9 1 10 2 11 3 12 4 13 5 14 6 15 7 16 8 17 9 8 10 7 11 6 12
REMARK SMILES IDX 5 13 4 14 3 15 2 16 1 17
REMARK H PARENT
REMARK Flexibility Score: inf
ROOT
ATOM      1  C   UNL     1     -13.182 -27.577 -34.956  1.00  0.00     0.000 C 
ENDROOT
BRANCH   1   2
ATOM      2  C   UNL     1     -11.683 -27.241 -35.025  1.00  0.00     0.000 C 
BRANCH   2   3
ATOM      3  C   UNL     1     -11.418 -25.802 -35.502  1.00  0.00     0.000 C 
BRANCH   3   4
ATOM      4  C   UNL     1     -12.715 -25.012 -35.740  1.00  0.00     0.000 C 
BRANCH   4   5
ATOM      5  C   UNL     1     -12.457 -23.514 -35.983  1.00  0.00     0.006 C 
BRANCH   5   6
ATOM      6  C   UNL     1     -12.959 -22.645 -34.823  1.00  0.00     0.053 C 
BRANCH   6   7
ATOM      7  C   UNL     1     -12.712 -21.189 -35.073  1.00  0.00     0.041 C 
ATOM      8  O   UNL     1     -11.604 -20.673 -34.770  1.00  0.00    -0.550 OA
ATOM      9  O   UNL     1     -13.693 -20.411 -35.675  1.00  0.00    -0.550 OA
ENDBRANCH   6   7
ENDBRANCH   5   6
ENDBRANCH   4   5
ENDBRANCH   3   4
ENDBRANCH   2   3
ENDBRANCH   1   2
BRANCH   1  10
ATOM     10  C   UNL     1     -13.664 -27.831 -33.518  1.00  0.00     0.000 C 
BRANCH  10  11
ATOM     11  C   UNL     1     -12.556 -28.399 -32.617  1.00  0.00    -0.000 C 
BRANCH  11  12
ATOM     12  C   UNL     1     -13.013 -28.588 -31.160  1.00  0.00    -0.000 C 
BRANCH  12  13
ATOM     13  C   UNL     1     -12.532 -27.458 -30.233  1.00  0.00    -0.000 C 
BRANCH  13  14
ATOM     14  C   UNL     1     -13.527 -26.284 -30.123  1.00  0.00    -0.000 C 
BRANCH  14  15
ATOM     15  C   UNL     1     -12.861 -24.928 -30.399  1.00  0.00    -0.000 C 
BRANCH  15  16
ATOM     16  C   UNL     1     -12.487 -24.789 -31.879  1.00  0.00    -0.003 C 
ATOM     17  C   UNL     1     -10.990 -24.547 -32.051  1.00  0.00     0.004 C 
ENDBRANCH  15  16
ENDBRANCH  14  15
ENDBRANCH  13  14
ENDBRANCH  12  13
ENDBRANCH  11  12
ENDBRANCH  10  11
ENDBRANCH   1  10
TORSDOF 13
ENDMDL
MODEL 3
REMARK VINA RESULT:    -4.506      1.183      3.116
REMARK INTER + INTRA:          -9.907
REMARK INTER:                  -8.520
REMARK INTRA:                  -1.387
REMARK UNBOUND:                -1.976
REMARK SMILES CCCCCCCCCCCCCCC(=O)[O-]
REMARK SMILES IDX 9 1 10 2 11 3 12 4 13 5 14 6 15 7 16 8 17 9 8 10 7 11 6 12
REMARK SMILES IDX 5 13 4 14 3 15 2 16 1 17
REMARK H PARENT
REMARK Flexibility Score: inf
ROOT
ATOM      1  C   UNL     1     -11.374 -24.968 -30.717  1.00  0.00     0.000 C 
ENDROOT
BRANCH   1   2
ATOM      2  C   UNL     1     -11.019 -24.718 -32.192  1.00  0.00     0.000 C 
BRANCH   2   3
ATOM      3  C   UNL     1     -12.179 -24.086 -32.983  1.00  0.00     0.000 C 
BRANCH   3   4
ATOM      4  C   UNL     1     -12.281 -24.632 -34.416  1.00  0.00     0.000 C 
BRANCH   4   5
ATOM      5  C   UNL     1     -12.611 -23.535 -35.443  1.00  0.00     0.006 C 
BRANCH   5   6
ATOM      6  C   UNL     1     -13.054 -22.229 -34.772  1.00  0.00     0.053 C 
BRANCH   6   7
ATOM      7  C   UNL     1     -12.672 -21.030 -35.585  1.00  0.00     0.041 C 
ATOM      8  O   UNL     1     -11.512 -20.934 -36.066  1.00  0.00    -0.550 OA
ATOM      9  O   UNL     1     -13.609 -20.036 -35.841  1.00  0.00    -0.550 OA
ENDBRANCH   6   7
ENDBRANCH   5   6
ENDBRANCH   4   5
ENDBRANCH   3   4
ENDBRANCH   2   3
ENDBRANCH   1   2
BRANCH   1  10
ATOM     10  C   UNL     1     -10.623 -26.174 -30.126  1.00  0.00     0.000 C 
BRANCH  10  11
ATOM     11  C   UNL     1     -10.778 -27.441 -30.981  1.00  0.00    -0.000 C 
BRANCH  11  12
ATOM     12  C   UNL     1     -11.835 -28.409 -30.423  1.00  0.00    -0.000 C 
BRANCH  12  13
ATOM     13  C   UNL     1     -12.955 -28.716 -31.431  1.00  0.00    -0.000 C 
BRANCH  13  14
ATOM     14  C   UNL     1     -12.929 -27.809 -32.679  1.00  0.00    -0.000 C 
BRANCH  14  15
ATOM     15  C   UNL     1     -12.336 -28.519 -33.904  1.00  0.00    -0.000 C 
BRANCH  15  16
ATOM     16  C   UNL     1     -12.996 -28.028 -35.198  1.00  0.00    -0.003 C 
ATOM     17  C   UNL     1     -14.416 -27.531 -34.939  1.00  0.00     0.004 C 
ENDBRANCH  15  16
ENDBRANCH  14  15
ENDBRANCH  13  14
ENDBRANCH  12  13
ENDBRANCH  11  12
ENDBRANCH  10  11
ENDBRANCH   1  10
TORSDOF 13
ENDMDL
MODEL 4
REMARK VINA RESULT:    -4.407      2.478      5.359
REMARK INTER + INTRA:          -9.733
REMARK INTER:                  -8.400
REMARK INTRA:                  -1.334
REMARK UNBOUND:                -1.976
REMARK SMILES CCCCCCCCCCCCCCC(=O)[O-]
REMARK SMILES IDX 9 1 10 2 11 3 12 4 13 5 14 6 15 7 16 8 17 9 8 10 7 11 6 12
REMARK SMILES IDX 5 13 4 14 3 15 2 16 1 17
REMARK H PARENT
REMARK Flexibility Score: inf
ROOT
ATOM      1  C   UNL     1     -11.769 -26.729 -30.212  1.00  0.00     0.000 C 
ENDROOT
BRANCH   1   2
ATOM      2  C   UNL     1     -11.709 -28.264 -30.295  1.00  0.00     0.000 C 
BRANCH   2   3
ATOM      3  C   UNL     1     -12.780 -28.850 -31.232  1.00  0.00     0.000 C 
BRANCH   3   4
ATOM      4  C   UNL     1     -13.043 -27.960 -32.457  1.00  0.00     0.000 C 
BRANCH   4   5
ATOM      5  C   UNL     1     -12.394 -28.513 -33.739  1.00  0.00     0.006 C 
BRANCH   5   6
ATOM      6  C   UNL     1     -12.135 -27.414 -34.777  1.00  0.00     0.053 C 
BRANCH   6   7
ATOM      7  C   UNL     1     -13.389 -27.030 -35.502  1.00  0.00     0.041 C 
ATOM      8  O   UNL     1     -14.363 -27.826 -35.549  1.00  0.00    -0.550 OA
ATOM      9  O   UNL     1     -13.493 -25.779 -36.096  1.00  0.00    -0.550 OA
ENDBRANCH   6   7
ENDBRANCH   5   6
ENDBRANCH   4   5
ENDBRANCH   3   4
ENDBRANCH   2   3
ENDBRANCH   1   2
BRANCH   1  10
ATOM     10  C   UNL     1     -10.451 -26.063 -30.641  1.00  0.00     0.000 C 
BRANCH  10  11
ATOM     11  C   UNL     1     -10.598 -25.241 -31.930  1.00  0.00    -0.000 C 
BRANCH  11  12
ATOM     12  C   UNL     1     -11.824 -24.313 -31.906  1.00  0.00    -0.000 C 
BRANCH  12  13
ATOM     13  C   UNL     1     -12.420 -24.075 -33.305  1.00  0.00    -0.000 C 
BRANCH  13  14
ATOM     14  C   UNL     1     -12.379 -22.599 -33.751  1.00  0.00    -0.000 C 
BRANCH  14  15
ATOM     15  C   UNL     1     -12.832 -22.417 -35.207  1.00  0.00    -0.000 C 
BRANCH  15  16
ATOM     16  C   UNL     1     -13.054 -20.936 -35.534  1.00  0.00    -0.003 C 
ATOM     17  C   UNL     1     -14.228 -20.366 -34.743  1.00  0.00     0.004 C 
ENDBRANCH  15  16
ENDBRANCH  14  15
ENDBRANCH  13  14
ENDBRANCH  12  13
ENDBRANCH  11  12
ENDBRANCH  10  11
ENDBRANCH   1  10
TORSDOF 13
ENDMDL
MODEL 5
REMARK VINA RESULT:    -4.332      1.396      3.421
REMARK INTER + INTRA:          -9.600
REMARK INTER:                  -7.996
REMARK INTRA:                  -1.604
REMARK UNBOUND:                -1.976
REMARK SMILES CCCCCCCCCCCCCCC(=O)[O-]
REMARK SMILES IDX 9 1 10 2 11 3 12 4 13 5 14 6 15 7 16 8 17 9 8 10 7 11 6 12
REMARK SMILES IDX 5 13 4 14 3 15 2 16 1 17
REMARK H PARENT
REMARK Flexibility Score: inf
ROOT
ATOM      1  C   UNL     1     -10.566 -25.338 -31.906  1.00  0.00     0.000 C 
ENDROOT
BRANCH   1   2
ATOM      2  C   UNL     1     -11.671 -24.279 -32.053  1.00  0.00     0.000 C 
BRANCH   2   3
ATOM      3  C   UNL     1     -11.149 -22.844 -31.851  1.00  0.00     0.000 C 
BRANCH   3   4
ATOM      4  C   UNL     1     -11.838 -21.831 -32.779  1.00  0.00     0.000 C 
BRANCH   4   5
ATOM      5  C   UNL     1     -12.638 -22.510 -33.904  1.00  0.00     0.006 C 
BRANCH   5   6
ATOM      6  C   UNL     1     -12.459 -21.800 -35.252  1.00  0.00     0.053 C 
BRANCH   6   7
ATOM      7  C   UNL     1     -13.391 -20.635 -35.393  1.00  0.00     0.041 C 
ATOM      8  O   UNL     1     -14.451 -20.585 -34.715  1.00  0.00    -0.550 OA
ATOM      9  O   UNL     1     -13.069 -19.587 -36.246  1.00  0.00    -0.550 OA
ENDBRANCH   6   7
ENDBRANCH   5   6
ENDBRANCH   4   5
ENDBRANCH   3   4
ENDBRANCH   2   3
ENDBRANCH   1   2
BRANCH   1  10
ATOM     10  C   UNL     1     -11.098 -26.672 -31.354  1.00  0.00     0.000 C 
BRANCH  10  11
ATOM     11  C   UNL     1     -12.622 -26.803 -31.498  1.00  0.00    -0.000 C 
BRANCH  11  12
ATOM     12  C   UNL     1     -13.034 -27.960 -32.424  1.00  0.00    -0.000 C 
BRANCH  12  13
ATOM     13  C   UNL     1     -13.775 -27.481 -33.684  1.00  0.00    -0.000 C 
BRANCH  13  14
ATOM     14  C   UNL     1     -13.065 -27.860 -35.000  1.00  0.00    -0.000 C 
BRANCH  14  15
ATOM     15  C   UNL     1     -11.684 -27.201 -35.128  1.00  0.00    -0.000 C 
BRANCH  15  16
ATOM     16  C   UNL     1     -11.815 -25.699 -35.408  1.00  0.00    -0.003 C 
ATOM     17  C   UNL     1     -13.039 -25.403 -36.270  1.00  0.00     0.004 C 
ENDBRANCH  15  16
ENDBRANCH  14  15
ENDBRANCH  13  14
ENDBRANCH  12  13
ENDBRANCH  11  12
ENDBRANCH  10  11
ENDBRANCH   1  10
TORSDOF 13
ENDMDL
MODEL 6
REMARK VINA RESULT:    -4.288      1.157      2.185
REMARK INTER + INTRA:          -9.522
REMARK INTER:                  -8.012
REMARK INTRA:                  -1.510
REMARK UNBOUND:                -1.976
REMARK SMILES CCCCCCCCCCCCCCC(=O)[O-]
REMARK SMILES IDX 9 1 10 2 11 3 12 4 13 5 14 6 15 7 16 8 17 9 8 10 7 11 6 12
REMARK SMILES IDX 5 13 4 14 3 15 2 16 1 17
REMARK H PARENT
REMARK Flexibility Score: inf
ROOT
ATOM      1  C   UNL     1     -13.512 -26.033 -35.946  1.00  0.00     0.000 C 
ENDROOT
BRANCH   1   2
ATOM      2  C   UNL     1     -12.376 -25.116 -35.464  1.00  0.00     0.000 C 
BRANCH   2   3
ATOM      3  C   UNL     1     -12.624 -23.634 -35.800  1.00  0.00     0.000 C 
BRANCH   3   4
ATOM      4  C   UNL     1     -12.638 -22.740 -34.550  1.00  0.00     0.000 C 
BRANCH   4   5
ATOM      5  C   UNL     1     -13.412 -21.429 -34.771  1.00  0.00     0.006 C 
BRANCH   5   6
ATOM      6  C   UNL     1     -12.677 -20.476 -35.722  1.00  0.00     0.053 C 
BRANCH   6   7
ATOM      7  C   UNL     1     -11.282 -20.193 -35.255  1.00  0.00     0.041 C 
ATOM      8  O   UNL     1     -11.084 -19.702 -34.112  1.00  0.00    -0.550 OA
ATOM      9  O   UNL     1     -10.200 -20.505 -36.068  1.00  0.00    -0.550 OA
ENDBRANCH   6   7
ENDBRANCH   5   6
ENDBRANCH   4   5
ENDBRANCH   3   4
ENDBRANCH   2   3
ENDBRANCH   1   2
BRANCH   1  10
ATOM     10  C   UNL     1     -13.684 -27.276 -35.057  1.00  0.00     0.000 C 
BRANCH  10  11
ATOM     11  C   UNL     1     -12.390 -28.095 -34.933  1.00  0.00    -0.000 C 
BRANCH  11  12
ATOM     12  C   UNL     1     -11.985 -28.349 -33.471  1.00  0.00    -0.000 C 
BRANCH  12  13
ATOM     13  C   UNL     1     -13.123 -28.058 -32.477  1.00  0.00    -0.000 C 
BRANCH  13  14
ATOM     14  C   UNL     1     -12.753 -27.015 -31.403  1.00  0.00    -0.000 C 
BRANCH  14  15
ATOM     15  C   UNL     1     -12.694 -25.589 -31.970  1.00  0.00    -0.000 C 
BRANCH  15  16
ATOM     16  C   UNL     1     -11.431 -24.860 -31.497  1.00  0.00    -0.003 C 
ATOM     17  C   UNL     1     -10.219 -25.787 -31.514  1.00  0.00     0.004 C 
ENDBRANCH  15  16
ENDBRANCH  14  15
ENDBRANCH  13  14
ENDBRANCH  12  13
ENDBRANCH  11  12
ENDBRANCH  10  11
ENDBRANCH   1  10
TORSDOF 13
ENDMDL
MODEL 7
REMARK VINA RESULT:    -4.256      1.308      3.765
REMARK INTER + INTRA:          -9.466
REMARK INTER:                  -7.696
REMARK INTRA:                  -1.770
REMARK UNBOUND:                -1.976
REMARK SMILES CCCCCCCCCCCCCCC(=O)[O-]
REMARK SMILES IDX 9 1 10 2 11 3 12 4 13 5 14 6 15 7 16 8 17 9 8 10 7 11 6 12
REMARK SMILES IDX 5 13 4 14 3 15 2 16 1 17
REMARK H PARENT
REMARK Flexibility Score: inf
ROOT
ATOM      1  C   UNL     1     -11.884 -27.268 -30.436  1.00  0.00     0.000 C 
ENDROOT
BRANCH   1   2
ATOM      2  C   UNL     1     -10.461 -27.041 -30.973  1.00  0.00     0.000 C 
BRANCH   2   3
ATOM      3  C   UNL     1     -10.182 -25.566 -31.312  1.00  0.00     0.000 C 
BRANCH   3   4
ATOM      4  C   UNL     1     -11.101 -25.033 -32.423  1.00  0.00     0.000 C 
BRANCH   4   5
ATOM      5  C   UNL     1     -12.140 -24.027 -31.898  1.00  0.00     0.006 C 
BRANCH   5   6
ATOM      6  C   UNL     1     -11.494 -22.901 -31.080  1.00  0.00     0.053 C 
BRANCH   6   7
ATOM      7  C   UNL     1     -11.135 -21.727 -31.939  1.00  0.00     0.041 C 
ATOM      8  O   UNL     1     -10.249 -20.914 -31.562  1.00  0.00    -0.550 OA
ATOM      9  O   UNL     1     -11.753 -21.551 -33.170  1.00  0.00    -0.550 OA
ENDBRANCH   6   7
ENDBRANCH   5   6
ENDBRANCH   4   5
ENDBRANCH   3   4
ENDBRANCH   2   3
ENDBRANCH   1   2
BRANCH   1  10
ATOM     10  C   UNL     1     -12.507 -28.576 -30.951  1.00  0.00     0.000 C 
BRANCH  10  11
ATOM     11  C   UNL     1     -12.631 -28.607 -32.482  1.00  0.00    -0.000 C 
BRANCH  11  12
ATOM     12  C   UNL     1     -13.655 -27.592 -33.017  1.00  0.00    -0.000 C 
BRANCH  12  13
ATOM     13  C   UNL     1     -13.604 -27.441 -34.547  1.00  0.00    -0.000 C 
BRANCH  13  14
ATOM     14  C   UNL     1     -12.171 -27.442 -35.120  1.00  0.00    -0.000 C 
BRANCH  14  15
ATOM     15  C   UNL     1     -11.730 -26.048 -35.588  1.00  0.00    -0.000 C 
BRANCH  15  16
ATOM     16  C   UNL     1     -12.936 -25.203 -36.014  1.00  0.00    -0.003 C 
ATOM     17  C   UNL     1     -12.681 -23.717 -35.776  1.00  0.00     0.004 C 
ENDBRANCH  15  16
ENDBRANCH  14  15
ENDBRANCH  13  14
ENDBRANCH  12  13
ENDBRANCH  11  12
ENDBRANCH  10  11
ENDBRANCH   1  10
TORSDOF 13
ENDMDL
MODEL 8
REMARK VINA RESULT:    -4.235      2.441      5.532
REMARK INTER + INTRA:          -9.430
REMARK INTER:                  -8.175
REMARK INTRA:                  -1.254
REMARK UNBOUND:                -1.976
REMARK SMILES CCCCCCCCCCCCCCC(=O)[O-]
REMARK SMILES IDX 9 1 10 2 11 3 12 4 13 5 14 6 15 7 16 8 17 9 8 10 7 11 6 12
REMARK SMILES IDX 5 13 4 14 3 15 2 16 1 17
REMARK H PARENT
REMARK Flexibility Score: inf
ROOT
ATOM      1  C   UNL     1     -10.136 -26.447 -31.300  1.00  0.00     0.000 C 
ENDROOT
BRANCH   1   2
ATOM      2  C   UNL     1     -10.741 -27.723 -30.691  1.00  0.00     0.000 C 
BRANCH   2   3
ATOM      3  C   UNL     1     -12.272 -27.645 -30.549  1.00  0.00     0.000 C 
BRANCH   3   4
ATOM      4  C   UNL     1     -13.002 -28.595 -31.512  1.00  0.00     0.000 C 
BRANCH   4   5
ATOM      5  C   UNL     1     -13.306 -27.939 -32.870  1.00  0.00     0.006 C 
BRANCH   5   6
ATOM      6  C   UNL     1     -12.351 -28.420 -33.970  1.00  0.00     0.053 C 
BRANCH   6   7
ATOM      7  C   UNL     1     -12.044 -27.331 -34.953  1.00  0.00     0.041 C 
ATOM      8  O   UNL     1     -10.851 -26.987 -35.164  1.00  0.00    -0.550 OA
ATOM      9  O   UNL     1     -13.073 -26.723 -35.661  1.00  0.00    -0.550 OA
ENDBRANCH   6   7
ENDBRANCH   5   6
ENDBRANCH   4   5
ENDBRANCH   3   4
ENDBRANCH   2   3
ENDBRANCH   1   2
BRANCH   1  10
ATOM     10  C   UNL     1     -10.409 -25.198 -30.443  1.00  0.00     0.000 C 
BRANCH  10  11
ATOM     11  C   UNL     1     -10.836 -23.987 -31.287  1.00  0.00    -0.000 C 
BRANCH  11  12
ATOM     12  C   UNL     1     -12.239 -24.151 -31.895  1.00  0.00    -0.000 C 
BRANCH  12  13
ATOM     13  C   UNL     1     -12.252 -23.972 -33.423  1.00  0.00    -0.000 C 
BRANCH  13  14
ATOM     14  C   UNL     1     -12.541 -22.525 -33.873  1.00  0.00    -0.000 C 
BRANCH  14  15
ATOM     15  C   UNL     1     -12.642 -22.397 -35.400  1.00  0.00    -0.000 C 
BRANCH  15  16
ATOM     16  C   UNL     1     -12.029 -21.078 -35.884  1.00  0.00    -0.003 C 
ATOM     17  C   UNL     1     -13.067 -19.960 -35.899  1.00  0.00     0.004 C 
ENDBRANCH  15  16
ENDBRANCH  14  15
ENDBRANCH  13  14
ENDBRANCH  12  13
ENDBRANCH  11  12
ENDBRANCH  10  11
ENDBRANCH   1  10
TORSDOF 13
ENDMDL
MODEL 9
REMARK VINA RESULT:    -4.122      3.239      6.026
REMARK INTER + INTRA:          -9.231
REMARK INTER:                  -7.596
REMARK INTRA:                  -1.634
REMARK UNBOUND:                -1.976
REMARK SMILES CCCCCCCCCCCCCCC(=O)[O-]
REMARK SMILES IDX 9 1 10 2 11 3 12 4 13 5 14 6 15 7 16 8 17 9 8 10 7 11 6 12
REMARK SMILES IDX 5 13 4 14 3 15 2 16 1 17
REMARK H PARENT
REMARK Flexibility Score: inf
ROOT
ATOM      1  C   UNL     1     -11.861 -21.726 -33.545  1.00  0.00     0.000 C 
ENDROOT
BRANCH   1   2
ATOM      2  C   UNL     1     -11.467 -21.964 -32.078  1.00  0.00     0.000 C 
BRANCH   2   3
ATOM      3  C   UNL     1     -11.824 -23.379 -31.589  1.00  0.00     0.000 C 
BRANCH   3   4
ATOM      4  C   UNL     1     -10.590 -24.284 -31.452  1.00  0.00     0.000 C 
BRANCH   4   5
ATOM      5  C   UNL     1     -10.849 -25.503 -30.549  1.00  0.00     0.006 C 
BRANCH   5   6
ATOM      6  C   UNL     1     -12.206 -26.157 -30.836  1.00  0.00     0.053 C 
BRANCH   6   7
ATOM      7  C   UNL     1     -12.145 -27.647 -30.691  1.00  0.00     0.041 C 
ATOM      8  O   UNL     1     -13.202 -28.331 -30.728  1.00  0.00    -0.550 OA
ATOM      9  O   UNL     1     -10.918 -28.283 -30.552  1.00  0.00    -0.550 OA
ENDBRANCH   6   7
ENDBRANCH   5   6
ENDBRANCH   4   5
ENDBRANCH   3   4
ENDBRANCH   2   3
ENDBRANCH   1   2
BRANCH   1  10
ATOM     10  C   UNL     1     -12.818 -22.804 -34.081  1.00  0.00     0.000 C 
BRANCH  10  11
ATOM     11  C   UNL     1     -12.610 -23.085 -35.578  1.00  0.00    -0.000 C 
BRANCH  11  12
ATOM     12  C   UNL     1     -12.357 -24.573 -35.873  1.00  0.00    -0.000 C 
BRANCH  12  13
ATOM     13  C   UNL     1     -12.057 -25.390 -34.605  1.00  0.00    -0.000 C 
BRANCH  13  14
ATOM     14  C   UNL     1     -11.440 -26.775 -34.894  1.00  0.00    -0.000 C 
BRANCH  14  15
ATOM     15  C   UNL     1     -12.312 -27.923 -34.368  1.00  0.00    -0.000 C 
BRANCH  15  16
ATOM     16  C   UNL     1     -13.746 -27.450 -34.105  1.00  0.00    -0.003 C 
ATOM     17  C   UNL     1     -14.634 -27.671 -35.326  1.00  0.00     0.004 C 
ENDBRANCH  15  16
ENDBRANCH  14  15
ENDBRANCH  13  14
ENDBRANCH  12  13
ENDBRANCH  11  12
ENDBRANCH  10  11
ENDBRANCH   1  10
TORSDOF 13
ENDMDL
