MODEL 1
REMARK VINA RESULT:    18.912      0.000      0.000
REMARK INTER + INTRA:          26.482
REMARK INTER:                  25.546
REMARK INTRA:                   0.936
REMARK UNBOUND:                 0.936
REMARK SMILES COc1ccc(-c2cc(=O)c3c(OC)c(OC)c(OC)c(OC)c3o2)cc1
REMARK SMILES IDX 7 1 8 2 9 3 10 4 11 5 24 6 25 7 21 8 18 9 15 10 12 11 6 12
REMARK SMILES IDX 3 13 4 14 27 15 5 16 26 17 2 18 1 19 22 20 23 21 13 22 14 23
REMARK SMILES IDX 19 24 20 25 16 26 17 27
REMARK H PARENT
REMARK Flexibility Score: inf
ROOT
ATOM      1  C   UNL     1       2.114 -13.880 -19.006  1.00  0.00     0.138 A 
ATOM      2  C   UNL     1       0.871 -13.545 -19.559  1.00  0.00     0.100 A 
ATOM      3  C   UNL     1      -0.149 -14.496 -19.574  1.00  0.00     0.197 A 
ATOM      4  O   UNL     1      -1.271 -14.173 -20.051  1.00  0.00    -0.289 OA
ATOM      5  C   UNL     1       0.085 -15.783 -19.042  1.00  0.00     0.115 A 
ATOM      6  C   UNL     1       1.353 -16.037 -18.482  1.00  0.00     0.188 A 
ATOM      7  O   UNL     1       2.292 -15.094 -18.492  1.00  0.00    -0.452 OA
ATOM      8  C   UNL     1       1.656 -17.278 -17.914  1.00  0.00     0.209 A 
ATOM      9  C   UNL     1       0.667 -18.295 -17.864  1.00  0.00     0.211 A 
ATOM     10  C   UNL     1      -0.625 -18.039 -18.401  1.00  0.00     0.208 A 
ATOM     11  C   UNL     1      -0.887 -16.807 -19.046  1.00  0.00     0.179 A 
ENDROOT
BRANCH   1  12
ATOM     12  C   UNL     1       3.240 -12.913 -18.960  1.00  0.00     0.018 A 
ATOM     13  C   UNL     1       5.419 -11.117 -18.908  1.00  0.00     0.118 A 
ATOM     14  C   UNL     1       5.633 -12.484 -19.103  1.00  0.00     0.047 A 
ATOM     15  C   UNL     1       4.104 -10.644 -18.747  1.00  0.00     0.047 A 
ATOM     16  C   UNL     1       4.557 -13.375 -19.133  1.00  0.00     0.016 A 
ATOM     17  C   UNL     1       3.025 -11.533 -18.777  1.00  0.00     0.016 A 
BRANCH  13  18
ATOM     18  O   UNL     1       6.533 -10.264 -18.884  1.00  0.00    -0.497 OA
ATOM     19  C   UNL     1       7.355  -9.983 -20.012  1.00  0.00     0.278 C 
ENDBRANCH  13  18
ENDBRANCH   1  12
BRANCH   8  20
ATOM     20  O   UNL     1       2.964 -17.429 -17.409  1.00  0.00    -0.490 OA
ATOM     21  C   UNL     1       3.734 -18.625 -17.360  1.00  0.00     0.278 C 
ENDBRANCH   8  20
BRANCH  11  22
ATOM     22  O   UNL     1      -2.094 -16.617 -19.721  1.00  0.00    -0.492 OA
ATOM     23  C   UNL     1      -2.123 -16.410 -21.128  1.00  0.00     0.278 C 
ENDBRANCH  11  22
BRANCH   9  24
ATOM     24  O   UNL     1       1.010 -19.525 -17.268  1.00  0.00    -0.490 OA
ATOM     25  C   UNL     1       0.466 -20.097 -16.084  1.00  0.00     0.279 C 
ENDBRANCH   9  24
BRANCH  10  26
ATOM     26  O   UNL     1      -1.620 -19.024 -18.275  1.00  0.00    -0.490 OA
ATOM     27  C   UNL     1      -1.868 -20.083 -19.196  1.00  0.00     0.278 C 
ENDBRANCH  10  26
TORSDOF 6
ENDMDL
