MODEL 1
REMARK VINA RESULT:    -5.547      0.000      0.000
REMARK INTER + INTRA:          -8.067
REMARK INTER:                  -6.845
REMARK INTRA:                  -1.222
REMARK UNBOUND:                -1.222
REMARK SMILES CC(C)=CCC[C@H](C)c1ccc(C)cc1
REMARK SMILES IDX 6 1 7 2 8 3 9 4 13 5 12 6 11 7 14 8 10 9 15 10 5 11 4 12
REMARK SMILES IDX 2 13 1 14 3 15
REMARK H PARENT
REMARK Flexibility Score: inf
ROOT
ATOM      1  C   UNL     1      13.393 -10.849 -34.161  1.00  0.00     0.012 C 
ENDROOT
BRANCH   1   2
ATOM      2  C   UNL     1      13.721 -10.000 -32.907  1.00  0.00     0.016 C 
ATOM      3  C   UNL     1      13.315  -8.528 -33.072  1.00  0.00     0.013 C 
BRANCH   2   4
ATOM      4  C   UNL     1      15.199 -10.109 -32.572  1.00  0.00    -0.045 A 
ATOM      5  C   UNL     1      19.394 -10.408 -31.590  1.00  0.00     0.044 C 
ATOM      6  C   UNL     1      17.933 -10.334 -31.922  1.00  0.00    -0.051 A 
ATOM      7  C   UNL     1      17.487 -10.636 -33.217  1.00  0.00     0.004 A 
ATOM      8  C   UNL     1      17.011  -9.898 -30.961  1.00  0.00     0.004 A 
ATOM      9  C   UNL     1      16.131 -10.533 -33.538  1.00  0.00     0.004 A 
ATOM     10  C   UNL     1      15.654  -9.793 -31.280  1.00  0.00     0.004 A 
ENDBRANCH   2   4
ENDBRANCH   1   2
BRANCH   1  11
ATOM     11  C   UNL     1      12.676 -12.176 -33.856  1.00  0.00     0.028 C 
BRANCH  11  12
ATOM     12  C   UNL     1      12.968 -12.681 -32.463  1.00  0.00    -0.028 C 
ATOM     13  C   UNL     1      14.017 -13.467 -32.134  1.00  0.00    -0.080 C 
ATOM     14  C   UNL     1      14.993 -13.979 -33.168  1.00  0.00     0.039 C 
ATOM     15  C   UNL     1      14.195 -13.858 -30.690  1.00  0.00     0.039 C 
ENDBRANCH  11  12
ENDBRANCH   1  11
TORSDOF 4
ENDMDL
MODEL 2
REMARK VINA RESULT:    -5.280      1.336      5.237
REMARK INTER + INTRA:          -7.737
REMARK INTER:                  -7.135
REMARK INTRA:                  -0.602
REMARK UNBOUND:                -1.222
REMARK SMILES CC(C)=CCC[C@H](C)c1ccc(C)cc1
REMARK SMILES IDX 6 1 7 2 8 3 9 4 13 5 12 6 11 7 14 8 10 9 15 10 5 11 4 12
REMARK SMILES IDX 2 13 1 14 3 15
REMARK H PARENT
REMARK Flexibility Score: inf
ROOT
ATOM      1  C   UNL     1      15.972 -10.491 -33.125  1.00  0.00     0.012 C 
ENDROOT
BRANCH   1   2
ATOM      2  C   UNL     1      14.497 -10.567 -33.595  1.00  0.00     0.016 C 
ATOM      3  C   UNL     1      13.666  -9.368 -33.115  1.00  0.00     0.013 C 
BRANCH   2   4
ATOM      4  C   UNL     1      13.867 -11.869 -33.133  1.00  0.00    -0.045 A 
ATOM      5  C   UNL     1      12.042 -15.557 -31.821  1.00  0.00     0.044 C 
ATOM      6  C   UNL     1      12.674 -14.287 -32.306  1.00  0.00    -0.051 A 
ATOM      7  C   UNL     1      14.070 -14.177 -32.384  1.00  0.00     0.004 A 
ATOM      8  C   UNL     1      11.879 -13.177 -32.622  1.00  0.00     0.004 A 
ATOM      9  C   UNL     1      14.662 -12.982 -32.801  1.00  0.00     0.004 A 
ATOM     10  C   UNL     1      12.468 -11.981 -33.039  1.00  0.00     0.004 A 
ENDBRANCH   2   4
ENDBRANCH   1   2
BRANCH   1  11
ATOM     11  C   UNL     1      16.174  -9.740 -31.798  1.00  0.00     0.028 C 
BRANCH  11  12
ATOM     12  C   UNL     1      17.457 -10.131 -31.104  1.00  0.00    -0.028 C 
ATOM     13  C   UNL     1      18.660  -9.559 -31.333  1.00  0.00    -0.080 C 
ATOM     14  C   UNL     1      18.852  -8.483 -32.377  1.00  0.00     0.039 C 
ATOM     15  C   UNL     1      19.844 -10.034 -30.531  1.00  0.00     0.039 C 
ENDBRANCH  11  12
ENDBRANCH   1  11
TORSDOF 4
ENDMDL
MODEL 3
REMARK VINA RESULT:    -5.159      1.579      4.907
REMARK INTER + INTRA:          -7.587
REMARK INTER:                  -6.599
REMARK INTRA:                  -0.988
REMARK UNBOUND:                -1.222
REMARK SMILES CC(C)=CCC[C@H](C)c1ccc(C)cc1
REMARK SMILES IDX 6 1 7 2 8 3 9 4 13 5 12 6 11 7 14 8 10 9 15 10 5 11 4 12
REMARK SMILES IDX 2 13 1 14 3 15
REMARK H PARENT
REMARK Flexibility Score: inf
ROOT
ATOM      1  C   UNL     1      17.743  -9.504 -31.570  1.00  0.00     0.012 C 
ENDROOT
BRANCH   1   2
ATOM      2  C   UNL     1      16.489  -9.875 -30.740  1.00  0.00     0.016 C 
ATOM      3  C   UNL     1      16.798 -10.895 -29.634  1.00  0.00     0.013 C 
BRANCH   2   4
ATOM      4  C   UNL     1      15.392 -10.396 -31.653  1.00  0.00    -0.045 A 
ATOM      5  C   UNL     1      12.269 -11.847 -34.259  1.00  0.00     0.044 C 
ATOM      6  C   UNL     1      13.375 -11.350 -33.377  1.00  0.00    -0.051 A 
ATOM      7  C   UNL     1      14.016 -12.224 -32.487  1.00  0.00     0.004 A 
ATOM      8  C   UNL     1      13.730  -9.994 -33.385  1.00  0.00     0.004 A 
ATOM      9  C   UNL     1      15.021 -11.753 -31.638  1.00  0.00     0.004 A 
ATOM     10  C   UNL     1      14.735  -9.522 -32.536  1.00  0.00     0.004 A 
ENDBRANCH   2   4
ENDBRANCH   1   2
BRANCH   1  11
ATOM     11  C   UNL     1      18.051 -10.479 -32.720  1.00  0.00     0.028 C 
BRANCH  11  12
ATOM     12  C   UNL     1      19.361 -11.204 -32.524  1.00  0.00    -0.028 C 
ATOM     13  C   UNL     1      19.475 -12.509 -32.190  1.00  0.00    -0.080 C 
ATOM     14  C   UNL     1      18.268 -13.376 -31.913  1.00  0.00     0.039 C 
ATOM     15  C   UNL     1      20.856 -13.100 -32.069  1.00  0.00     0.039 C 
ENDBRANCH  11  12
ENDBRANCH   1  11
TORSDOF 4
ENDMDL
MODEL 4
REMARK VINA RESULT:    -5.105      0.969      1.488
REMARK INTER + INTRA:          -7.521
REMARK INTER:                  -5.948
REMARK INTRA:                  -1.572
REMARK UNBOUND:                -1.222
REMARK SMILES CC(C)=CCC[C@H](C)c1ccc(C)cc1
REMARK SMILES IDX 6 1 7 2 8 3 9 4 13 5 12 6 11 7 14 8 10 9 15 10 5 11 4 12
REMARK SMILES IDX 2 13 1 14 3 15
REMARK H PARENT
REMARK Flexibility Score: inf
ROOT
ATOM      1  C   UNL     1      12.273 -11.236 -32.026  1.00  0.00     0.012 C 
ENDROOT
BRANCH   1   2
ATOM      2  C   UNL     1      13.026 -10.648 -33.245  1.00  0.00     0.016 C 
ATOM      3  C   UNL     1      12.881 -11.522 -34.501  1.00  0.00     0.013 C 
BRANCH   2   4
ATOM      4  C   UNL     1      14.492 -10.444 -32.907  1.00  0.00    -0.045 A 
ATOM      5  C   UNL     1      18.653  -9.851 -31.914  1.00  0.00     0.044 C 
ATOM      6  C   UNL     1      17.210 -10.086 -32.247  1.00  0.00    -0.051 A 
ATOM      7  C   UNL     1      16.849 -10.596 -33.502  1.00  0.00     0.004 A 
ATOM      8  C   UNL     1      16.208  -9.735 -31.332  1.00  0.00     0.004 A 
ATOM      9  C   UNL     1      15.502 -10.781 -33.827  1.00  0.00     0.004 A 
ATOM     10  C   UNL     1      14.861  -9.920 -31.655  1.00  0.00     0.004 A 
ENDBRANCH   2   4
ENDBRANCH   1   2
BRANCH   1  11
ATOM     11  C   UNL     1      12.298 -12.772 -31.948  1.00  0.00     0.028 C 
BRANCH  11  12
ATOM     12  C   UNL     1      13.341 -13.283 -30.982  1.00  0.00    -0.028 C 
ATOM     13  C   UNL     1      14.498 -13.882 -31.345  1.00  0.00    -0.080 C 
ATOM     14  C   UNL     1      14.840 -14.158 -32.791  1.00  0.00     0.039 C 
ATOM     15  C   UNL     1      15.457 -14.303 -30.262  1.00  0.00     0.039 C 
ENDBRANCH  11  12
ENDBRANCH   1  11
TORSDOF 4
ENDMDL
MODEL 5
REMARK VINA RESULT:    -5.051      1.219      5.166
REMARK INTER + INTRA:          -7.455
REMARK INTER:                  -6.807
REMARK INTRA:                  -0.647
REMARK UNBOUND:                -1.222
REMARK SMILES CC(C)=CCC[C@H](C)c1ccc(C)cc1
REMARK SMILES IDX 6 1 7 2 8 3 9 4 13 5 12 6 11 7 14 8 10 9 15 10 5 11 4 12
REMARK SMILES IDX 2 13 1 14 3 15
REMARK H PARENT
REMARK Flexibility Score: inf
ROOT
ATOM      1  C   UNL     1      15.803  -9.821 -31.740  1.00  0.00     0.012 C 
ENDROOT
BRANCH   1   2
ATOM      2  C   UNL     1      14.776 -10.050 -32.876  1.00  0.00     0.016 C 
ATOM      3  C   UNL     1      13.788  -8.881 -33.019  1.00  0.00     0.013 C 
BRANCH   2   4
ATOM      4  C   UNL     1      14.027 -11.353 -32.651  1.00  0.00    -0.045 A 
ATOM      5  C   UNL     1      11.875 -15.045 -32.031  1.00  0.00     0.044 C 
ATOM      6  C   UNL     1      12.639 -13.777 -32.270  1.00  0.00    -0.051 A 
ATOM      7  C   UNL     1      13.825 -13.524 -31.566  1.00  0.00     0.004 A 
ATOM      8  C   UNL     1      12.138 -12.805 -33.146  1.00  0.00     0.004 A 
ATOM      9  C   UNL     1      14.518 -12.326 -31.761  1.00  0.00     0.004 A 
ATOM     10  C   UNL     1      12.829 -11.606 -33.342  1.00  0.00     0.004 A 
ENDBRANCH   2   4
ENDBRANCH   1   2
BRANCH   1  11
ATOM     11  C   UNL     1      17.188  -9.356 -32.225  1.00  0.00     0.028 C 
BRANCH  11  12
ATOM     12  C   UNL     1      18.074 -10.510 -32.631  1.00  0.00    -0.028 C 
ATOM     13  C   UNL     1      19.219 -10.859 -32.002  1.00  0.00    -0.080 C 
ATOM     14  C   UNL     1      19.768 -10.067 -30.838  1.00  0.00     0.039 C 
ATOM     15  C   UNL     1      19.974 -12.062 -32.504  1.00  0.00     0.039 C 
ENDBRANCH  11  12
ENDBRANCH   1  11
TORSDOF 4
ENDMDL
MODEL 6
REMARK VINA RESULT:    -5.043      2.130      3.833
REMARK INTER + INTRA:          -7.444
REMARK INTER:                  -6.552
REMARK INTRA:                  -0.892
REMARK UNBOUND:                -1.222
REMARK SMILES CC(C)=CCC[C@H](C)c1ccc(C)cc1
REMARK SMILES IDX 6 1 7 2 8 3 9 4 13 5 12 6 11 7 14 8 10 9 15 10 5 11 4 12
REMARK SMILES IDX 2 13 1 14 3 15
REMARK H PARENT
REMARK Flexibility Score: inf
ROOT
ATOM      1  C   UNL     1      16.378  -9.847 -31.966  1.00  0.00     0.012 C 
ENDROOT
BRANCH   1   2
ATOM      2  C   UNL     1      17.880  -9.797 -31.591  1.00  0.00     0.016 C 
ATOM      3  C   UNL     1      18.633  -8.681 -32.332  1.00  0.00     0.013 C 
BRANCH   2   4
ATOM      4  C   UNL     1      18.531 -11.144 -31.855  1.00  0.00    -0.045 A 
ATOM      5  C   UNL     1      20.405 -14.957 -32.630  1.00  0.00     0.044 C 
ATOM      6  C   UNL     1      19.774 -13.629 -32.336  1.00  0.00    -0.051 A 
ATOM      7  C   UNL     1      18.660 -13.548 -31.488  1.00  0.00     0.004 A 
ATOM      8  C   UNL     1      20.249 -12.467 -32.960  1.00  0.00     0.004 A 
ATOM      9  C   UNL     1      18.049 -12.315 -31.243  1.00  0.00     0.004 A 
ATOM     10  C   UNL     1      19.639 -11.234 -32.717  1.00  0.00     0.004 A 
ENDBRANCH   2   4
ENDBRANCH   1   2
BRANCH   1  11
ATOM     11  C   UNL     1      16.096 -10.394 -33.376  1.00  0.00     0.028 C 
BRANCH  11  12
ATOM     12  C   UNL     1      14.641 -10.740 -33.580  1.00  0.00    -0.028 C 
ATOM     13  C   UNL     1      14.126 -11.987 -33.491  1.00  0.00    -0.080 C 
ATOM     14  C   UNL     1      14.995 -13.196 -33.231  1.00  0.00     0.039 C 
ATOM     15  C   UNL     1      12.643 -12.166 -33.683  1.00  0.00     0.039 C 
ENDBRANCH  11  12
ENDBRANCH   1  11
TORSDOF 4
ENDMDL
MODEL 7
REMARK VINA RESULT:    -5.012      2.039      4.191
REMARK INTER + INTRA:          -7.406
REMARK INTER:                  -6.721
REMARK INTRA:                  -0.684
REMARK UNBOUND:                -1.222
REMARK SMILES CC(C)=CCC[C@H](C)c1ccc(C)cc1
REMARK SMILES IDX 6 1 7 2 8 3 9 4 13 5 12 6 11 7 14 8 10 9 15 10 5 11 4 12
REMARK SMILES IDX 2 13 1 14 3 15
REMARK H PARENT
REMARK Flexibility Score: inf
ROOT
ATOM      1  C   UNL     1      16.732  -9.623 -31.143  1.00  0.00     0.012 C 
ENDROOT
BRANCH   1   2
ATOM      2  C   UNL     1      18.262  -9.501 -31.350  1.00  0.00     0.016 C 
ATOM      3  C   UNL     1      18.627  -8.501 -32.457  1.00  0.00     0.013 C 
BRANCH   2   4
ATOM      4  C   UNL     1      18.860 -10.865 -31.649  1.00  0.00    -0.045 A 
ATOM      5  C   UNL     1      20.548 -14.755 -32.470  1.00  0.00     0.044 C 
ATOM      6  C   UNL     1      19.936 -13.413 -32.200  1.00  0.00    -0.051 A 
ATOM      7  C   UNL     1      20.137 -12.352 -33.094  1.00  0.00     0.004 A 
ATOM      8  C   UNL     1      19.214 -13.190 -31.019  1.00  0.00     0.004 A 
ATOM      9  C   UNL     1      19.598 -11.091 -32.826  1.00  0.00     0.004 A 
ATOM     10  C   UNL     1      18.674 -11.930 -30.749  1.00  0.00     0.004 A 
ENDBRANCH   2   4
ENDBRANCH   1   2
BRANCH   1  11
ATOM     11  C   UNL     1      15.955 -10.046 -32.402  1.00  0.00     0.028 C 
BRANCH  11  12
ATOM     12  C   UNL     1      14.561 -10.532 -32.083  1.00  0.00    -0.028 C 
ATOM     13  C   UNL     1      13.425  -9.864 -32.386  1.00  0.00    -0.080 C 
ATOM     14  C   UNL     1      13.445  -8.500 -33.038  1.00  0.00     0.039 C 
ATOM     15  C   UNL     1      12.105 -10.499 -32.037  1.00  0.00     0.039 C 
ENDBRANCH  11  12
ENDBRANCH   1  11
TORSDOF 4
ENDMDL
MODEL 8
REMARK VINA RESULT:    -4.891      1.688      2.819
REMARK INTER + INTRA:          -7.257
REMARK INTER:                  -5.779
REMARK INTRA:                  -1.478
REMARK UNBOUND:                -1.222
REMARK SMILES CC(C)=CCC[C@H](C)c1ccc(C)cc1
REMARK SMILES IDX 6 1 7 2 8 3 9 4 13 5 12 6 11 7 14 8 10 9 15 10 5 11 4 12
REMARK SMILES IDX 2 13 1 14 3 15
REMARK H PARENT
REMARK Flexibility Score: inf
ROOT
ATOM      1  C   UNL     1      14.047 -13.247 -33.071  1.00  0.00     0.012 C 
ENDROOT
BRANCH   1   2
ATOM      2  C   UNL     1      13.790 -11.728 -32.904  1.00  0.00     0.016 C 
ATOM      3  C   UNL     1      13.093 -11.113 -34.127  1.00  0.00     0.013 C 
BRANCH   2   4
ATOM      4  C   UNL     1      15.095 -11.005 -32.617  1.00  0.00    -0.045 A 
ATOM      5  C   UNL     1      18.817  -8.961 -31.832  1.00  0.00     0.044 C 
ATOM      6  C   UNL     1      17.513  -9.644 -32.118  1.00  0.00    -0.051 A 
ATOM      7  C   UNL     1      16.488  -9.639 -31.161  1.00  0.00     0.004 A 
ATOM      8  C   UNL     1      17.333 -10.351 -33.315  1.00  0.00     0.004 A 
ATOM      9  C   UNL     1      15.286 -10.307 -31.411  1.00  0.00     0.004 A 
ATOM     10  C   UNL     1      16.132 -11.019 -33.567  1.00  0.00     0.004 A 
ENDBRANCH   2   4
ENDBRANCH   1   2
BRANCH   1  11
ATOM     11  C   UNL     1      14.841 -13.884 -31.918  1.00  0.00     0.028 C 
BRANCH  11  12
ATOM     12  C   UNL     1      16.164 -14.453 -32.375  1.00  0.00    -0.028 C 
ATOM     13  C   UNL     1      17.359 -14.167 -31.812  1.00  0.00    -0.080 C 
ATOM     14  C   UNL     1      17.497 -13.177 -30.679  1.00  0.00     0.039 C 
ATOM     15  C   UNL     1      18.588 -14.847 -32.358  1.00  0.00     0.039 C 
ENDBRANCH  11  12
ENDBRANCH   1  11
TORSDOF 4
ENDMDL
MODEL 9
REMARK VINA RESULT:    -4.734      1.204      3.335
REMARK INTER + INTRA:          -7.063
REMARK INTER:                  -5.968
REMARK INTRA:                  -1.094
REMARK UNBOUND:                -1.222
REMARK SMILES CC(C)=CCC[C@H](C)c1ccc(C)cc1
REMARK SMILES IDX 6 1 7 2 8 3 9 4 13 5 12 6 11 7 14 8 10 9 15 10 5 11 4 12
REMARK SMILES IDX 2 13 1 14 3 15
REMARK H PARENT
REMARK Flexibility Score: inf
ROOT
ATOM      1  C   UNL     1      13.999 -13.400 -31.671  1.00  0.00     0.012 C 
ENDROOT
BRANCH   1   2
ATOM      2  C   UNL     1      15.047 -13.297 -32.807  1.00  0.00     0.016 C 
ATOM      3  C   UNL     1      15.627 -14.665 -33.196  1.00  0.00     0.013 C 
BRANCH   2   4
ATOM      4  C   UNL     1      16.160 -12.343 -32.408  1.00  0.00    -0.045 A 
ATOM      5  C   UNL     1      19.317  -9.611 -31.303  1.00  0.00     0.044 C 
ATOM      6  C   UNL     1      18.201 -10.542 -31.669  1.00  0.00    -0.051 A 
ATOM      7  C   UNL     1      17.939 -11.675 -30.886  1.00  0.00     0.004 A 
ATOM      8  C   UNL     1      17.454 -10.325 -32.835  1.00  0.00     0.004 A 
ATOM      9  C   UNL     1      16.923 -12.564 -31.247  1.00  0.00     0.004 A 
ATOM     10  C   UNL     1      16.437 -11.213 -33.198  1.00  0.00     0.004 A 
ENDBRANCH   2   4
ENDBRANCH   1   2
BRANCH   1  11
ATOM     11  C   UNL     1      12.706 -12.608 -31.931  1.00  0.00     0.028 C 
BRANCH  11  12
ATOM     12  C   UNL     1      12.943 -11.117 -31.979  1.00  0.00    -0.028 C 
ATOM     13  C   UNL     1      12.978 -10.380 -33.112  1.00  0.00    -0.080 C 
ATOM     14  C   UNL     1      12.839 -11.005 -34.481  1.00  0.00     0.039 C 
ATOM     15  C   UNL     1      13.187  -8.893 -32.994  1.00  0.00     0.039 C 
ENDBRANCH  11  12
ENDBRANCH   1  11
TORSDOF 4
ENDMDL
