MODEL 1
REMARK VINA RESULT:    -7.166      0.000      0.000
REMARK INTER + INTRA:          -9.092
REMARK INTER:                  -8.842
REMARK INTRA:                  -0.250
REMARK UNBOUND:                -0.250
REMARK SMILES O=c1c(O)c(-c2cc(O)c(O)c(O)c2)oc2cc(O)cc(O)c12
REMARK SMILES IDX 5 1 3 2 2 3 1 4 23 5 21 6 20 7 18 8 17 9 16 10 15 11 6 12
REMARK SMILES IDX 7 13 8 14 14 15 10 16 12 17 9 18 11 20 13 22 4 24 22 26
REMARK SMILES IDX 19 28
REMARK H PARENT 9 19 11 21 13 23 4 25 22 27 19 29
REMARK Flexibility Score: inf
ROOT
ATOM      1  C   UNL     1     -32.967  95.670   7.468  1.00  0.00     0.180 A 
ATOM      2  C   UNL     1     -34.167  94.971   7.250  1.00  0.00     0.208 A 
ATOM      3  C   UNL     1     -34.116  93.588   7.016  1.00  0.00     0.238 A 
ATOM      4  O   UNL     1     -35.189  92.977   6.768  1.00  0.00    -0.285 OA
ATOM      5  C   UNL     1     -32.870  92.917   7.021  1.00  0.00     0.111 A 
ATOM      6  C   UNL     1     -32.704  91.512   6.836  1.00  0.00     0.134 A 
ATOM      7  C   UNL     1     -31.415  90.976   6.729  1.00  0.00     0.093 A 
ATOM      8  C   UNL     1     -30.284  91.786   6.865  1.00  0.00     0.123 A 
ATOM      9  C   UNL     1     -30.436  93.150   7.106  1.00  0.00     0.094 A 
ATOM     10  C   UNL     1     -31.709  93.719   7.182  1.00  0.00     0.146 A 
ATOM     11  O   UNL     1     -31.809  95.024   7.401  1.00  0.00    -0.452 OA
ENDROOT
BRANCH   1  12
ATOM     12  C   UNL     1     -32.941  97.124   7.745  1.00  0.00     0.029 A 
ATOM     13  C   UNL     1     -33.222  98.029   6.711  1.00  0.00     0.062 A 
ATOM     14  C   UNL     1     -33.185  99.409   6.939  1.00  0.00     0.162 A 
ATOM     15  C   UNL     1     -32.584  97.621   9.010  1.00  0.00     0.062 A 
ATOM     16  C   UNL     1     -32.848  99.901   8.212  1.00  0.00     0.200 A 
ATOM     17  C   UNL     1     -32.543  99.002   9.248  1.00  0.00     0.162 A 
BRANCH  14  18
ATOM     18  O   UNL     1     -33.485 100.275   5.888  1.00  0.00    -0.504 OA
ATOM     19  H   UNL     1     -34.281 100.900   5.915  1.00  0.00     0.293 HD
ENDBRANCH  14  18
BRANCH  16  20
ATOM     20  O   UNL     1     -32.816 101.279   8.432  1.00  0.00    -0.502 OA
ATOM     21  H   UNL     1     -33.661 101.824   8.565  1.00  0.00     0.293 HD
ENDBRANCH  16  20
BRANCH  17  22
ATOM     22  O   UNL     1     -32.194  99.483  10.509  1.00  0.00    -0.504 OA
ATOM     23  H   UNL     1     -32.543  99.054  11.357  1.00  0.00     0.293 HD
ENDBRANCH  17  22
ENDBRANCH   1  12
BRANCH   2  24
ATOM     24  O   UNL     1     -35.385  95.656   7.228  1.00  0.00    -0.502 OA
ATOM     25  H   UNL     1     -36.235  95.241   6.866  1.00  0.00     0.293 HD
ENDBRANCH   2  24
BRANCH   6  26
ATOM     26  O   UNL     1     -33.765  90.602   6.779  1.00  0.00    -0.507 OA
ATOM     27  H   UNL     1     -34.609  90.737   6.245  1.00  0.00     0.293 HD
ENDBRANCH   6  26
BRANCH   8  28
ATOM     28  O   UNL     1     -29.005  91.243   6.773  1.00  0.00    -0.508 OA
ATOM     29  H   UNL     1     -28.436  91.365   5.943  1.00  0.00     0.293 HD
ENDBRANCH   8  28
TORSDOF 7
ENDMDL
MODEL 2
REMARK VINA RESULT:    -7.097      0.146      1.759
REMARK INTER + INTRA:          -9.007
REMARK INTER:                  -8.783
REMARK INTRA:                  -0.223
REMARK UNBOUND:                -0.250
REMARK SMILES O=c1c(O)c(-c2cc(O)c(O)c(O)c2)oc2cc(O)cc(O)c12
REMARK SMILES IDX 5 1 3 2 2 3 1 4 23 5 21 6 20 7 18 8 17 9 16 10 15 11 6 12
REMARK SMILES IDX 7 13 8 14 14 15 10 16 12 17 9 18 11 20 13 22 4 24 22 26
REMARK SMILES IDX 19 28
REMARK H PARENT 9 19 11 21 13 23 4 25 22 27 19 29
REMARK Flexibility Score: inf
ROOT
ATOM      1  C   UNL     1     -32.944  95.713   7.480  1.00  0.00     0.180 A 
ATOM      2  C   UNL     1     -34.171  95.055   7.289  1.00  0.00     0.208 A 
ATOM      3  C   UNL     1     -34.172  93.671   7.057  1.00  0.00     0.238 A 
ATOM      4  O   UNL     1     -35.270  93.096   6.833  1.00  0.00    -0.285 OA
ATOM      5  C   UNL     1     -32.949  92.958   7.035  1.00  0.00     0.111 A 
ATOM      6  C   UNL     1     -32.836  91.548   6.849  1.00  0.00     0.134 A 
ATOM      7  C   UNL     1     -31.568  90.969   6.715  1.00  0.00     0.093 A 
ATOM      8  C   UNL     1     -30.408  91.740   6.824  1.00  0.00     0.123 A 
ATOM      9  C   UNL     1     -30.508  93.108   7.066  1.00  0.00     0.094 A 
ATOM     10  C   UNL     1     -31.759  93.720   7.169  1.00  0.00     0.146 A 
ATOM     11  O   UNL     1     -31.810  95.028   7.388  1.00  0.00    -0.452 OA
ENDROOT
BRANCH   1  12
ATOM     12  C   UNL     1     -32.863  97.166   7.753  1.00  0.00     0.029 A 
ATOM     13  C   UNL     1     -32.479  97.609   9.028  1.00  0.00     0.062 A 
ATOM     14  C   UNL     1     -32.414  98.975   9.321  1.00  0.00     0.162 A 
ATOM     15  C   UNL     1     -33.219  98.114   6.779  1.00  0.00     0.062 A 
ATOM     16  C   UNL     1     -32.751  99.920   8.337  1.00  0.00     0.200 A 
ATOM     17  C   UNL     1     -33.158  99.486   7.064  1.00  0.00     0.162 A 
BRANCH  14  18
ATOM     18  O   UNL     1     -32.014  99.374  10.595  1.00  0.00    -0.504 OA
ATOM     19  H   UNL     1     -31.876 100.348  10.837  1.00  0.00     0.293 HD
ENDBRANCH  14  18
BRANCH  16  20
ATOM     20  O   UNL     1     -32.680 101.282   8.636  1.00  0.00    -0.502 OA
ATOM     21  H   UNL     1     -31.957 101.666   9.233  1.00  0.00     0.293 HD
ENDBRANCH  16  20
BRANCH  17  22
ATOM     22  O   UNL     1     -33.508 100.417   6.087  1.00  0.00    -0.504 OA
ATOM     23  H   UNL     1     -33.023 101.303   6.000  1.00  0.00     0.293 HD
ENDBRANCH  17  22
ENDBRANCH   1  12
BRANCH   2  24
ATOM     24  O   UNL     1     -35.366  95.781   7.293  1.00  0.00    -0.502 OA
ATOM     25  H   UNL     1     -35.388  96.792   7.244  1.00  0.00     0.293 HD
ENDBRANCH   2  24
BRANCH   6  26
ATOM     26  O   UNL     1     -33.927  90.675   6.817  1.00  0.00    -0.507 OA
ATOM     27  H   UNL     1     -34.129  90.034   6.065  1.00  0.00     0.293 HD
ENDBRANCH   6  26
BRANCH   8  28
ATOM     28  O   UNL     1     -29.150  91.154   6.705  1.00  0.00    -0.508 OA
ATOM     29  H   UNL     1     -28.372  91.444   7.287  1.00  0.00     0.293 HD
ENDBRANCH   8  28
TORSDOF 7
ENDMDL
MODEL 3
REMARK VINA RESULT:    -6.940      1.381      2.024
REMARK INTER + INTRA:          -8.813
REMARK INTER:                  -8.658
REMARK INTRA:                  -0.155
REMARK UNBOUND:                -0.250
REMARK SMILES O=c1c(O)c(-c2cc(O)c(O)c(O)c2)oc2cc(O)cc(O)c12
REMARK SMILES IDX 5 1 3 2 2 3 1 4 23 5 21 6 20 7 18 8 17 9 16 10 15 11 6 12
REMARK SMILES IDX 7 13 8 14 14 15 10 16 12 17 9 18 11 20 13 22 4 24 22 26
REMARK SMILES IDX 19 28
REMARK H PARENT 9 19 11 21 13 23 4 25 22 27 19 29
REMARK Flexibility Score: inf
ROOT
ATOM      1  C   UNL     1     -32.427  95.948   7.511  1.00  0.00     0.180 A 
ATOM      2  C   UNL     1     -33.796  95.648   7.406  1.00  0.00     0.208 A 
ATOM      3  C   UNL     1     -34.190  94.310   7.246  1.00  0.00     0.238 A 
ATOM      4  O   UNL     1     -35.413  94.054   7.097  1.00  0.00    -0.285 OA
ATOM      5  C   UNL     1     -33.213  93.287   7.214  1.00  0.00     0.111 A 
ATOM      6  C   UNL     1     -33.501  91.894   7.097  1.00  0.00     0.134 A 
ATOM      7  C   UNL     1     -32.450  90.981   6.943  1.00  0.00     0.093 A 
ATOM      8  C   UNL     1     -31.119  91.405   6.965  1.00  0.00     0.123 A 
ATOM      9  C   UNL     1     -30.826  92.756   7.138  1.00  0.00     0.094 A 
ATOM     10  C   UNL     1     -31.854  93.694   7.259  1.00  0.00     0.146 A 
ATOM     11  O   UNL     1     -31.531  94.972   7.410  1.00  0.00    -0.452 OA
ENDROOT
BRANCH   1  12
ATOM     12  C   UNL     1     -31.936  97.331   7.704  1.00  0.00     0.029 A 
ATOM     13  C   UNL     1     -32.324  98.049   8.845  1.00  0.00     0.062 A 
ATOM     14  C   UNL     1     -31.892  99.365   9.044  1.00  0.00     0.162 A 
ATOM     15  C   UNL     1     -31.133  97.963   6.739  1.00  0.00     0.062 A 
ATOM     16  C   UNL     1     -31.072  99.986   8.086  1.00  0.00     0.200 A 
ATOM     17  C   UNL     1     -30.696  99.282   6.929  1.00  0.00     0.162 A 
BRANCH  14  18
ATOM     18  O   UNL     1     -32.288 100.039  10.197  1.00  0.00    -0.504 OA
ATOM     19  H   UNL     1     -32.362  99.576  11.095  1.00  0.00     0.293 HD
ENDBRANCH  14  18
BRANCH  16  20
ATOM     20  O   UNL     1     -30.642 101.297   8.292  1.00  0.00    -0.502 OA
ATOM     21  H   UNL     1     -31.290 102.075   8.347  1.00  0.00     0.293 HD
ENDBRANCH  16  20
BRANCH  17  22
ATOM     22  O   UNL     1     -29.895  99.896   5.967  1.00  0.00    -0.504 OA
ATOM     23  H   UNL     1     -29.008 100.323   6.208  1.00  0.00     0.293 HD
ENDBRANCH  17  22
ENDBRANCH   1  12
BRANCH   2  24
ATOM     24  O   UNL     1     -34.744  96.676   7.419  1.00  0.00    -0.502 OA
ATOM     25  H   UNL     1     -35.706  96.532   7.138  1.00  0.00     0.293 HD
ENDBRANCH   2  24
BRANCH   6  26
ATOM     26  O   UNL     1     -34.790  91.356   7.155  1.00  0.00    -0.507 OA
ATOM     27  H   UNL     1     -35.273  90.935   6.376  1.00  0.00     0.293 HD
ENDBRANCH   6  26
BRANCH   8  28
ATOM     28  O   UNL     1     -30.078  90.489   6.826  1.00  0.00    -0.508 OA
ATOM     29  H   UNL     1     -29.563  90.399   5.958  1.00  0.00     0.293 HD
ENDBRANCH   8  28
TORSDOF 7
ENDMDL
MODEL 4
REMARK VINA RESULT:    -6.913      1.189      2.784
REMARK INTER + INTRA:          -8.780
REMARK INTER:                  -8.595
REMARK INTRA:                  -0.185
REMARK UNBOUND:                -0.250
REMARK SMILES O=c1c(O)c(-c2cc(O)c(O)c(O)c2)oc2cc(O)cc(O)c12
REMARK SMILES IDX 5 1 3 2 2 3 1 4 23 5 21 6 20 7 18 8 17 9 16 10 15 11 6 12
REMARK SMILES IDX 7 13 8 14 14 15 10 16 12 17 9 18 11 20 13 22 4 24 22 26
REMARK SMILES IDX 19 28
REMARK H PARENT 9 19 11 21 13 23 4 25 22 27 19 29
REMARK Flexibility Score: inf
ROOT
ATOM      1  C   UNL     1     -32.457  95.519   7.498  1.00  0.00     0.180 A 
ATOM      2  C   UNL     1     -31.175  94.945   7.560  1.00  0.00     0.208 A 
ATOM      3  C   UNL     1     -31.033  93.568   7.323  1.00  0.00     0.238 A 
ATOM      4  O   UNL     1     -29.891  93.051   7.434  1.00  0.00    -0.285 OA
ATOM      5  C   UNL     1     -32.170  92.786   7.010  1.00  0.00     0.111 A 
ATOM      6  C   UNL     1     -32.138  91.391   6.712  1.00  0.00     0.134 A 
ATOM      7  C   UNL     1     -33.339  90.692   6.544  1.00  0.00     0.093 A 
ATOM      8  C   UNL     1     -34.570  91.351   6.601  1.00  0.00     0.123 A 
ATOM      9  C   UNL     1     -34.609  92.724   6.832  1.00  0.00     0.094 A 
ATOM     10  C   UNL     1     -33.429  93.442   7.038  1.00  0.00     0.146 A 
ATOM     11  O   UNL     1     -33.512  94.747   7.267  1.00  0.00    -0.452 OA
ENDROOT
BRANCH   1  12
ATOM     12  C   UNL     1     -32.683  96.966   7.713  1.00  0.00     0.029 A 
ATOM     13  C   UNL     1     -33.118  97.763   6.643  1.00  0.00     0.062 A 
ATOM     14  C   UNL     1     -33.320  99.137   6.811  1.00  0.00     0.162 A 
ATOM     15  C   UNL     1     -32.416  97.572   8.952  1.00  0.00     0.062 A 
ATOM     16  C   UNL     1     -33.072  99.735   8.059  1.00  0.00     0.200 A 
ATOM     17  C   UNL     1     -32.614  98.949   9.130  1.00  0.00     0.162 A 
BRANCH  14  18
ATOM     18  O   UNL     1     -33.767  99.892   5.728  1.00  0.00    -0.504 OA
ATOM     19  H   UNL     1     -34.738 100.153   5.615  1.00  0.00     0.293 HD
ENDBRANCH  14  18
BRANCH  16  20
ATOM     20  O   UNL     1     -33.279 101.106   8.220  1.00  0.00    -0.502 OA
ATOM     21  H   UNL     1     -33.745 101.667   7.516  1.00  0.00     0.293 HD
ENDBRANCH  16  20
BRANCH  17  22
ATOM     22  O   UNL     1     -32.352  99.537  10.366  1.00  0.00    -0.504 OA
ATOM     23  H   UNL     1     -32.296  98.988  11.215  1.00  0.00     0.293 HD
ENDBRANCH  17  22
ENDBRANCH   1  12
BRANCH   2  24
ATOM     24  O   UNL     1     -30.068  95.731   7.893  1.00  0.00    -0.502 OA
ATOM     25  H   UNL     1     -29.836  96.581   7.395  1.00  0.00     0.293 HD
ENDBRANCH   2  24
BRANCH   6  26
ATOM     26  O   UNL     1     -30.960  90.657   6.543  1.00  0.00    -0.507 OA
ATOM     27  H   UNL     1     -30.031  91.013   6.710  1.00  0.00     0.293 HD
ENDBRANCH   6  26
BRANCH   8  28
ATOM     28  O   UNL     1     -35.760  90.651   6.418  1.00  0.00    -0.508 OA
ATOM     29  H   UNL     1     -36.558  91.072   5.955  1.00  0.00     0.293 HD
ENDBRANCH   8  28
TORSDOF 7
ENDMDL
MODEL 5
REMARK VINA RESULT:    -6.749     16.716     18.464
REMARK INTER + INTRA:          -8.577
REMARK INTER:                  -8.219
REMARK INTRA:                  -0.358
REMARK UNBOUND:                -0.250
REMARK SMILES O=c1c(O)c(-c2cc(O)c(O)c(O)c2)oc2cc(O)cc(O)c12
REMARK SMILES IDX 5 1 3 2 2 3 1 4 23 5 21 6 20 7 18 8 17 9 16 10 15 11 6 12
REMARK SMILES IDX 7 13 8 14 14 15 10 16 12 17 9 18 11 20 13 22 4 24 22 26
REMARK SMILES IDX 19 28
REMARK H PARENT 9 19 11 21 13 23 4 25 22 27 19 29
REMARK Flexibility Score: inf
ROOT
ATOM      1  C   UNL     1     -20.157  96.551  -5.940  1.00  0.00     0.180 A 
ATOM      2  C   UNL     1     -18.804  96.344  -6.259  1.00  0.00     0.208 A 
ATOM      3  C   UNL     1     -18.206  95.119  -5.926  1.00  0.00     0.238 A 
ATOM      4  O   UNL     1     -16.980  94.960  -6.165  1.00  0.00    -0.285 OA
ATOM      5  C   UNL     1     -18.971  94.109  -5.296  1.00  0.00     0.111 A 
ATOM      6  C   UNL     1     -18.478  92.815  -4.950  1.00  0.00     0.134 A 
ATOM      7  C   UNL     1     -19.287  91.942  -4.212  1.00  0.00     0.093 A 
ATOM      8  C   UNL     1     -20.594  92.293  -3.861  1.00  0.00     0.123 A 
ATOM      9  C   UNL     1     -21.103  93.531  -4.246  1.00  0.00     0.094 A 
ATOM     10  C   UNL     1     -20.309  94.436  -4.953  1.00  0.00     0.146 A 
ATOM     11  O   UNL     1     -20.830  95.610  -5.289  1.00  0.00    -0.452 OA
ENDROOT
BRANCH   1  12
ATOM     12  C   UNL     1     -20.864  97.807  -6.280  1.00  0.00     0.029 A 
ATOM     13  C   UNL     1     -21.040  98.789  -5.294  1.00  0.00     0.062 A 
ATOM     14  C   UNL     1     -21.721  99.977  -5.581  1.00  0.00     0.162 A 
ATOM     15  C   UNL     1     -21.414  98.013  -7.556  1.00  0.00     0.062 A 
ATOM     16  C   UNL     1     -22.252 100.188  -6.866  1.00  0.00     0.200 A 
ATOM     17  C   UNL     1     -22.100  99.200  -7.853  1.00  0.00     0.162 A 
BRANCH  14  18
ATOM     18  O   UNL     1     -21.862 100.935  -4.578  1.00  0.00    -0.504 OA
ATOM     19  H   UNL     1     -21.702 100.721  -3.602  1.00  0.00     0.293 HD
ENDBRANCH  14  18
BRANCH  16  20
ATOM     20  O   UNL     1     -22.928 101.377  -7.146  1.00  0.00    -0.502 OA
ATOM     21  H   UNL     1     -22.792 102.217  -6.596  1.00  0.00     0.293 HD
ENDBRANCH  16  20
BRANCH  17  22
ATOM     22  O   UNL     1     -22.636  99.396  -9.125  1.00  0.00    -0.504 OA
ATOM     23  H   UNL     1     -22.236  98.956  -9.945  1.00  0.00     0.293 HD
ENDBRANCH  17  22
ENDBRANCH   1  12
BRANCH   2  24
ATOM     24  O   UNL     1     -18.060  97.363  -6.862  1.00  0.00    -0.502 OA
ATOM     25  H   UNL     1     -17.784  97.331  -7.836  1.00  0.00     0.293 HD
ENDBRANCH   2  24
BRANCH   6  26
ATOM     26  O   UNL     1     -17.223  92.331  -5.330  1.00  0.00    -0.507 OA
ATOM     27  H   UNL     1     -16.521  91.991  -4.690  1.00  0.00     0.293 HD
ENDBRANCH   6  26
BRANCH   8  28
ATOM     28  O   UNL     1     -21.397  91.413  -3.140  1.00  0.00    -0.508 OA
ATOM     29  H   UNL     1     -22.372  91.269  -3.377  1.00  0.00     0.293 HD
ENDBRANCH   8  28
TORSDOF 7
ENDMDL
MODEL 6
REMARK VINA RESULT:    -6.714     16.678     18.348
REMARK INTER + INTRA:          -8.534
REMARK INTER:                  -8.184
REMARK INTRA:                  -0.351
REMARK UNBOUND:                -0.250
REMARK SMILES O=c1c(O)c(-c2cc(O)c(O)c(O)c2)oc2cc(O)cc(O)c12
REMARK SMILES IDX 5 1 3 2 2 3 1 4 23 5 21 6 20 7 18 8 17 9 16 10 15 11 6 12
REMARK SMILES IDX 7 13 8 14 14 15 10 16 12 17 9 18 11 20 13 22 4 24 22 26
REMARK SMILES IDX 19 28
REMARK H PARENT 9 19 11 21 13 23 4 25 22 27 19 29
REMARK Flexibility Score: inf
ROOT
ATOM      1  C   UNL     1     -20.215  96.588  -5.857  1.00  0.00     0.180 A 
ATOM      2  C   UNL     1     -18.852  96.402  -6.148  1.00  0.00     0.208 A 
ATOM      3  C   UNL     1     -18.247  95.178  -5.823  1.00  0.00     0.238 A 
ATOM      4  O   UNL     1     -17.014  95.038  -6.036  1.00  0.00    -0.285 OA
ATOM      5  C   UNL     1     -19.015  94.148  -5.229  1.00  0.00     0.111 A 
ATOM      6  C   UNL     1     -18.515  92.854  -4.895  1.00  0.00     0.134 A 
ATOM      7  C   UNL     1     -19.330  91.958  -4.191  1.00  0.00     0.093 A 
ATOM      8  C   UNL     1     -20.649  92.288  -3.866  1.00  0.00     0.123 A 
ATOM      9  C   UNL     1     -21.164  93.526  -4.240  1.00  0.00     0.094 A 
ATOM     10  C   UNL     1     -20.364  94.454  -4.911  1.00  0.00     0.146 A 
ATOM     11  O   UNL     1     -20.892  95.627  -5.239  1.00  0.00    -0.452 OA
ENDROOT
BRANCH   1  12
ATOM     12  C   UNL     1     -20.928  97.841  -6.191  1.00  0.00     0.029 A 
ATOM     13  C   UNL     1     -21.441  98.021  -7.484  1.00  0.00     0.062 A 
ATOM     14  C   UNL     1     -22.101  99.204  -7.834  1.00  0.00     0.162 A 
ATOM     15  C   UNL     1     -21.053  98.883  -5.255  1.00  0.00     0.062 A 
ATOM     16  C   UNL     1     -22.243 100.234  -6.888  1.00  0.00     0.200 A 
ATOM     17  C   UNL     1     -21.712 100.072  -5.597  1.00  0.00     0.162 A 
BRANCH  14  18
ATOM     18  O   UNL     1     -22.609  99.337  -9.125  1.00  0.00    -0.504 OA
ATOM     19  H   UNL     1     -23.586  99.533  -9.303  1.00  0.00     0.293 HD
ENDBRANCH  14  18
BRANCH  16  20
ATOM     20  O   UNL     1     -22.906 101.410  -7.244  1.00  0.00    -0.502 OA
ATOM     21  H   UNL     1     -22.904 101.764  -8.193  1.00  0.00     0.293 HD
ENDBRANCH  16  20
BRANCH  17  22
ATOM     22  O   UNL     1     -21.836 101.096  -4.658  1.00  0.00    -0.504 OA
ATOM     23  H   UNL     1     -21.092 101.765  -4.501  1.00  0.00     0.293 HD
ENDBRANCH  17  22
ENDBRANCH   1  12
BRANCH   2  24
ATOM     24  O   UNL     1     -18.107  97.440  -6.715  1.00  0.00    -0.502 OA
ATOM     25  H   UNL     1     -18.539  98.230  -7.177  1.00  0.00     0.293 HD
ENDBRANCH   2  24
BRANCH   6  26
ATOM     26  O   UNL     1     -17.245  92.391  -5.254  1.00  0.00    -0.507 OA
ATOM     27  H   UNL     1     -16.778  91.606  -4.827  1.00  0.00     0.293 HD
ENDBRANCH   6  26
BRANCH   8  28
ATOM     28  O   UNL     1     -21.458  91.385  -3.179  1.00  0.00    -0.508 OA
ATOM     29  H   UNL     1     -22.468  91.406  -3.266  1.00  0.00     0.293 HD
ENDBRANCH   8  28
TORSDOF 7
ENDMDL
MODEL 7
REMARK VINA RESULT:    -6.712      4.581      8.016
REMARK INTER + INTRA:          -8.531
REMARK INTER:                  -8.418
REMARK INTRA:                  -0.114
REMARK UNBOUND:                -0.250
REMARK SMILES O=c1c(O)c(-c2cc(O)c(O)c(O)c2)oc2cc(O)cc(O)c12
REMARK SMILES IDX 5 1 3 2 2 3 1 4 23 5 21 6 20 7 18 8 17 9 16 10 15 11 6 12
REMARK SMILES IDX 7 13 8 14 14 15 10 16 12 17 9 18 11 20 13 22 4 24 22 26
REMARK SMILES IDX 19 28
REMARK H PARENT 9 19 11 21 13 23 4 25 22 27 19 29
REMARK Flexibility Score: inf
ROOT
ATOM      1  C   UNL     1     -30.275  90.818   7.531  1.00  0.00     0.180 A 
ATOM      2  C   UNL     1     -30.207  90.829   6.127  1.00  0.00     0.208 A 
ATOM      3  C   UNL     1     -31.275  91.375   5.398  1.00  0.00     0.238 A 
ATOM      4  O   UNL     1     -31.233  91.332   4.140  1.00  0.00    -0.285 OA
ATOM      5  C   UNL     1     -32.388  91.921   6.080  1.00  0.00     0.111 A 
ATOM      6  C   UNL     1     -33.507  92.537   5.444  1.00  0.00     0.134 A 
ATOM      7  C   UNL     1     -34.612  92.924   6.212  1.00  0.00     0.093 A 
ATOM      8  C   UNL     1     -34.611  92.776   7.601  1.00  0.00     0.123 A 
ATOM      9  C   UNL     1     -33.498  92.230   8.237  1.00  0.00     0.094 A 
ATOM     10  C   UNL     1     -32.396  91.802   7.495  1.00  0.00     0.146 A 
ATOM     11  O   UNL     1     -31.362  91.277   8.140  1.00  0.00    -0.452 OA
ENDROOT
BRANCH   1  12
ATOM     12  C   UNL     1     -29.178  90.281   8.369  1.00  0.00     0.029 A 
ATOM     13  C   UNL     1     -29.466  89.322   9.351  1.00  0.00     0.062 A 
ATOM     14  C   UNL     1     -28.454  88.811  10.170  1.00  0.00     0.162 A 
ATOM     15  C   UNL     1     -27.862  90.754   8.240  1.00  0.00     0.062 A 
ATOM     16  C   UNL     1     -27.134  89.273  10.025  1.00  0.00     0.200 A 
ATOM     17  C   UNL     1     -26.840  90.250   9.059  1.00  0.00     0.162 A 
BRANCH  14  18
ATOM     18  O   UNL     1     -28.778  87.849  11.125  1.00  0.00    -0.504 OA
ATOM     19  H   UNL     1     -28.360  86.926  11.125  1.00  0.00     0.293 HD
ENDBRANCH  14  18
BRANCH  16  20
ATOM     20  O   UNL     1     -26.129  88.757  10.844  1.00  0.00    -0.502 OA
ATOM     21  H   UNL     1     -25.949  87.762  10.916  1.00  0.00     0.293 HD
ENDBRANCH  16  20
BRANCH  17  22
ATOM     22  O   UNL     1     -25.537  90.723   8.918  1.00  0.00    -0.504 OA
ATOM     23  H   UNL     1     -25.106  90.832   8.008  1.00  0.00     0.293 HD
ENDBRANCH  17  22
ENDBRANCH   1  12
BRANCH   2  24
ATOM     24  O   UNL     1     -29.108  90.265   5.472  1.00  0.00    -0.502 OA
ATOM     25  H   UNL     1     -28.284  90.802   5.233  1.00  0.00     0.293 HD
ENDBRANCH   2  24
BRANCH   6  26
ATOM     26  O   UNL     1     -33.571  92.814   4.075  1.00  0.00    -0.507 OA
ATOM     27  H   UNL     1     -32.775  92.834   3.455  1.00  0.00     0.293 HD
ENDBRANCH   6  26
BRANCH   8  28
ATOM     28  O   UNL     1     -35.708  93.178   8.360  1.00  0.00    -0.508 OA
ATOM     29  H   UNL     1     -36.120  94.098   8.251  1.00  0.00     0.293 HD
ENDBRANCH   8  28
TORSDOF 7
ENDMDL
MODEL 8
REMARK VINA RESULT:    -6.587      1.786      7.266
REMARK INTER + INTRA:          -8.377
REMARK INTER:                  -8.084
REMARK INTRA:                  -0.292
REMARK UNBOUND:                -0.250
REMARK SMILES O=c1c(O)c(-c2cc(O)c(O)c(O)c2)oc2cc(O)cc(O)c12
REMARK SMILES IDX 5 1 3 2 2 3 1 4 23 5 21 6 20 7 18 8 17 9 16 10 15 11 6 12
REMARK SMILES IDX 7 13 8 14 14 15 10 16 12 17 9 18 11 20 13 22 4 24 22 26
REMARK SMILES IDX 19 28
REMARK H PARENT 9 19 11 21 13 23 4 25 22 27 19 29
REMARK Flexibility Score: inf
ROOT
ATOM      1  C   UNL     1     -33.308  95.398   8.030  1.00  0.00     0.180 A 
ATOM      2  C   UNL     1     -32.606  95.515   9.242  1.00  0.00     0.208 A 
ATOM      3  C   UNL     1     -32.308  96.795   9.735  1.00  0.00     0.238 A 
ATOM      4  O   UNL     1     -31.631  96.892  10.793  1.00  0.00    -0.285 OA
ATOM      5  C   UNL     1     -32.731  97.942   9.022  1.00  0.00     0.111 A 
ATOM      6  C   UNL     1     -32.519  99.286   9.450  1.00  0.00     0.134 A 
ATOM      7  C   UNL     1     -32.866 100.344   8.601  1.00  0.00     0.093 A 
ATOM      8  C   UNL     1     -33.474 100.107   7.365  1.00  0.00     0.123 A 
ATOM      9  C   UNL     1     -33.739  98.800   6.966  1.00  0.00     0.094 A 
ATOM     10  C   UNL     1     -33.373  97.722   7.775  1.00  0.00     0.146 A 
ATOM     11  O   UNL     1     -33.634  96.492   7.351  1.00  0.00    -0.452 OA
ENDROOT
BRANCH   1  12
ATOM     12  C   UNL     1     -33.680  94.084   7.457  1.00  0.00     0.029 A 
ATOM     13  C   UNL     1     -34.718  93.345   8.042  1.00  0.00     0.062 A 
ATOM     14  C   UNL     1     -35.077  92.091   7.535  1.00  0.00     0.162 A 
ATOM     15  C   UNL     1     -32.974  93.533   6.374  1.00  0.00     0.062 A 
ATOM     16  C   UNL     1     -34.383  91.553   6.438  1.00  0.00     0.200 A 
ATOM     17  C   UNL     1     -33.326  92.277   5.860  1.00  0.00     0.162 A 
BRANCH  14  18
ATOM     18  O   UNL     1     -36.125  91.395   8.135  1.00  0.00    -0.504 OA
ATOM     19  H   UNL     1     -37.091  91.682   8.037  1.00  0.00     0.293 HD
ENDBRANCH  14  18
BRANCH  16  20
ATOM     20  O   UNL     1     -34.749  90.304   5.936  1.00  0.00    -0.502 OA
ATOM     21  H   UNL     1     -34.857  89.493   6.534  1.00  0.00     0.293 HD
ENDBRANCH  16  20
BRANCH  17  22
ATOM     22  O   UNL     1     -32.623  91.743   4.781  1.00  0.00    -0.504 OA
ATOM     23  H   UNL     1     -31.964  90.983   4.899  1.00  0.00     0.293 HD
ENDBRANCH  17  22
ENDBRANCH   1  12
BRANCH   2  24
ATOM     24  O   UNL     1     -32.178  94.370   9.919  1.00  0.00    -0.502 OA
ATOM     25  H   UNL     1     -31.497  94.403  10.668  1.00  0.00     0.293 HD
ENDBRANCH   2  24
BRANCH   6  26
ATOM     26  O   UNL     1     -32.003  99.635  10.702  1.00  0.00    -0.507 OA
ATOM     27  H   UNL     1     -31.502 100.487  10.900  1.00  0.00     0.293 HD
ENDBRANCH   6  26
BRANCH   8  28
ATOM     28  O   UNL     1     -33.829 101.166   6.533  1.00  0.00    -0.508 OA
ATOM     29  H   UNL     1     -33.129 101.746   6.084  1.00  0.00     0.293 HD
ENDBRANCH   8  28
TORSDOF 7
ENDMDL
MODEL 9
REMARK VINA RESULT:    -6.439      4.323      6.217
REMARK INTER + INTRA:          -8.195
REMARK INTER:                  -7.977
REMARK INTRA:                  -0.218
REMARK UNBOUND:                -0.250
REMARK SMILES O=c1c(O)c(-c2cc(O)c(O)c(O)c2)oc2cc(O)cc(O)c12
REMARK SMILES IDX 5 1 3 2 2 3 1 4 23 5 21 6 20 7 18 8 17 9 16 10 15 11 6 12
REMARK SMILES IDX 7 13 8 14 14 15 10 16 12 17 9 18 11 20 13 22 4 24 22 26
REMARK SMILES IDX 19 28
REMARK H PARENT 9 19 11 21 13 23 4 25 22 27 19 29
REMARK Flexibility Score: inf
ROOT
ATOM      1  C   UNL     1     -30.842  91.764   8.330  1.00  0.00     0.180 A 
ATOM      2  C   UNL     1     -29.726  92.554   8.002  1.00  0.00     0.208 A 
ATOM      3  C   UNL     1     -28.442  92.083   8.316  1.00  0.00     0.238 A 
ATOM      4  O   UNL     1     -27.451  92.819   8.070  1.00  0.00    -0.285 OA
ATOM      5  C   UNL     1     -28.287  90.821   8.937  1.00  0.00     0.111 A 
ATOM      6  C   UNL     1     -27.031  90.227   9.264  1.00  0.00     0.134 A 
ATOM      7  C   UNL     1     -27.001  89.033   9.995  1.00  0.00     0.093 A 
ATOM      8  C   UNL     1     -28.182  88.379  10.356  1.00  0.00     0.123 A 
ATOM      9  C   UNL     1     -29.411  88.921   9.989  1.00  0.00     0.094 A 
ATOM     10  C   UNL     1     -29.474  90.128   9.291  1.00  0.00     0.146 A 
ATOM     11  O   UNL     1     -30.667  90.615   8.971  1.00  0.00    -0.452 OA
ENDROOT
BRANCH   1  12
ATOM     12  C   UNL     1     -32.225  92.182   8.009  1.00  0.00     0.029 A 
ATOM     13  C   UNL     1     -32.622  92.285   6.668  1.00  0.00     0.062 A 
ATOM     14  C   UNL     1     -33.917  92.697   6.335  1.00  0.00     0.162 A 
ATOM     15  C   UNL     1     -33.135  92.536   9.020  1.00  0.00     0.062 A 
ATOM     16  C   UNL     1     -34.831  93.030   7.350  1.00  0.00     0.200 A 
ATOM     17  C   UNL     1     -34.434  92.952   8.696  1.00  0.00     0.162 A 
BRANCH  14  18
ATOM     18  O   UNL     1     -34.277  92.773   4.990  1.00  0.00    -0.504 OA
ATOM     19  H   UNL     1     -34.215  93.634   4.462  1.00  0.00     0.293 HD
ENDBRANCH  14  18
BRANCH  16  20
ATOM     20  O   UNL     1     -36.121  93.437   7.010  1.00  0.00    -0.502 OA
ATOM     21  H   UNL     1     -36.310  94.003   6.191  1.00  0.00     0.293 HD
ENDBRANCH  16  20
BRANCH  17  22
ATOM     22  O   UNL     1     -35.330  93.293   9.708  1.00  0.00    -0.504 OA
ATOM     23  H   UNL     1     -35.894  94.133   9.658  1.00  0.00     0.293 HD
ENDBRANCH  17  22
ENDBRANCH   1  12
BRANCH   2  24
ATOM     24  O   UNL     1     -29.903  93.808   7.409  1.00  0.00    -0.502 OA
ATOM     25  H   UNL     1     -30.218  93.917   6.452  1.00  0.00     0.293 HD
ENDBRANCH   2  24
BRANCH   6  26
ATOM     26  O   UNL     1     -25.795  90.750   8.872  1.00  0.00    -0.507 OA
ATOM     27  H   UNL     1     -25.151  90.294   8.244  1.00  0.00     0.293 HD
ENDBRANCH   6  26
BRANCH   8  28
ATOM     28  O   UNL     1     -28.142  87.184  11.070  1.00  0.00    -0.508 OA
ATOM     29  H   UNL     1     -28.750  87.020  11.865  1.00  0.00     0.293 HD
ENDBRANCH   8  28
TORSDOF 7
ENDMDL
