MODEL 1
REMARK VINA RESULT:     0.000      0.000      0.000
REMARK INTER + INTRA:          -0.148
REMARK INTER:                   0.000
REMARK INTRA:                  -0.148
REMARK UNBOUND:                -0.148
REMARK SMILES O=C([O-])C=Cc1ccccc1
REMARK SMILES IDX 4 1 5 2 2 3 1 4 3 5 6 6 7 7 11 8 8 9 10 10 9 11
REMARK H PARENT
REMARK Flexibility Score: inf
ROOT
ATOM      1  C   UNL     1      -3.083  -1.552  -1.813  1.00  0.00     0.025 C 
ATOM      2  C   UNL     1      -2.939  -1.455  -3.144  1.00  0.00     0.010 C 
ENDROOT
BRANCH   1   3
ATOM      3  C   UNL     1      -1.928  -1.587  -0.901  1.00  0.00     0.064 C 
ATOM      4  O   UNL     1      -0.748  -1.527  -1.339  1.00  0.00    -0.545 OA
ATOM      5  O   UNL     1      -2.143  -1.688   0.468  1.00  0.00    -0.545 OA
ENDBRANCH   1   3
BRANCH   2   6
ATOM      6  C   UNL     1      -4.063  -1.415  -4.120  1.00  0.00    -0.026 A 
ATOM      7  C   UNL     1      -5.378  -1.483  -3.621  1.00  0.00     0.008 A 
ATOM      8  C   UNL     1      -3.875  -1.315  -5.516  1.00  0.00     0.008 A 
ATOM      9  C   UNL     1      -6.473  -1.449  -4.488  1.00  0.00     0.001 A 
ATOM     10  C   UNL     1      -4.977  -1.283  -6.378  1.00  0.00     0.001 A 
ATOM     11  C   UNL     1      -6.273  -1.349  -5.865  1.00  0.00     0.000 A 
ENDBRANCH   2   6
TORSDOF 2
ENDMDL
MODEL 2
REMARK VINA RESULT:     0.000      9.880     10.628
REMARK INTER + INTRA:          -0.148
REMARK INTER:                   0.000
REMARK INTRA:                  -0.148
REMARK UNBOUND:                -0.148
REMARK SMILES O=C([O-])C=Cc1ccccc1
REMARK SMILES IDX 4 1 5 2 2 3 1 4 3 5 6 6 7 7 11 8 8 9 10 10 9 11
REMARK H PARENT
REMARK Flexibility Score: inf
ROOT
ATOM      1  C   UNL     1      -5.886 -10.196  -7.713  1.00  0.00     0.025 C 
ATOM      2  C   UNL     1      -6.897 -10.323  -8.586  1.00  0.00     0.010 C 
ENDROOT
BRANCH   1   3
ATOM      3  C   UNL     1      -5.734 -11.093  -6.554  1.00  0.00     0.064 C 
ATOM      4  O   UNL     1      -6.557 -12.023  -6.337  1.00  0.00    -0.545 OA
ATOM      5  O   UNL     1      -4.666 -10.911  -5.686  1.00  0.00    -0.545 OA
ENDBRANCH   1   3
BRANCH   2   6
ATOM      6  C   UNL     1      -7.107  -9.451  -9.774  1.00  0.00    -0.026 A 
ATOM      7  C   UNL     1      -6.183  -8.415 -10.010  1.00  0.00     0.008 A 
ATOM      8  C   UNL     1      -8.185  -9.611 -10.674  1.00  0.00     0.008 A 
ATOM      9  C   UNL     1      -6.328  -7.565 -11.110  1.00  0.00     0.001 A 
ATOM     10  C   UNL     1      -8.324  -8.755 -11.772  1.00  0.00     0.001 A 
ATOM     11  C   UNL     1      -7.397  -7.735 -11.989  1.00  0.00     0.000 A 
ENDBRANCH   2   6
TORSDOF 2
ENDMDL
MODEL 3
REMARK VINA RESULT:     0.000      5.261      6.176
REMARK INTER + INTRA:          -0.148
REMARK INTER:                   0.000
REMARK INTRA:                  -0.148
REMARK UNBOUND:                -0.148
REMARK SMILES O=C([O-])C=Cc1ccccc1
REMARK SMILES IDX 4 1 5 2 2 3 1 4 3 5 6 6 7 7 11 8 8 9 10 10 9 11
REMARK H PARENT
REMARK Flexibility Score: inf
ROOT
ATOM      1  C   UNL     1      -5.703  -0.170  -7.061  1.00  0.00     0.025 C 
ATOM      2  C   UNL     1      -5.231  -1.405  -7.289  1.00  0.00     0.010 C 
ENDROOT
BRANCH   1   3
ATOM      3  C   UNL     1      -7.069   0.068  -6.564  1.00  0.00     0.064 C 
ATOM      4  O   UNL     1      -7.855  -0.889  -6.331  1.00  0.00    -0.545 OA
ATOM      5  O   UNL     1      -7.499   1.371  -6.348  1.00  0.00    -0.545 OA
ENDBRANCH   1   3
BRANCH   2   6
ATOM      6  C   UNL     1      -3.864  -1.714  -7.790  1.00  0.00    -0.026 A 
ATOM      7  C   UNL     1      -2.993  -0.638  -8.048  1.00  0.00     0.008 A 
ATOM      8  C   UNL     1      -3.400  -3.028  -8.021  1.00  0.00     0.008 A 
ATOM      9  C   UNL     1      -1.697  -0.865  -8.519  1.00  0.00     0.001 A 
ATOM     10  C   UNL     1      -2.101  -3.247  -8.494  1.00  0.00     0.001 A 
ATOM     11  C   UNL     1      -1.252  -2.168  -8.742  1.00  0.00     0.000 A 
ENDBRANCH   2   6
TORSDOF 2
ENDMDL
MODEL 4
REMARK VINA RESULT:     0.000      9.412     11.387
REMARK INTER + INTRA:          -0.148
REMARK INTER:                   0.000
REMARK INTRA:                  -0.148
REMARK UNBOUND:                -0.148
REMARK SMILES O=C([O-])C=Cc1ccccc1
REMARK SMILES IDX 4 1 5 2 2 3 1 4 3 5 6 6 7 7 11 8 8 9 10 10 9 11
REMARK H PARENT
REMARK Flexibility Score: inf
ROOT
ATOM      1  C   UNL     1       6.552  -8.321  -1.323  1.00  0.00     0.025 C 
ATOM      2  C   UNL     1       5.274  -8.210  -1.714  1.00  0.00     0.010 C 
ENDROOT
BRANCH   1   3
ATOM      3  C   UNL     1       7.390  -9.473  -1.699  1.00  0.00     0.064 C 
ATOM      4  O   UNL     1       6.933 -10.408  -2.409  1.00  0.00    -0.545 OA
ATOM      5  O   UNL     1       8.707  -9.530  -1.262  1.00  0.00    -0.545 OA
ENDBRANCH   1   3
BRANCH   2   6
ATOM      6  C   UNL     1       4.375  -7.074  -1.369  1.00  0.00    -0.026 A 
ATOM      7  C   UNL     1       4.894  -6.034  -0.575  1.00  0.00     0.008 A 
ATOM      8  C   UNL     1       3.031  -6.990  -1.797  1.00  0.00     0.008 A 
ATOM      9  C   UNL     1       4.099  -4.941  -0.220  1.00  0.00     0.001 A 
ATOM     10  C   UNL     1       2.240  -5.893  -1.436  1.00  0.00     0.001 A 
ATOM     11  C   UNL     1       2.773  -4.871  -0.649  1.00  0.00     0.000 A 
ENDBRANCH   2   6
TORSDOF 2
ENDMDL
MODEL 5
REMARK VINA RESULT:     0.000      9.765     10.629
REMARK INTER + INTRA:          -0.148
REMARK INTER:                   0.000
REMARK INTRA:                  -0.148
REMARK UNBOUND:                -0.148
REMARK SMILES O=C([O-])C=Cc1ccccc1
REMARK SMILES IDX 4 1 5 2 2 3 1 4 3 5 6 6 7 7 11 8 8 9 10 10 9 11
REMARK H PARENT
REMARK Flexibility Score: inf
ROOT
ATOM      1  C   UNL     1       1.959  -9.759  -6.076  1.00  0.00     0.025 C 
ATOM      2  C   UNL     1       2.853  -8.973  -5.456  1.00  0.00     0.010 C 
ENDROOT
BRANCH   1   3
ATOM      3  C   UNL     1       1.650 -11.119  -5.601  1.00  0.00     0.064 C 
ATOM      4  O   UNL     1       2.219 -11.601  -4.586  1.00  0.00    -0.545 OA
ATOM      5  O   UNL     1       0.715 -11.884  -6.286  1.00  0.00    -0.545 OA
ENDBRANCH   1   3
BRANCH   2   6
ATOM      6  C   UNL     1       3.210  -7.592  -5.883  1.00  0.00    -0.026 A 
ATOM      7  C   UNL     1       2.570  -7.062  -7.020  1.00  0.00     0.008 A 
ATOM      8  C   UNL     1       4.158  -6.792  -5.208  1.00  0.00     0.008 A 
ATOM      9  C   UNL     1       2.864  -5.772  -7.468  1.00  0.00     0.001 A 
ATOM     10  C   UNL     1       4.448  -5.501  -5.664  1.00  0.00     0.001 A 
ATOM     11  C   UNL     1       3.802  -4.992  -6.792  1.00  0.00     0.000 A 
ENDBRANCH   2   6
TORSDOF 2
ENDMDL
MODEL 6
REMARK VINA RESULT:     0.000      6.113      7.231
REMARK INTER + INTRA:          -0.148
REMARK INTER:                   0.000
REMARK INTRA:                  -0.148
REMARK UNBOUND:                -0.148
REMARK SMILES O=C([O-])C=Cc1ccccc1
REMARK SMILES IDX 4 1 5 2 2 3 1 4 3 5 6 6 7 7 11 8 8 9 10 10 9 11
REMARK H PARENT
REMARK Flexibility Score: inf
ROOT
ATOM      1  C   UNL     1      -5.235  -0.969  -9.376  1.00  0.00     0.025 C 
ATOM      2  C   UNL     1      -3.948  -1.325  -9.248  1.00  0.00     0.010 C 
ENDROOT
BRANCH   1   3
ATOM      3  C   UNL     1      -5.677   0.033 -10.361  1.00  0.00     0.064 C 
ATOM      4  O   UNL     1      -4.855   0.599 -11.130  1.00  0.00    -0.545 OA
ATOM      5  O   UNL     1      -7.024   0.359 -10.445  1.00  0.00    -0.545 OA
ENDBRANCH   1   3
BRANCH   2   6
ATOM      6  C   UNL     1      -3.436  -2.328  -8.275  1.00  0.00    -0.026 A 
ATOM      7  C   UNL     1      -4.362  -2.956  -7.420  1.00  0.00     0.008 A 
ATOM      8  C   UNL     1      -2.072  -2.679  -8.166  1.00  0.00     0.008 A 
ATOM      9  C   UNL     1      -3.941  -3.907  -6.486  1.00  0.00     0.001 A 
ATOM     10  C   UNL     1      -1.658  -3.631  -7.227  1.00  0.00     0.001 A 
ATOM     11  C   UNL     1      -2.591  -4.244  -6.389  1.00  0.00     0.000 A 
ENDBRANCH   2   6
TORSDOF 2
ENDMDL
MODEL 7
REMARK VINA RESULT:     0.000      8.703     10.479
REMARK INTER + INTRA:          -0.148
REMARK INTER:                   0.000
REMARK INTRA:                  -0.148
REMARK UNBOUND:                -0.148
REMARK SMILES O=C([O-])C=Cc1ccccc1
REMARK SMILES IDX 4 1 5 2 2 3 1 4 3 5 6 6 7 7 11 8 8 9 10 10 9 11
REMARK H PARENT
REMARK Flexibility Score: inf
ROOT
ATOM      1  C   UNL     1       1.727  -7.946  -5.081  1.00  0.00     0.025 C 
ATOM      2  C   UNL     1       1.987  -7.782  -3.775  1.00  0.00     0.010 C 
ENDROOT
BRANCH   1   3
ATOM      3  C   UNL     1       0.415  -8.404  -5.569  1.00  0.00     0.064 C 
ATOM      4  O   UNL     1      -0.524  -8.662  -4.769  1.00  0.00    -0.545 OA
ATOM      5  O   UNL     1       0.209  -8.554  -6.934  1.00  0.00    -0.545 OA
ENDBRANCH   1   3
BRANCH   2   6
ATOM      6  C   UNL     1       3.288  -7.324  -3.218  1.00  0.00    -0.026 A 
ATOM      7  C   UNL     1       4.332  -7.038  -4.118  1.00  0.00     0.008 A 
ATOM      8  C   UNL     1       3.528  -7.164  -1.835  1.00  0.00     0.008 A 
ATOM      9  C   UNL     1       5.577  -6.603  -3.655  1.00  0.00     0.001 A 
ATOM     10  C   UNL     1       4.777  -6.730  -1.378  1.00  0.00     0.001 A 
ATOM     11  C   UNL     1       5.799  -6.449  -2.286  1.00  0.00     0.000 A 
ENDBRANCH   2   6
TORSDOF 2
ENDMDL
MODEL 8
REMARK VINA RESULT:     0.000      8.610     10.622
REMARK INTER + INTRA:          -0.148
REMARK INTER:                   0.000
REMARK INTRA:                  -0.148
REMARK UNBOUND:                -0.148
REMARK SMILES O=C([O-])C=Cc1ccccc1
REMARK SMILES IDX 4 1 5 2 2 3 1 4 3 5 6 6 7 7 11 8 8 9 10 10 9 11
REMARK H PARENT
REMARK Flexibility Score: inf
ROOT
ATOM      1  C   UNL     1      -6.361  -5.143 -13.075  1.00  0.00     0.025 C 
ATOM      2  C   UNL     1      -6.302  -4.529 -11.884  1.00  0.00     0.010 C 
ENDROOT
BRANCH   1   3
ATOM      3  C   UNL     1      -7.633  -5.598 -13.661  1.00  0.00     0.064 C 
ATOM      4  O   UNL     1      -8.727  -5.426 -13.059  1.00  0.00    -0.545 OA
ATOM      5  O   UNL     1      -7.628  -6.229 -14.898  1.00  0.00    -0.545 OA
ENDBRANCH   1   3
BRANCH   2   6
ATOM      6  C   UNL     1      -5.051  -4.046 -11.237  1.00  0.00    -0.026 A 
ATOM      7  C   UNL     1      -3.834  -4.243 -11.917  1.00  0.00     0.008 A 
ATOM      8  C   UNL     1      -5.025  -3.403  -9.980  1.00  0.00     0.008 A 
ATOM      9  C   UNL     1      -2.627  -3.810 -11.360  1.00  0.00     0.001 A 
ATOM     10  C   UNL     1      -3.813  -2.974  -9.428  1.00  0.00     0.001 A 
ATOM     11  C   UNL     1      -2.616  -3.177 -10.118  1.00  0.00     0.000 A 
ENDBRANCH   2   6
TORSDOF 2
ENDMDL
MODEL 9
REMARK VINA RESULT:     0.000     12.106     13.056
REMARK INTER + INTRA:          -0.148
REMARK INTER:                   0.000
REMARK INTRA:                  -0.148
REMARK UNBOUND:                -0.148
REMARK SMILES O=C([O-])C=Cc1ccccc1
REMARK SMILES IDX 4 1 5 2 2 3 1 4 3 5 6 6 7 7 11 8 8 9 10 10 9 11
REMARK H PARENT
REMARK Flexibility Score: inf
ROOT
ATOM      1  C   UNL     1       5.063  -7.322  -9.002  1.00  0.00     0.025 C 
ATOM      2  C   UNL     1       5.248  -6.716 -10.184  1.00  0.00     0.010 C 
ENDROOT
BRANCH   1   3
ATOM      3  C   UNL     1       5.319  -6.638  -7.722  1.00  0.00     0.064 C 
ATOM      4  O   UNL     1       5.726  -5.446  -7.689  1.00  0.00    -0.545 OA
ATOM      5  O   UNL     1       5.108  -7.319  -6.531  1.00  0.00    -0.545 OA
ENDBRANCH   1   3
BRANCH   2   6
ATOM      6  C   UNL     1       5.009  -7.349 -11.510  1.00  0.00    -0.026 A 
ATOM      7  C   UNL     1       4.555  -8.681 -11.537  1.00  0.00     0.008 A 
ATOM      8  C   UNL     1       5.216  -6.682 -12.738  1.00  0.00     0.008 A 
ATOM      9  C   UNL     1       4.313  -9.328 -12.752  1.00  0.00     0.001 A 
ATOM     10  C   UNL     1       4.973  -7.337 -13.950  1.00  0.00     0.001 A 
ATOM     11  C   UNL     1       4.521  -8.657 -13.957  1.00  0.00     0.000 A 
ENDBRANCH   2   6
TORSDOF 2
ENDMDL
