MODEL 1
REMARK VINA RESULT:     4.907      0.000      0.000
REMARK INTER + INTRA:           6.815
REMARK INTER:                   7.201
REMARK INTRA:                  -0.387
REMARK UNBOUND:                -0.387
REMARK SMILES O=C([O-])CCCCCCCC(=O)[O-]
REMARK SMILES IDX 7 1 6 2 5 3 4 4 2 5 1 6 3 7 8 8 9 9 10 10 11 11 12 12 13 13
REMARK H PARENT
REMARK Flexibility Score: inf
ROOT
ATOM      1  C   UNL     1      13.089  12.432  18.023  1.00  0.00     0.000 C 
ENDROOT
BRANCH   1   2
ATOM      2  C   UNL     1      14.235  12.502  17.006  1.00  0.00     0.000 C 
BRANCH   2   3
ATOM      3  C   UNL     1      14.702  13.948  16.802  1.00  0.00     0.006 C 
BRANCH   3   4
ATOM      4  C   UNL     1      13.514  14.876  16.532  1.00  0.00     0.053 C 
BRANCH   4   5
ATOM      5  C   UNL     1      13.859  16.286  16.892  1.00  0.00     0.041 C 
ATOM      6  O   UNL     1      13.446  17.240  16.182  1.00  0.00    -0.550 OA
ATOM      7  O   UNL     1      14.677  16.546  17.984  1.00  0.00    -0.550 OA
ENDBRANCH   4   5
ENDBRANCH   3   4
ENDBRANCH   2   3
ENDBRANCH   1   2
BRANCH   1   8
ATOM      8  C   UNL     1      11.958  11.528  17.518  1.00  0.00     0.000 C 
BRANCH   8   9
ATOM      9  C   UNL     1      10.974  12.312  16.643  1.00  0.00     0.006 C 
BRANCH   9  10
ATOM     10  C   UNL     1       9.762  11.452  16.273  1.00  0.00     0.053 C 
BRANCH  10  11
ATOM     11  C   UNL     1       8.746  12.269  15.537  1.00  0.00     0.041 C 
ATOM     12  O   UNL     1       8.694  12.233  14.280  1.00  0.00    -0.550 OA
ATOM     13  O   UNL     1       7.887  13.107  16.238  1.00  0.00    -0.550 OA
ENDBRANCH  10  11
ENDBRANCH   9  10
ENDBRANCH   8   9
ENDBRANCH   1   8
TORSDOF 8
ENDMDL
MODEL 2
REMARK VINA RESULT:     4.907      0.136      5.714
REMARK INTER + INTRA:           6.815
REMARK INTER:                   7.196
REMARK INTRA:                  -0.381
REMARK UNBOUND:                -0.387
REMARK SMILES O=C([O-])CCCCCCCC(=O)[O-]
REMARK SMILES IDX 7 1 6 2 5 3 4 4 2 5 1 6 3 7 8 8 9 9 10 10 11 11 12 12 13 13
REMARK H PARENT
REMARK Flexibility Score: inf
ROOT
ATOM      1  C   UNL     1      13.165  12.399  17.935  1.00  0.00     0.000 C 
ENDROOT
BRANCH   1   2
ATOM      2  C   UNL     1      12.030  11.506  17.419  1.00  0.00     0.000 C 
BRANCH   2   3
ATOM      3  C   UNL     1      10.978  12.332  16.667  1.00  0.00     0.006 C 
BRANCH   3   4
ATOM      4  C   UNL     1       9.780  11.465  16.271  1.00  0.00     0.053 C 
BRANCH   4   5
ATOM      5  C   UNL     1       8.765  12.280  15.534  1.00  0.00     0.041 C 
ATOM      6  O   UNL     1       7.982  13.038  16.165  1.00  0.00    -0.550 OA
ATOM      7  O   UNL     1       8.650  12.166  14.155  1.00  0.00    -0.550 OA
ENDBRANCH   4   5
ENDBRANCH   3   4
ENDBRANCH   2   3
ENDBRANCH   1   2
BRANCH   1   8
ATOM      8  C   UNL     1      14.298  12.498  16.907  1.00  0.00     0.000 C 
BRANCH   8   9
ATOM      9  C   UNL     1      14.723  13.955  16.693  1.00  0.00     0.006 C 
BRANCH   9  10
ATOM     10  C   UNL     1      13.526  14.901  16.821  1.00  0.00     0.053 C 
BRANCH  10  11
ATOM     11  C   UNL     1      13.990  16.311  17.003  1.00  0.00     0.041 C 
ATOM     12  O   UNL     1      14.780  16.603  17.939  1.00  0.00    -0.550 OA
ATOM     13  O   UNL     1      13.514  17.314  16.167  1.00  0.00    -0.550 OA
ENDBRANCH  10  11
ENDBRANCH   9  10
ENDBRANCH   8   9
ENDBRANCH   1   8
TORSDOF 8
ENDMDL
MODEL 3
REMARK VINA RESULT:     4.917      0.091      1.273
REMARK INTER + INTRA:           6.830
REMARK INTER:                   7.216
REMARK INTRA:                  -0.386
REMARK UNBOUND:                -0.387
REMARK SMILES O=C([O-])CCCCCCCC(=O)[O-]
REMARK SMILES IDX 7 1 6 2 5 3 4 4 2 5 1 6 3 7 8 8 9 9 10 10 11 11 12 12 13 13
REMARK H PARENT
REMARK Flexibility Score: inf
ROOT
ATOM      1  C   UNL     1      13.108  12.458  18.061  1.00  0.00     0.000 C 
ENDROOT
BRANCH   1   2
ATOM      2  C   UNL     1      14.204  12.504  16.989  1.00  0.00     0.000 C 
BRANCH   2   3
ATOM      3  C   UNL     1      14.684  13.941  16.754  1.00  0.00     0.006 C 
BRANCH   3   4
ATOM      4  C   UNL     1      13.498  14.894  16.575  1.00  0.00     0.053 C 
BRANCH   4   5
ATOM      5  C   UNL     1      13.894  16.294  16.919  1.00  0.00     0.041 C 
ATOM      6  O   UNL     1      14.612  16.519  17.928  1.00  0.00    -0.550 OA
ATOM      7  O   UNL     1      13.430  17.356  16.155  1.00  0.00    -0.550 OA
ENDBRANCH   4   5
ENDBRANCH   3   4
ENDBRANCH   2   3
ENDBRANCH   1   2
BRANCH   1   8
ATOM      8  C   UNL     1      11.942  11.566  17.620  1.00  0.00     0.000 C 
BRANCH   8   9
ATOM      9  C   UNL     1      11.042  12.293  16.615  1.00  0.00     0.006 C 
BRANCH   9  10
ATOM     10  C   UNL     1       9.803  11.457  16.281  1.00  0.00     0.053 C 
BRANCH  10  11
ATOM     11  C   UNL     1       8.805  12.278  15.527  1.00  0.00     0.041 C 
ATOM     12  O   UNL     1       8.013  13.037  16.146  1.00  0.00    -0.550 OA
ATOM     13  O   UNL     1       8.715  12.169  14.145  1.00  0.00    -0.550 OA
ENDBRANCH  10  11
ENDBRANCH   9  10
ENDBRANCH   8   9
ENDBRANCH   1   8
TORSDOF 8
ENDMDL
