MODEL 1
REMARK VINA RESULT:    -2.653      0.000      0.000
REMARK INTER + INTRA:          -3.154
REMARK INTER:                  -3.119
REMARK INTRA:                  -0.035
REMARK UNBOUND:                -0.035
REMARK SMILES O=C([O-])CCC(=O)[O-]
REMARK SMILES IDX 4 1 2 2 1 3 3 4 5 5 6 6 7 7 8 8
REMARK H PARENT
REMARK Flexibility Score: inf
ROOT
ATOM      1  C   UNL     1      22.970  17.144  41.374  1.00  0.00     0.059 C 
ENDROOT
BRANCH   1   2
ATOM      2  C   UNL     1      22.857  16.357  42.641  1.00  0.00     0.042 C 
ATOM      3  O   UNL     1      22.772  16.948  43.750  1.00  0.00    -0.550 OA
ATOM      4  O   UNL     1      22.795  14.970  42.594  1.00  0.00    -0.550 OA
ENDBRANCH   1   2
BRANCH   1   5
ATOM      5  C   UNL     1      23.628  18.498  41.642  1.00  0.00     0.059 C 
BRANCH   5   6
ATOM      6  C   UNL     1      24.362  18.973  40.428  1.00  0.00     0.042 C 
ATOM      7  O   UNL     1      25.428  19.632  40.550  1.00  0.00    -0.550 OA
ATOM      8  O   UNL     1      23.896  18.646  39.161  1.00  0.00    -0.550 OA
ENDBRANCH   5   6
ENDBRANCH   1   5
TORSDOF 3
ENDMDL
MODEL 2
REMARK VINA RESULT:    -2.605      0.972      3.995
REMARK INTER + INTRA:          -3.097
REMARK INTER:                  -2.979
REMARK INTRA:                  -0.118
REMARK UNBOUND:                -0.035
REMARK SMILES O=C([O-])CCC(=O)[O-]
REMARK SMILES IDX 4 1 2 2 1 3 3 4 5 5 6 6 7 7 8 8
REMARK H PARENT
REMARK Flexibility Score: inf
ROOT
ATOM      1  C   UNL     1      23.180  18.885  41.749  1.00  0.00     0.059 C 
ENDROOT
BRANCH   1   2
ATOM      2  C   UNL     1      24.625  19.273  41.735  1.00  0.00     0.042 C 
ATOM      3  O   UNL     1      25.257  19.403  42.817  1.00  0.00    -0.550 OA
ATOM      4  O   UNL     1      25.288  19.441  40.526  1.00  0.00    -0.550 OA
ENDBRANCH   1   2
BRANCH   1   5
ATOM      5  C   UNL     1      23.013  17.425  41.325  1.00  0.00     0.059 C 
BRANCH   5   6
ATOM      6  C   UNL     1      22.818  16.551  42.524  1.00  0.00     0.042 C 
ATOM      7  O   UNL     1      22.826  15.298  42.402  1.00  0.00    -0.550 OA
ATOM      8  O   UNL     1      22.676  17.120  43.782  1.00  0.00    -0.550 OA
ENDBRANCH   5   6
ENDBRANCH   1   5
TORSDOF 3
ENDMDL
MODEL 3
REMARK VINA RESULT:    -2.595      2.149      3.184
REMARK INTER + INTRA:          -3.086
REMARK INTER:                  -2.971
REMARK INTRA:                  -0.115
REMARK UNBOUND:                -0.035
REMARK SMILES O=C([O-])CCC(=O)[O-]
REMARK SMILES IDX 4 1 2 2 1 3 3 4 5 5 6 6 7 7 8 8
REMARK H PARENT
REMARK Flexibility Score: inf
ROOT
ATOM      1  C   UNL     1      22.643  17.347  43.743  1.00  0.00     0.059 C 
ENDROOT
BRANCH   1   2
ATOM      2  C   UNL     1      22.859  16.525  42.511  1.00  0.00     0.042 C 
ATOM      3  O   UNL     1      22.822  15.267  42.573  1.00  0.00    -0.550 OA
ATOM      4  O   UNL     1      23.052  17.149  41.285  1.00  0.00    -0.550 OA
ENDBRANCH   1   2
BRANCH   1   5
ATOM      5  C   UNL     1      23.279  18.728  43.582  1.00  0.00     0.059 C 
BRANCH   5   6
ATOM      6  C   UNL     1      24.694  18.712  44.068  1.00  0.00     0.042 C 
ATOM      7  O   UNL     1      25.595  19.298  43.412  1.00  0.00    -0.550 OA
ATOM      8  O   UNL     1      25.010  18.092  45.270  1.00  0.00    -0.550 OA
ENDBRANCH   5   6
ENDBRANCH   1   5
TORSDOF 3
ENDMDL
MODEL 4
REMARK VINA RESULT:    -2.593      7.237      8.383
REMARK INTER + INTRA:          -3.083
REMARK INTER:                  -2.966
REMARK INTRA:                  -0.117
REMARK UNBOUND:                -0.035
REMARK SMILES O=C([O-])CCC(=O)[O-]
REMARK SMILES IDX 4 1 2 2 1 3 3 4 5 5 6 6 7 7 8 8
REMARK H PARENT
REMARK Flexibility Score: inf
ROOT
ATOM      1  C   UNL     1      30.848  17.386  39.073  1.00  0.00     0.059 C 
ENDROOT
BRANCH   1   2
ATOM      2  C   UNL     1      32.072  16.555  39.297  1.00  0.00     0.042 C 
ATOM      3  O   UNL     1      33.066  17.038  39.901  1.00  0.00    -0.550 OA
ATOM      4  O   UNL     1      32.096  15.229  38.883  1.00  0.00    -0.550 OA
ENDBRANCH   1   2
BRANCH   1   5
ATOM      5  C   UNL     1      31.189  18.875  39.168  1.00  0.00     0.059 C 
BRANCH   5   6
ATOM      6  C   UNL     1      30.549  19.482  40.376  1.00  0.00     0.042 C 
ATOM      7  O   UNL     1      29.438  20.067  40.277  1.00  0.00    -0.550 OA
ATOM      8  O   UNL     1      31.154  19.359  41.620  1.00  0.00    -0.550 OA
ENDBRANCH   5   6
ENDBRANCH   1   5
TORSDOF 3
ENDMDL
MODEL 5
REMARK VINA RESULT:    -2.591      7.197      8.471
REMARK INTER + INTRA:          -3.081
REMARK INTER:                  -2.962
REMARK INTRA:                  -0.119
REMARK UNBOUND:                -0.035
REMARK SMILES O=C([O-])CCC(=O)[O-]
REMARK SMILES IDX 4 1 2 2 1 3 3 4 5 5 6 6 7 7 8 8
REMARK H PARENT
REMARK Flexibility Score: inf
ROOT
ATOM      1  C   UNL     1      31.168  18.891  39.243  1.00  0.00     0.059 C 
ENDROOT
BRANCH   1   2
ATOM      2  C   UNL     1      30.529  19.494  40.454  1.00  0.00     0.042 C 
ATOM      3  O   UNL     1      31.096  19.415  41.576  1.00  0.00    -0.550 OA
ATOM      4  O   UNL     1      29.331  20.187  40.335  1.00  0.00    -0.550 OA
ENDBRANCH   1   2
BRANCH   1   5
ATOM      5  C   UNL     1      30.847  17.398  39.157  1.00  0.00     0.059 C 
BRANCH   5   6
ATOM      6  C   UNL     1      32.086  16.584  39.364  1.00  0.00     0.042 C 
ATOM      7  O   UNL     1      33.099  17.100  39.905  1.00  0.00    -0.550 OA
ATOM      8  O   UNL     1      32.105  15.243  39.004  1.00  0.00    -0.550 OA
ENDBRANCH   5   6
ENDBRANCH   1   5
TORSDOF 3
ENDMDL
MODEL 6
REMARK VINA RESULT:    -2.591      2.135      3.841
REMARK INTER + INTRA:          -3.080
REMARK INTER:                  -2.963
REMARK INTRA:                  -0.117
REMARK UNBOUND:                -0.035
REMARK SMILES O=C([O-])CCC(=O)[O-]
REMARK SMILES IDX 4 1 2 2 1 3 3 4 5 5 6 6 7 7 8 8
REMARK H PARENT
REMARK Flexibility Score: inf
ROOT
ATOM      1  C   UNL     1      23.706  17.988  44.298  1.00  0.00     0.059 C 
ENDROOT
BRANCH   1   2
ATOM      2  C   UNL     1      24.350  19.068  43.489  1.00  0.00     0.042 C 
ATOM      3  O   UNL     1      23.646  19.837  42.782  1.00  0.00    -0.550 OA
ATOM      4  O   UNL     1      25.725  19.259  43.554  1.00  0.00    -0.550 OA
ENDBRANCH   1   2
BRANCH   1   5
ATOM      5  C   UNL     1      22.457  17.461  43.589  1.00  0.00     0.059 C 
BRANCH   5   6
ATOM      6  C   UNL     1      22.828  16.416  42.584  1.00  0.00     0.042 C 
ATOM      7  O   UNL     1      22.931  15.210  42.934  1.00  0.00    -0.550 OA
ATOM      8  O   UNL     1      23.013  16.766  41.253  1.00  0.00    -0.550 OA
ENDBRANCH   5   6
ENDBRANCH   1   5
TORSDOF 3
ENDMDL
MODEL 7
REMARK VINA RESULT:    -2.548     10.372     11.600
REMARK INTER + INTRA:          -3.031
REMARK INTER:                  -2.942
REMARK INTRA:                  -0.089
REMARK UNBOUND:                -0.035
REMARK SMILES O=C([O-])CCC(=O)[O-]
REMARK SMILES IDX 4 1 2 2 1 3 3 4 5 5 6 6 7 7 8 8
REMARK H PARENT
REMARK Flexibility Score: inf
ROOT
ATOM      1  C   UNL     1      29.618  17.459  50.573  1.00  0.00     0.059 C 
ENDROOT
BRANCH   1   2
ATOM      2  C   UNL     1      30.874  16.962  51.218  1.00  0.00     0.042 C 
ATOM      3  O   UNL     1      30.912  16.759  52.460  1.00  0.00    -0.550 OA
ATOM      4  O   UNL     1      31.988  16.675  50.439  1.00  0.00    -0.550 OA
ENDBRANCH   1   2
BRANCH   1   5
ATOM      5  C   UNL     1      28.486  16.448  50.758  1.00  0.00     0.059 C 
BRANCH   5   6
ATOM      6  C   UNL     1      27.240  17.136  51.222  1.00  0.00     0.042 C 
ATOM      7  O   UNL     1      27.236  17.772  52.308  1.00  0.00    -0.550 OA
ATOM      8  O   UNL     1      26.099  17.115  50.431  1.00  0.00    -0.550 OA
ENDBRANCH   5   6
ENDBRANCH   1   5
TORSDOF 3
ENDMDL
MODEL 8
REMARK VINA RESULT:    -2.548     10.449     11.512
REMARK INTER + INTRA:          -3.030
REMARK INTER:                  -2.961
REMARK INTRA:                  -0.070
REMARK UNBOUND:                -0.035
REMARK SMILES O=C([O-])CCC(=O)[O-]
REMARK SMILES IDX 4 1 2 2 1 3 3 4 5 5 6 6 7 7 8 8
REMARK H PARENT
REMARK Flexibility Score: inf
ROOT
ATOM      1  C   UNL     1      28.534  16.461  50.816  1.00  0.00     0.059 C 
ENDROOT
BRANCH   1   2
ATOM      2  C   UNL     1      27.258  17.122  51.233  1.00  0.00     0.042 C 
ATOM      3  O   UNL     1      26.230  17.027  50.511  1.00  0.00    -0.550 OA
ATOM      4  O   UNL     1      27.190  17.801  52.443  1.00  0.00    -0.550 OA
ENDBRANCH   1   2
BRANCH   1   5
ATOM      5  C   UNL     1      29.654  17.495  50.687  1.00  0.00     0.059 C 
BRANCH   5   6
ATOM      6  C   UNL     1      30.923  16.968  51.279  1.00  0.00     0.042 C 
ATOM      7  O   UNL     1      30.996  16.734  52.514  1.00  0.00    -0.550 OA
ATOM      8  O   UNL     1      32.010  16.691  50.460  1.00  0.00    -0.550 OA
ENDBRANCH   5   6
ENDBRANCH   1   5
TORSDOF 3
ENDMDL
MODEL 9
REMARK VINA RESULT:    -2.508     19.622     20.868
REMARK INTER + INTRA:          -2.983
REMARK INTER:                  -2.946
REMARK INTRA:                  -0.037
REMARK UNBOUND:                -0.035
REMARK SMILES O=C([O-])CCC(=O)[O-]
REMARK SMILES IDX 4 1 2 2 1 3 3 4 5 5 6 6 7 7 8 8
REMARK H PARENT
REMARK Flexibility Score: inf
ROOT
ATOM      1  C   UNL     1      28.419  34.293  53.545  1.00  0.00     0.059 C 
ENDROOT
BRANCH   1   2
ATOM      2  C   UNL     1      29.838  34.281  53.070  1.00  0.00     0.042 C 
ATOM      3  O   UNL     1      30.161  33.611  52.053  1.00  0.00    -0.550 OA
ATOM      4  O   UNL     1      30.795  35.050  53.721  1.00  0.00    -0.550 OA
ENDBRANCH   1   2
BRANCH   1   5
ATOM      5  C   UNL     1      27.508  33.610  52.524  1.00  0.00     0.059 C 
BRANCH   5   6
ATOM      6  C   UNL     1      26.070  33.856  52.859  1.00  0.00     0.042 C 
ATOM      7  O   UNL     1      25.243  32.907  52.833  1.00  0.00    -0.550 OA
ATOM      8  O   UNL     1      25.654  35.122  53.247  1.00  0.00    -0.550 OA
ENDBRANCH   5   6
ENDBRANCH   1   5
TORSDOF 3
ENDMDL
