MODEL 1
REMARK VINA RESULT:    -5.166      0.000      0.000
REMARK INTER + INTRA:          -5.646
REMARK INTER:                  -5.619
REMARK INTRA:                  -0.027
REMARK UNBOUND:                -0.027
REMARK SMILES O=C([O-])c1ccc(O)cc1
REMARK SMILES IDX 4 1 5 2 10 3 6 4 9 5 7 6 2 7 1 8 3 9 8 10
REMARK H PARENT 8 11
REMARK Flexibility Score: inf
ROOT
ATOM      1  C   UNL     1      15.892  25.247   0.981  1.00  0.00    -0.003 A 
ATOM      2  C   UNL     1      15.078  25.919   0.051  1.00  0.00     0.014 A 
ATOM      3  C   UNL     1      16.621  26.000   1.918  1.00  0.00     0.014 A 
ATOM      4  C   UNL     1      14.995  27.315   0.060  1.00  0.00     0.047 A 
ATOM      5  C   UNL     1      16.537  27.397   1.924  1.00  0.00     0.047 A 
ATOM      6  C   UNL     1      15.724  28.057   0.994  1.00  0.00     0.115 A 
ENDROOT
BRANCH   1   7
ATOM      7  C   UNL     1      15.983  23.770   0.977  1.00  0.00     0.071 C 
ATOM      8  O   UNL     1      17.016  23.193   0.544  1.00  0.00    -0.545 OA
ATOM      9  O   UNL     1      14.929  22.998   1.452  1.00  0.00    -0.545 OA
ENDBRANCH   1   7
BRANCH   6  10
ATOM     10  O   UNL     1      15.633  29.447   0.991  1.00  0.00    -0.508 OA
ATOM     11  H   UNL     1      16.450  30.031   1.121  1.00  0.00     0.293 HD
ENDBRANCH   6  10
TORSDOF 2
ENDMDL
MODEL 2
REMARK VINA RESULT:    -5.155      0.165      1.539
REMARK INTER + INTRA:          -5.635
REMARK INTER:                  -5.608
REMARK INTRA:                  -0.027
REMARK UNBOUND:                -0.027
REMARK SMILES O=C([O-])c1ccc(O)cc1
REMARK SMILES IDX 4 1 5 2 10 3 6 4 9 5 7 6 2 7 1 8 3 9 8 10
REMARK H PARENT 8 11
REMARK Flexibility Score: inf
ROOT
ATOM      1  C   UNL     1      15.880  25.237   1.008  1.00  0.00    -0.003 A 
ATOM      2  C   UNL     1      16.620  25.916   1.993  1.00  0.00     0.014 A 
ATOM      3  C   UNL     1      15.131  25.985   0.082  1.00  0.00     0.014 A 
ATOM      4  C   UNL     1      16.610  27.313   2.049  1.00  0.00     0.047 A 
ATOM      5  C   UNL     1      15.123  27.383   0.142  1.00  0.00     0.047 A 
ATOM      6  C   UNL     1      15.863  28.050   1.126  1.00  0.00     0.115 A 
ENDROOT
BRANCH   1   7
ATOM      7  C   UNL     1      15.886  23.759   0.942  1.00  0.00     0.071 C 
ATOM      8  O   UNL     1      16.899  23.141   0.518  1.00  0.00    -0.545 OA
ATOM      9  O   UNL     1      14.774  23.031   1.349  1.00  0.00    -0.545 OA
ENDBRANCH   1   7
BRANCH   6  10
ATOM     10  O   UNL     1      15.862  29.441   1.195  1.00  0.00    -0.508 OA
ATOM     11  H   UNL     1      15.936  30.013   0.362  1.00  0.00     0.293 HD
ENDBRANCH   6  10
TORSDOF 2
ENDMDL
MODEL 3
REMARK VINA RESULT:    -5.154      2.065      4.688
REMARK INTER + INTRA:          -5.633
REMARK INTER:                  -5.604
REMARK INTRA:                  -0.029
REMARK UNBOUND:                -0.027
REMARK SMILES O=C([O-])c1ccc(O)cc1
REMARK SMILES IDX 4 1 5 2 10 3 6 4 9 5 7 6 2 7 1 8 3 9 8 10
REMARK H PARENT 8 11
REMARK Flexibility Score: inf
ROOT
ATOM      1  C   UNL     1      17.587  27.392   0.982  1.00  0.00    -0.003 A 
ATOM      2  C   UNL     1      18.491  26.952  -0.002  1.00  0.00     0.014 A 
ATOM      3  C   UNL     1      17.013  26.448   1.852  1.00  0.00     0.014 A 
ATOM      4  C   UNL     1      18.813  25.595  -0.111  1.00  0.00     0.047 A 
ATOM      5  C   UNL     1      17.337  25.091   1.739  1.00  0.00     0.047 A 
ATOM      6  C   UNL     1      18.238  24.663   0.757  1.00  0.00     0.115 A 
ENDROOT
BRANCH   1   7
ATOM      7  C   UNL     1      17.242  28.826   1.104  1.00  0.00     0.071 C 
ATOM      8  O   UNL     1      18.136  29.682   1.341  1.00  0.00    -0.545 OA
ATOM      9  O   UNL     1      15.925  29.249   0.959  1.00  0.00    -0.545 OA
ENDBRANCH   1   7
BRANCH   6  10
ATOM     10  O   UNL     1      18.568  23.315   0.635  1.00  0.00    -0.508 OA
ATOM     11  H   UNL     1      19.472  22.963   0.928  1.00  0.00     0.293 HD
ENDBRANCH   6  10
TORSDOF 2
ENDMDL
MODEL 4
REMARK VINA RESULT:    -5.151      2.066      4.733
REMARK INTER + INTRA:          -5.630
REMARK INTER:                  -5.601
REMARK INTRA:                  -0.029
REMARK UNBOUND:                -0.027
REMARK SMILES O=C([O-])c1ccc(O)cc1
REMARK SMILES IDX 4 1 5 2 10 3 6 4 9 5 7 6 2 7 1 8 3 9 8 10
REMARK H PARENT 8 11
REMARK Flexibility Score: inf
ROOT
ATOM      1  C   UNL     1      17.562  27.392   0.945  1.00  0.00    -0.003 A 
ATOM      2  C   UNL     1      17.031  26.442   1.838  1.00  0.00     0.014 A 
ATOM      3  C   UNL     1      18.441  26.961  -0.065  1.00  0.00     0.014 A 
ATOM      4  C   UNL     1      17.373  25.091   1.722  1.00  0.00     0.047 A 
ATOM      5  C   UNL     1      18.781  25.608  -0.177  1.00  0.00     0.047 A 
ATOM      6  C   UNL     1      18.248  24.671   0.715  1.00  0.00     0.115 A 
ENDROOT
BRANCH   1   7
ATOM      7  C   UNL     1      17.204  28.823   1.063  1.00  0.00     0.071 C 
ATOM      8  O   UNL     1      18.094  29.691   1.265  1.00  0.00    -0.545 OA
ATOM      9  O   UNL     1      15.879  29.229   0.951  1.00  0.00    -0.545 OA
ENDBRANCH   1   7
BRANCH   6  10
ATOM     10  O   UNL     1      18.580  23.322   0.612  1.00  0.00    -0.508 OA
ATOM     11  H   UNL     1      18.260  22.644   1.294  1.00  0.00     0.293 HD
ENDBRANCH   6  10
TORSDOF 2
ENDMDL
MODEL 5
REMARK VINA RESULT:    -5.133      2.044      3.849
REMARK INTER + INTRA:          -5.611
REMARK INTER:                  -5.578
REMARK INTRA:                  -0.033
REMARK UNBOUND:                -0.027
REMARK SMILES O=C([O-])c1ccc(O)cc1
REMARK SMILES IDX 4 1 5 2 10 3 6 4 9 5 7 6 2 7 1 8 3 9 8 10
REMARK H PARENT 8 11
REMARK Flexibility Score: inf
ROOT
ATOM      1  C   UNL     1      16.056  25.591   0.969  1.00  0.00    -0.003 A 
ATOM      2  C   UNL     1      15.472  25.967  -0.254  1.00  0.00     0.014 A 
ATOM      3  C   UNL     1      15.767  24.322   1.502  1.00  0.00     0.014 A 
ATOM      4  C   UNL     1      14.617  25.090  -0.930  1.00  0.00     0.047 A 
ATOM      5  C   UNL     1      14.911  23.448   0.823  1.00  0.00     0.047 A 
ATOM      6  C   UNL     1      14.334  23.830  -0.394  1.00  0.00     0.115 A 
ENDROOT
BRANCH   1   7
ATOM      7  C   UNL     1      16.962  26.514   1.689  1.00  0.00     0.071 C 
ATOM      8  O   UNL     1      17.731  27.283   1.052  1.00  0.00    -0.545 OA
ATOM      9  O   UNL     1      16.977  26.545   3.078  1.00  0.00    -0.545 OA
ENDBRANCH   1   7
BRANCH   6  10
ATOM     10  O   UNL     1      13.480  22.968  -1.078  1.00  0.00    -0.508 OA
ATOM     11  H   UNL     1      12.636  22.609  -0.649  1.00  0.00     0.293 HD
ENDBRANCH   6  10
TORSDOF 2
ENDMDL
MODEL 6
REMARK VINA RESULT:    -5.119      3.276      3.725
REMARK INTER + INTRA:          -5.596
REMARK INTER:                  -5.562
REMARK INTRA:                  -0.034
REMARK UNBOUND:                -0.027
REMARK SMILES O=C([O-])c1ccc(O)cc1
REMARK SMILES IDX 4 1 5 2 10 3 6 4 9 5 7 6 2 7 1 8 3 9 8 10
REMARK H PARENT 8 11
REMARK Flexibility Score: inf
ROOT
ATOM      1  C   UNL     1      17.746  26.390   1.021  1.00  0.00    -0.003 A 
ATOM      2  C   UNL     1      18.134  27.743   1.048  1.00  0.00     0.014 A 
ATOM      3  C   UNL     1      18.279  25.548   0.029  1.00  0.00     0.014 A 
ATOM      4  C   UNL     1      19.037  28.240   0.103  1.00  0.00     0.047 A 
ATOM      5  C   UNL     1      19.181  26.049  -0.916  1.00  0.00     0.047 A 
ATOM      6  C   UNL     1      19.562  27.396  -0.880  1.00  0.00     0.115 A 
ENDROOT
BRANCH   1   7
ATOM      7  C   UNL     1      16.792  25.858   2.019  1.00  0.00     0.071 C 
ATOM      8  O   UNL     1      16.709  26.376   3.165  1.00  0.00    -0.545 OA
ATOM      9  O   UNL     1      15.973  24.779   1.706  1.00  0.00    -0.545 OA
ENDBRANCH   1   7
BRANCH   6  10
ATOM     10  O   UNL     1      20.459  27.905  -1.816  1.00  0.00    -0.508 OA
ATOM     11  H   UNL     1      20.480  28.891  -2.047  1.00  0.00     0.293 HD
ENDBRANCH   6  10
TORSDOF 2
ENDMDL
MODEL 7
REMARK VINA RESULT:    -5.070      1.829      4.561
REMARK INTER + INTRA:          -5.542
REMARK INTER:                  -5.507
REMARK INTRA:                  -0.035
REMARK UNBOUND:                -0.027
REMARK SMILES O=C([O-])c1ccc(O)cc1
REMARK SMILES IDX 4 1 5 2 10 3 6 4 9 5 7 6 2 7 1 8 3 9 8 10
REMARK H PARENT 8 11
REMARK Flexibility Score: inf
ROOT
ATOM      1  C   UNL     1      16.620  27.023   0.302  1.00  0.00    -0.003 A 
ATOM      2  C   UNL     1      16.904  26.488   1.572  1.00  0.00     0.014 A 
ATOM      3  C   UNL     1      17.029  26.314  -0.843  1.00  0.00     0.014 A 
ATOM      4  C   UNL     1      17.581  25.270   1.693  1.00  0.00     0.047 A 
ATOM      5  C   UNL     1      17.707  25.097  -0.717  1.00  0.00     0.047 A 
ATOM      6  C   UNL     1      17.984  24.573   0.551  1.00  0.00     0.115 A 
ENDROOT
BRANCH   1   7
ATOM      7  C   UNL     1      15.904  28.310   0.167  1.00  0.00     0.071 C 
ATOM      8  O   UNL     1      15.304  28.816   1.153  1.00  0.00    -0.545 OA
ATOM      9  O   UNL     1      15.882  28.980  -1.051  1.00  0.00    -0.545 OA
ENDBRANCH   1   7
BRANCH   6  10
ATOM     10  O   UNL     1      18.659  23.361   0.688  1.00  0.00    -0.508 OA
ATOM     11  H   UNL     1      18.884  22.787  -0.116  1.00  0.00     0.293 HD
ENDBRANCH   6  10
TORSDOF 2
ENDMDL
MODEL 8
REMARK VINA RESULT:    -4.989      1.546      2.297
REMARK INTER + INTRA:          -5.454
REMARK INTER:                  -5.419
REMARK INTRA:                  -0.035
REMARK UNBOUND:                -0.027
REMARK SMILES O=C([O-])c1ccc(O)cc1
REMARK SMILES IDX 4 1 5 2 10 3 6 4 9 5 7 6 2 7 1 8 3 9 8 10
REMARK H PARENT 8 11
REMARK Flexibility Score: inf
ROOT
ATOM      1  C   UNL     1      16.856  26.787   1.015  1.00  0.00    -0.003 A 
ATOM      2  C   UNL     1      17.924  27.681   1.216  1.00  0.00     0.014 A 
ATOM      3  C   UNL     1      15.567  27.305   0.789  1.00  0.00     0.014 A 
ATOM      4  C   UNL     1      17.706  29.062   1.191  1.00  0.00     0.047 A 
ATOM      5  C   UNL     1      15.353  28.687   0.765  1.00  0.00     0.047 A 
ATOM      6  C   UNL     1      16.423  29.569   0.966  1.00  0.00     0.115 A 
ENDROOT
BRANCH   1   7
ATOM      7  C   UNL     1      17.079  25.325   1.040  1.00  0.00     0.071 C 
ATOM      8  O   UNL     1      18.237  24.852   0.888  1.00  0.00    -0.545 OA
ATOM      9  O   UNL     1      16.014  24.452   1.231  1.00  0.00    -0.545 OA
ENDBRANCH   1   7
BRANCH   6  10
ATOM     10  O   UNL     1      16.221  30.947   0.945  1.00  0.00    -0.508 OA
ATOM     11  H   UNL     1      16.536  31.540   1.704  1.00  0.00     0.293 HD
ENDBRANCH   6  10
TORSDOF 2
ENDMDL
MODEL 9
REMARK VINA RESULT:    -4.929      1.582      2.092
REMARK INTER + INTRA:          -5.389
REMARK INTER:                  -5.356
REMARK INTRA:                  -0.033
REMARK UNBOUND:                -0.027
REMARK SMILES O=C([O-])c1ccc(O)cc1
REMARK SMILES IDX 4 1 5 2 10 3 6 4 9 5 7 6 2 7 1 8 3 9 8 10
REMARK H PARENT 8 11
REMARK Flexibility Score: inf
ROOT
ATOM      1  C   UNL     1      16.923  26.710   0.710  1.00  0.00    -0.003 A 
ATOM      2  C   UNL     1      15.606  27.205   0.703  1.00  0.00     0.014 A 
ATOM      3  C   UNL     1      17.992  27.617   0.816  1.00  0.00     0.014 A 
ATOM      4  C   UNL     1      15.365  28.579   0.801  1.00  0.00     0.047 A 
ATOM      5  C   UNL     1      17.747  28.991   0.913  1.00  0.00     0.047 A 
ATOM      6  C   UNL     1      16.433  29.475   0.906  1.00  0.00     0.115 A 
ENDROOT
BRANCH   1   7
ATOM      7  C   UNL     1      17.184  25.257   0.607  1.00  0.00     0.071 C 
ATOM      8  O   UNL     1      16.426  24.517  -0.075  1.00  0.00    -0.545 OA
ATOM      9  O   UNL     1      18.271  24.689   1.261  1.00  0.00    -0.545 OA
ENDBRANCH   1   7
BRANCH   6  10
ATOM     10  O   UNL     1      16.178  30.841   1.002  1.00  0.00    -0.508 OA
ATOM     11  H   UNL     1      16.523  31.391   1.780  1.00  0.00     0.293 HD
ENDBRANCH   6  10
TORSDOF 2
ENDMDL
