MODEL 1
REMARK VINA RESULT:    -4.827      0.000      0.000
REMARK INTER + INTRA:          -8.226
REMARK INTER:                  -6.520
REMARK INTRA:                  -1.706
REMARK UNBOUND:                -1.706
REMARK SMILES CC[C@H](CC[C@@H](C)[C@H]1CC[C@H]2[C@H]3CC(=O)C4=CC(=O)CC[C@]4(C)[C@@H]3CC[C@@]12C)C(C)C
REMARK SMILES IDX 4 1 3 2 2 3 1 4 29 5 30 6 31 7 5 8 6 9 7 10 8 11 9 12 27 13
REMARK SMILES IDX 10 14 11 15 26 16 28 17 12 18 25 19 24 20 13 21 22 22 14 23
REMARK SMILES IDX 16 24 21 25 23 26 15 27 17 28 20 29 18 30 19 31
REMARK H PARENT
REMARK Flexibility Score: inf
ROOT
ATOM      1  C   UNL     1     -10.341 -14.557  -7.829  1.00  0.00     0.004 C 
ENDROOT
BRANCH   1   2
ATOM      2  C   UNL     1     -10.762 -15.951  -7.277  1.00  0.00    -0.009 C 
BRANCH   2   3
ATOM      3  C   UNL     1     -12.280 -16.204  -7.480  1.00  0.00     0.000 C 
ATOM      4  C   UNL     1     -13.038 -14.922  -7.839  1.00  0.00     0.004 C 
ENDBRANCH   2   3
BRANCH   2   5
ATOM      5  C   UNL     1      -9.869 -17.084  -7.885  1.00  0.00    -0.014 C 
ATOM      6  C   UNL     1      -9.035 -16.581  -9.075  1.00  0.00     0.007 C 
ATOM      7  C   UNL     1      -8.951 -17.767  -6.852  1.00  0.00     0.007 C 
ENDBRANCH   2   5
ENDBRANCH   1   2
BRANCH   1   8
ATOM      8  C   UNL     1      -9.703 -13.662  -6.745  1.00  0.00     0.004 C 
BRANCH   8   9
ATOM      9  C   UNL     1      -8.263 -14.108  -6.359  1.00  0.00    -0.011 C 
ATOM     10  C   UNL     1      -7.253 -13.604  -7.412  1.00  0.00     0.008 C 
BRANCH   9  11
ATOM     11  C   UNL     1      -7.785 -13.680  -4.923  1.00  0.00    -0.002 C 
ATOM     12  C   UNL     1      -8.706 -12.736  -4.142  1.00  0.00     0.005 C 
ATOM     13  C   UNL     1      -7.385 -14.791  -3.908  1.00  0.00    -0.026 C 
ATOM     14  C   UNL     1      -8.281 -12.867  -2.675  1.00  0.00     0.005 C 
ATOM     15  C   UNL     1      -7.194 -13.960  -2.620  1.00  0.00    -0.001 C 
ATOM     16  C   UNL     1      -8.510 -15.845  -3.705  1.00  0.00     0.007 C 
ATOM     17  C   UNL     1      -6.061 -15.476  -4.329  1.00  0.00     0.012 C 
ATOM     18  C   UNL     1      -7.126 -14.794  -1.305  1.00  0.00     0.004 C 
ATOM     19  C   UNL     1      -8.333 -16.694  -2.440  1.00  0.00     0.005 C 
ATOM     20  C   UNL     1      -8.282 -15.819  -1.162  1.00  0.00     0.003 C 
ATOM     21  C   UNL     1      -7.058 -13.873  -0.076  1.00  0.00     0.085 C 
ATOM     22  C   UNL     1      -8.254 -16.636   0.222  1.00  0.00    -0.000 C 
ATOM     23  C   UNL     1      -6.801 -14.675   1.151  1.00  0.00     0.159 C 
ATOM     24  C   UNL     1      -7.193 -16.101   1.204  1.00  0.00     0.005 C 
ATOM     25  C   UNL     1      -8.004 -18.168   0.002  1.00  0.00     0.020 C 
ATOM     26  C   UNL     1      -9.633 -16.443   0.908  1.00  0.00     0.017 C 
ATOM     27  O   UNL     1      -6.252 -14.117   2.141  1.00  0.00    -0.295 OA
ATOM     28  C   UNL     1      -6.658 -16.883   2.162  1.00  0.00     0.055 C 
ATOM     29  C   UNL     1      -7.899 -18.973   1.304  1.00  0.00     0.081 C 
ATOM     30  C   UNL     1      -6.983 -18.311   2.278  1.00  0.00     0.156 C 
ATOM     31  O   UNL     1      -6.502 -18.981   3.234  1.00  0.00    -0.295 OA
ENDBRANCH   9  11
ENDBRANCH   8   9
ENDBRANCH   1   8
TORSDOF 6
ENDMDL
MODEL 2
REMARK VINA RESULT:    -4.738      0.572      1.663
REMARK INTER + INTRA:          -8.106
REMARK INTER:                  -6.519
REMARK INTRA:                  -1.587
REMARK UNBOUND:                -1.706
REMARK SMILES CC[C@H](CC[C@@H](C)[C@H]1CC[C@H]2[C@H]3CC(=O)C4=CC(=O)CC[C@]4(C)[C@@H]3CC[C@@]12C)C(C)C
REMARK SMILES IDX 4 1 3 2 2 3 1 4 29 5 30 6 31 7 5 8 6 9 7 10 8 11 9 12 27 13
REMARK SMILES IDX 10 14 11 15 26 16 28 17 12 18 25 19 24 20 13 21 22 22 14 23
REMARK SMILES IDX 16 24 21 25 23 26 15 27 17 28 20 29 18 30 19 31
REMARK H PARENT
REMARK Flexibility Score: inf
ROOT
ATOM      1  C   UNL     1     -10.444 -14.617  -6.777  1.00  0.00     0.004 C 
ENDROOT
BRANCH   1   2
ATOM      2  C   UNL     1     -10.601 -15.827  -7.746  1.00  0.00    -0.009 C 
BRANCH   2   3
ATOM      3  C   UNL     1      -9.955 -17.110  -7.157  1.00  0.00     0.000 C 
ATOM      4  C   UNL     1      -8.697 -17.530  -7.925  1.00  0.00     0.004 C 
ENDBRANCH   2   3
BRANCH   2   5
ATOM      5  C   UNL     1     -12.100 -16.028  -8.147  1.00  0.00    -0.014 C 
ATOM      6  C   UNL     1     -12.688 -17.314  -7.543  1.00  0.00     0.007 C 
ATOM      7  C   UNL     1     -13.000 -14.826  -7.798  1.00  0.00     0.007 C 
ENDBRANCH   2   5
ENDBRANCH   1   2
BRANCH   1   8
ATOM      8  C   UNL     1      -9.288 -13.681  -7.187  1.00  0.00     0.004 C 
BRANCH   8   9
ATOM      9  C   UNL     1      -7.900 -14.172  -6.682  1.00  0.00    -0.011 C 
ATOM     10  C   UNL     1      -6.790 -13.706  -7.648  1.00  0.00     0.008 C 
BRANCH   9  11
ATOM     11  C   UNL     1      -7.529 -13.753  -5.212  1.00  0.00    -0.002 C 
ATOM     12  C   UNL     1      -8.492 -12.792  -4.505  1.00  0.00     0.005 C 
ATOM     13  C   UNL     1      -7.231 -14.871  -4.170  1.00  0.00    -0.026 C 
ATOM     14  C   UNL     1      -8.186 -12.930  -3.008  1.00  0.00     0.005 C 
ATOM     15  C   UNL     1      -7.127 -14.043  -2.870  1.00  0.00    -0.001 C 
ATOM     16  C   UNL     1      -8.387 -15.904  -4.057  1.00  0.00     0.007 C 
ATOM     17  C   UNL     1      -5.890 -15.580  -4.486  1.00  0.00     0.012 C 
ATOM     18  C   UNL     1      -7.178 -14.879  -1.555  1.00  0.00     0.004 C 
ATOM     19  C   UNL     1      -8.326 -16.756  -2.784  1.00  0.00     0.005 C 
ATOM     20  C   UNL     1      -8.360 -15.883  -1.505  1.00  0.00     0.003 C 
ATOM     21  C   UNL     1      -7.190 -13.958  -0.323  1.00  0.00     0.085 C 
ATOM     22  C   UNL     1      -8.456 -16.700  -0.124  1.00  0.00    -0.000 C 
ATOM     23  C   UNL     1      -7.045 -14.765   0.919  1.00  0.00     0.159 C 
ATOM     24  C   UNL     1      -7.466 -16.185   0.939  1.00  0.00     0.005 C 
ATOM     25  C   UNL     1      -8.217 -18.236  -0.326  1.00  0.00     0.020 C 
ATOM     26  C   UNL     1      -9.880 -16.481   0.452  1.00  0.00     0.017 C 
ATOM     27  O   UNL     1      -6.565 -14.218   1.951  1.00  0.00    -0.295 OA
ATOM     28  C   UNL     1      -7.023 -16.976   1.935  1.00  0.00     0.055 C 
ATOM     29  C   UNL     1      -8.230 -19.043   0.979  1.00  0.00     0.081 C 
ATOM     30  C   UNL     1      -7.382 -18.398   2.024  1.00  0.00     0.156 C 
ATOM     31  O   UNL     1      -6.990 -19.076   3.013  1.00  0.00    -0.295 OA
ENDBRANCH   9  11
ENDBRANCH   8   9
ENDBRANCH   1   8
TORSDOF 6
ENDMDL
MODEL 3
REMARK VINA RESULT:    -4.659      3.599      7.974
REMARK INTER + INTRA:          -7.999
REMARK INTER:                  -6.616
REMARK INTRA:                  -1.382
REMARK UNBOUND:                -1.706
REMARK SMILES CC[C@H](CC[C@@H](C)[C@H]1CC[C@H]2[C@H]3CC(=O)C4=CC(=O)CC[C@]4(C)[C@@H]3CC[C@@]12C)C(C)C
REMARK SMILES IDX 4 1 3 2 2 3 1 4 29 5 30 6 31 7 5 8 6 9 7 10 8 11 9 12 27 13
REMARK SMILES IDX 10 14 11 15 26 16 28 17 12 18 25 19 24 20 13 21 22 22 14 23
REMARK SMILES IDX 16 24 21 25 23 26 15 27 17 28 20 29 18 30 19 31
REMARK H PARENT
REMARK Flexibility Score: inf
ROOT
ATOM      1  C   UNL     1      -7.802 -18.162  -0.696  1.00  0.00     0.004 C 
ENDROOT
BRANCH   1   2
ATOM      2  C   UNL     1      -7.545 -16.938   0.230  1.00  0.00    -0.009 C 
BRANCH   2   3
ATOM      3  C   UNL     1      -6.590 -15.912  -0.440  1.00  0.00     0.000 C 
ATOM      4  C   UNL     1      -7.035 -14.466  -0.201  1.00  0.00     0.004 C 
ENDBRANCH   2   3
BRANCH   2   5
ATOM      5  C   UNL     1      -8.896 -16.298   0.696  1.00  0.00    -0.014 C 
ATOM      6  C   UNL     1      -9.995 -16.440  -0.370  1.00  0.00     0.007 C 
ATOM      7  C   UNL     1      -9.402 -16.840   2.047  1.00  0.00     0.007 C 
ENDBRANCH   2   5
ENDBRANCH   1   2
BRANCH   1   8
ATOM      8  C   UNL     1      -6.980 -18.097  -2.001  1.00  0.00     0.004 C 
BRANCH   8   9
ATOM      9  C   UNL     1      -7.696 -18.775  -3.205  1.00  0.00    -0.011 C 
ATOM     10  C   UNL     1      -9.151 -19.125  -2.827  1.00  0.00     0.008 C 
BRANCH   9  11
ATOM     11  C   UNL     1      -7.683 -17.956  -4.547  1.00  0.00    -0.002 C 
ATOM     12  C   UNL     1      -8.913 -18.095  -5.452  1.00  0.00     0.005 C 
ATOM     13  C   UNL     1      -7.393 -16.427  -4.486  1.00  0.00    -0.026 C 
ATOM     14  C   UNL     1      -8.871 -16.885  -6.392  1.00  0.00     0.005 C 
ATOM     15  C   UNL     1      -7.678 -16.014  -5.947  1.00  0.00    -0.001 C 
ATOM     16  C   UNL     1      -8.352 -15.677  -3.519  1.00  0.00     0.007 C 
ATOM     17  C   UNL     1      -5.914 -16.159  -4.111  1.00  0.00     0.012 C 
ATOM     18  C   UNL     1      -7.826 -14.479  -6.177  1.00  0.00     0.004 C 
ATOM     19  C   UNL     1      -8.380 -14.160  -3.739  1.00  0.00     0.005 C 
ATOM     20  C   UNL     1      -8.802 -13.796  -5.184  1.00  0.00     0.003 C 
ATOM     21  C   UNL     1      -8.227 -14.181  -7.631  1.00  0.00     0.085 C 
ATOM     22  C   UNL     1      -9.010 -12.225  -5.458  1.00  0.00    -0.000 C 
ATOM     23  C   UNL     1      -8.176 -12.715  -7.885  1.00  0.00     0.159 C 
ATOM     24  C   UNL     1      -8.339 -11.759  -6.766  1.00  0.00     0.005 C 
ATOM     25  C   UNL     1      -8.473 -11.342  -4.279  1.00  0.00     0.020 C 
ATOM     26  C   UNL     1     -10.532 -11.975  -5.625  1.00  0.00     0.017 C 
ATOM     27  O   UNL     1      -8.000 -12.305  -9.065  1.00  0.00    -0.295 OA
ATOM     28  C   UNL     1      -7.958 -10.480  -6.948  1.00  0.00     0.055 C 
ATOM     29  C   UNL     1      -8.587  -9.833  -4.533  1.00  0.00     0.081 C 
ATOM     30  C   UNL     1      -8.073  -9.471  -5.887  1.00  0.00     0.156 C 
ATOM     31  O   UNL     1      -7.760  -8.274  -6.133  1.00  0.00    -0.295 OA
ENDBRANCH   9  11
ENDBRANCH   8   9
ENDBRANCH   1   8
TORSDOF 6
ENDMDL
MODEL 4
REMARK VINA RESULT:    -4.265      3.626      6.091
REMARK INTER + INTRA:          -7.467
REMARK INTER:                  -6.625
REMARK INTRA:                  -0.843
REMARK UNBOUND:                -1.706
REMARK SMILES CC[C@H](CC[C@@H](C)[C@H]1CC[C@H]2[C@H]3CC(=O)C4=CC(=O)CC[C@]4(C)[C@@H]3CC[C@@]12C)C(C)C
REMARK SMILES IDX 4 1 3 2 2 3 1 4 29 5 30 6 31 7 5 8 6 9 7 10 8 11 9 12 27 13
REMARK SMILES IDX 10 14 11 15 26 16 28 17 12 18 25 19 24 20 13 21 22 22 14 23
REMARK SMILES IDX 16 24 21 25 23 26 15 27 17 28 20 29 18 30 19 31
REMARK H PARENT
REMARK Flexibility Score: inf
ROOT
ATOM      1  C   UNL     1      -7.703  -8.868  -5.809  1.00  0.00     0.004 C 
ENDROOT
BRANCH   1   2
ATOM      2  C   UNL     1      -6.817  -7.665  -6.247  1.00  0.00    -0.009 C 
BRANCH   2   3
ATOM      3  C   UNL     1      -7.358  -7.006  -7.545  1.00  0.00     0.000 C 
ATOM      4  C   UNL     1      -6.418  -7.217  -8.736  1.00  0.00     0.004 C 
ENDBRANCH   2   3
BRANCH   2   5
ATOM      5  C   UNL     1      -6.645  -6.644  -5.072  1.00  0.00    -0.014 C 
ATOM      6  C   UNL     1      -6.218  -5.256  -5.576  1.00  0.00     0.007 C 
ATOM      7  C   UNL     1      -7.893  -6.517  -4.177  1.00  0.00     0.007 C 
ENDBRANCH   2   5
ENDBRANCH   1   2
BRANCH   1   8
ATOM      8  C   UNL     1      -7.144 -10.220  -6.301  1.00  0.00     0.004 C 
BRANCH   8   9
ATOM      9  C   UNL     1      -8.144 -10.999  -7.204  1.00  0.00    -0.011 C 
ATOM     10  C   UNL     1      -7.901 -10.648  -8.687  1.00  0.00     0.008 C 
BRANCH   9  11
ATOM     11  C   UNL     1      -8.141 -12.561  -7.025  1.00  0.00    -0.002 C 
ATOM     12  C   UNL     1      -6.812 -13.282  -7.277  1.00  0.00     0.005 C 
ATOM     13  C   UNL     1      -8.684 -13.161  -5.694  1.00  0.00    -0.026 C 
ATOM     14  C   UNL     1      -6.946 -14.646  -6.591  1.00  0.00     0.005 C 
ATOM     15  C   UNL     1      -8.308 -14.649  -5.866  1.00  0.00    -0.001 C 
ATOM     16  C   UNL     1      -7.975 -12.570  -4.442  1.00  0.00     0.007 C 
ATOM     17  C   UNL     1     -10.219 -12.983  -5.591  1.00  0.00     0.012 C 
ATOM     18  C   UNL     1      -8.390 -15.501  -4.563  1.00  0.00     0.004 C 
ATOM     19  C   UNL     1      -8.172 -13.409  -3.174  1.00  0.00     0.005 C 
ATOM     20  C   UNL     1      -7.656 -14.858  -3.357  1.00  0.00     0.003 C 
ATOM     21  C   UNL     1      -7.883 -16.931  -4.812  1.00  0.00     0.085 C 
ATOM     22  C   UNL     1      -7.680 -15.763  -2.028  1.00  0.00    -0.000 C 
ATOM     23  C   UNL     1      -8.146 -17.782  -3.619  1.00  0.00     0.159 C 
ATOM     24  C   UNL     1      -8.268 -17.167  -2.278  1.00  0.00     0.005 C 
ATOM     25  C   UNL     1      -8.483 -15.086  -0.864  1.00  0.00     0.020 C 
ATOM     26  C   UNL     1      -6.211 -15.970  -1.575  1.00  0.00     0.017 C 
ATOM     27  O   UNL     1      -8.254 -19.030  -3.771  1.00  0.00    -0.295 OA
ATOM     28  C   UNL     1      -8.831 -17.884  -1.287  1.00  0.00     0.055 C 
ATOM     29  C   UNL     1      -8.591 -15.949   0.399  1.00  0.00     0.081 C 
ATOM     30  C   UNL     1      -9.002 -17.345   0.069  1.00  0.00     0.156 C 
ATOM     31  O   UNL     1      -9.479 -18.084   0.974  1.00  0.00    -0.295 OA
ENDBRANCH   9  11
ENDBRANCH   8   9
ENDBRANCH   1   8
TORSDOF 6
ENDMDL
MODEL 5
REMARK VINA RESULT:    -4.223      3.525      8.260
REMARK INTER + INTRA:          -7.410
REMARK INTER:                  -6.839
REMARK INTRA:                  -0.570
REMARK UNBOUND:                -1.706
REMARK SMILES CC[C@H](CC[C@@H](C)[C@H]1CC[C@H]2[C@H]3CC(=O)C4=CC(=O)CC[C@]4(C)[C@@H]3CC[C@@]12C)C(C)C
REMARK SMILES IDX 4 1 3 2 2 3 1 4 29 5 30 6 31 7 5 8 6 9 7 10 8 11 9 12 27 13
REMARK SMILES IDX 10 14 11 15 26 16 28 17 12 18 25 19 24 20 13 21 22 22 14 23
REMARK SMILES IDX 16 24 21 25 23 26 15 27 17 28 20 29 18 30 19 31
REMARK H PARENT
REMARK Flexibility Score: inf
ROOT
ATOM      1  C   UNL     1      -7.039 -17.108   1.298  1.00  0.00     0.004 C 
ENDROOT
BRANCH   1   2
ATOM      2  C   UNL     1      -8.372 -17.881   1.075  1.00  0.00    -0.009 C 
BRANCH   2   3
ATOM      3  C   UNL     1      -8.466 -19.125   2.000  1.00  0.00     0.000 C 
ATOM      4  C   UNL     1      -7.402 -19.109   3.101  1.00  0.00     0.004 C 
ENDBRANCH   2   3
BRANCH   2   5
ATOM      5  C   UNL     1      -9.602 -16.922   1.217  1.00  0.00    -0.014 C 
ATOM      6  C   UNL     1      -9.249 -15.648   2.000  1.00  0.00     0.007 C 
ATOM      7  C   UNL     1     -10.252 -16.548  -0.130  1.00  0.00     0.007 C 
ENDBRANCH   2   5
ENDBRANCH   1   2
BRANCH   1   8
ATOM      8  C   UNL     1      -5.875 -17.689   0.467  1.00  0.00     0.004 C 
BRANCH   8   9
ATOM      9  C   UNL     1      -5.883 -17.203  -1.011  1.00  0.00    -0.011 C 
ATOM     10  C   UNL     1      -6.071 -18.403  -1.962  1.00  0.00     0.008 C 
BRANCH   9  11
ATOM     11  C   UNL     1      -6.941 -16.090  -1.351  1.00  0.00    -0.002 C 
ATOM     12  C   UNL     1      -6.699 -14.701  -0.750  1.00  0.00     0.005 C 
ATOM     13  C   UNL     1      -7.297 -15.831  -2.845  1.00  0.00    -0.026 C 
ATOM     14  C   UNL     1      -7.545 -13.736  -1.589  1.00  0.00     0.005 C 
ATOM     15  C   UNL     1      -8.178 -14.568  -2.724  1.00  0.00    -0.001 C 
ATOM     16  C   UNL     1      -6.043 -15.530  -3.713  1.00  0.00     0.007 C 
ATOM     17  C   UNL     1      -8.102 -17.015  -3.436  1.00  0.00     0.012 C 
ATOM     18  C   UNL     1      -8.434 -13.816  -4.065  1.00  0.00     0.004 C 
ATOM     19  C   UNL     1      -6.373 -14.874  -5.059  1.00  0.00     0.005 C 
ATOM     20  C   UNL     1      -7.140 -13.540  -4.876  1.00  0.00     0.003 C 
ATOM     21  C   UNL     1      -9.213 -12.513  -3.821  1.00  0.00     0.085 C 
ATOM     22  C   UNL     1      -7.390 -12.707  -6.228  1.00  0.00    -0.000 C 
ATOM     23  C   UNL     1      -9.616 -11.908  -5.120  1.00  0.00     0.159 C 
ATOM     24  C   UNL     1      -8.838 -12.191  -6.347  1.00  0.00     0.005 C 
ATOM     25  C   UNL     1      -7.050 -13.542  -7.511  1.00  0.00     0.020 C 
ATOM     26  C   UNL     1      -6.474 -11.455  -6.183  1.00  0.00     0.017 C 
ATOM     27  O   UNL     1     -10.622 -11.146  -5.153  1.00  0.00    -0.295 OA
ATOM     28  C   UNL     1      -9.397 -11.924  -7.543  1.00  0.00     0.055 C 
ATOM     29  C   UNL     1      -7.343 -12.807  -8.825  1.00  0.00     0.081 C 
ATOM     30  C   UNL     1      -8.700 -12.187  -8.809  1.00  0.00     0.156 C 
ATOM     31  O   UNL     1      -9.246 -11.858  -9.898  1.00  0.00    -0.295 OA
ENDBRANCH   9  11
ENDBRANCH   8   9
ENDBRANCH   1   8
TORSDOF 6
ENDMDL
MODEL 6
REMARK VINA RESULT:    -4.086      3.188      5.879
REMARK INTER + INTRA:          -7.225
REMARK INTER:                  -5.908
REMARK INTRA:                  -1.317
REMARK UNBOUND:                -1.706
REMARK SMILES CC[C@H](CC[C@@H](C)[C@H]1CC[C@H]2[C@H]3CC(=O)C4=CC(=O)CC[C@]4(C)[C@@H]3CC[C@@]12C)C(C)C
REMARK SMILES IDX 4 1 3 2 2 3 1 4 29 5 30 6 31 7 5 8 6 9 7 10 8 11 9 12 27 13
REMARK SMILES IDX 10 14 11 15 26 16 28 17 12 18 25 19 24 20 13 21 22 22 14 23
REMARK SMILES IDX 16 24 21 25 23 26 15 27 17 28 20 29 18 30 19 31
REMARK H PARENT
REMARK Flexibility Score: inf
ROOT
ATOM      1  C   UNL     1      -7.745  -9.630  -7.562  1.00  0.00     0.004 C 
ENDROOT
BRANCH   1   2
ATOM      2  C   UNL     1      -6.467  -9.063  -6.877  1.00  0.00    -0.009 C 
BRANCH   2   3
ATOM      3  C   UNL     1      -5.931  -7.812  -7.625  1.00  0.00     0.000 C 
ATOM      4  C   UNL     1      -6.958  -7.244  -8.610  1.00  0.00     0.004 C 
ENDBRANCH   2   3
BRANCH   2   5
ATOM      5  C   UNL     1      -6.721  -8.799  -5.354  1.00  0.00    -0.014 C 
ATOM      6  C   UNL     1      -6.477  -7.328  -4.978  1.00  0.00     0.007 C 
ATOM      7  C   UNL     1      -8.119  -9.239  -4.877  1.00  0.00     0.007 C 
ENDBRANCH   2   5
ENDBRANCH   1   2
BRANCH   1   8
ATOM      8  C   UNL     1      -7.448 -10.874  -8.425  1.00  0.00     0.004 C 
BRANCH   8   9
ATOM      9  C   UNL     1      -8.700 -11.770  -8.650  1.00  0.00    -0.011 C 
ATOM     10  C   UNL     1      -9.148 -11.692 -10.125  1.00  0.00     0.008 C 
BRANCH   9  11
ATOM     11  C   UNL     1      -8.538 -13.277  -8.228  1.00  0.00    -0.002 C 
ATOM     12  C   UNL     1      -7.148 -13.898  -8.411  1.00  0.00     0.005 C 
ATOM     13  C   UNL     1      -8.992 -13.705  -6.802  1.00  0.00    -0.026 C 
ATOM     14  C   UNL     1      -7.132 -15.142  -7.514  1.00  0.00     0.005 C 
ATOM     15  C   UNL     1      -8.473 -15.159  -6.751  1.00  0.00    -0.001 C 
ATOM     16  C   UNL     1      -8.322 -12.858  -5.684  1.00  0.00     0.007 C 
ATOM     17  C   UNL     1     -10.535 -13.661  -6.675  1.00  0.00     0.012 C 
ATOM     18  C   UNL     1      -8.445 -15.796  -5.329  1.00  0.00     0.004 C 
ATOM     19  C   UNL     1      -8.410 -13.498  -4.293  1.00  0.00     0.005 C 
ATOM     20  C   UNL     1      -7.756 -14.902  -4.264  1.00  0.00     0.003 C 
ATOM     21  C   UNL     1      -7.803 -17.193  -5.368  1.00  0.00     0.085 C 
ATOM     22  C   UNL     1      -7.664 -15.582  -2.810  1.00  0.00    -0.000 C 
ATOM     23  C   UNL     1      -7.956 -17.863  -4.048  1.00  0.00     0.159 C 
ATOM     24  C   UNL     1      -8.113 -17.057  -2.816  1.00  0.00     0.005 C 
ATOM     25  C   UNL     1      -8.508 -14.807  -1.740  1.00  0.00     0.020 C 
ATOM     26  C   UNL     1      -6.173 -15.572  -2.381  1.00  0.00     0.017 C 
ATOM     27  O   UNL     1      -7.942 -19.124  -3.998  1.00  0.00    -0.295 OA
ATOM     28  C   UNL     1      -8.583 -17.657  -1.706  1.00  0.00     0.055 C 
ATOM     29  C   UNL     1      -8.505 -15.464  -0.353  1.00  0.00     0.081 C 
ATOM     30  C   UNL     1      -8.781 -16.928  -0.446  1.00  0.00     0.156 C 
ATOM     31  O   UNL     1      -9.164 -17.555   0.579  1.00  0.00    -0.295 OA
ENDBRANCH   9  11
ENDBRANCH   8   9
ENDBRANCH   1   8
TORSDOF 6
ENDMDL
MODEL 7
REMARK VINA RESULT:    -4.017     13.668     17.102
REMARK INTER + INTRA:          -7.132
REMARK INTER:                  -5.966
REMARK INTRA:                  -1.167
REMARK UNBOUND:                -1.706
REMARK SMILES CC[C@H](CC[C@@H](C)[C@H]1CC[C@H]2[C@H]3CC(=O)C4=CC(=O)CC[C@]4(C)[C@@H]3CC[C@@]12C)C(C)C
REMARK SMILES IDX 4 1 3 2 2 3 1 4 29 5 30 6 31 7 5 8 6 9 7 10 8 11 9 12 27 13
REMARK SMILES IDX 10 14 11 15 26 16 28 17 12 18 25 19 24 20 13 21 22 22 14 23
REMARK SMILES IDX 16 24 21 25 23 26 15 27 17 28 20 29 18 30 19 31
REMARK H PARENT
REMARK Flexibility Score: inf
ROOT
ATOM      1  C   UNL     1     -22.576 -16.547  -7.635  1.00  0.00     0.004 C 
ENDROOT
BRANCH   1   2
ATOM      2  C   UNL     1     -22.864 -18.034  -7.274  1.00  0.00    -0.009 C 
BRANCH   2   3
ATOM      3  C   UNL     1     -22.363 -18.376  -5.845  1.00  0.00     0.000 C 
ATOM      4  C   UNL     1     -20.838 -18.288  -5.729  1.00  0.00     0.004 C 
ENDBRANCH   2   3
BRANCH   2   5
ATOM      5  C   UNL     1     -24.377 -18.375  -7.488  1.00  0.00    -0.014 C 
ATOM      6  C   UNL     1     -25.273 -17.685  -6.448  1.00  0.00     0.007 C 
ATOM      7  C   UNL     1     -24.885 -18.063  -8.909  1.00  0.00     0.007 C 
ENDBRANCH   2   5
ENDBRANCH   1   2
BRANCH   1   8
ATOM      8  C   UNL     1     -21.610 -16.407  -8.831  1.00  0.00     0.004 C 
BRANCH   8   9
ATOM      9  C   UNL     1     -20.670 -15.173  -8.712  1.00  0.00    -0.011 C 
ATOM     10  C   UNL     1     -19.312 -15.476  -9.380  1.00  0.00     0.008 C 
BRANCH   9  11
ATOM     11  C   UNL     1     -21.248 -13.826  -9.282  1.00  0.00    -0.002 C 
ATOM     12  C   UNL     1     -22.533 -13.924 -10.113  1.00  0.00     0.005 C 
ATOM     13  C   UNL     1     -21.488 -12.642  -8.299  1.00  0.00    -0.026 C 
ATOM     14  C   UNL     1     -23.124 -12.509 -10.125  1.00  0.00     0.005 C 
ATOM     15  C   UNL     1     -22.228 -11.643  -9.215  1.00  0.00    -0.001 C 
ATOM     16  C   UNL     1     -22.391 -13.039  -7.097  1.00  0.00     0.007 C 
ATOM     17  C   UNL     1     -20.144 -12.052  -7.804  1.00  0.00     0.012 C 
ATOM     18  C   UNL     1     -22.937 -10.471  -8.470  1.00  0.00     0.004 C 
ATOM     19  C   UNL     1     -22.983 -11.837  -6.351  1.00  0.00     0.005 C 
ATOM     20  C   UNL     1     -23.828 -10.938  -7.288  1.00  0.00     0.003 C 
ATOM     21  C   UNL     1     -23.742  -9.606  -9.453  1.00  0.00     0.085 C 
ATOM     22  C   UNL     1     -24.613  -9.740  -6.558  1.00  0.00    -0.000 C 
ATOM     23  C   UNL     1     -24.252  -8.389  -8.764  1.00  0.00     0.159 C 
ATOM     24  C   UNL     1     -24.465  -8.397  -7.299  1.00  0.00     0.005 C 
ATOM     25  C   UNL     1     -24.150  -9.546  -5.073  1.00  0.00     0.020 C 
ATOM     26  C   UNL     1     -26.124 -10.092  -6.573  1.00  0.00     0.017 C 
ATOM     27  O   UNL     1     -24.505  -7.360  -9.449  1.00  0.00    -0.295 OA
ATOM     28  C   UNL     1     -24.593  -7.219  -6.659  1.00  0.00     0.055 C 
ATOM     29  C   UNL     1     -24.824  -8.366  -4.362  1.00  0.00     0.081 C 
ATOM     30  C   UNL     1     -24.794  -7.135  -5.205  1.00  0.00     0.156 C 
ATOM     31  O   UNL     1     -24.971  -6.008  -4.668  1.00  0.00    -0.295 OA
ENDBRANCH   9  11
ENDBRANCH   8   9
ENDBRANCH   1   8
TORSDOF 6
ENDMDL
MODEL 8
REMARK VINA RESULT:    -3.813      1.200      2.150
REMARK INTER + INTRA:          -6.856
REMARK INTER:                  -6.143
REMARK INTRA:                  -0.713
REMARK UNBOUND:                -1.706
REMARK SMILES CC[C@H](CC[C@@H](C)[C@H]1CC[C@H]2[C@H]3CC(=O)C4=CC(=O)CC[C@]4(C)[C@@H]3CC[C@@]12C)C(C)C
REMARK SMILES IDX 4 1 3 2 2 3 1 4 29 5 30 6 31 7 5 8 6 9 7 10 8 11 9 12 27 13
REMARK SMILES IDX 10 14 11 15 26 16 28 17 12 18 25 19 24 20 13 21 22 22 14 23
REMARK SMILES IDX 16 24 21 25 23 26 15 27 17 28 20 29 18 30 19 31
REMARK H PARENT
REMARK Flexibility Score: inf
ROOT
ATOM      1  C   UNL     1     -10.855 -16.318  -7.124  1.00  0.00     0.004 C 
ENDROOT
BRANCH   1   2
ATOM      2  C   UNL     1     -11.790 -16.744  -8.294  1.00  0.00    -0.009 C 
BRANCH   2   3
ATOM      3  C   UNL     1     -12.494 -18.095  -7.992  1.00  0.00     0.000 C 
ATOM      4  C   UNL     1     -12.861 -18.238  -6.512  1.00  0.00     0.004 C 
ENDBRANCH   2   3
BRANCH   2   5
ATOM      5  C   UNL     1     -12.796 -15.598  -8.648  1.00  0.00    -0.014 C 
ATOM      6  C   UNL     1     -12.989 -14.621  -7.477  1.00  0.00     0.007 C 
ATOM      7  C   UNL     1     -12.422 -14.820  -9.925  1.00  0.00     0.007 C 
ENDBRANCH   2   5
ENDBRANCH   1   2
BRANCH   1   8
ATOM      8  C   UNL     1      -9.421 -16.866  -7.287  1.00  0.00     0.004 C 
BRANCH   8   9
ATOM      9  C   UNL     1      -8.366 -15.747  -7.518  1.00  0.00    -0.011 C 
ATOM     10  C   UNL     1      -8.828 -14.810  -8.655  1.00  0.00     0.008 C 
BRANCH   9  11
ATOM     11  C   UNL     1      -7.996 -14.893  -6.250  1.00  0.00    -0.002 C 
ATOM     12  C   UNL     1      -9.081 -13.953  -5.712  1.00  0.00     0.005 C 
ATOM     13  C   UNL     1      -7.432 -15.625  -4.996  1.00  0.00    -0.026 C 
ATOM     14  C   UNL     1      -8.669 -13.632  -4.270  1.00  0.00     0.005 C 
ATOM     15  C   UNL     1      -7.412 -14.474  -3.967  1.00  0.00    -0.001 C 
ATOM     16  C   UNL     1      -8.364 -16.769  -4.505  1.00  0.00     0.007 C 
ATOM     17  C   UNL     1      -6.002 -16.158  -5.262  1.00  0.00     0.012 C 
ATOM     18  C   UNL     1      -7.229 -14.923  -2.485  1.00  0.00     0.004 C 
ATOM     19  C   UNL     1      -8.069 -17.226  -3.071  1.00  0.00     0.005 C 
ATOM     20  C   UNL     1      -8.194 -16.060  -2.059  1.00  0.00     0.003 C 
ATOM     21  C   UNL     1      -7.344 -13.722  -1.532  1.00  0.00     0.085 C 
ATOM     22  C   UNL     1      -8.055 -16.481  -0.513  1.00  0.00    -0.000 C 
ATOM     23  C   UNL     1      -6.977 -14.130  -0.148  1.00  0.00     0.159 C 
ATOM     24  C   UNL     1      -7.120 -15.541   0.275  1.00  0.00     0.005 C 
ATOM     25  C   UNL     1      -7.541 -17.953  -0.344  1.00  0.00     0.020 C 
ATOM     26  C   UNL     1      -9.459 -16.358   0.135  1.00  0.00     0.017 C 
ATOM     27  O   UNL     1      -6.552 -13.254   0.655  1.00  0.00    -0.295 OA
ATOM     28  C   UNL     1      -6.479 -15.951   1.386  1.00  0.00     0.055 C 
ATOM     29  C   UNL     1      -7.326 -18.371   1.116  1.00  0.00     0.081 C 
ATOM     30  C   UNL     1      -6.557 -17.337   1.868  1.00  0.00     0.156 C 
ATOM     31  O   UNL     1      -5.987 -17.650   2.950  1.00  0.00    -0.295 OA
ENDBRANCH   9  11
ENDBRANCH   8   9
ENDBRANCH   1   8
TORSDOF 6
ENDMDL
MODEL 9
REMARK VINA RESULT:    -3.194      5.493      8.602
REMARK INTER + INTRA:          -6.020
REMARK INTER:                  -4.922
REMARK INTRA:                  -1.099
REMARK UNBOUND:                -1.706
REMARK SMILES CC[C@H](CC[C@@H](C)[C@H]1CC[C@H]2[C@H]3CC(=O)C4=CC(=O)CC[C@]4(C)[C@@H]3CC[C@@]12C)C(C)C
REMARK SMILES IDX 4 1 3 2 2 3 1 4 29 5 30 6 31 7 5 8 6 9 7 10 8 11 9 12 27 13
REMARK SMILES IDX 10 14 11 15 26 16 28 17 12 18 25 19 24 20 13 21 22 22 14 23
REMARK SMILES IDX 16 24 21 25 23 26 15 27 17 28 20 29 18 30 19 31
REMARK H PARENT
REMARK Flexibility Score: inf
ROOT
ATOM      1  C   UNL     1      -6.538  -6.224  -6.664  1.00  0.00     0.004 C 
ENDROOT
BRANCH   1   2
ATOM      2  C   UNL     1      -6.033  -5.590  -7.994  1.00  0.00    -0.009 C 
BRANCH   2   3
ATOM      3  C   UNL     1      -6.932  -5.998  -9.192  1.00  0.00     0.000 C 
ATOM      4  C   UNL     1      -6.262  -7.043 -10.090  1.00  0.00     0.004 C 
ENDBRANCH   2   3
BRANCH   2   5
ATOM      5  C   UNL     1      -5.879  -4.039  -7.848  1.00  0.00    -0.014 C 
ATOM      6  C   UNL     1      -6.844  -3.277  -8.771  1.00  0.00     0.007 C 
ATOM      7  C   UNL     1      -6.032  -3.537  -6.399  1.00  0.00     0.007 C 
ENDBRANCH   2   5
ENDBRANCH   1   2
BRANCH   1   8
ATOM      8  C   UNL     1      -5.914  -7.611  -6.399  1.00  0.00     0.004 C 
BRANCH   8   9
ATOM      9  C   UNL     1      -6.827  -8.533  -5.541  1.00  0.00    -0.011 C 
ATOM     10  C   UNL     1      -7.648  -7.687  -4.545  1.00  0.00     0.008 C 
BRANCH   9  11
ATOM     11  C   UNL     1      -7.791  -9.474  -6.352  1.00  0.00    -0.002 C 
ATOM     12  C   UNL     1      -7.483  -9.657  -7.843  1.00  0.00     0.005 C 
ATOM     13  C   UNL     1      -8.061 -10.910  -5.813  1.00  0.00    -0.026 C 
ATOM     14  C   UNL     1      -8.223 -10.933  -8.263  1.00  0.00     0.005 C 
ATOM     15  C   UNL     1      -8.858 -11.521  -6.987  1.00  0.00    -0.001 C 
ATOM     16  C   UNL     1      -6.751 -11.714  -5.579  1.00  0.00     0.007 C 
ATOM     17  C   UNL     1      -8.917 -10.866  -4.523  1.00  0.00     0.012 C 
ATOM     18  C   UNL     1      -9.001 -13.073  -6.945  1.00  0.00     0.004 C 
ATOM     19  C   UNL     1      -6.974 -13.226  -5.455  1.00  0.00     0.005 C 
ATOM     20  C   UNL     1      -7.657 -13.812  -6.716  1.00  0.00     0.003 C 
ATOM     21  C   UNL     1      -9.702 -13.591  -8.212  1.00  0.00     0.085 C 
ATOM     22  C   UNL     1      -7.788 -15.414  -6.738  1.00  0.00    -0.000 C 
ATOM     23  C   UNL     1     -10.003 -15.043  -8.072  1.00  0.00     0.159 C 
ATOM     24  C   UNL     1      -9.191 -15.888  -7.167  1.00  0.00     0.005 C 
ATOM     25  C   UNL     1      -7.447 -16.056  -5.349  1.00  0.00     0.020 C 
ATOM     26  C   UNL     1      -6.793 -15.952  -7.800  1.00  0.00     0.017 C 
ATOM     27  O   UNL     1     -10.952 -15.537  -8.740  1.00  0.00    -0.295 OA
ATOM     28  C   UNL     1      -9.676 -17.088  -6.797  1.00  0.00     0.055 C 
ATOM     29  C   UNL     1      -7.630 -17.579  -5.307  1.00  0.00     0.081 C 
ATOM     30  C   UNL     1      -8.941 -17.984  -5.893  1.00  0.00     0.156 C 
ATOM     31  O   UNL     1      -9.414 -19.124  -5.630  1.00  0.00    -0.295 OA
ENDBRANCH   9  11
ENDBRANCH   8   9
ENDBRANCH   1   8
TORSDOF 6
ENDMDL
