MODEL 1
REMARK VINA RESULT:    -5.676      0.000      0.000
REMARK INTER + INTRA:          -7.794
REMARK INTER:                  -7.170
REMARK INTRA:                  -0.624
REMARK UNBOUND:                -0.624
REMARK SMILES Oc1cc(O)cc(CCc2ccccc2O)c1
REMARK SMILES IDX 9 1 10 2 12 3 13 4 11 5 14 6 15 7 16 8 8 10 7 11 6 12 17 13
REMARK SMILES IDX 4 14 2 15 3 16 5 17 1 19
REMARK H PARENT 16 9 5 18 1 20
REMARK Flexibility Score: inf
ROOT
ATOM      1  C   UNL     1     -13.919   8.290  30.437  1.00  0.00     0.044 C 
ENDROOT
BRANCH   1   2
ATOM      2  C   UNL     1     -14.134   9.780  30.581  1.00  0.00    -0.006 A 
ATOM      3  C   UNL     1     -13.177  12.019  30.591  1.00  0.00     0.001 A 
ATOM      4  C   UNL     1     -14.448  12.569  30.752  1.00  0.00     0.004 A 
ATOM      5  C   UNL     1     -13.019  10.635  30.504  1.00  0.00     0.007 A 
ATOM      6  C   UNL     1     -15.566  11.736  30.823  1.00  0.00     0.046 A 
ATOM      7  C   UNL     1     -15.425  10.345  30.733  1.00  0.00     0.118 A 
BRANCH   7   8
ATOM      8  O   UNL     1     -16.582   9.566  30.795  1.00  0.00    -0.508 OA
ATOM      9  H   UNL     1     -17.419   9.845  31.289  1.00  0.00     0.293 HD
ENDBRANCH   7   8
ENDBRANCH   1   2
BRANCH   1  10
ATOM     10  C   UNL     1     -13.479   7.642  31.758  1.00  0.00     0.040 C 
BRANCH  10  11
ATOM     11  C   UNL     1     -14.648   7.053  32.506  1.00  0.00    -0.040 A 
ATOM     12  C   UNL     1     -14.728   7.172  33.902  1.00  0.00     0.050 A 
ATOM     13  C   UNL     1     -15.634   6.324  31.819  1.00  0.00     0.050 A 
ATOM     14  C   UNL     1     -15.787   6.583  34.605  1.00  0.00     0.119 A 
ATOM     15  C   UNL     1     -16.691   5.733  32.518  1.00  0.00     0.119 A 
ATOM     16  C   UNL     1     -16.768   5.866  33.910  1.00  0.00     0.092 A 
BRANCH  14  17
ATOM     17  O   UNL     1     -15.875   6.700  35.990  1.00  0.00    -0.508 OA
ATOM     18  H   UNL     1     -16.729   7.005  36.441  1.00  0.00     0.293 HD
ENDBRANCH  14  17
BRANCH  15  19
ATOM     19  O   UNL     1     -17.659   5.013  31.819  1.00  0.00    -0.508 OA
ATOM     20  H   UNL     1     -17.639   4.001  31.777  1.00  0.00     0.293 HD
ENDBRANCH  15  19
ENDBRANCH  10  11
ENDBRANCH   1  10
TORSDOF 6
ENDMDL
MODEL 2
REMARK VINA RESULT:    -5.657      0.240      2.049
REMARK INTER + INTRA:          -7.769
REMARK INTER:                  -7.148
REMARK INTRA:                  -0.621
REMARK UNBOUND:                -0.624
REMARK SMILES Oc1cc(O)cc(CCc2ccccc2O)c1
REMARK SMILES IDX 9 1 10 2 12 3 13 4 11 5 14 6 15 7 16 8 8 10 7 11 6 12 17 13
REMARK SMILES IDX 4 14 2 15 3 16 5 17 1 19
REMARK H PARENT 16 9 5 18 1 20
REMARK Flexibility Score: inf
ROOT
ATOM      1  C   UNL     1     -13.995   8.164  30.398  1.00  0.00     0.044 C 
ENDROOT
BRANCH   1   2
ATOM      2  C   UNL     1     -14.318   9.635  30.535  1.00  0.00    -0.006 A 
ATOM      3  C   UNL     1     -13.526  11.938  30.538  1.00  0.00     0.001 A 
ATOM      4  C   UNL     1     -14.835  12.395  30.694  1.00  0.00     0.004 A 
ATOM      5  C   UNL     1     -13.268  10.569  30.457  1.00  0.00     0.007 A 
ATOM      6  C   UNL     1     -15.889  11.483  30.765  1.00  0.00     0.046 A 
ATOM      7  C   UNL     1     -15.647  10.106  30.681  1.00  0.00     0.118 A 
BRANCH   7   8
ATOM      8  O   UNL     1     -16.744   9.245  30.744  1.00  0.00    -0.508 OA
ATOM      9  H   UNL     1     -17.370   9.079  29.967  1.00  0.00     0.293 HD
ENDBRANCH   7   8
ENDBRANCH   1   2
BRANCH   1  10
ATOM     10  C   UNL     1     -13.514   7.555  31.723  1.00  0.00     0.040 C 
BRANCH  10  11
ATOM     11  C   UNL     1     -14.644   6.907  32.481  1.00  0.00    -0.040 A 
ATOM     12  C   UNL     1     -15.646   6.206  31.793  1.00  0.00     0.050 A 
ATOM     13  C   UNL     1     -14.740   7.054  33.875  1.00  0.00     0.050 A 
ATOM     14  C   UNL     1     -16.725   5.644  32.490  1.00  0.00     0.119 A 
ATOM     15  C   UNL     1     -15.816   6.496  34.573  1.00  0.00     0.119 A 
ATOM     16  C   UNL     1     -16.805   5.789  33.879  1.00  0.00     0.092 A 
BRANCH  14  17
ATOM     17  O   UNL     1     -17.721   4.943  31.814  1.00  0.00    -0.508 OA
ATOM     18  H   UNL     1     -18.451   4.449  32.313  1.00  0.00     0.293 HD
ENDBRANCH  14  17
BRANCH  15  19
ATOM     19  O   UNL     1     -15.893   6.653  35.956  1.00  0.00    -0.508 OA
ATOM     20  H   UNL     1     -15.119   7.030  36.490  1.00  0.00     0.293 HD
ENDBRANCH  15  19
ENDBRANCH  10  11
ENDBRANCH   1  10
TORSDOF 6
ENDMDL
MODEL 3
REMARK VINA RESULT:    -5.651      3.926      6.938
REMARK INTER + INTRA:          -7.761
REMARK INTER:                  -7.149
REMARK INTRA:                  -0.612
REMARK UNBOUND:                -0.624
REMARK SMILES Oc1cc(O)cc(CCc2ccccc2O)c1
REMARK SMILES IDX 9 1 10 2 12 3 13 4 11 5 14 6 15 7 16 8 8 10 7 11 6 12 17 13
REMARK SMILES IDX 4 14 2 15 3 16 5 17 1 19
REMARK H PARENT 16 9 5 18 1 20
REMARK Flexibility Score: inf
ROOT
ATOM      1  C   UNL     1     -13.239   4.008  31.203  1.00  0.00     0.044 C 
ENDROOT
BRANCH   1   2
ATOM      2  C   UNL     1     -13.333   2.523  31.476  1.00  0.00    -0.006 A 
ATOM      3  C   UNL     1     -13.389   0.254  30.593  1.00  0.00     0.001 A 
ATOM      4  C   UNL     1     -13.418  -0.257  31.890  1.00  0.00     0.004 A 
ATOM      5  C   UNL     1     -13.344   1.634  30.385  1.00  0.00     0.007 A 
ATOM      6  C   UNL     1     -13.399   0.610  32.983  1.00  0.00     0.046 A 
ATOM      7  C   UNL     1     -13.350   1.998  32.793  1.00  0.00     0.118 A 
BRANCH   7   8
ATOM      8  O   UNL     1     -13.318   2.813  33.926  1.00  0.00    -0.508 OA
ATOM      9  H   UNL     1     -12.492   2.951  34.492  1.00  0.00     0.293 HD
ENDBRANCH   7   8
ENDBRANCH   1   2
BRANCH   1  10
ATOM     10  C   UNL     1     -14.602   4.611  30.832  1.00  0.00     0.040 C 
BRANCH  10  11
ATOM     11  C   UNL     1     -15.279   5.234  32.027  1.00  0.00    -0.040 A 
ATOM     12  C   UNL     1     -16.674   5.171  32.162  1.00  0.00     0.050 A 
ATOM     13  C   UNL     1     -14.525   5.941  32.980  1.00  0.00     0.050 A 
ATOM     14  C   UNL     1     -17.310   5.792  33.245  1.00  0.00     0.119 A 
ATOM     15  C   UNL     1     -15.158   6.564  34.060  1.00  0.00     0.119 A 
ATOM     16  C   UNL     1     -16.549   6.485  34.193  1.00  0.00     0.092 A 
BRANCH  14  17
ATOM     17  O   UNL     1     -18.694   5.730  33.388  1.00  0.00    -0.508 OA
ATOM     18  H   UNL     1     -19.158   4.877  33.677  1.00  0.00     0.293 HD
ENDBRANCH  14  17
BRANCH  15  19
ATOM     19  O   UNL     1     -14.393   7.260  34.995  1.00  0.00    -0.508 OA
ATOM     20  H   UNL     1     -14.087   8.211  34.826  1.00  0.00     0.293 HD
ENDBRANCH  15  19
ENDBRANCH  10  11
ENDBRANCH   1  10
TORSDOF 6
ENDMDL
MODEL 4
REMARK VINA RESULT:    -5.646      3.947      6.776
REMARK INTER + INTRA:          -7.755
REMARK INTER:                  -7.151
REMARK INTRA:                  -0.604
REMARK UNBOUND:                -0.624
REMARK SMILES Oc1cc(O)cc(CCc2ccccc2O)c1
REMARK SMILES IDX 9 1 10 2 12 3 13 4 11 5 14 6 15 7 16 8 8 10 7 11 6 12 17 13
REMARK SMILES IDX 4 14 2 15 3 16 5 17 1 19
REMARK H PARENT 16 9 5 18 1 20
REMARK Flexibility Score: inf
ROOT
ATOM      1  C   UNL     1     -13.287   3.930  31.253  1.00  0.00     0.044 C 
ENDROOT
BRANCH   1   2
ATOM      2  C   UNL     1     -13.357   2.442  31.517  1.00  0.00    -0.006 A 
ATOM      3  C   UNL     1     -13.376   0.178  30.620  1.00  0.00     0.001 A 
ATOM      4  C   UNL     1     -13.399  -0.342  31.914  1.00  0.00     0.004 A 
ATOM      5  C   UNL     1     -13.353   1.560  30.421  1.00  0.00     0.007 A 
ATOM      6  C   UNL     1     -13.395   0.519  33.012  1.00  0.00     0.046 A 
ATOM      7  C   UNL     1     -13.368   1.908  32.830  1.00  0.00     0.118 A 
BRANCH   7   8
ATOM      8  O   UNL     1     -13.351   2.716  33.968  1.00  0.00    -0.508 OA
ATOM      9  H   UNL     1     -12.928   3.635  33.996  1.00  0.00     0.293 HD
ENDBRANCH   7   8
ENDBRANCH   1   2
BRANCH   1  10
ATOM     10  C   UNL     1     -14.651   4.506  30.846  1.00  0.00     0.040 C 
BRANCH  10  11
ATOM     11  C   UNL     1     -15.319   5.221  31.994  1.00  0.00    -0.040 A 
ATOM     12  C   UNL     1     -14.546   5.892  32.954  1.00  0.00     0.050 A 
ATOM     13  C   UNL     1     -16.714   5.166  32.148  1.00  0.00     0.050 A 
ATOM     14  C   UNL     1     -15.161   6.516  34.048  1.00  0.00     0.119 A 
ATOM     15  C   UNL     1     -17.330   5.785  33.240  1.00  0.00     0.119 A 
ATOM     16  C   UNL     1     -16.552   6.462  34.187  1.00  0.00     0.092 A 
BRANCH  14  17
ATOM     17  O   UNL     1     -14.401   7.187  35.003  1.00  0.00    -0.508 OA
ATOM     18  H   UNL     1     -13.882   8.026  34.771  1.00  0.00     0.293 HD
ENDBRANCH  14  17
BRANCH  15  19
ATOM     19  O   UNL     1     -18.716   5.719  33.375  1.00  0.00    -0.508 OA
ATOM     20  H   UNL     1     -19.238   6.452  33.839  1.00  0.00     0.293 HD
ENDBRANCH  15  19
ENDBRANCH  10  11
ENDBRANCH   1  10
TORSDOF 6
ENDMDL
MODEL 5
REMARK VINA RESULT:    -5.593      4.444      7.273
REMARK INTER + INTRA:          -7.688
REMARK INTER:                  -7.079
REMARK INTRA:                  -0.609
REMARK UNBOUND:                -0.624
REMARK SMILES Oc1cc(O)cc(CCc2ccccc2O)c1
REMARK SMILES IDX 9 1 10 2 12 3 13 4 11 5 14 6 15 7 16 8 8 10 7 11 6 12 17 13
REMARK SMILES IDX 4 14 2 15 3 16 5 17 1 19
REMARK H PARENT 16 9 5 18 1 20
REMARK Flexibility Score: inf
ROOT
ATOM      1  C   UNL     1     -12.912   2.948  33.060  1.00  0.00     0.044 C 
ENDROOT
BRANCH   1   2
ATOM      2  C   UNL     1     -13.062   1.973  31.913  1.00  0.00    -0.006 A 
ATOM      3  C   UNL     1     -13.699   1.585  29.595  1.00  0.00     0.001 A 
ATOM      4  C   UNL     1     -13.297   0.254  29.700  1.00  0.00     0.004 A 
ATOM      5  C   UNL     1     -13.581   2.441  30.691  1.00  0.00     0.007 A 
ATOM      6  C   UNL     1     -12.773  -0.224  30.902  1.00  0.00     0.046 A 
ATOM      7  C   UNL     1     -12.644   0.622  32.011  1.00  0.00     0.118 A 
BRANCH   7   8
ATOM      8  O   UNL     1     -12.099   0.089  33.180  1.00  0.00    -0.508 OA
ATOM      9  H   UNL     1     -11.157  -0.273  33.244  1.00  0.00     0.293 HD
ENDBRANCH   7   8
ENDBRANCH   1   2
BRANCH   1  10
ATOM     10  C   UNL     1     -14.216   3.103  33.856  1.00  0.00     0.040 C 
BRANCH  10  11
ATOM     11  C   UNL     1     -14.942   4.374  33.495  1.00  0.00    -0.040 A 
ATOM     12  C   UNL     1     -16.344   4.400  33.456  1.00  0.00     0.050 A 
ATOM     13  C   UNL     1     -14.220   5.524  33.131  1.00  0.00     0.050 A 
ATOM     14  C   UNL     1     -17.021   5.566  33.073  1.00  0.00     0.119 A 
ATOM     15  C   UNL     1     -14.893   6.688  32.746  1.00  0.00     0.119 A 
ATOM     16  C   UNL     1     -16.293   6.708  32.721  1.00  0.00     0.092 A 
BRANCH  14  17
ATOM     17  O   UNL     1     -18.413   5.601  33.036  1.00  0.00    -0.508 OA
ATOM     18  H   UNL     1     -18.939   5.010  32.404  1.00  0.00     0.293 HD
ENDBRANCH  14  17
BRANCH  15  19
ATOM     19  O   UNL     1     -14.159   7.818  32.389  1.00  0.00    -0.508 OA
ATOM     20  H   UNL     1     -13.162   7.769  32.217  1.00  0.00     0.293 HD
ENDBRANCH  15  19
ENDBRANCH  10  11
ENDBRANCH   1  10
TORSDOF 6
ENDMDL
MODEL 6
REMARK VINA RESULT:    -5.585     13.517     14.991
REMARK INTER + INTRA:          -7.678
REMARK INTER:                  -6.924
REMARK INTRA:                  -0.754
REMARK UNBOUND:                -0.624
REMARK SMILES Oc1cc(O)cc(CCc2ccccc2O)c1
REMARK SMILES IDX 9 1 10 2 12 3 13 4 11 5 14 6 15 7 16 8 8 10 7 11 6 12 17 13
REMARK SMILES IDX 4 14 2 15 3 16 5 17 1 19
REMARK H PARENT 16 9 5 18 1 20
REMARK Flexibility Score: inf
ROOT
ATOM      1  C   UNL     1      -0.703   1.324  28.534  1.00  0.00     0.044 C 
ENDROOT
BRANCH   1   2
ATOM      2  C   UNL     1      -1.722   1.090  27.440  1.00  0.00    -0.006 A 
ATOM      3  C   UNL     1      -2.509  -0.308  25.608  1.00  0.00     0.001 A 
ATOM      4  C   UNL     1      -3.613   0.528  25.436  1.00  0.00     0.004 A 
ATOM      5  C   UNL     1      -1.571  -0.031  26.604  1.00  0.00     0.007 A 
ATOM      6  C   UNL     1      -3.783   1.639  26.263  1.00  0.00     0.046 A 
ATOM      7  C   UNL     1      -2.852   1.929  27.269  1.00  0.00     0.118 A 
BRANCH   7   8
ATOM      8  O   UNL     1      -3.085   3.046  28.073  1.00  0.00    -0.508 OA
ATOM      9  H   UNL     1      -3.237   2.995  29.071  1.00  0.00     0.293 HD
ENDBRANCH   7   8
ENDBRANCH   1   2
BRANCH   1  10
ATOM     10  C   UNL     1      -0.842   0.307  29.676  1.00  0.00     0.040 C 
BRANCH  10  11
ATOM     11  C   UNL     1      -2.177   0.424  30.367  1.00  0.00    -0.040 A 
ATOM     12  C   UNL     1      -3.162  -0.555  30.174  1.00  0.00     0.050 A 
ATOM     13  C   UNL     1      -2.469   1.548  31.159  1.00  0.00     0.050 A 
ATOM     14  C   UNL     1      -4.421  -0.424  30.775  1.00  0.00     0.119 A 
ATOM     15  C   UNL     1      -3.725   1.683  31.759  1.00  0.00     0.119 A 
ATOM     16  C   UNL     1      -4.698   0.695  31.569  1.00  0.00     0.092 A 
BRANCH  14  17
ATOM     17  O   UNL     1      -5.403  -1.395  30.591  1.00  0.00    -0.508 OA
ATOM     18  H   UNL     1      -6.317  -1.310  31.020  1.00  0.00     0.293 HD
ENDBRANCH  14  17
BRANCH  15  19
ATOM     19  O   UNL     1      -3.995   2.806  32.540  1.00  0.00    -0.508 OA
ATOM     20  H   UNL     1      -3.278   3.239  33.110  1.00  0.00     0.293 HD
ENDBRANCH  15  19
ENDBRANCH  10  11
ENDBRANCH   1  10
TORSDOF 6
ENDMDL
MODEL 7
REMARK VINA RESULT:    -5.575      4.053      7.050
REMARK INTER + INTRA:          -7.666
REMARK INTER:                  -7.071
REMARK INTRA:                  -0.595
REMARK UNBOUND:                -0.624
REMARK SMILES Oc1cc(O)cc(CCc2ccccc2O)c1
REMARK SMILES IDX 9 1 10 2 12 3 13 4 11 5 14 6 15 7 16 8 8 10 7 11 6 12 17 13
REMARK SMILES IDX 4 14 2 15 3 16 5 17 1 19
REMARK H PARENT 16 9 5 18 1 20
REMARK Flexibility Score: inf
ROOT
ATOM      1  C   UNL     1     -13.210   3.893  31.155  1.00  0.00     0.044 C 
ENDROOT
BRANCH   1   2
ATOM      2  C   UNL     1     -13.250   2.398  31.387  1.00  0.00    -0.006 A 
ATOM      3  C   UNL     1     -13.440   0.552  32.964  1.00  0.00     0.001 A 
ATOM      4  C   UNL     1     -13.416  -0.360  31.909  1.00  0.00     0.004 A 
ATOM      5  C   UNL     1     -13.360   1.922  32.707  1.00  0.00     0.007 A 
ATOM      6  C   UNL     1     -13.316   0.096  30.594  1.00  0.00     0.046 A 
ATOM      7  C   UNL     1     -13.238   1.468  30.318  1.00  0.00     0.118 A 
BRANCH   7   8
ATOM      8  O   UNL     1     -13.155   1.862  28.982  1.00  0.00    -0.508 OA
ATOM      9  H   UNL     1     -12.594   2.641  28.663  1.00  0.00     0.293 HD
ENDBRANCH   7   8
ENDBRANCH   1   2
BRANCH   1  10
ATOM     10  C   UNL     1     -14.594   4.455  30.797  1.00  0.00     0.040 C 
BRANCH  10  11
ATOM     11  C   UNL     1     -15.245   5.126  31.980  1.00  0.00    -0.040 A 
ATOM     12  C   UNL     1     -16.640   5.097  32.129  1.00  0.00     0.050 A 
ATOM     13  C   UNL     1     -14.468   5.843  32.906  1.00  0.00     0.050 A 
ATOM     14  C   UNL     1     -17.252   5.762  33.200  1.00  0.00     0.119 A 
ATOM     15  C   UNL     1     -15.076   6.508  33.974  1.00  0.00     0.119 A 
ATOM     16  C   UNL     1     -16.468   6.464  34.121  1.00  0.00     0.092 A 
BRANCH  14  17
ATOM     17  O   UNL     1     -18.636   5.734  33.357  1.00  0.00    -0.508 OA
ATOM     18  H   UNL     1     -19.072   5.972  34.240  1.00  0.00     0.293 HD
ENDBRANCH  14  17
BRANCH  15  19
ATOM     19  O   UNL     1     -14.287   7.213  34.882  1.00  0.00    -0.508 OA
ATOM     20  H   UNL     1     -14.316   8.225  34.934  1.00  0.00     0.293 HD
ENDBRANCH  15  19
ENDBRANCH  10  11
ENDBRANCH   1  10
TORSDOF 6
ENDMDL
MODEL 8
REMARK VINA RESULT:    -5.557      4.045      6.839
REMARK INTER + INTRA:          -7.643
REMARK INTER:                  -7.052
REMARK INTRA:                  -0.591
REMARK UNBOUND:                -0.624
REMARK SMILES Oc1cc(O)cc(CCc2ccccc2O)c1
REMARK SMILES IDX 9 1 10 2 12 3 13 4 11 5 14 6 15 7 16 8 8 10 7 11 6 12 17 13
REMARK SMILES IDX 4 14 2 15 3 16 5 17 1 19
REMARK H PARENT 16 9 5 18 1 20
REMARK Flexibility Score: inf
ROOT
ATOM      1  C   UNL     1     -13.290   3.884  31.093  1.00  0.00     0.044 C 
ENDROOT
BRANCH   1   2
ATOM      2  C   UNL     1     -13.308   2.391  31.335  1.00  0.00    -0.006 A 
ATOM      3  C   UNL     1     -13.437   0.553  32.928  1.00  0.00     0.001 A 
ATOM      4  C   UNL     1     -13.432  -0.365  31.878  1.00  0.00     0.004 A 
ATOM      5  C   UNL     1     -13.378   1.922  32.660  1.00  0.00     0.007 A 
ATOM      6  C   UNL     1     -13.371   0.083  30.558  1.00  0.00     0.046 A 
ATOM      7  C   UNL     1     -13.314   1.453  30.272  1.00  0.00     0.118 A 
BRANCH   7   8
ATOM      8  O   UNL     1     -13.270   1.840  28.931  1.00  0.00    -0.508 OA
ATOM      9  H   UNL     1     -12.508   2.366  28.526  1.00  0.00     0.293 HD
ENDBRANCH   7   8
ENDBRANCH   1   2
BRANCH   1  10
ATOM     10  C   UNL     1     -14.683   4.427  30.745  1.00  0.00     0.040 C 
BRANCH  10  11
ATOM     11  C   UNL     1     -15.298   5.167  31.906  1.00  0.00    -0.040 A 
ATOM     12  C   UNL     1     -14.482   5.840  32.827  1.00  0.00     0.050 A 
ATOM     13  C   UNL     1     -16.688   5.135  32.111  1.00  0.00     0.050 A 
ATOM     14  C   UNL     1     -15.047   6.488  33.934  1.00  0.00     0.119 A 
ATOM     15  C   UNL     1     -17.254   5.778  33.216  1.00  0.00     0.119 A 
ATOM     16  C   UNL     1     -16.432   6.457  34.124  1.00  0.00     0.092 A 
BRANCH  14  17
ATOM     17  O   UNL     1     -14.243   7.162  34.851  1.00  0.00    -0.508 OA
ATOM     18  H   UNL     1     -14.643   7.677  35.626  1.00  0.00     0.293 HD
ENDBRANCH  14  17
BRANCH  15  19
ATOM     19  O   UNL     1     -18.635   5.734  33.403  1.00  0.00    -0.508 OA
ATOM     20  H   UNL     1     -19.129   6.480  33.878  1.00  0.00     0.293 HD
ENDBRANCH  15  19
ENDBRANCH  10  11
ENDBRANCH   1  10
TORSDOF 6
ENDMDL
MODEL 9
REMARK VINA RESULT:    -5.542      4.408      7.121
REMARK INTER + INTRA:          -7.623
REMARK INTER:                  -7.027
REMARK INTRA:                  -0.597
REMARK UNBOUND:                -0.624
REMARK SMILES Oc1cc(O)cc(CCc2ccccc2O)c1
REMARK SMILES IDX 9 1 10 2 12 3 13 4 11 5 14 6 15 7 16 8 8 10 7 11 6 12 17 13
REMARK SMILES IDX 4 14 2 15 3 16 5 17 1 19
REMARK H PARENT 16 9 5 18 1 20
REMARK Flexibility Score: inf
ROOT
ATOM      1  C   UNL     1     -12.861   2.915  33.018  1.00  0.00     0.044 C 
ENDROOT
BRANCH   1   2
ATOM      2  C   UNL     1     -13.073   1.994  31.836  1.00  0.00    -0.006 A 
ATOM      3  C   UNL     1     -13.725   1.733  29.504  1.00  0.00     0.001 A 
ATOM      4  C   UNL     1     -13.415   0.374  29.563  1.00  0.00     0.004 A 
ATOM      5  C   UNL     1     -13.553   2.539  30.631  1.00  0.00     0.007 A 
ATOM      6  C   UNL     1     -12.930  -0.181  30.748  1.00  0.00     0.046 A 
ATOM      7  C   UNL     1     -12.749   0.615  31.887  1.00  0.00     0.118 A 
BRANCH   7   8
ATOM      8  O   UNL     1     -12.246   0.004  33.037  1.00  0.00    -0.508 OA
ATOM      9  H   UNL     1     -12.704  -0.764  33.508  1.00  0.00     0.293 HD
ENDBRANCH   7   8
ENDBRANCH   1   2
BRANCH   1  10
ATOM     10  C   UNL     1     -14.151   3.120  33.824  1.00  0.00     0.040 C 
BRANCH  10  11
ATOM     11  C   UNL     1     -14.884   4.366  33.396  1.00  0.00    -0.040 A 
ATOM     12  C   UNL     1     -14.171   5.529  33.069  1.00  0.00     0.050 A 
ATOM     13  C   UNL     1     -16.290   4.393  33.384  1.00  0.00     0.050 A 
ATOM     14  C   UNL     1     -14.851   6.703  32.718  1.00  0.00     0.119 A 
ATOM     15  C   UNL     1     -16.971   5.564  33.037  1.00  0.00     0.119 A 
ATOM     16  C   UNL     1     -16.250   6.716  32.701  1.00  0.00     0.092 A 
BRANCH  14  17
ATOM     17  O   UNL     1     -14.149   7.860  32.388  1.00  0.00    -0.508 OA
ATOM     18  H   UNL     1     -14.577   8.600  31.843  1.00  0.00     0.293 HD
ENDBRANCH  14  17
BRANCH  15  19
ATOM     19  O   UNL     1     -18.365   5.571  33.031  1.00  0.00    -0.508 OA
ATOM     20  H   UNL     1     -18.897   5.620  33.891  1.00  0.00     0.293 HD
ENDBRANCH  15  19
ENDBRANCH  10  11
ENDBRANCH   1  10
TORSDOF 6
ENDMDL
