MODEL 1
REMARK VINA RESULT:    -3.775      0.000      0.000
REMARK INTER + INTRA:          -3.775
REMARK INTER:                  -3.775
REMARK INTRA:                   0.000
REMARK UNBOUND:                 0.000
REMARK SMILES CC1=CC(=O)[C@@H]2C[C@H]1C2(C)C
REMARK SMILES IDX 1 1 2 2 3 3 4 4 5 5 6 6 7 7 8 8 9 9 10 10 11 11
REMARK H PARENT
REMARK Flexibility Score: inf
ROOT
ATOM      1  C   UNL     1       9.685 -33.171  14.155  1.00  0.00     0.040 C 
ATOM      2  C   UNL     1       8.789 -33.501  15.306  1.00  0.00    -0.066 C 
ATOM      3  C   UNL     1       8.385 -32.543  16.187  1.00  0.00     0.047 C 
ATOM      4  C   UNL     1       7.463 -32.994  17.280  1.00  0.00     0.159 C 
ATOM      5  O   UNL     1       6.990 -32.196  18.131  1.00  0.00    -0.295 OA
ATOM      6  C   UNL     1       7.137 -34.487  17.286  1.00  0.00     0.067 C 
ATOM      7  C   UNL     1       8.504 -35.173  17.077  1.00  0.00     0.021 C 
ATOM      8  C   UNL     1       8.293 -34.939  15.564  1.00  0.00     0.022 C 
ATOM      9  C   UNL     1       6.761 -34.919  15.839  1.00  0.00    -0.019 C 
ATOM     10  C   UNL     1       5.875 -33.963  14.990  1.00  0.00     0.012 C 
ATOM     11  C   UNL     1       6.134 -36.335  15.790  1.00  0.00     0.012 C 
ENDROOT
TORSDOF 0
ENDMDL
MODEL 2
REMARK VINA RESULT:    -3.636      1.142      3.054
REMARK INTER + INTRA:          -3.636
REMARK INTER:                  -3.636
REMARK INTRA:                   0.000
REMARK UNBOUND:                 0.000
REMARK SMILES CC1=CC(=O)[C@@H]2C[C@H]1C2(C)C
REMARK SMILES IDX 1 1 2 2 3 3 4 4 5 5 6 6 7 7 8 8 9 9 10 10 11 11
REMARK H PARENT
REMARK Flexibility Score: inf
ROOT
ATOM      1  C   UNL     1       6.399 -36.972  16.625  1.00  0.00     0.040 C 
ATOM      2  C   UNL     1       6.775 -35.527  16.535  1.00  0.00    -0.066 C 
ATOM      3  C   UNL     1       7.366 -34.882  17.579  1.00  0.00     0.047 C 
ATOM      4  C   UNL     1       7.722 -33.443  17.354  1.00  0.00     0.159 C 
ATOM      5  O   UNL     1       8.307 -32.751  18.227  1.00  0.00    -0.295 OA
ATOM      6  C   UNL     1       7.327 -32.877  15.990  1.00  0.00     0.067 C 
ATOM      7  C   UNL     1       5.879 -33.372  15.781  1.00  0.00     0.021 C 
ATOM      8  C   UNL     1       6.496 -34.693  15.267  1.00  0.00     0.022 C 
ATOM      9  C   UNL     1       7.771 -33.883  14.888  1.00  0.00    -0.019 C 
ATOM     10  C   UNL     1       9.154 -34.578  15.038  1.00  0.00     0.012 C 
ATOM     11  C   UNL     1       7.683 -33.276  13.466  1.00  0.00     0.012 C 
ENDROOT
TORSDOF 0
ENDMDL
MODEL 3
REMARK VINA RESULT:    -3.545      1.866      2.978
REMARK INTER + INTRA:          -3.545
REMARK INTER:                  -3.545
REMARK INTRA:                   0.000
REMARK UNBOUND:                 0.000
REMARK SMILES CC1=CC(=O)[C@@H]2C[C@H]1C2(C)C
REMARK SMILES IDX 1 1 2 2 3 3 4 4 5 5 6 6 7 7 8 8 9 9 10 10 11 11
REMARK H PARENT
REMARK Flexibility Score: inf
ROOT
ATOM      1  C   UNL     1       9.246 -31.849  18.714  1.00  0.00     0.040 C 
ATOM      2  C   UNL     1       8.617 -32.363  17.458  1.00  0.00    -0.066 C 
ATOM      3  C   UNL     1       9.185 -32.143  16.239  1.00  0.00     0.047 C 
ATOM      4  C   UNL     1       8.475 -32.735  15.060  1.00  0.00     0.159 C 
ATOM      5  O   UNL     1       8.921 -32.635  13.887  1.00  0.00    -0.295 OA
ATOM      6  C   UNL     1       7.174 -33.470  15.381  1.00  0.00     0.067 C 
ATOM      7  C   UNL     1       6.434 -32.522  16.351  1.00  0.00     0.021 C 
ATOM      8  C   UNL     1       7.289 -33.148  17.476  1.00  0.00     0.022 C 
ATOM      9  C   UNL     1       7.425 -34.419  16.588  1.00  0.00    -0.019 C 
ATOM     10  C   UNL     1       8.763 -35.211  16.638  1.00  0.00     0.012 C 
ATOM     11  C   UNL     1       6.261 -35.418  16.805  1.00  0.00     0.012 C 
ENDROOT
TORSDOF 0
ENDMDL
MODEL 4
REMARK VINA RESULT:    -3.515      2.340      3.574
REMARK INTER + INTRA:          -3.515
REMARK INTER:                  -3.515
REMARK INTRA:                   0.000
REMARK UNBOUND:                 0.000
REMARK SMILES CC1=CC(=O)[C@@H]2C[C@H]1C2(C)C
REMARK SMILES IDX 1 1 2 2 3 3 4 4 5 5 6 6 7 7 8 8 9 9 10 10 11 11
REMARK H PARENT
REMARK Flexibility Score: inf
ROOT
ATOM      1  C   UNL     1       6.843 -32.648  16.775  1.00  0.00     0.040 C 
ATOM      2  C   UNL     1       7.597 -32.927  15.514  1.00  0.00    -0.066 C 
ATOM      3  C   UNL     1       8.880 -32.500  15.346  1.00  0.00     0.047 C 
ATOM      4  C   UNL     1       9.537 -32.868  14.051  1.00  0.00     0.159 C 
ATOM      5  O   UNL     1      10.732 -32.566  13.794  1.00  0.00    -0.295 OA
ATOM      6  C   UNL     1       8.657 -33.637  13.066  1.00  0.00     0.067 C 
ATOM      7  C   UNL     1       7.317 -32.869  13.078  1.00  0.00     0.021 C 
ATOM      8  C   UNL     1       6.957 -33.692  14.336  1.00  0.00     0.022 C 
ATOM      9  C   UNL     1       7.942 -34.787  13.832  1.00  0.00    -0.019 C 
ATOM     10  C   UNL     1       8.756 -35.586  14.890  1.00  0.00     0.012 C 
ATOM     11  C   UNL     1       7.261 -35.799  12.877  1.00  0.00     0.012 C 
ENDROOT
TORSDOF 0
ENDMDL
MODEL 5
REMARK VINA RESULT:    -3.504      1.856      3.475
REMARK INTER + INTRA:          -3.504
REMARK INTER:                  -3.504
REMARK INTRA:                   0.000
REMARK UNBOUND:                 0.000
REMARK SMILES CC1=CC(=O)[C@@H]2C[C@H]1C2(C)C
REMARK SMILES IDX 1 1 2 2 3 3 4 4 5 5 6 6 7 7 8 8 9 9 10 10 11 11
REMARK H PARENT
REMARK Flexibility Score: inf
ROOT
ATOM      1  C   UNL     1       6.054 -36.474  16.096  1.00  0.00     0.040 C 
ATOM      2  C   UNL     1       6.798 -35.283  15.582  1.00  0.00    -0.066 C 
ATOM      3  C   UNL     1       6.456 -34.688  14.404  1.00  0.00     0.047 C 
ATOM      4  C   UNL     1       7.259 -33.485  14.013  1.00  0.00     0.159 C 
ATOM      5  O   UNL     1       7.014 -32.825  12.968  1.00  0.00    -0.295 OA
ATOM      6  C   UNL     1       8.391 -33.113  14.969  1.00  0.00     0.067 C 
ATOM      7  C   UNL     1       9.087 -34.459  15.271  1.00  0.00     0.021 C 
ATOM      8  C   UNL     1       7.998 -34.682  16.344  1.00  0.00     0.022 C 
ATOM      9  C   UNL     1       7.840 -33.135  16.424  1.00  0.00    -0.019 C 
ATOM     10  C   UNL     1       6.420 -32.554  16.684  1.00  0.00     0.012 C 
ATOM     11  C   UNL     1       8.820 -32.493  17.437  1.00  0.00     0.012 C 
ENDROOT
TORSDOF 0
ENDMDL
MODEL 6
REMARK VINA RESULT:    -3.259      2.556      3.747
REMARK INTER + INTRA:          -3.259
REMARK INTER:                  -3.259
REMARK INTRA:                   0.000
REMARK UNBOUND:                 0.000
REMARK SMILES CC1=CC(=O)[C@@H]2C[C@H]1C2(C)C
REMARK SMILES IDX 1 1 2 2 3 3 4 4 5 5 6 6 7 7 8 8 9 9 10 10 11 11
REMARK H PARENT
REMARK Flexibility Score: inf
ROOT
ATOM      1  C   UNL     1      11.064 -33.261  13.245  1.00  0.00     0.040 C 
ATOM      2  C   UNL     1       9.654 -33.721  13.435  1.00  0.00    -0.066 C 
ATOM      3  C   UNL     1       9.229 -34.922  12.953  1.00  0.00     0.047 C 
ATOM      4  C   UNL     1       7.802 -35.282  13.234  1.00  0.00     0.159 C 
ATOM      5  O   UNL     1       7.303 -36.381  12.875  1.00  0.00    -0.295 OA
ATOM      6  C   UNL     1       6.996 -34.224  13.986  1.00  0.00     0.067 C 
ATOM      7  C   UNL     1       7.348 -32.901  13.271  1.00  0.00     0.021 C 
ATOM      8  C   UNL     1       8.608 -32.853  14.165  1.00  0.00     0.022 C 
ATOM      9  C   UNL     1       7.838 -33.728  15.198  1.00  0.00    -0.019 C 
ATOM     10  C   UNL     1       8.643 -34.778  16.016  1.00  0.00     0.012 C 
ATOM     11  C   UNL     1       7.004 -32.876  16.187  1.00  0.00     0.012 C 
ENDROOT
TORSDOF 0
ENDMDL
MODEL 7
REMARK VINA RESULT:    -3.239      2.139      2.971
REMARK INTER + INTRA:          -3.239
REMARK INTER:                  -3.239
REMARK INTRA:                   0.000
REMARK UNBOUND:                 0.000
REMARK SMILES CC1=CC(=O)[C@@H]2C[C@H]1C2(C)C
REMARK SMILES IDX 1 1 2 2 3 3 4 4 5 5 6 6 7 7 8 8 9 9 10 10 11 11
REMARK H PARENT
REMARK Flexibility Score: inf
ROOT
ATOM      1  C   UNL     1       8.767 -37.049  13.298  1.00  0.00     0.040 C 
ATOM      2  C   UNL     1       8.764 -35.717  13.978  1.00  0.00    -0.066 C 
ATOM      3  C   UNL     1       9.680 -34.759  13.663  1.00  0.00     0.047 C 
ATOM      4  C   UNL     1       9.553 -33.456  14.392  1.00  0.00     0.159 C 
ATOM      5  O   UNL     1      10.313 -32.479  14.160  1.00  0.00    -0.295 OA
ATOM      6  C   UNL     1       8.436 -33.394  15.433  1.00  0.00     0.067 C 
ATOM      7  C   UNL     1       8.572 -34.722  16.211  1.00  0.00     0.021 C 
ATOM      8  C   UNL     1       7.741 -35.370  15.080  1.00  0.00     0.022 C 
ATOM      9  C   UNL     1       7.134 -33.964  14.799  1.00  0.00    -0.019 C 
ATOM     10  C   UNL     1       6.805 -33.587  13.326  1.00  0.00     0.012 C 
ATOM     11  C   UNL     1       5.882 -33.678  15.665  1.00  0.00     0.012 C 
ENDROOT
TORSDOF 0
ENDMDL
MODEL 8
REMARK VINA RESULT:    -3.232      2.148      2.930
REMARK INTER + INTRA:          -3.232
REMARK INTER:                  -3.232
REMARK INTRA:                   0.000
REMARK UNBOUND:                 0.000
REMARK SMILES CC1=CC(=O)[C@@H]2C[C@H]1C2(C)C
REMARK SMILES IDX 1 1 2 2 3 3 4 4 5 5 6 6 7 7 8 8 9 9 10 10 11 11
REMARK H PARENT
REMARK Flexibility Score: inf
ROOT
ATOM      1  C   UNL     1      10.337 -35.454  13.626  1.00  0.00     0.040 C 
ATOM      2  C   UNL     1       9.098 -34.714  14.018  1.00  0.00    -0.066 C 
ATOM      3  C   UNL     1       8.145 -34.391  13.099  1.00  0.00     0.047 C 
ATOM      4  C   UNL     1       6.936 -33.676  13.622  1.00  0.00     0.159 C 
ATOM      5  O   UNL     1       5.970 -33.360  12.880  1.00  0.00    -0.295 OA
ATOM      6  C   UNL     1       6.958 -33.361  15.117  1.00  0.00     0.067 C 
ATOM      7  C   UNL     1       8.374 -32.796  15.364  1.00  0.00     0.021 C 
ATOM      8  C   UNL     1       8.847 -34.264  15.472  1.00  0.00     0.022 C 
ATOM      9  C   UNL     1       7.394 -34.640  15.888  1.00  0.00    -0.019 C 
ATOM     10  C   UNL     1       6.829 -36.012  15.420  1.00  0.00     0.012 C 
ATOM     11  C   UNL     1       7.167 -34.516  17.415  1.00  0.00     0.012 C 
ENDROOT
TORSDOF 0
ENDMDL
