MODEL 1
REMARK VINA RESULT:    -3.515      0.000      0.000
REMARK INTER + INTRA:          -3.618
REMARK INTER:                  -3.618
REMARK INTRA:                   0.000
REMARK UNBOUND:                 0.000
REMARK SMILES CC1(C)[C@H]2CC[C@]1(C)[C@H](O)C2
REMARK SMILES IDX 1 1 2 2 4 3 5 4 6 5 7 6 9 7 11 8 8 9 3 10 10 11
REMARK H PARENT 10 12
REMARK Flexibility Score: inf
ROOT
ATOM      1  C   UNL     1     148.739 146.071 141.186  1.00  0.00     0.012 C 
ATOM      2  C   UNL     1     148.551 144.933 140.135  1.00  0.00    -0.025 C 
ATOM      3  C   UNL     1     149.797 144.679 139.270  1.00  0.00    -0.002 C 
ATOM      4  C   UNL     1     149.311 143.624 138.246  1.00  0.00     0.005 C 
ATOM      5  C   UNL     1     147.848 144.040 137.994  1.00  0.00     0.010 C 
ATOM      6  C   UNL     1     147.693 145.295 138.900  1.00  0.00    -0.001 C 
ATOM      7  C   UNL     1     148.504 146.452 138.243  1.00  0.00     0.121 C 
ATOM      8  C   UNL     1     149.965 146.000 138.478  1.00  0.00     0.036 C 
ATOM      9  C   UNL     1     146.230 145.660 139.186  1.00  0.00     0.015 C 
ATOM     10  C   UNL     1     148.077 143.684 140.940  1.00  0.00     0.012 C 
ENDROOT
BRANCH   7  11
ATOM     11  O   UNL     1     148.218 146.592 136.875  1.00  0.00    -0.393 OA
ATOM     12  H   UNL     1     149.037 146.316 136.387  1.00  0.00     0.210 HD
ENDBRANCH   7  11
TORSDOF 1
ENDMDL
MODEL 2
REMARK VINA RESULT:    -3.462     11.753     12.940
REMARK INTER + INTRA:          -3.563
REMARK INTER:                  -3.563
REMARK INTRA:                   0.000
REMARK UNBOUND:                 0.000
REMARK SMILES CC1(C)[C@H]2CC[C@]1(C)[C@H](O)C2
REMARK SMILES IDX 1 1 2 2 4 3 5 4 6 5 7 6 9 7 11 8 8 9 3 10 10 11
REMARK H PARENT 10 12
REMARK Flexibility Score: inf
ROOT
ATOM      1  C   UNL     1     136.177 150.166 140.633  1.00  0.00     0.012 C 
ATOM      2  C   UNL     1     136.238 148.642 140.305  1.00  0.00    -0.025 C 
ATOM      3  C   UNL     1     137.379 148.260 139.348  1.00  0.00    -0.002 C 
ATOM      4  C   UNL     1     137.136 146.753 139.087  1.00  0.00     0.005 C 
ATOM      5  C   UNL     1     135.599 146.650 139.081  1.00  0.00     0.010 C 
ATOM      6  C   UNL     1     135.160 148.123 139.325  1.00  0.00    -0.001 C 
ATOM      7  C   UNL     1     135.462 148.925 138.024  1.00  0.00     0.121 C 
ATOM      8  C   UNL     1     137.008 148.990 138.032  1.00  0.00     0.036 C 
ATOM      9  C   UNL     1     133.707 148.253 139.799  1.00  0.00     0.015 C 
ATOM     10  C   UNL     1     136.300 147.913 141.683  1.00  0.00     0.012 C 
ENDROOT
BRANCH   7  11
ATOM     11  O   UNL     1     134.976 148.279 136.875  1.00  0.00    -0.393 OA
ATOM     12  H   UNL     1     134.232 148.838 136.531  1.00  0.00     0.210 HD
ENDBRANCH   7  11
TORSDOF 1
ENDMDL
MODEL 3
REMARK VINA RESULT:    -3.460     16.310     17.824
REMARK INTER + INTRA:          -3.561
REMARK INTER:                  -3.561
REMARK INTRA:                   0.000
REMARK UNBOUND:                 0.000
REMARK SMILES CC1(C)[C@H]2CC[C@]1(C)[C@H](O)C2
REMARK SMILES IDX 1 1 2 2 4 3 5 4 6 5 7 6 9 7 11 8 8 9 3 10 10 11
REMARK H PARENT 10 12
REMARK Flexibility Score: inf
ROOT
ATOM      1  C   UNL     1     132.772 135.649 141.144  1.00  0.00     0.012 C 
ATOM      2  C   UNL     1     133.024 136.753 140.070  1.00  0.00    -0.025 C 
ATOM      3  C   UNL     1     131.820 137.004 139.147  1.00  0.00    -0.002 C 
ATOM      4  C   UNL     1     132.368 138.021 138.115  1.00  0.00     0.005 C 
ATOM      5  C   UNL     1     133.832 137.573 137.937  1.00  0.00     0.010 C 
ATOM      6  C   UNL     1     133.927 136.342 138.883  1.00  0.00    -0.001 C 
ATOM      7  C   UNL     1     133.123 135.180 138.226  1.00  0.00     0.121 C 
ATOM      8  C   UNL     1     131.661 135.663 138.386  1.00  0.00     0.036 C 
ATOM      9  C   UNL     1     135.369 135.961 139.241  1.00  0.00     0.015 C 
ATOM     10  C   UNL     1     133.487 138.017 140.860  1.00  0.00     0.012 C 
ENDROOT
BRANCH   7  11
ATOM     11  O   UNL     1     133.462 134.996 136.875  1.00  0.00    -0.393 OA
ATOM     12  H   UNL     1     132.944 135.668 136.360  1.00  0.00     0.210 HD
ENDBRANCH   7  11
TORSDOF 1
ENDMDL
MODEL 4
REMARK VINA RESULT:    -3.455     11.443     12.647
REMARK INTER + INTRA:          -3.556
REMARK INTER:                  -3.556
REMARK INTRA:                   0.000
REMARK UNBOUND:                 0.000
REMARK SMILES CC1(C)[C@H]2CC[C@]1(C)[C@H](O)C2
REMARK SMILES IDX 1 1 2 2 4 3 5 4 6 5 7 6 9 7 11 8 8 9 3 10 10 11
REMARK H PARENT 10 12
REMARK Flexibility Score: inf
ROOT
ATOM      1  C   UNL     1     146.116 132.939 141.250  1.00  0.00     0.012 C 
ATOM      2  C   UNL     1     144.985 133.047 140.180  1.00  0.00    -0.025 C 
ATOM      3  C   UNL     1     144.782 131.760 139.363  1.00  0.00    -0.002 C 
ATOM      4  C   UNL     1     143.723 132.171 138.309  1.00  0.00     0.005 C 
ATOM      5  C   UNL     1     144.094 133.635 138.004  1.00  0.00     0.010 C 
ATOM      6  C   UNL     1     145.333 133.868 138.916  1.00  0.00    -0.001 C 
ATOM      7  C   UNL     1     146.524 133.071 138.305  1.00  0.00     0.121 C 
ATOM      8  C   UNL     1     146.117 131.605 138.593  1.00  0.00     0.036 C 
ATOM      9  C   UNL     1     145.646 135.352 139.148  1.00  0.00     0.015 C 
ATOM     10  C   UNL     1     143.711 133.511 140.953  1.00  0.00     0.012 C 
ENDROOT
BRANCH   7  11
ATOM     11  O   UNL     1     146.671 133.307 136.928  1.00  0.00    -0.393 OA
ATOM     12  H   UNL     1     147.631 133.505 136.777  1.00  0.00     0.210 HD
ENDBRANCH   7  11
TORSDOF 1
ENDMDL
MODEL 5
REMARK VINA RESULT:    -3.448     11.384     12.750
REMARK INTER + INTRA:          -3.548
REMARK INTER:                  -3.548
REMARK INTRA:                   0.000
REMARK UNBOUND:                 0.000
REMARK SMILES CC1(C)[C@H]2CC[C@]1(C)[C@H](O)C2
REMARK SMILES IDX 1 1 2 2 4 3 5 4 6 5 7 6 9 7 11 8 8 9 3 10 10 11
REMARK H PARENT 10 12
REMARK Flexibility Score: inf
ROOT
ATOM      1  C   UNL     1     145.537 131.101 140.578  1.00  0.00     0.012 C 
ATOM      2  C   UNL     1     145.349 132.623 140.294  1.00  0.00    -0.025 C 
ATOM      3  C   UNL     1     144.192 132.933 139.329  1.00  0.00    -0.002 C 
ATOM      4  C   UNL     1     144.307 134.463 139.115  1.00  0.00     0.005 C 
ATOM      5  C   UNL     1     145.830 134.698 139.137  1.00  0.00     0.010 C 
ATOM      6  C   UNL     1     146.391 133.263 139.346  1.00  0.00    -0.001 C 
ATOM      7  C   UNL     1     146.178 132.476 138.018  1.00  0.00     0.121 C 
ATOM      8  C   UNL     1     144.643 132.278 137.999  1.00  0.00     0.036 C 
ATOM      9  C   UNL     1     147.844 133.245 139.840  1.00  0.00     0.015 C 
ATOM     10  C   UNL     1     145.205 133.303 141.691  1.00  0.00     0.012 C 
ENDROOT
BRANCH   7  11
ATOM     11  O   UNL     1     146.622 133.196 136.897  1.00  0.00    -0.393 OA
ATOM     12  H   UNL     1     145.970 133.017 136.171  1.00  0.00     0.210 HD
ENDBRANCH   7  11
TORSDOF 1
ENDMDL
MODEL 6
REMARK VINA RESULT:    -3.426      1.155      1.783
REMARK INTER + INTRA:          -3.526
REMARK INTER:                  -3.526
REMARK INTRA:                   0.000
REMARK UNBOUND:                 0.000
REMARK SMILES CC1(C)[C@H]2CC[C@]1(C)[C@H](O)C2
REMARK SMILES IDX 1 1 2 2 4 3 5 4 6 5 7 6 9 7 11 8 8 9 3 10 10 11
REMARK H PARENT 10 12
REMARK Flexibility Score: inf
ROOT
ATOM      1  C   UNL     1     150.275 145.559 140.567  1.00  0.00     0.012 C 
ATOM      2  C   UNL     1     148.751 145.375 140.284  1.00  0.00    -0.025 C 
ATOM      3  C   UNL     1     148.435 144.210 139.330  1.00  0.00    -0.002 C 
ATOM      4  C   UNL     1     146.906 144.331 139.116  1.00  0.00     0.005 C 
ATOM      5  C   UNL     1     146.678 145.855 139.124  1.00  0.00     0.010 C 
ATOM      6  C   UNL     1     148.116 146.411 139.327  1.00  0.00    -0.001 C 
ATOM      7  C   UNL     1     148.902 146.182 138.000  1.00  0.00     0.121 C 
ATOM      8  C   UNL     1     149.092 144.646 137.996  1.00  0.00     0.036 C 
ATOM      9  C   UNL     1     148.142 147.868 139.807  1.00  0.00     0.015 C 
ATOM     10  C   UNL     1     148.072 145.247 141.683  1.00  0.00     0.012 C 
ENDROOT
BRANCH   7  11
ATOM     11  O   UNL     1     148.183 146.618 136.875  1.00  0.00    -0.393 OA
ATOM     12  H   UNL     1     147.232 146.389 137.042  1.00  0.00     0.210 HD
ENDBRANCH   7  11
TORSDOF 1
ENDMDL
MODEL 7
REMARK VINA RESULT:    -3.352     12.383     13.960
REMARK INTER + INTRA:          -3.450
REMARK INTER:                  -3.450
REMARK INTRA:                   0.000
REMARK UNBOUND:                 0.000
REMARK SMILES CC1(C)[C@H]2CC[C@]1(C)[C@H](O)C2
REMARK SMILES IDX 1 1 2 2 4 3 5 4 6 5 7 6 9 7 11 8 8 9 3 10 10 11
REMARK H PARENT 10 12
REMARK Flexibility Score: inf
ROOT
ATOM      1  C   UNL     1     136.958 148.704 140.705  1.00  0.00     0.012 C 
ATOM      2  C   UNL     1     135.996 149.762 140.083  1.00  0.00    -0.025 C 
ATOM      3  C   UNL     1     134.511 149.367 140.156  1.00  0.00    -0.002 C 
ATOM      4  C   UNL     1     133.802 150.497 139.369  1.00  0.00     0.005 C 
ATOM      5  C   UNL     1     134.813 150.822 138.252  1.00  0.00     0.010 C 
ATOM      6  C   UNL     1     135.968 149.819 138.538  1.00  0.00    -0.001 C 
ATOM      7  C   UNL     1     135.463 148.397 138.150  1.00  0.00     0.121 C 
ATOM      8  C   UNL     1     134.428 148.103 139.263  1.00  0.00     0.036 C 
ATOM      9  C   UNL     1     137.288 150.204 137.859  1.00  0.00     0.015 C 
ATOM     10  C   UNL     1     136.326 151.109 140.799  1.00  0.00     0.012 C 
ENDROOT
BRANCH   7  11
ATOM     11  O   UNL     1     134.873 148.371 136.875  1.00  0.00    -0.393 OA
ATOM     12  H   UNL     1     134.069 148.950 136.925  1.00  0.00     0.210 HD
ENDBRANCH   7  11
TORSDOF 1
ENDMDL
MODEL 8
REMARK VINA RESULT:    -3.276      1.220      2.806
REMARK INTER + INTRA:          -3.372
REMARK INTER:                  -3.372
REMARK INTRA:                   0.000
REMARK UNBOUND:                 0.000
REMARK SMILES CC1(C)[C@H]2CC[C@]1(C)[C@H](O)C2
REMARK SMILES IDX 1 1 2 2 4 3 5 4 6 5 7 6 9 7 11 8 8 9 3 10 10 11
REMARK H PARENT 10 12
REMARK Flexibility Score: inf
ROOT
ATOM      1  C   UNL     1     148.488 143.867 140.278  1.00  0.00     0.012 C 
ATOM      2  C   UNL     1     149.330 145.166 140.082  1.00  0.00    -0.025 C 
ATOM      3  C   UNL     1     148.532 146.461 140.310  1.00  0.00    -0.002 C 
ATOM      4  C   UNL     1     149.541 147.573 139.929  1.00  0.00     0.005 C 
ATOM      5  C   UNL     1     150.323 146.940 138.761  1.00  0.00     0.010 C 
ATOM      6  C   UNL     1     149.646 145.547 138.616  1.00  0.00    -0.001 C 
ATOM      7  C   UNL     1     148.230 145.773 138.006  1.00  0.00     0.121 C 
ATOM      8  C   UNL     1     147.471 146.437 139.181  1.00  0.00     0.036 C 
ATOM      9  C   UNL     1     150.495 144.538 137.831  1.00  0.00     0.015 C 
ATOM     10  C   UNL     1     150.569 145.015 141.018  1.00  0.00     0.012 C 
ENDROOT
BRANCH   7  11
ATOM     11  O   UNL     1     148.265 146.606 136.875  1.00  0.00    -0.393 OA
ATOM     12  H   UNL     1     148.562 146.039 136.117  1.00  0.00     0.210 HD
ENDBRANCH   7  11
TORSDOF 1
ENDMDL
MODEL 9
REMARK VINA RESULT:    -3.259     11.404     13.158
REMARK INTER + INTRA:          -3.354
REMARK INTER:                  -3.354
REMARK INTRA:                   0.000
REMARK UNBOUND:                 0.000
REMARK SMILES CC1(C)[C@H]2CC[C@]1(C)[C@H](O)C2
REMARK SMILES IDX 1 1 2 2 4 3 5 4 6 5 7 6 9 7 11 8 8 9 3 10 10 11
REMARK H PARENT 10 12
REMARK Flexibility Score: inf
ROOT
ATOM      1  C   UNL     1     135.957 146.142 139.481  1.00  0.00     0.012 C 
ATOM      2  C   UNL     1     136.236 147.633 139.844  1.00  0.00    -0.025 C 
ATOM      3  C   UNL     1     134.963 148.451 140.120  1.00  0.00    -0.002 C 
ATOM      4  C   UNL     1     135.499 149.890 140.317  1.00  0.00     0.005 C 
ATOM      5  C   UNL     1     136.671 149.959 139.318  1.00  0.00     0.010 C 
ATOM      6  C   UNL     1     136.641 148.548 138.664  1.00  0.00    -0.001 C 
ATOM      7  C   UNL     1     135.391 148.486 137.735  1.00  0.00     0.121 C 
ATOM      8  C   UNL     1     134.228 148.450 138.755  1.00  0.00     0.036 C 
ATOM      9  C   UNL     1     137.950 148.180 137.953  1.00  0.00     0.015 C 
ATOM     10  C   UNL     1     137.235 147.599 141.042  1.00  0.00     0.012 C 
ENDROOT
BRANCH   7  11
ATOM     11  O   UNL     1     135.303 149.602 136.887  1.00  0.00    -0.393 OA
ATOM     12  H   UNL     1     134.988 149.264 136.009  1.00  0.00     0.210 HD
ENDBRANCH   7  11
TORSDOF 1
ENDMDL
