MODEL 1
REMARK VINA RESULT:    -5.632      0.000      0.000
REMARK INTER + INTRA:          -6.906
REMARK INTER:                  -6.620
REMARK INTRA:                  -0.286
REMARK UNBOUND:                -0.286
REMARK SMILES Oc1ccc(-c2[o+]c3cc(O)cc(O)c3cc2O)cc1
REMARK SMILES IDX 6 1 7 2 8 3 9 4 10 5 12 6 13 7 15 8 16 9 17 10 5 11 4 12
REMARK SMILES IDX 3 13 2 14 19 15 20 16 1 17 18 19 11 21 14 23
REMARK H PARENT 1 18 18 20 11 22 14 24
REMARK Flexibility Score: inf
ROOT
ATOM      1  C   UNL     1      14.847 -51.248   7.666  1.00  0.00     0.401 A 
ATOM      2  O   UNL     1      14.205 -50.778   6.600  1.00  0.00    -0.202 OA
ATOM      3  C   UNL     1      14.280 -49.512   6.202  1.00  0.00     0.368 A 
ATOM      4  C   UNL     1      13.566 -49.111   5.070  1.00  0.00     0.162 A 
ATOM      5  C   UNL     1      13.623 -47.789   4.631  1.00  0.00     0.128 A 
ATOM      6  C   UNL     1      14.400 -46.857   5.328  1.00  0.00     0.093 A 
ATOM      7  C   UNL     1      15.125 -47.233   6.465  1.00  0.00     0.136 A 
ATOM      8  C   UNL     1      15.071 -48.578   6.914  1.00  0.00     0.125 A 
ATOM      9  C   UNL     1      15.775 -49.047   8.034  1.00  0.00     0.078 A 
ATOM     10  C   UNL     1      15.676 -50.390   8.413  1.00  0.00     0.223 A 
ENDROOT
BRANCH   1  11
ATOM     11  C   UNL     1      14.675 -52.677   8.013  1.00  0.00     0.084 A 
ATOM     12  C   UNL     1      15.644 -53.638   7.671  1.00  0.00     0.022 A 
ATOM     13  C   UNL     1      15.469 -54.978   8.030  1.00  0.00     0.047 A 
ATOM     14  C   UNL     1      14.333 -55.373   8.748  1.00  0.00     0.115 A 
ATOM     15  C   UNL     1      13.548 -53.078   8.751  1.00  0.00     0.022 A 
ATOM     16  C   UNL     1      13.376 -54.419   9.108  1.00  0.00     0.047 A 
BRANCH  14  17
ATOM     17  O   UNL     1      14.148 -56.704   9.110  1.00  0.00    -0.508 OA
ATOM     18  H   UNL     1      14.602 -57.099   9.924  1.00  0.00     0.293 HD
ENDBRANCH  14  17
ENDBRANCH   1  11
BRANCH  10  19
ATOM     19  O   UNL     1      16.414 -50.868   9.496  1.00  0.00    -0.500 OA
ATOM     20  H   UNL     1      16.017 -51.514  10.168  1.00  0.00     0.294 HD
ENDBRANCH  10  19
BRANCH   5  21
ATOM     21  O   UNL     1      12.903 -47.408   3.500  1.00  0.00    -0.507 OA
ATOM     22  H   UNL     1      12.608 -46.450   3.357  1.00  0.00     0.293 HD
ENDBRANCH   5  21
BRANCH   7  23
ATOM     23  O   UNL     1      15.875 -46.242   7.107  1.00  0.00    -0.507 OA
ATOM     24  H   UNL     1      15.866 -45.266   6.853  1.00  0.00     0.293 HD
ENDBRANCH   7  23
TORSDOF 5
ENDMDL
MODEL 2
REMARK VINA RESULT:    -5.587     11.417     13.242
REMARK INTER + INTRA:          -6.854
REMARK INTER:                  -6.665
REMARK INTRA:                  -0.188
REMARK UNBOUND:                -0.286
REMARK SMILES Oc1ccc(-c2[o+]c3cc(O)cc(O)c3cc2O)cc1
REMARK SMILES IDX 6 1 7 2 8 3 9 4 10 5 12 6 13 7 15 8 16 9 17 10 5 11 4 12
REMARK SMILES IDX 3 13 2 14 19 15 20 16 1 17 18 19 11 21 14 23
REMARK H PARENT 1 18 18 20 11 22 14 24
REMARK Flexibility Score: inf
ROOT
ATOM      1  C   UNL     1      15.698 -54.490  -3.364  1.00  0.00     0.401 A 
ATOM      2  O   UNL     1      16.601 -54.465  -4.340  1.00  0.00    -0.202 OA
ATOM      3  C   UNL     1      16.752 -55.449  -5.220  1.00  0.00     0.368 A 
ATOM      4  C   UNL     1      17.731 -55.332  -6.210  1.00  0.00     0.162 A 
ATOM      5  C   UNL     1      17.914 -56.350  -7.145  1.00  0.00     0.128 A 
ATOM      6  C   UNL     1      17.113 -57.497  -7.092  1.00  0.00     0.093 A 
ATOM      7  C   UNL     1      16.125 -57.638  -6.111  1.00  0.00     0.136 A 
ATOM      8  C   UNL     1      15.934 -56.603  -5.159  1.00  0.00     0.125 A 
ATOM      9  C   UNL     1      14.960 -56.653  -4.150  1.00  0.00     0.078 A 
ATOM     10  C   UNL     1      14.828 -55.591  -3.249  1.00  0.00     0.223 A 
ENDROOT
BRANCH   1  11
ATOM     11  C   UNL     1      15.634 -53.335  -2.438  1.00  0.00     0.084 A 
ATOM     12  C   UNL     1      14.524 -52.471  -2.419  1.00  0.00     0.022 A 
ATOM     13  C   UNL     1      14.477 -51.401  -1.520  1.00  0.00     0.047 A 
ATOM     14  C   UNL     1      15.530 -51.189  -0.621  1.00  0.00     0.115 A 
ATOM     15  C   UNL     1      16.677 -53.128  -1.520  1.00  0.00     0.022 A 
ATOM     16  C   UNL     1      16.627 -52.056  -0.623  1.00  0.00     0.047 A 
BRANCH  14  17
ATOM     17  O   UNL     1      15.495 -50.126   0.277  1.00  0.00    -0.508 OA
ATOM     18  H   UNL     1      16.323 -49.831   0.781  1.00  0.00     0.293 HD
ENDBRANCH  14  17
ENDBRANCH   1  11
BRANCH  10  19
ATOM     19  O   UNL     1      13.827 -55.617  -2.278  1.00  0.00    -0.500 OA
ATOM     20  H   UNL     1      13.698 -56.416  -1.668  1.00  0.00     0.294 HD
ENDBRANCH  10  19
BRANCH   5  21
ATOM     21  O   UNL     1      18.896 -56.215  -8.125  1.00  0.00    -0.507 OA
ATOM     22  H   UNL     1      18.662 -55.972  -9.080  1.00  0.00     0.293 HD
ENDBRANCH   5  21
BRANCH   7  23
ATOM     23  O   UNL     1      15.368 -58.814  -6.124  1.00  0.00    -0.507 OA
ATOM     24  H   UNL     1      14.378 -58.853  -6.315  1.00  0.00     0.293 HD
ENDBRANCH   7  23
TORSDOF 5
ENDMDL
MODEL 3
REMARK VINA RESULT:    -5.318     10.704     12.194
REMARK INTER + INTRA:          -6.537
REMARK INTER:                  -6.598
REMARK INTRA:                   0.061
REMARK UNBOUND:                -0.286
REMARK SMILES Oc1ccc(-c2[o+]c3cc(O)cc(O)c3cc2O)cc1
REMARK SMILES IDX 6 1 7 2 8 3 9 4 10 5 12 6 13 7 15 8 16 9 17 10 5 11 4 12
REMARK SMILES IDX 3 13 2 14 19 15 20 16 1 17 18 19 11 21 14 23
REMARK H PARENT 1 18 18 20 11 22 14 24
REMARK Flexibility Score: inf
ROOT
ATOM      1  C   UNL     1      15.653 -54.324  -4.010  1.00  0.00     0.401 A 
ATOM      2  O   UNL     1      16.490 -53.639  -3.236  1.00  0.00    -0.202 OA
ATOM      3  C   UNL     1      16.088 -52.753  -2.330  1.00  0.00     0.368 A 
ATOM      4  C   UNL     1      17.044 -52.081  -1.565  1.00  0.00     0.162 A 
ATOM      5  C   UNL     1      16.652 -51.144  -0.610  1.00  0.00     0.128 A 
ATOM      6  C   UNL     1      15.292 -50.874  -0.416  1.00  0.00     0.093 A 
ATOM      7  C   UNL     1      14.315 -51.534  -1.170  1.00  0.00     0.136 A 
ATOM      8  C   UNL     1      14.710 -52.490  -2.142  1.00  0.00     0.125 A 
ATOM      9  C   UNL     1      13.800 -53.209  -2.932  1.00  0.00     0.078 A 
ATOM     10  C   UNL     1      14.265 -54.140  -3.867  1.00  0.00     0.223 A 
ENDROOT
BRANCH   1  11
ATOM     11  C   UNL     1      16.225 -55.276  -4.990  1.00  0.00     0.084 A 
ATOM     12  C   UNL     1      15.710 -56.578  -5.135  1.00  0.00     0.022 A 
ATOM     13  C   UNL     1      16.253 -57.451  -6.082  1.00  0.00     0.047 A 
ATOM     14  C   UNL     1      17.305 -57.031  -6.906  1.00  0.00     0.115 A 
ATOM     15  C   UNL     1      17.267 -54.856  -5.834  1.00  0.00     0.022 A 
ATOM     16  C   UNL     1      17.807 -55.733  -6.781  1.00  0.00     0.047 A 
BRANCH  14  17
ATOM     17  O   UNL     1      17.853 -57.892  -7.853  1.00  0.00    -0.508 OA
ATOM     18  H   UNL     1      18.258 -58.782  -7.587  1.00  0.00     0.293 HD
ENDBRANCH  14  17
ENDBRANCH   1  11
BRANCH  10  19
ATOM     19  O   UNL     1      13.360 -54.890  -4.617  1.00  0.00    -0.500 OA
ATOM     20  H   UNL     1      13.174 -55.865  -4.410  1.00  0.00     0.294 HD
ENDBRANCH  10  19
BRANCH   5  21
ATOM     21  O   UNL     1      17.621 -50.483   0.144  1.00  0.00    -0.507 OA
ATOM     22  H   UNL     1      17.433 -50.166   1.087  1.00  0.00     0.293 HD
ENDBRANCH   5  21
BRANCH   7  23
ATOM     23  O   UNL     1      12.978 -51.207  -0.919  1.00  0.00    -0.507 OA
ATOM     24  H   UNL     1      12.672 -50.586  -0.185  1.00  0.00     0.293 HD
ENDBRANCH   7  23
TORSDOF 5
ENDMDL
MODEL 4
REMARK VINA RESULT:    -5.295      2.992      3.988
REMARK INTER + INTRA:          -6.511
REMARK INTER:                  -6.193
REMARK INTRA:                  -0.317
REMARK UNBOUND:                -0.286
REMARK SMILES Oc1ccc(-c2[o+]c3cc(O)cc(O)c3cc2O)cc1
REMARK SMILES IDX 6 1 7 2 8 3 9 4 10 5 12 6 13 7 15 8 16 9 17 10 5 11 4 12
REMARK SMILES IDX 3 13 2 14 19 15 20 16 1 17 18 19 11 21 14 23
REMARK H PARENT 1 18 18 20 11 22 14 24
REMARK Flexibility Score: inf
ROOT
ATOM      1  C   UNL     1      15.058 -53.676   8.011  1.00  0.00     0.401 A 
ATOM      2  O   UNL     1      16.265 -53.225   7.680  1.00  0.00    -0.202 OA
ATOM      3  C   UNL     1      16.645 -51.963   7.849  1.00  0.00     0.368 A 
ATOM      4  C   UNL     1      17.934 -51.583   7.468  1.00  0.00     0.162 A 
ATOM      5  C   UNL     1      18.360 -50.265   7.631  1.00  0.00     0.128 A 
ATOM      6  C   UNL     1      17.489 -49.316   8.179  1.00  0.00     0.093 A 
ATOM      7  C   UNL     1      16.193 -49.670   8.569  1.00  0.00     0.136 A 
ATOM      8  C   UNL     1      15.757 -51.012   8.407  1.00  0.00     0.125 A 
ATOM      9  C   UNL     1      14.481 -51.459   8.782  1.00  0.00     0.078 A 
ATOM     10  C   UNL     1      14.125 -52.799   8.596  1.00  0.00     0.223 A 
ENDROOT
BRANCH   1  11
ATOM     11  C   UNL     1      14.751 -55.103   7.763  1.00  0.00     0.084 A 
ATOM     12  C   UNL     1      15.023 -56.090   8.728  1.00  0.00     0.022 A 
ATOM     13  C   UNL     1      14.703 -57.429   8.479  1.00  0.00     0.047 A 
ATOM     14  C   UNL     1      14.095 -57.795   7.272  1.00  0.00     0.115 A 
ATOM     15  C   UNL     1      14.123 -55.476   6.563  1.00  0.00     0.022 A 
ATOM     16  C   UNL     1      13.805 -56.816   6.318  1.00  0.00     0.047 A 
BRANCH  14  17
ATOM     17  O   UNL     1      13.773 -59.125   7.014  1.00  0.00    -0.508 OA
ATOM     18  H   UNL     1      12.827 -59.406   6.785  1.00  0.00     0.293 HD
ENDBRANCH  14  17
ENDBRANCH   1  11
BRANCH  10  19
ATOM     19  O   UNL     1      12.875 -53.255   9.014  1.00  0.00    -0.500 OA
ATOM     20  H   UNL     1      12.447 -54.081   8.611  1.00  0.00     0.294 HD
ENDBRANCH  10  19
BRANCH   5  21
ATOM     21  O   UNL     1      19.649 -49.906   7.245  1.00  0.00    -0.507 OA
ATOM     22  H   UNL     1      20.099 -49.074   7.608  1.00  0.00     0.293 HD
ENDBRANCH   5  21
BRANCH   7  23
ATOM     23  O   UNL     1      15.384 -48.663   9.106  1.00  0.00    -0.507 OA
ATOM     24  H   UNL     1      14.446 -48.460   8.794  1.00  0.00     0.293 HD
ENDBRANCH   7  23
TORSDOF 5
ENDMDL
MODEL 5
REMARK VINA RESULT:    -5.203     11.218     12.404
REMARK INTER + INTRA:          -6.402
REMARK INTER:                  -6.080
REMARK INTRA:                  -0.322
REMARK UNBOUND:                -0.286
REMARK SMILES Oc1ccc(-c2[o+]c3cc(O)cc(O)c3cc2O)cc1
REMARK SMILES IDX 6 1 7 2 8 3 9 4 10 5 12 6 13 7 15 8 16 9 17 10 5 11 4 12
REMARK SMILES IDX 3 13 2 14 19 15 20 16 1 17 18 19 11 21 14 23
REMARK H PARENT 1 18 18 20 11 22 14 24
REMARK Flexibility Score: inf
ROOT
ATOM      1  C   UNL     1      15.686 -55.294  -4.131  1.00  0.00     0.401 A 
ATOM      2  O   UNL     1      14.838 -55.155  -3.115  1.00  0.00    -0.202 OA
ATOM      3  C   UNL     1      15.022 -54.290  -2.123  1.00  0.00     0.368 A 
ATOM      4  C   UNL     1      14.076 -54.219  -1.098  1.00  0.00     0.162 A 
ATOM      5  C   UNL     1      14.244 -53.323  -0.042  1.00  0.00     0.128 A 
ATOM      6  C   UNL     1      15.369 -52.490  -0.009  1.00  0.00     0.093 A 
ATOM      7  C   UNL     1      16.332 -52.542  -1.023  1.00  0.00     0.136 A 
ATOM      8  C   UNL     1      16.162 -53.451  -2.101  1.00  0.00     0.125 A 
ATOM      9  C   UNL     1      17.068 -53.562  -3.167  1.00  0.00     0.078 A 
ATOM     10  C   UNL     1      16.831 -54.478  -4.196  1.00  0.00     0.223 A 
ENDROOT
BRANCH   1  11
ATOM     11  C   UNL     1      15.374 -56.301  -5.171  1.00  0.00     0.084 A 
ATOM     12  C   UNL     1      15.847 -57.623  -5.077  1.00  0.00     0.022 A 
ATOM     13  C   UNL     1      15.521 -58.562  -6.060  1.00  0.00     0.047 A 
ATOM     14  C   UNL     1      14.706 -58.197  -7.140  1.00  0.00     0.115 A 
ATOM     15  C   UNL     1      14.542 -55.949  -6.246  1.00  0.00     0.022 A 
ATOM     16  C   UNL     1      14.217 -56.891  -7.228  1.00  0.00     0.047 A 
BRANCH  14  17
ATOM     17  O   UNL     1      14.375 -59.124  -8.125  1.00  0.00    -0.508 OA
ATOM     18  H   UNL     1      13.871 -58.851  -8.960  1.00  0.00     0.293 HD
ENDBRANCH  14  17
ENDBRANCH   1  11
BRANCH  10  19
ATOM     19  O   UNL     1      17.705 -54.554  -5.281  1.00  0.00    -0.500 OA
ATOM     20  H   UNL     1      18.711 -54.557  -5.156  1.00  0.00     0.294 HD
ENDBRANCH  10  19
BRANCH   5  21
ATOM     21  O   UNL     1      13.289 -53.266   0.970  1.00  0.00    -0.507 OA
ATOM     22  H   UNL     1      12.328 -53.008   0.780  1.00  0.00     0.293 HD
ENDBRANCH   5  21
BRANCH   7  23
ATOM     23  O   UNL     1      17.427 -51.680  -0.916  1.00  0.00    -0.507 OA
ATOM     24  H   UNL     1      17.383 -50.746  -0.537  1.00  0.00     0.293 HD
ENDBRANCH   7  23
TORSDOF 5
ENDMDL
MODEL 6
REMARK VINA RESULT:    -5.191      1.787      2.031
REMARK INTER + INTRA:          -6.388
REMARK INTER:                  -6.146
REMARK INTRA:                  -0.242
REMARK UNBOUND:                -0.286
REMARK SMILES Oc1ccc(-c2[o+]c3cc(O)cc(O)c3cc2O)cc1
REMARK SMILES IDX 6 1 7 2 8 3 9 4 10 5 12 6 13 7 15 8 16 9 17 10 5 11 4 12
REMARK SMILES IDX 3 13 2 14 19 15 20 16 1 17 18 19 11 21 14 23
REMARK H PARENT 1 18 18 20 11 22 14 24
REMARK Flexibility Score: inf
ROOT
ATOM      1  C   UNL     1      14.163 -50.910   7.741  1.00  0.00     0.401 A 
ATOM      2  O   UNL     1      14.729 -50.122   6.831  1.00  0.00    -0.202 OA
ATOM      3  C   UNL     1      14.618 -48.798   6.843  1.00  0.00     0.368 A 
ATOM      4  C   UNL     1      15.248 -48.054   5.842  1.00  0.00     0.162 A 
ATOM      5  C   UNL     1      15.147 -46.663   5.827  1.00  0.00     0.128 A 
ATOM      6  C   UNL     1      14.410 -46.008   6.820  1.00  0.00     0.093 A 
ATOM      7  C   UNL     1      13.769 -46.730   7.834  1.00  0.00     0.136 A 
ATOM      8  C   UNL     1      13.872 -48.145   7.854  1.00  0.00     0.125 A 
ATOM      9  C   UNL     1      13.276 -48.949   8.838  1.00  0.00     0.078 A 
ATOM     10  C   UNL     1      13.426 -50.339   8.795  1.00  0.00     0.223 A 
ENDROOT
BRANCH   1  11
ATOM     11  C   UNL     1      14.351 -52.374   7.614  1.00  0.00     0.084 A 
ATOM     12  C   UNL     1      15.580 -52.986   7.926  1.00  0.00     0.022 A 
ATOM     13  C   UNL     1      15.726 -54.372   7.819  1.00  0.00     0.047 A 
ATOM     14  C   UNL     1      14.645 -55.166   7.415  1.00  0.00     0.115 A 
ATOM     15  C   UNL     1      13.266 -53.179   7.229  1.00  0.00     0.022 A 
ATOM     16  C   UNL     1      13.416 -54.566   7.123  1.00  0.00     0.047 A 
BRANCH  14  17
ATOM     17  O   UNL     1      14.779 -56.547   7.305  1.00  0.00    -0.508 OA
ATOM     18  H   UNL     1      15.685 -56.982   7.174  1.00  0.00     0.293 HD
ENDBRANCH  14  17
ENDBRANCH   1  11
BRANCH  10  19
ATOM     19  O   UNL     1      12.875 -51.133   9.800  1.00  0.00    -0.500 OA
ATOM     20  H   UNL     1      12.912 -52.145   9.760  1.00  0.00     0.294 HD
ENDBRANCH  10  19
BRANCH   5  21
ATOM     21  O   UNL     1      15.782 -45.938   4.820  1.00  0.00    -0.507 OA
ATOM     22  H   UNL     1      16.262 -46.400   4.056  1.00  0.00     0.293 HD
ENDBRANCH   5  21
BRANCH   7  23
ATOM     23  O   UNL     1      13.051 -46.002   8.787  1.00  0.00    -0.507 OA
ATOM     24  H   UNL     1      12.591 -45.122   8.605  1.00  0.00     0.293 HD
ENDBRANCH   7  23
TORSDOF 5
ENDMDL
MODEL 7
REMARK VINA RESULT:    -5.036     11.412     13.175
REMARK INTER + INTRA:          -6.206
REMARK INTER:                  -5.967
REMARK INTRA:                  -0.239
REMARK UNBOUND:                -0.286
REMARK SMILES Oc1ccc(-c2[o+]c3cc(O)cc(O)c3cc2O)cc1
REMARK SMILES IDX 6 1 7 2 8 3 9 4 10 5 12 6 13 7 15 8 16 9 17 10 5 11 4 12
REMARK SMILES IDX 3 13 2 14 19 15 20 16 1 17 18 19 11 21 14 23
REMARK H PARENT 1 18 18 20 11 22 14 24
REMARK Flexibility Score: inf
ROOT
ATOM      1  C   UNL     1      15.975 -54.439  -3.516  1.00  0.00     0.401 A 
ATOM      2  O   UNL     1      15.022 -55.345  -3.719  1.00  0.00    -0.202 OA
ATOM      3  C   UNL     1      15.097 -56.284  -4.657  1.00  0.00     0.368 A 
ATOM      4  C   UNL     1      14.044 -57.192  -4.796  1.00  0.00     0.162 A 
ATOM      5  C   UNL     1      14.092 -58.185  -5.773  1.00  0.00     0.128 A 
ATOM      6  C   UNL     1      15.203 -58.274  -6.621  1.00  0.00     0.093 A 
ATOM      7  C   UNL     1      16.271 -57.377  -6.503  1.00  0.00     0.136 A 
ATOM      8  C   UNL     1      16.225 -56.366  -5.507  1.00  0.00     0.125 A 
ATOM      9  C   UNL     1      17.255 -55.434  -5.308  1.00  0.00     0.078 A 
ATOM     10  C   UNL     1      17.142 -54.468  -4.302  1.00  0.00     0.223 A 
ENDROOT
BRANCH   1  11
ATOM     11  C   UNL     1      15.770 -53.437  -2.445  1.00  0.00     0.084 A 
ATOM     12  C   UNL     1      16.487 -53.499  -1.235  1.00  0.00     0.022 A 
ATOM     13  C   UNL     1      16.292 -52.527  -0.249  1.00  0.00     0.047 A 
ATOM     14  C   UNL     1      15.392 -51.476  -0.462  1.00  0.00     0.115 A 
ATOM     15  C   UNL     1      14.884 -52.367  -2.660  1.00  0.00     0.022 A 
ATOM     16  C   UNL     1      14.692 -51.398  -1.670  1.00  0.00     0.047 A 
BRANCH  14  17
ATOM     17  O   UNL     1      15.190 -50.504   0.514  1.00  0.00    -0.508 OA
ATOM     18  H   UNL     1      15.958 -49.955   0.881  1.00  0.00     0.293 HD
ENDBRANCH  14  17
ENDBRANCH   1  11
BRANCH  10  19
ATOM     19  O   UNL     1      18.186 -53.573  -4.070  1.00  0.00    -0.500 OA
ATOM     20  H   UNL     1      18.024 -52.577  -3.979  1.00  0.00     0.294 HD
ENDBRANCH  10  19
BRANCH   5  21
ATOM     21  O   UNL     1      13.032 -59.081  -5.896  1.00  0.00    -0.507 OA
ATOM     22  H   UNL     1      13.017 -59.788  -6.622  1.00  0.00     0.293 HD
ENDBRANCH   5  21
BRANCH   7  23
ATOM     23  O   UNL     1      17.342 -57.530  -7.389  1.00  0.00    -0.507 OA
ATOM     24  H   UNL     1      17.761 -58.417  -7.629  1.00  0.00     0.293 HD
ENDBRANCH   7  23
TORSDOF 5
ENDMDL
MODEL 8
REMARK VINA RESULT:    -4.894      1.552      2.900
REMARK INTER + INTRA:          -6.038
REMARK INTER:                  -5.722
REMARK INTRA:                  -0.317
REMARK UNBOUND:                -0.286
REMARK SMILES Oc1ccc(-c2[o+]c3cc(O)cc(O)c3cc2O)cc1
REMARK SMILES IDX 6 1 7 2 8 3 9 4 10 5 12 6 13 7 15 8 16 9 17 10 5 11 4 12
REMARK SMILES IDX 3 13 2 14 19 15 20 16 1 17 18 19 11 21 14 23
REMARK H PARENT 1 18 18 20 11 22 14 24
REMARK Flexibility Score: inf
ROOT
ATOM      1  C   UNL     1      13.852 -51.070   7.417  1.00  0.00     0.401 A 
ATOM      2  O   UNL     1      14.185 -50.108   8.272  1.00  0.00    -0.202 OA
ATOM      3  C   UNL     1      14.043 -48.813   8.006  1.00  0.00     0.368 A 
ATOM      4  C   UNL     1      14.424 -47.875   8.969  1.00  0.00     0.162 A 
ATOM      5  C   UNL     1      14.289 -46.510   8.717  1.00  0.00     0.128 A 
ATOM      6  C   UNL     1      13.770 -46.077   7.491  1.00  0.00     0.093 A 
ATOM      7  C   UNL     1      13.382 -46.996   6.510  1.00  0.00     0.136 A 
ATOM      8  C   UNL     1      13.515 -48.386   6.764  1.00  0.00     0.125 A 
ATOM      9  C   UNL     1      13.139 -49.379   5.845  1.00  0.00     0.078 A 
ATOM     10  C   UNL     1      13.295 -50.730   6.170  1.00  0.00     0.223 A 
ENDROOT
BRANCH   1  11
ATOM     11  C   UNL     1      14.068 -52.477   7.827  1.00  0.00     0.084 A 
ATOM     12  C   UNL     1      15.301 -53.121   7.618  1.00  0.00     0.022 A 
ATOM     13  C   UNL     1      15.487 -54.443   8.034  1.00  0.00     0.047 A 
ATOM     14  C   UNL     1      14.451 -55.132   8.677  1.00  0.00     0.115 A 
ATOM     15  C   UNL     1      13.040 -53.168   8.491  1.00  0.00     0.022 A 
ATOM     16  C   UNL     1      13.230 -54.491   8.906  1.00  0.00     0.047 A 
BRANCH  14  17
ATOM     17  O   UNL     1      14.625 -56.448   9.095  1.00  0.00    -0.508 OA
ATOM     18  H   UNL     1      15.156 -57.113   8.545  1.00  0.00     0.293 HD
ENDBRANCH  14  17
ENDBRANCH   1  11
BRANCH  10  19
ATOM     19  O   UNL     1      12.876 -51.717   5.277  1.00  0.00    -0.500 OA
ATOM     20  H   UNL     1      12.902 -51.575   4.274  1.00  0.00     0.294 HD
ENDBRANCH  10  19
BRANCH   5  21
ATOM     21  O   UNL     1      14.674 -45.590   9.689  1.00  0.00    -0.507 OA
ATOM     22  H   UNL     1      14.388 -44.619   9.644  1.00  0.00     0.293 HD
ENDBRANCH   5  21
BRANCH   7  23
ATOM     23  O   UNL     1      12.876 -46.483   5.311  1.00  0.00    -0.507 OA
ATOM     24  H   UNL     1      11.894 -46.360   5.113  1.00  0.00     0.293 HD
ENDBRANCH   7  23
TORSDOF 5
ENDMDL
MODEL 9
REMARK VINA RESULT:    -4.828      2.057      7.326
REMARK INTER + INTRA:          -5.961
REMARK INTER:                  -5.643
REMARK INTRA:                  -0.318
REMARK UNBOUND:                -0.286
REMARK SMILES Oc1ccc(-c2[o+]c3cc(O)cc(O)c3cc2O)cc1
REMARK SMILES IDX 6 1 7 2 8 3 9 4 10 5 12 6 13 7 15 8 16 9 17 10 5 11 4 12
REMARK SMILES IDX 3 13 2 14 19 15 20 16 1 17 18 19 11 21 14 23
REMARK H PARENT 1 18 18 20 11 22 14 24
REMARK Flexibility Score: inf
ROOT
ATOM      1  C   UNL     1      14.589 -53.188   7.929  1.00  0.00     0.401 A 
ATOM      2  O   UNL     1      14.827 -54.192   7.090  1.00  0.00    -0.202 OA
ATOM      3  C   UNL     1      14.492 -55.452   7.346  1.00  0.00     0.368 A 
ATOM      4  C   UNL     1      14.786 -56.440   6.402  1.00  0.00     0.162 A 
ATOM      5  C   UNL     1      14.449 -57.771   6.645  1.00  0.00     0.128 A 
ATOM      6  C   UNL     1      13.813 -58.121   7.842  1.00  0.00     0.093 A 
ATOM      7  C   UNL     1      13.508 -57.151   8.804  1.00  0.00     0.136 A 
ATOM      8  C   UNL     1      13.847 -55.795   8.559  1.00  0.00     0.125 A 
ATOM      9  C   UNL     1      13.568 -54.755   9.459  1.00  0.00     0.078 A 
ATOM     10  C   UNL     1      13.928 -53.440   9.146  1.00  0.00     0.223 A 
ENDROOT
BRANCH   1  11
ATOM     11  C   UNL     1      15.020 -51.827   7.533  1.00  0.00     0.084 A 
ATOM     12  C   UNL     1      14.160 -50.959   6.836  1.00  0.00     0.022 A 
ATOM     13  C   UNL     1      14.582 -49.671   6.493  1.00  0.00     0.047 A 
ATOM     14  C   UNL     1      15.861 -49.229   6.855  1.00  0.00     0.115 A 
ATOM     15  C   UNL     1      16.294 -51.369   7.910  1.00  0.00     0.022 A 
ATOM     16  C   UNL     1      16.713 -50.080   7.565  1.00  0.00     0.047 A 
BRANCH  14  17
ATOM     17  O   UNL     1      16.292 -47.949   6.518  1.00  0.00    -0.508 OA
ATOM     18  H   UNL     1      16.585 -47.720   5.575  1.00  0.00     0.293 HD
ENDBRANCH  14  17
ENDBRANCH   1  11
BRANCH  10  19
ATOM     19  O   UNL     1      13.607 -52.400  10.018  1.00  0.00    -0.500 OA
ATOM     20  H   UNL     1      13.684 -51.429   9.740  1.00  0.00     0.294 HD
ENDBRANCH  10  19
BRANCH   5  21
ATOM     21  O   UNL     1      14.750 -58.741   5.691  1.00  0.00    -0.507 OA
ATOM     22  H   UNL     1      14.247 -59.620   5.651  1.00  0.00     0.293 HD
ENDBRANCH   5  21
BRANCH   7  23
ATOM     23  O   UNL     1      12.876 -57.582   9.974  1.00  0.00    -0.507 OA
ATOM     24  H   UNL     1      12.421 -58.477  10.081  1.00  0.00     0.293 HD
ENDBRANCH   7  23
TORSDOF 5
ENDMDL
