MODEL 1
REMARK VINA RESULT:    -5.148      0.000      0.000
REMARK INTER + INTRA:          -8.741
REMARK INTER:                  -7.856
REMARK INTRA:                  -0.884
REMARK UNBOUND:                -0.884
REMARK SMILES O=C([O-])CCCCCCCCC(=O)[O-]
REMARK SMILES IDX 7 1 6 2 5 3 4 4 2 5 1 6 3 7 8 8 9 9 10 10 11 11 12 12 13 13
REMARK SMILES IDX 14 14
REMARK H PARENT
REMARK Flexibility Score: inf
ROOT
ATOM      1  C   UNL     1      -3.692  34.947 100.034  1.00  0.00     0.000 C 
ENDROOT
BRANCH   1   2
ATOM      2  C   UNL     1      -3.416  34.961  98.520  1.00  0.00     0.000 C 
BRANCH   2   3
ATOM      3  C   UNL     1      -3.212  36.376  97.962  1.00  0.00     0.006 C 
BRANCH   3   4
ATOM      4  C   UNL     1      -4.275  36.710  96.912  1.00  0.00     0.053 C 
BRANCH   4   5
ATOM      5  C   UNL     1      -5.184  37.788  97.412  1.00  0.00     0.041 C 
ATOM      6  O   UNL     1      -4.771  38.623  98.259  1.00  0.00    -0.550 OA
ATOM      7  O   UNL     1      -6.504  37.841  96.981  1.00  0.00    -0.550 OA
ENDBRANCH   4   5
ENDBRANCH   3   4
ENDBRANCH   2   3
ENDBRANCH   1   2
BRANCH   1   8
ATOM      8  C   UNL     1      -4.953  35.739 100.440  1.00  0.00     0.000 C 
BRANCH   8   9
ATOM      9  C   UNL     1      -4.677  36.722 101.587  1.00  0.00     0.000 C 
BRANCH   9  10
ATOM     10  C   UNL     1      -3.174  37.013 101.712  1.00  0.00     0.006 C 
BRANCH  10  11
ATOM     11  C   UNL     1      -2.807  38.406 101.185  1.00  0.00     0.053 C 
BRANCH  11  12
ATOM     12  C   UNL     1      -2.787  39.426 102.282  1.00  0.00     0.041 C 
ATOM     13  O   UNL     1      -2.717  39.063 103.485  1.00  0.00    -0.550 OA
ATOM     14  O   UNL     1      -2.879  40.778 101.976  1.00  0.00    -0.550 OA
ENDBRANCH  11  12
ENDBRANCH  10  11
ENDBRANCH   9  10
ENDBRANCH   8   9
ENDBRANCH   1   8
TORSDOF 9
ENDMDL
MODEL 2
REMARK VINA RESULT:    -5.145      1.380      1.916
REMARK INTER + INTRA:          -8.737
REMARK INTER:                  -8.170
REMARK INTRA:                  -0.567
REMARK UNBOUND:                -0.884
REMARK SMILES O=C([O-])CCCCCCCCC(=O)[O-]
REMARK SMILES IDX 7 1 6 2 5 3 4 4 2 5 1 6 3 7 8 8 9 9 10 10 11 11 12 12 13 13
REMARK SMILES IDX 14 14
REMARK H PARENT
REMARK Flexibility Score: inf
ROOT
ATOM      1  C   UNL     1      -3.153  34.956 100.498  1.00  0.00     0.000 C 
ENDROOT
BRANCH   1   2
ATOM      2  C   UNL     1      -3.280  34.840  98.969  1.00  0.00     0.000 C 
BRANCH   2   3
ATOM      3  C   UNL     1      -4.641  34.289  98.522  1.00  0.00     0.006 C 
BRANCH   3   4
ATOM      4  C   UNL     1      -5.750  35.321  98.741  1.00  0.00     0.053 C 
BRANCH   4   5
ATOM      5  C   UNL     1      -5.468  36.566  97.961  1.00  0.00     0.041 C 
ATOM      6  O   UNL     1      -5.321  36.510  96.711  1.00  0.00    -0.550 OA
ATOM      7  O   UNL     1      -5.317  37.780  98.618  1.00  0.00    -0.550 OA
ENDBRANCH   4   5
ENDBRANCH   3   4
ENDBRANCH   2   3
ENDBRANCH   1   2
BRANCH   1   8
ATOM      8  C   UNL     1      -2.578  36.308 100.970  1.00  0.00     0.000 C 
BRANCH   8   9
ATOM      9  C   UNL     1      -3.643  37.189 101.640  1.00  0.00     0.000 C 
BRANCH   9  10
ATOM     10  C   UNL     1      -3.001  38.174 102.628  1.00  0.00     0.006 C 
BRANCH  10  11
ATOM     11  C   UNL     1      -2.017  39.129 101.939  1.00  0.00     0.053 C 
BRANCH  11  12
ATOM     12  C   UNL     1      -1.808  40.378 102.738  1.00  0.00     0.041 C 
ATOM     13  O   UNL     1      -0.653  40.861 102.872  1.00  0.00    -0.550 OA
ATOM     14  O   UNL     1      -2.887  40.993 103.362  1.00  0.00    -0.550 OA
ENDBRANCH  11  12
ENDBRANCH  10  11
ENDBRANCH   9  10
ENDBRANCH   8   9
ENDBRANCH   1   8
TORSDOF 9
ENDMDL
MODEL 3
REMARK VINA RESULT:    -5.094      0.649      4.840
REMARK INTER + INTRA:          -8.659
REMARK INTER:                  -7.970
REMARK INTRA:                  -0.689
REMARK UNBOUND:                -0.884
REMARK SMILES O=C([O-])CCCCCCCCC(=O)[O-]
REMARK SMILES IDX 7 1 6 2 5 3 4 4 2 5 1 6 3 7 8 8 9 9 10 10 11 11 12 12 13 13
REMARK SMILES IDX 14 14
REMARK H PARENT
REMARK Flexibility Score: inf
ROOT
ATOM      1  C   UNL     1      -4.114  35.180 100.430  1.00  0.00     0.000 C 
ENDROOT
BRANCH   1   2
ATOM      2  C   UNL     1      -2.812  35.860 100.886  1.00  0.00     0.000 C 
BRANCH   2   3
ATOM      3  C   UNL     1      -3.052  37.013 101.870  1.00  0.00     0.006 C 
BRANCH   3   4
ATOM      4  C   UNL     1      -2.697  38.360 101.234  1.00  0.00     0.053 C 
BRANCH   4   5
ATOM      5  C   UNL     1      -2.814  39.461 102.240  1.00  0.00     0.041 C 
ATOM      6  O   UNL     1      -2.789  39.199 103.472  1.00  0.00    -0.550 OA
ATOM      7  O   UNL     1      -3.003  40.771 101.820  1.00  0.00    -0.550 OA
ENDBRANCH   4   5
ENDBRANCH   3   4
ENDBRANCH   2   3
ENDBRANCH   1   2
BRANCH   1   8
ATOM      8  C   UNL     1      -4.107  34.763  98.944  1.00  0.00     0.000 C 
BRANCH   8   9
ATOM      9  C   UNL     1      -2.898  35.335  98.187  1.00  0.00     0.000 C 
BRANCH   9  10
ATOM     10  C   UNL     1      -3.271  36.630  97.452  1.00  0.00     0.006 C 
BRANCH  10  11
ATOM     11  C   UNL     1      -4.722  36.617  96.952  1.00  0.00     0.053 C 
BRANCH  11  12
ATOM     12  C   UNL     1      -5.529  37.718  97.566  1.00  0.00     0.041 C 
ATOM     13  O   UNL     1      -5.076  38.369  98.544  1.00  0.00    -0.550 OA
ATOM     14  O   UNL     1      -6.798  38.006  97.077  1.00  0.00    -0.550 OA
ENDBRANCH  11  12
ENDBRANCH  10  11
ENDBRANCH   9  10
ENDBRANCH   8   9
ENDBRANCH   1   8
TORSDOF 9
ENDMDL
MODEL 4
REMARK VINA RESULT:    -5.013      1.127      5.158
REMARK INTER + INTRA:          -8.535
REMARK INTER:                  -7.745
REMARK INTRA:                  -0.790
REMARK UNBOUND:                -0.884
REMARK SMILES O=C([O-])CCCCCCCCC(=O)[O-]
REMARK SMILES IDX 7 1 6 2 5 3 4 4 2 5 1 6 3 7 8 8 9 9 10 10 11 11 12 12 13 13
REMARK SMILES IDX 14 14
REMARK H PARENT
REMARK Flexibility Score: inf
ROOT
ATOM      1  C   UNL     1      -4.849  36.645 101.406  1.00  0.00     0.000 C 
ENDROOT
BRANCH   1   2
ATOM      2  C   UNL     1      -3.364  37.033 101.520  1.00  0.00     0.000 C 
BRANCH   2   3
ATOM      3  C   UNL     1      -3.123  38.536 101.329  1.00  0.00     0.006 C 
BRANCH   3   4
ATOM      4  C   UNL     1      -1.694  38.916 101.725  1.00  0.00     0.053 C 
BRANCH   4   5
ATOM      5  C   UNL     1      -1.701  40.103 102.636  1.00  0.00     0.041 C 
ATOM      6  O   UNL     1      -0.631  40.720 102.882  1.00  0.00    -0.550 OA
ATOM      7  O   UNL     1      -2.881  40.498 103.254  1.00  0.00    -0.550 OA
ENDBRANCH   4   5
ENDBRANCH   3   4
ENDBRANCH   2   3
ENDBRANCH   1   2
BRANCH   1   8
ATOM      8  C   UNL     1      -5.101  35.423 100.496  1.00  0.00     0.000 C 
BRANCH   8   9
ATOM      9  C   UNL     1      -3.794  34.817  99.963  1.00  0.00     0.000 C 
BRANCH   9  10
ATOM     10  C   UNL     1      -3.742  34.883  98.430  1.00  0.00     0.006 C 
BRANCH  10  11
ATOM     11  C   UNL     1      -3.109  36.187  97.926  1.00  0.00     0.053 C 
BRANCH  11  12
ATOM     12  C   UNL     1      -4.138  37.125  97.374  1.00  0.00     0.041 C 
ATOM     13  O   UNL     1      -4.481  37.051  96.165  1.00  0.00    -0.550 OA
ATOM     14  O   UNL     1      -4.696  38.103  98.189  1.00  0.00    -0.550 OA
ENDBRANCH  11  12
ENDBRANCH  10  11
ENDBRANCH   9  10
ENDBRANCH   8   9
ENDBRANCH   1   8
TORSDOF 9
ENDMDL
MODEL 5
REMARK VINA RESULT:    -4.736      1.677      2.633
REMARK INTER + INTRA:          -8.113
REMARK INTER:                  -7.671
REMARK INTRA:                  -0.442
REMARK UNBOUND:                -0.884
REMARK SMILES O=C([O-])CCCCCCCCC(=O)[O-]
REMARK SMILES IDX 7 1 6 2 5 3 4 4 2 5 1 6 3 7 8 8 9 9 10 10 11 11 12 12 13 13
REMARK SMILES IDX 14 14
REMARK H PARENT
REMARK Flexibility Score: inf
ROOT
ATOM      1  C   UNL     1      -2.624  36.236 101.047  1.00  0.00     0.000 C 
ENDROOT
BRANCH   1   2
ATOM      2  C   UNL     1      -3.360  35.012 100.474  1.00  0.00     0.000 C 
BRANCH   2   3
ATOM      3  C   UNL     1      -4.844  35.285 100.193  1.00  0.00     0.006 C 
BRANCH   3   4
ATOM      4  C   UNL     1      -5.180  35.022  98.722  1.00  0.00     0.053 C 
BRANCH   4   5
ATOM      5  C   UNL     1      -4.995  36.265  97.912  1.00  0.00     0.041 C 
ATOM      6  O   UNL     1      -5.980  37.003  97.649  1.00  0.00    -0.550 OA
ATOM      7  O   UNL     1      -3.742  36.585  97.404  1.00  0.00    -0.550 OA
ENDBRANCH   4   5
ENDBRANCH   3   4
ENDBRANCH   2   3
ENDBRANCH   1   2
BRANCH   1   8
ATOM      8  C   UNL     1      -3.568  37.370 101.501  1.00  0.00     0.000 C 
BRANCH   8   9
ATOM      9  C   UNL     1      -2.945  38.759 101.300  1.00  0.00     0.000 C 
BRANCH   9  10
ATOM     10  C   UNL     1      -2.321  39.277 102.603  1.00  0.00     0.006 C 
BRANCH  10  11
ATOM     11  C   UNL     1      -2.796  40.694 102.952  1.00  0.00     0.053 C 
BRANCH  11  12
ATOM     12  C   UNL     1      -1.645  41.617 103.207  1.00  0.00     0.041 C 
ATOM     13  O   UNL     1      -1.850  42.793 103.605  1.00  0.00    -0.550 OA
ATOM     14  O   UNL     1      -0.344  41.186 102.975  1.00  0.00    -0.550 OA
ENDBRANCH  11  12
ENDBRANCH  10  11
ENDBRANCH   9  10
ENDBRANCH   8   9
ENDBRANCH   1   8
TORSDOF 9
ENDMDL
MODEL 6
REMARK VINA RESULT:    -4.676      2.311      6.039
REMARK INTER + INTRA:          -8.020
REMARK INTER:                  -7.535
REMARK INTRA:                  -0.484
REMARK UNBOUND:                -0.884
REMARK SMILES O=C([O-])CCCCCCCCC(=O)[O-]
REMARK SMILES IDX 7 1 6 2 5 3 4 4 2 5 1 6 3 7 8 8 9 9 10 10 11 11 12 12 13 13
REMARK SMILES IDX 14 14
REMARK H PARENT
REMARK Flexibility Score: inf
ROOT
ATOM      1  C   UNL     1      -3.110  37.371 101.472  1.00  0.00     0.000 C 
ENDROOT
BRANCH   1   2
ATOM      2  C   UNL     1      -2.863  38.202 102.743  1.00  0.00     0.000 C 
BRANCH   2   3
ATOM      3  C   UNL     1      -2.618  39.688 102.448  1.00  0.00     0.006 C 
BRANCH   3   4
ATOM      4  C   UNL     1      -1.157  40.065 102.711  1.00  0.00     0.053 C 
BRANCH   4   5
ATOM      5  C   UNL     1      -1.052  41.502 103.113  1.00  0.00     0.041 C 
ATOM      6  O   UNL     1      -2.090  42.160 103.388  1.00  0.00    -0.550 OA
ATOM      7  O   UNL     1       0.187  42.130 103.135  1.00  0.00    -0.550 OA
ENDBRANCH   4   5
ENDBRANCH   3   4
ENDBRANCH   2   3
ENDBRANCH   1   2
BRANCH   1   8
ATOM      8  C   UNL     1      -3.119  38.210 100.176  1.00  0.00     0.000 C 
BRANCH   8   9
ATOM      9  C   UNL     1      -4.165  37.710  99.169  1.00  0.00     0.000 C 
BRANCH   9  10
ATOM     10  C   UNL     1      -3.493  37.003  97.983  1.00  0.00     0.006 C 
BRANCH  10  11
ATOM     11  C   UNL     1      -2.990  35.601  98.352  1.00  0.00     0.053 C 
BRANCH  11  12
ATOM     12  C   UNL     1      -4.086  34.752  98.919  1.00  0.00     0.041 C 
ATOM     13  O   UNL     1      -3.947  34.206 100.045  1.00  0.00    -0.550 OA
ATOM     14  O   UNL     1      -5.249  34.538  98.189  1.00  0.00    -0.550 OA
ENDBRANCH  11  12
ENDBRANCH  10  11
ENDBRANCH   9  10
ENDBRANCH   8   9
ENDBRANCH   1   8
TORSDOF 9
ENDMDL
MODEL 7
REMARK VINA RESULT:    -4.650      1.571      5.518
REMARK INTER + INTRA:          -7.981
REMARK INTER:                  -7.428
REMARK INTRA:                  -0.554
REMARK UNBOUND:                -0.884
REMARK SMILES O=C([O-])CCCCCCCCC(=O)[O-]
REMARK SMILES IDX 7 1 6 2 5 3 4 4 2 5 1 6 3 7 8 8 9 9 10 10 11 11 12 12 13 13
REMARK SMILES IDX 14 14
REMARK H PARENT
REMARK Flexibility Score: inf
ROOT
ATOM      1  C   UNL     1      -3.595  37.527 101.534  1.00  0.00     0.000 C 
ENDROOT
BRANCH   1   2
ATOM      2  C   UNL     1      -2.871  38.884 101.496  1.00  0.00     0.000 C 
BRANCH   2   3
ATOM      3  C   UNL     1      -2.565  39.438 102.894  1.00  0.00     0.006 C 
BRANCH   3   4
ATOM      4  C   UNL     1      -2.054  40.879 102.814  1.00  0.00     0.053 C 
BRANCH   4   5
ATOM      5  C   UNL     1      -3.201  41.839 102.769  1.00  0.00     0.041 C 
ATOM      6  O   UNL     1      -3.582  42.319 101.670  1.00  0.00    -0.550 OA
ATOM      7  O   UNL     1      -3.817  42.243 103.947  1.00  0.00    -0.550 OA
ENDBRANCH   4   5
ENDBRANCH   3   4
ENDBRANCH   2   3
ENDBRANCH   1   2
BRANCH   1   8
ATOM      8  C   UNL     1      -2.678  36.328 101.209  1.00  0.00     0.000 C 
BRANCH   8   9
ATOM      9  C   UNL     1      -3.361  35.310 100.283  1.00  0.00     0.000 C 
BRANCH   9  10
ATOM     10  C   UNL     1      -4.890  35.412 100.386  1.00  0.00     0.006 C 
BRANCH  10  11
ATOM     11  C   UNL     1      -5.570  35.359  99.011  1.00  0.00     0.053 C 
BRANCH  11  12
ATOM     12  C   UNL     1      -5.180  36.524  98.156  1.00  0.00     0.041 C 
ATOM     13  O   UNL     1      -4.579  36.338  97.065  1.00  0.00    -0.550 OA
ATOM     14  O   UNL     1      -5.452  37.820  98.579  1.00  0.00    -0.550 OA
ENDBRANCH  11  12
ENDBRANCH  10  11
ENDBRANCH   9  10
ENDBRANCH   8   9
ENDBRANCH   1   8
TORSDOF 9
ENDMDL
MODEL 8
REMARK VINA RESULT:    -4.535      1.727      2.357
REMARK INTER + INTRA:          -7.806
REMARK INTER:                  -7.237
REMARK INTRA:                  -0.568
REMARK UNBOUND:                -0.884
REMARK SMILES O=C([O-])CCCCCCCCC(=O)[O-]
REMARK SMILES IDX 7 1 6 2 5 3 4 4 2 5 1 6 3 7 8 8 9 9 10 10 11 11 12 12 13 13
REMARK SMILES IDX 14 14
REMARK H PARENT
REMARK Flexibility Score: inf
ROOT
ATOM      1  C   UNL     1      -4.490  37.133 100.438  1.00  0.00     0.000 C 
ENDROOT
BRANCH   1   2
ATOM      2  C   UNL     1      -4.067  38.239  99.456  1.00  0.00     0.000 C 
BRANCH   2   3
ATOM      3  C   UNL     1      -3.614  37.690  98.096  1.00  0.00     0.006 C 
BRANCH   3   4
ATOM      4  C   UNL     1      -4.791  37.077  97.332  1.00  0.00     0.053 C 
BRANCH   4   5
ATOM      5  C   UNL     1      -5.794  38.130  96.984  1.00  0.00     0.041 C 
ATOM      6  O   UNL     1      -7.024  37.909  97.136  1.00  0.00    -0.550 OA
ATOM      7  O   UNL     1      -5.375  39.340  96.444  1.00  0.00    -0.550 OA
ENDBRANCH   4   5
ENDBRANCH   3   4
ENDBRANCH   2   3
ENDBRANCH   1   2
BRANCH   1   8
ATOM      8  C   UNL     1      -3.662  37.112 101.740  1.00  0.00     0.000 C 
BRANCH   8   9
ATOM      9  C   UNL     1      -2.499  38.114 101.704  1.00  0.00     0.000 C 
BRANCH   9  10
ATOM     10  C   UNL     1      -2.616  39.134 102.846  1.00  0.00     0.006 C 
BRANCH  10  11
ATOM     11  C   UNL     1      -2.704  40.577 102.330  1.00  0.00     0.053 C 
BRANCH  11  12
ATOM     12  C   UNL     1      -1.710  41.469 103.008  1.00  0.00     0.041 C 
ATOM     13  O   UNL     1      -0.488  41.169 103.013  1.00  0.00    -0.550 OA
ATOM     14  O   UNL     1      -2.140  42.617 103.663  1.00  0.00    -0.550 OA
ENDBRANCH  11  12
ENDBRANCH  10  11
ENDBRANCH   9  10
ENDBRANCH   8   9
ENDBRANCH   1   8
TORSDOF 9
ENDMDL
MODEL 9
REMARK VINA RESULT:    -4.435      2.223      2.963
REMARK INTER + INTRA:          -7.653
REMARK INTER:                  -7.058
REMARK INTRA:                  -0.595
REMARK UNBOUND:                -0.884
REMARK SMILES O=C([O-])CCCCCCCCC(=O)[O-]
REMARK SMILES IDX 7 1 6 2 5 3 4 4 2 5 1 6 3 7 8 8 9 9 10 10 11 11 12 12 13 13
REMARK SMILES IDX 14 14
REMARK H PARENT
REMARK Flexibility Score: inf
ROOT
ATOM      1  C   UNL     1      -3.430  38.522  99.129  1.00  0.00     0.000 C 
ENDROOT
BRANCH   1   2
ATOM      2  C   UNL     1      -3.576  37.346  98.148  1.00  0.00     0.000 C 
BRANCH   2   3
ATOM      3  C   UNL     1      -5.020  36.840  98.032  1.00  0.00     0.006 C 
BRANCH   3   4
ATOM      4  C   UNL     1      -5.082  35.318  98.187  1.00  0.00     0.053 C 
BRANCH   4   5
ATOM      5  C   UNL     1      -4.909  34.931  99.621  1.00  0.00     0.041 C 
ATOM      6  O   UNL     1      -5.756  35.288 100.481  1.00  0.00    -0.550 OA
ATOM      7  O   UNL     1      -3.784  34.218 100.019  1.00  0.00    -0.550 OA
ENDBRANCH   4   5
ENDBRANCH   3   4
ENDBRANCH   2   3
ENDBRANCH   1   2
BRANCH   1   8
ATOM      8  C   UNL     1      -3.903  38.195 100.562  1.00  0.00     0.000 C 
BRANCH   8   9
ATOM      9  C   UNL     1      -2.753  37.703 101.454  1.00  0.00     0.000 C 
BRANCH   9  10
ATOM     10  C   UNL     1      -2.557  38.630 102.661  1.00  0.00     0.006 C 
BRANCH  10  11
ATOM     11  C   UNL     1      -1.596  39.787 102.355  1.00  0.00     0.053 C 
BRANCH  11  12
ATOM     12  C   UNL     1      -2.010  41.049 103.047  1.00  0.00     0.041 C 
ATOM     13  O   UNL     1      -3.208  41.217 103.398  1.00  0.00    -0.550 OA
ATOM     14  O   UNL     1      -1.079  42.055 103.276  1.00  0.00    -0.550 OA
ENDBRANCH  11  12
ENDBRANCH  10  11
ENDBRANCH   9  10
ENDBRANCH   8   9
ENDBRANCH   1   8
TORSDOF 9
ENDMDL
