MODEL 1
REMARK VINA RESULT:    -3.718      0.000      0.000
REMARK INTER + INTRA:          -4.310
REMARK INTER:                  -5.239
REMARK INTRA:                   0.929
REMARK UNBOUND:                 0.929
REMARK SMILES CC1=CCC(=C(C)C)C(=O)CC(C)=CCC1
REMARK SMILES IDX 12 1 14 2 13 3 15 4 16 5 2 6 1 7 3 8 11 10 9 11 10 12 5 13
REMARK SMILES IDX 6 14 7 15 8 16 4 17
REMARK H PARENT
REMARK Flexibility Score: 60.00
ROOT
ATOM      1  C   UNL     1     -11.989 -18.871  30.115  1.00  0.00    -0.070 C 
ATOM      2  C   UNL     1     -12.387 -19.242  28.877  1.00  0.00    -0.027 C 
ATOM      3  C   UNL     1     -10.700 -19.444  30.647  1.00  0.00     0.039 C 
ENDROOT
BRANCH   2   4
ATOM      4  C   UNL     1     -13.617 -18.723  28.166  1.00  0.00     0.032 C 
BRANCH   4   5
ATOM      5  C   UNL     1     -13.255 -17.680  27.097  1.00  0.00     0.034 C 
BRANCH   5   6
ATOM      6  C   UNL     1     -11.934 -16.972  27.362  1.00  0.00    -0.077 C 
ATOM      7  C   UNL     1     -10.662 -17.579  26.824  1.00  0.00     0.039 C 
ATOM      8  C   UNL     1     -11.837 -15.808  28.043  1.00  0.00    -0.023 CG0
ATOM      9  G   UNL     1     -12.984 -15.086  28.712  1.00  0.00     0.000 G0
ENDBRANCH   5   6
ENDBRANCH   4   5
ENDBRANCH   2   4
BRANCH   1  10
ATOM     10  C   UNL     1     -12.779 -17.913  30.986  1.00  0.00     0.111 C 
BRANCH  10  11
ATOM     11  C   UNL     1     -12.313 -16.497  30.794  1.00  0.00     0.163 C 
ATOM     12  O   UNL     1     -11.145 -16.178  31.147  1.00  0.00    -0.294 OA
BRANCH  11  13
ATOM     13  C   UNL     1     -13.193 -15.471  30.178  1.00  0.00    -0.002 C 
ATOM     14  C   UNL     1     -14.187 -14.893  30.905  1.00  0.00    -0.069 C 
ATOM     15  C   UNL     1     -15.124 -13.886  30.281  1.00  0.00     0.039 C 
ATOM     16  C   UNL     1     -14.363 -15.203  32.375  1.00  0.00     0.039 C 
BRANCH  13  17
ATOM     17  C   UNL     1     -12.966 -15.076  28.722  1.00  0.00     0.066 CG0
ATOM     18  G   UNL     1     -11.835 -15.826  28.057  1.00  0.00     0.000 G0
ENDBRANCH  13  17
ENDBRANCH  11  13
ENDBRANCH  10  11
ENDBRANCH   1  10
TORSDOF 0
ENDMDL
MODEL 2
REMARK VINA RESULT:    -3.563      1.681      3.391
REMARK INTER + INTRA:          -4.092
REMARK INTER:                  -6.015
REMARK INTRA:                   1.924
REMARK UNBOUND:                 0.929
REMARK SMILES CC1=CCC(=C(C)C)C(=O)CC(C)=CCC1
REMARK SMILES IDX 12 1 14 2 13 3 15 4 16 5 2 6 1 7 3 8 11 10 9 11 10 12 5 13
REMARK SMILES IDX 6 14 7 15 8 16 4 17
REMARK H PARENT
REMARK Flexibility Score: 60.00
ROOT
ATOM      1  C   UNL     1     -11.437 -17.146  27.418  1.00  0.00    -0.070 C 
ATOM      2  C   UNL     1     -10.337 -17.361  28.175  1.00  0.00    -0.027 C 
ATOM      3  C   UNL     1     -11.275 -17.129  25.919  1.00  0.00     0.039 C 
ENDROOT
BRANCH   2   4
ATOM      4  C   UNL     1     -10.325 -17.468  29.683  1.00  0.00     0.032 C 
BRANCH   4   5
ATOM      5  C   UNL     1     -10.637 -18.897  30.152  1.00  0.00     0.034 C 
BRANCH   5   6
ATOM      6  C   UNL     1     -12.107 -19.125  30.471  1.00  0.00    -0.077 C 
ATOM      7  C   UNL     1     -12.694 -20.499  30.260  1.00  0.00     0.039 C 
ATOM      8  C   UNL     1     -12.922 -18.160  30.957  1.00  0.00    -0.023 CG0
ATOM      9  G   UNL     1     -12.538 -16.715  31.171  1.00  0.00     0.000 G0
ENDBRANCH   5   6
ENDBRANCH   4   5
ENDBRANCH   2   4
BRANCH   1  10
ATOM     10  C   UNL     1     -12.816 -16.920  28.008  1.00  0.00     0.111 C 
BRANCH  10  11
ATOM     11  C   UNL     1     -12.851 -15.667  28.838  1.00  0.00     0.163 C 
ATOM     12  O   UNL     1     -12.581 -14.560  28.297  1.00  0.00    -0.294 OA
BRANCH  11  13
ATOM     13  C   UNL     1     -13.218 -15.704  30.277  1.00  0.00    -0.002 C 
ATOM     14  C   UNL     1     -14.159 -14.851  30.767  1.00  0.00    -0.069 C 
ATOM     15  C   UNL     1     -14.508 -14.839  32.237  1.00  0.00     0.039 C 
ATOM     16  C   UNL     1     -14.921 -13.918  29.854  1.00  0.00     0.039 C 
BRANCH  13  17
ATOM     17  C   UNL     1     -12.527 -16.708  31.194  1.00  0.00     0.066 CG0
ATOM     18  G   UNL     1     -12.930 -18.142  30.939  1.00  0.00     0.000 G0
ENDBRANCH  13  17
ENDBRANCH  11  13
ENDBRANCH  10  11
ENDBRANCH   1  10
TORSDOF 0
ENDMDL
MODEL 3
REMARK VINA RESULT:    -3.445      1.517      3.342
REMARK INTER + INTRA:          -3.925
REMARK INTER:                  -4.892
REMARK INTRA:                   0.966
REMARK UNBOUND:                 0.929
REMARK SMILES CC1=CCC(=C(C)C)C(=O)CC(C)=CCC1
REMARK SMILES IDX 12 1 14 2 13 3 15 4 16 5 2 6 1 7 3 8 11 10 9 11 10 12 5 13
REMARK SMILES IDX 6 14 7 15 8 16 4 17
REMARK H PARENT
REMARK Flexibility Score: 60.00
ROOT
ATOM      1  C   UNL     1     -12.667 -16.956  31.103  1.00  0.00    -0.070 C 
ATOM      2  C   UNL     1     -13.210 -18.181  31.288  1.00  0.00    -0.027 C 
ATOM      3  C   UNL     1     -13.564 -15.753  31.249  1.00  0.00     0.039 C 
ENDROOT
BRANCH   2   4
ATOM      4  C   UNL     1     -12.450 -19.488  31.238  1.00  0.00     0.032 C 
BRANCH   4   5
ATOM      5  C   UNL     1     -11.693 -19.651  29.912  1.00  0.00     0.034 C 
BRANCH   5   6
ATOM      6  C   UNL     1     -12.603 -19.689  28.693  1.00  0.00    -0.077 C 
ATOM      7  C   UNL     1     -13.670 -20.753  28.613  1.00  0.00     0.039 C 
ATOM      8  C   UNL     1     -12.522 -18.802  27.675  1.00  0.00    -0.023 CG0
ATOM      9  G   UNL     1     -11.482 -17.712  27.543  1.00  0.00     0.000 G0
ENDBRANCH   5   6
ENDBRANCH   4   5
ENDBRANCH   2   4
BRANCH   1  10
ATOM     10  C   UNL     1     -11.207 -16.743  30.753  1.00  0.00     0.111 C 
BRANCH  10  11
ATOM     11  C   UNL     1     -11.064 -16.018  29.444  1.00  0.00     0.163 C 
ATOM     12  O   UNL     1     -10.247 -15.062  29.354  1.00  0.00    -0.294 OA
BRANCH  11  13
ATOM     13  C   UNL     1     -11.851 -16.417  28.250  1.00  0.00    -0.002 C 
ATOM     14  C   UNL     1     -12.880 -15.641  27.815  1.00  0.00    -0.069 C 
ATOM     15  C   UNL     1     -13.725 -16.056  26.633  1.00  0.00     0.039 C 
ATOM     16  C   UNL     1     -13.189 -14.313  28.469  1.00  0.00     0.039 C 
BRANCH  13  17
ATOM     17  C   UNL     1     -11.490 -17.707  27.519  1.00  0.00     0.066 CG0
ATOM     18  G   UNL     1     -12.521 -18.802  27.672  1.00  0.00     0.000 G0
ENDBRANCH  13  17
ENDBRANCH  11  13
ENDBRANCH  10  11
ENDBRANCH   1  10
TORSDOF 0
ENDMDL
MODEL 4
REMARK VINA RESULT:    -3.209      1.583      3.728
REMARK INTER + INTRA:          -3.593
REMARK INTER:                  -4.769
REMARK INTRA:                   1.176
REMARK UNBOUND:                 0.929
REMARK SMILES CC1=CCC(=C(C)C)C(=O)CC(C)=CCC1
REMARK SMILES IDX 12 1 14 2 13 3 15 4 16 5 2 6 1 7 3 8 11 10 9 11 10 12 5 13
REMARK SMILES IDX 6 14 7 15 8 16 4 17
REMARK H PARENT
REMARK Flexibility Score: 60.00
ROOT
ATOM      1  C   UNL     1     -12.801 -16.059  30.829  1.00  0.00    -0.070 C 
ATOM      2  C   UNL     1     -13.627 -15.292  30.081  1.00  0.00    -0.027 C 
ATOM      3  C   UNL     1     -13.377 -16.751  32.038  1.00  0.00     0.039 C 
ENDROOT
BRANCH   2   4
ATOM      4  C   UNL     1     -13.236 -14.576  28.808  1.00  0.00     0.032 C 
BRANCH   4   5
ATOM      5  C   UNL     1     -12.212 -15.384  27.996  1.00  0.00     0.034 C 
BRANCH   5   6
ATOM      6  C   UNL     1     -12.842 -16.454  27.116  1.00  0.00    -0.077 C 
ATOM      7  C   UNL     1     -14.022 -16.083  26.251  1.00  0.00     0.039 C 
ATOM      8  C   UNL     1     -12.388 -17.727  27.051  1.00  0.00    -0.023 CG0
ATOM      9  G   UNL     1     -11.267 -18.301  27.886  1.00  0.00     0.000 G0
ENDBRANCH   5   6
ENDBRANCH   4   5
ENDBRANCH   2   4
BRANCH   1  10
ATOM     10  C   UNL     1     -11.331 -16.249  30.507  1.00  0.00     0.111 C 
BRANCH  10  11
ATOM     11  C   UNL     1     -10.986 -17.708  30.393  1.00  0.00     0.163 C 
ATOM     12  O   UNL     1     -10.179 -18.217  31.217  1.00  0.00    -0.294 OA
BRANCH  11  13
ATOM     13  C   UNL     1     -11.592 -18.565  29.343  1.00  0.00    -0.002 C 
ATOM     14  C   UNL     1     -12.443 -19.571  29.684  1.00  0.00    -0.069 C 
ATOM     15  C   UNL     1     -13.029 -20.486  28.635  1.00  0.00     0.039 C 
ATOM     16  C   UNL     1     -12.868 -19.781  31.120  1.00  0.00     0.039 C 
BRANCH  13  17
ATOM     17  C   UNL     1     -11.248 -18.303  27.880  1.00  0.00     0.066 CG0
ATOM     18  G   UNL     1     -12.395 -17.732  27.079  1.00  0.00     0.000 G0
ENDBRANCH  13  17
ENDBRANCH  11  13
ENDBRANCH  10  11
ENDBRANCH   1  10
TORSDOF 0
ENDMDL
MODEL 5
REMARK VINA RESULT:    -2.786      1.662      4.199
REMARK INTER + INTRA:          -2.997
REMARK INTER:                  -3.583
REMARK INTRA:                   0.587
REMARK UNBOUND:                 0.929
REMARK SMILES CC1=CCC(=C(C)C)C(=O)CC(C)=CCC1
REMARK SMILES IDX 12 1 14 2 13 3 15 4 16 5 2 6 1 7 3 8 11 10 9 11 10 12 5 13
REMARK SMILES IDX 6 14 7 15 8 16 4 17
REMARK H PARENT
REMARK Flexibility Score: 60.00
ROOT
ATOM      1  C   UNL     1     -11.989 -16.911  26.559  1.00  0.00    -0.070 C 
ATOM      2  C   UNL     1     -12.647 -15.734  26.672  1.00  0.00    -0.027 C 
ATOM      3  C   UNL     1     -11.000 -17.065  25.432  1.00  0.00     0.039 C 
ENDROOT
BRANCH   2   4
ATOM      4  C   UNL     1     -13.625 -15.385  27.770  1.00  0.00     0.032 C 
BRANCH   4   5
ATOM      5  C   UNL     1     -12.924 -14.714  28.962  1.00  0.00     0.034 C 
BRANCH   5   6
ATOM      6  C   UNL     1     -13.567 -15.032  30.303  1.00  0.00    -0.077 C 
ATOM      7  C   UNL     1     -14.834 -14.309  30.693  1.00  0.00     0.039 C 
ATOM      8  C   UNL     1     -13.075 -15.948  31.167  1.00  0.00    -0.023 CG0
ATOM      9  G   UNL     1     -11.788 -16.721  30.985  1.00  0.00     0.000 G0
ENDBRANCH   5   6
ENDBRANCH   4   5
ENDBRANCH   2   4
BRANCH   1  10
ATOM     10  C   UNL     1     -12.205 -18.073  27.509  1.00  0.00     0.111 C 
BRANCH  10  11
ATOM     11  C   UNL     1     -11.342 -17.940  28.733  1.00  0.00     0.163 C 
ATOM     12  O   UNL     1     -10.098 -17.784  28.597  1.00  0.00    -0.294 OA
BRANCH  11  13
ATOM     13  C   UNL     1     -11.927 -17.966  30.097  1.00  0.00    -0.002 C 
ATOM     14  C   UNL     1     -12.585 -19.073  30.540  1.00  0.00    -0.069 C 
ATOM     15  C   UNL     1     -13.231 -19.100  31.906  1.00  0.00     0.039 C 
ATOM     16  C   UNL     1     -12.654 -20.329  29.703  1.00  0.00     0.039 C 
BRANCH  13  17
ATOM     17  C   UNL     1     -11.782 -16.740  30.993  1.00  0.00     0.066 CG0
ATOM     18  G   UNL     1     -13.067 -15.968  31.180  1.00  0.00     0.000 G0
ENDBRANCH  13  17
ENDBRANCH  11  13
ENDBRANCH  10  11
ENDBRANCH   1  10
TORSDOF 0
ENDMDL
MODEL 6
REMARK VINA RESULT:    -2.415      1.417      2.046
REMARK INTER + INTRA:          -2.474
REMARK INTER:                  -3.921
REMARK INTRA:                   1.447
REMARK UNBOUND:                 0.929
REMARK SMILES CC1=CCC(=C(C)C)C(=O)CC(C)=CCC1
REMARK SMILES IDX 12 1 14 2 13 3 15 4 16 5 2 6 1 7 3 8 11 10 9 11 10 12 5 13
REMARK SMILES IDX 6 14 7 15 8 16 4 17
REMARK H PARENT
REMARK Flexibility Score: 60.00
ROOT
ATOM      1  C   UNL     1     -10.789 -18.548  29.730  1.00  0.00    -0.070 C 
ATOM      2  C   UNL     1     -10.209 -18.152  28.574  1.00  0.00    -0.027 C 
ATOM      3  C   UNL     1      -9.923 -18.646  30.961  1.00  0.00     0.039 C 
ENDROOT
BRANCH   2   4
ATOM      4  C   UNL     1     -10.933 -17.943  27.264  1.00  0.00     0.032 C 
BRANCH   4   5
ATOM      5  C   UNL     1     -11.314 -16.469  27.056  1.00  0.00     0.034 C 
BRANCH   5   6
ATOM      6  C   UNL     1     -12.787 -16.182  27.308  1.00  0.00    -0.077 C 
ATOM      7  C   UNL     1     -13.736 -16.161  26.134  1.00  0.00     0.039 C 
ATOM      8  C   UNL     1     -13.303 -15.961  28.538  1.00  0.00    -0.023 CG0
ATOM      9  G   UNL     1     -12.507 -15.876  29.820  1.00  0.00     0.000 G0
ENDBRANCH   5   6
ENDBRANCH   4   5
ENDBRANCH   2   4
BRANCH   1  10
ATOM     10  C   UNL     1     -12.260 -18.898  29.840  1.00  0.00     0.111 C 
BRANCH  10  11
ATOM     11  C   UNL     1     -12.903 -18.179  30.993  1.00  0.00     0.163 C 
ATOM     12  O   UNL     1     -13.241 -18.833  32.017  1.00  0.00    -0.294 OA
BRANCH  11  13
ATOM     13  C   UNL     1     -13.130 -16.712  30.959  1.00  0.00    -0.002 C 
ATOM     14  C   UNL     1     -13.873 -16.110  31.927  1.00  0.00    -0.069 C 
ATOM     15  C   UNL     1     -14.158 -14.626  31.881  1.00  0.00     0.039 C 
ATOM     16  C   UNL     1     -14.403 -16.892  33.107  1.00  0.00     0.039 C 
BRANCH  13  17
ATOM     17  C   UNL     1     -12.520 -15.892  29.826  1.00  0.00     0.066 CG0
ATOM     18  G   UNL     1     -13.299 -15.967  28.533  1.00  0.00     0.000 G0
ENDBRANCH  13  17
ENDBRANCH  11  13
ENDBRANCH  10  11
ENDBRANCH   1  10
TORSDOF 0
ENDMDL
MODEL 7
REMARK VINA RESULT:    -2.414      1.698      4.690
REMARK INTER + INTRA:          -2.473
REMARK INTER:                  -3.126
REMARK INTRA:                   0.654
REMARK UNBOUND:                 0.929
REMARK SMILES CC1=CCC(=C(C)C)C(=O)CC(C)=CCC1
REMARK SMILES IDX 12 1 14 2 13 3 15 4 16 5 2 6 1 7 3 8 11 10 9 11 10 12 5 13
REMARK SMILES IDX 6 14 7 15 8 16 4 17
REMARK H PARENT
REMARK Flexibility Score: 60.00
ROOT
ATOM      1  C   UNL     1     -12.580 -15.709  28.196  1.00  0.00    -0.070 C 
ATOM      2  C   UNL     1     -13.658 -15.044  28.672  1.00  0.00    -0.027 C 
ATOM      3  C   UNL     1     -12.740 -16.503  26.924  1.00  0.00     0.039 C 
ENDROOT
BRANCH   2   4
ATOM      4  C   UNL     1     -13.664 -14.157  29.895  1.00  0.00     0.032 C 
BRANCH   4   5
ATOM      5  C   UNL     1     -14.695 -14.628  30.932  1.00  0.00     0.034 C 
BRANCH   5   6
ATOM      6  C   UNL     1     -14.070 -15.254  32.170  1.00  0.00    -0.077 C 
ATOM      7  C   UNL     1     -14.000 -14.443  33.440  1.00  0.00     0.039 C 
ATOM      8  C   UNL     1     -13.585 -16.517  32.202  1.00  0.00    -0.023 CG0
ATOM      9  G   UNL     1     -13.505 -17.455  31.020  1.00  0.00     0.000 G0
ENDBRANCH   5   6
ENDBRANCH   4   5
ENDBRANCH   2   4
BRANCH   1  10
ATOM     10  C   UNL     1     -11.228 -15.693  28.885  1.00  0.00     0.111 C 
BRANCH  10  11
ATOM     11  C   UNL     1     -11.292 -16.385  30.218  1.00  0.00     0.163 C 
ATOM     12  O   UNL     1     -10.648 -15.909  31.192  1.00  0.00    -0.294 OA
BRANCH  11  13
ATOM     13  C   UNL     1     -12.115 -17.605  30.417  1.00  0.00    -0.002 C 
ATOM     14  C   UNL     1     -11.629 -18.826  30.060  1.00  0.00    -0.069 C 
ATOM     15  C   UNL     1     -12.471 -20.072  30.207  1.00  0.00     0.039 C 
ATOM     16  C   UNL     1     -10.216 -18.986  29.548  1.00  0.00     0.039 C 
BRANCH  13  17
ATOM     17  C   UNL     1     -13.508 -17.471  31.024  1.00  0.00     0.066 CG0
ATOM     18  G   UNL     1     -13.574 -16.508  32.186  1.00  0.00     0.000 G0
ENDBRANCH  13  17
ENDBRANCH  11  13
ENDBRANCH  10  11
ENDBRANCH   1  10
TORSDOF 0
ENDMDL
MODEL 8
REMARK VINA RESULT:    -1.616      1.765      3.731
REMARK INTER + INTRA:          -1.348
REMARK INTER:                  -2.198
REMARK INTRA:                   0.849
REMARK UNBOUND:                 0.929
REMARK SMILES CC1=CCC(=C(C)C)C(=O)CC(C)=CCC1
REMARK SMILES IDX 12 1 14 2 13 3 15 4 16 5 2 6 1 7 3 8 11 10 9 11 10 12 5 13
REMARK SMILES IDX 6 14 7 15 8 16 4 17
REMARK H PARENT
REMARK Flexibility Score: 60.00
ROOT
ATOM      1  C   UNL     1     -12.766 -19.250  28.904  1.00  0.00    -0.070 C 
ATOM      2  C   UNL     1     -13.113 -19.447  30.196  1.00  0.00    -0.027 C 
ATOM      3  C   UNL     1     -13.795 -19.537  27.840  1.00  0.00     0.039 C 
ENDROOT
BRANCH   2   4
ATOM      4  C   UNL     1     -12.231 -19.156  31.389  1.00  0.00     0.032 C 
BRANCH   4   5
ATOM      5  C   UNL     1     -11.685 -17.720  31.353  1.00  0.00     0.034 C 
BRANCH   5   6
ATOM      6  C   UNL     1     -12.771 -16.659  31.257  1.00  0.00    -0.077 C 
ATOM      7  C   UNL     1     -13.871 -16.648  32.291  1.00  0.00     0.039 C 
ATOM      8  C   UNL     1     -12.798 -15.704  30.300  1.00  0.00    -0.023 CG0
ATOM      9  G   UNL     1     -11.827 -15.593  29.147  1.00  0.00     0.000 G0
ENDBRANCH   5   6
ENDBRANCH   4   5
ENDBRANCH   2   4
BRANCH   1  10
ATOM     10  C   UNL     1     -11.394 -18.759  28.482  1.00  0.00     0.111 C 
BRANCH  10  11
ATOM     11  C   UNL     1     -11.503 -17.598  27.533  1.00  0.00     0.163 C 
ATOM     12  O   UNL     1     -10.973 -17.681  26.392  1.00  0.00    -0.294 OA
BRANCH  11  13
ATOM     13  C   UNL     1     -12.240 -16.364  27.904  1.00  0.00    -0.002 C 
ATOM     14  C   UNL     1     -13.277 -15.927  27.138  1.00  0.00    -0.069 C 
ATOM     15  C   UNL     1     -14.006 -14.645  27.471  1.00  0.00     0.039 C 
ATOM     16  C   UNL     1     -13.766 -16.729  25.953  1.00  0.00     0.039 C 
BRANCH  13  17
ATOM     17  C   UNL     1     -11.821 -15.595  29.153  1.00  0.00     0.066 CG0
ATOM     18  G   UNL     1     -12.802 -15.713  30.297  1.00  0.00     0.000 G0
ENDBRANCH  13  17
ENDBRANCH  11  13
ENDBRANCH  10  11
ENDBRANCH   1  10
TORSDOF 0
ENDMDL
MODEL 9
REMARK VINA RESULT:    -1.505      1.920      3.754
REMARK INTER + INTRA:          -1.191
REMARK INTER:                  -3.193
REMARK INTRA:                   2.002
REMARK UNBOUND:                 0.929
REMARK SMILES CC1=CCC(=C(C)C)C(=O)CC(C)=CCC1
REMARK SMILES IDX 12 1 14 2 13 3 15 4 16 5 2 6 1 7 3 8 11 10 9 11 10 12 5 13
REMARK SMILES IDX 6 14 7 15 8 16 4 17
REMARK H PARENT
REMARK Flexibility Score: 60.00
ROOT
ATOM      1  C   UNL     1     -12.732 -17.558  27.303  1.00  0.00    -0.070 C 
ATOM      2  C   UNL     1     -13.615 -18.448  27.809  1.00  0.00    -0.027 C 
ATOM      3  C   UNL     1     -13.255 -16.482  26.386  1.00  0.00     0.039 C 
ENDROOT
BRANCH   2   4
ATOM      4  C   UNL     1     -13.278 -19.552  28.786  1.00  0.00     0.032 C 
BRANCH   4   5
ATOM      5  C   UNL     1     -11.792 -19.527  29.176  1.00  0.00     0.034 C 
BRANCH   5   6
ATOM      6  C   UNL     1     -11.553 -19.688  30.670  1.00  0.00    -0.077 C 
ATOM      7  C   UNL     1     -12.122 -20.898  31.372  1.00  0.00     0.039 C 
ATOM      8  C   UNL     1     -10.838 -18.811  31.409  1.00  0.00    -0.023 CG0
ATOM      9  G   UNL     1     -10.250 -17.514  30.902  1.00  0.00     0.000 G0
ENDBRANCH   5   6
ENDBRANCH   4   5
ENDBRANCH   2   4
BRANCH   1  10
ATOM     10  C   UNL     1     -11.248 -17.598  27.614  1.00  0.00     0.111 C 
BRANCH  10  11
ATOM     11  C   UNL     1     -10.872 -16.525  28.597  1.00  0.00     0.163 C 
ATOM     12  O   UNL     1     -10.311 -15.475  28.181  1.00  0.00    -0.294 OA
BRANCH  11  13
ATOM     13  C   UNL     1     -11.166 -16.668  30.046  1.00  0.00    -0.002 C 
ATOM     14  C   UNL     1     -12.259 -16.065  30.587  1.00  0.00    -0.069 C 
ATOM     15  C   UNL     1     -12.547 -16.156  32.067  1.00  0.00     0.039 C 
ATOM     16  C   UNL     1     -13.250 -15.319  29.721  1.00  0.00     0.039 C 
BRANCH  13  17
ATOM     17  C   UNL     1     -10.228 -17.499  30.916  1.00  0.00     0.066 CG0
ATOM     18  G   UNL     1     -10.838 -18.793  31.404  1.00  0.00     0.000 G0
ENDBRANCH  13  17
ENDBRANCH  11  13
ENDBRANCH  10  11
ENDBRANCH   1  10
TORSDOF 0
ENDMDL
