MODEL 1
REMARK VINA RESULT:    -2.632      0.000      0.000
REMARK INTER + INTRA:          -2.632
REMARK INTER:                  -2.632
REMARK INTRA:                   0.000
REMARK UNBOUND:                 0.000
REMARK SMILES CC(=O)[O-]
REMARK SMILES IDX 1 1 2 2 3 3 4 4
REMARK H PARENT
REMARK Flexibility Score: inf
ROOT
ATOM      1  C   UNL     1      17.640  38.319  83.198  1.00  0.00     0.063 C 
ATOM      2  C   UNL     1      18.188  37.521  84.332  1.00  0.00     0.038 C 
ATOM      3  O   UNL     1      19.296  36.935  84.215  1.00  0.00    -0.550 OA
ATOM      4  O   UNL     1      17.502  37.466  85.539  1.00  0.00    -0.550 OA
ENDROOT
TORSDOF 0
ENDMDL
MODEL 2
REMARK VINA RESULT:    -2.609      0.085      1.621
REMARK INTER + INTRA:          -2.609
REMARK INTER:                  -2.609
REMARK INTRA:                   0.000
REMARK UNBOUND:                 0.000
REMARK SMILES CC(=O)[O-]
REMARK SMILES IDX 1 1 2 2 3 3 4 4
REMARK H PARENT
REMARK Flexibility Score: inf
ROOT
ATOM      1  C   UNL     1      17.617  38.321  83.182  1.00  0.00     0.063 C 
ATOM      2  C   UNL     1      18.172  37.576  84.348  1.00  0.00     0.038 C 
ATOM      3  O   UNL     1      17.526  37.521  85.428  1.00  0.00    -0.550 OA
ATOM      4  O   UNL     1      19.378  36.896  84.230  1.00  0.00    -0.550 OA
ENDROOT
TORSDOF 0
ENDMDL
MODEL 3
REMARK VINA RESULT:    -2.557     16.368     16.684
REMARK INTER + INTRA:          -2.557
REMARK INTER:                  -2.557
REMARK INTRA:                   0.000
REMARK UNBOUND:                 0.000
REMARK SMILES CC(=O)[O-]
REMARK SMILES IDX 1 1 2 2 3 3 4 4
REMARK H PARENT
REMARK Flexibility Score: inf
ROOT
ATOM      1  C   UNL     1      17.576  53.891  83.541  1.00  0.00     0.063 C 
ATOM      2  C   UNL     1      16.850  53.973  82.241  1.00  0.00     0.038 C 
ATOM      3  O   UNL     1      17.288  53.360  81.233  1.00  0.00    -0.550 OA
ATOM      4  O   UNL     1      15.659  54.683  82.153  1.00  0.00    -0.550 OA
ENDROOT
TORSDOF 0
ENDMDL
MODEL 4
REMARK VINA RESULT:    -2.510      2.173      2.557
REMARK INTER + INTRA:          -2.510
REMARK INTER:                  -2.510
REMARK INTRA:                   0.000
REMARK UNBOUND:                 0.000
REMARK SMILES CC(=O)[O-]
REMARK SMILES IDX 1 1 2 2 3 3 4 4
REMARK H PARENT
REMARK Flexibility Score: inf
ROOT
ATOM      1  C   UNL     1      17.227  36.974  86.897  1.00  0.00     0.063 C 
ATOM      2  C   UNL     1      18.414  37.653  86.302  1.00  0.00     0.038 C 
ATOM      3  O   UNL     1      19.105  37.068  85.427  1.00  0.00    -0.550 OA
ATOM      4  O   UNL     1      18.730  38.954  86.674  1.00  0.00    -0.550 OA
ENDROOT
TORSDOF 0
ENDMDL
MODEL 5
REMARK VINA RESULT:    -2.495      2.097      2.797
REMARK INTER + INTRA:          -2.495
REMARK INTER:                  -2.495
REMARK INTRA:                   0.000
REMARK UNBOUND:                 0.000
REMARK SMILES CC(=O)[O-]
REMARK SMILES IDX 1 1 2 2 3 3 4 4
REMARK H PARENT
REMARK Flexibility Score: inf
ROOT
ATOM      1  C   UNL     1      17.251  37.000  86.875  1.00  0.00     0.063 C 
ATOM      2  C   UNL     1      18.398  37.675  86.203  1.00  0.00     0.038 C 
ATOM      3  O   UNL     1      18.741  38.835  86.551  1.00  0.00    -0.550 OA
ATOM      4  O   UNL     1      19.125  37.004  85.228  1.00  0.00    -0.550 OA
ENDROOT
TORSDOF 0
ENDMDL
MODEL 6
REMARK VINA RESULT:    -2.474     15.917     16.139
REMARK INTER + INTRA:          -2.474
REMARK INTER:                  -2.474
REMARK INTRA:                   0.000
REMARK UNBOUND:                 0.000
REMARK SMILES CC(=O)[O-]
REMARK SMILES IDX 1 1 2 2 3 3 4 4
REMARK H PARENT
REMARK Flexibility Score: inf
ROOT
ATOM      1  C   UNL     1      19.035  53.121  83.035  1.00  0.00     0.063 C 
ATOM      2  C   UNL     1      17.603  53.481  82.825  1.00  0.00     0.038 C 
ATOM      3  O   UNL     1      16.937  53.994  83.761  1.00  0.00    -0.550 OA
ATOM      4  O   UNL     1      17.016  53.299  81.579  1.00  0.00    -0.550 OA
ENDROOT
TORSDOF 0
ENDMDL
MODEL 7
REMARK VINA RESULT:    -2.469     15.547     15.846
REMARK INTER + INTRA:          -2.469
REMARK INTER:                  -2.469
REMARK INTRA:                   0.000
REMARK UNBOUND:                 0.000
REMARK SMILES CC(=O)[O-]
REMARK SMILES IDX 1 1 2 2 3 3 4 4
REMARK H PARENT
REMARK Flexibility Score: inf
ROOT
ATOM      1  C   UNL     1      16.807  53.595  81.641  1.00  0.00     0.063 C 
ATOM      2  C   UNL     1      17.814  53.235  82.680  1.00  0.00     0.038 C 
ATOM      3  O   UNL     1      17.555  53.413  83.899  1.00  0.00    -0.550 OA
ATOM      4  O   UNL     1      19.020  52.655  82.308  1.00  0.00    -0.550 OA
ENDROOT
TORSDOF 0
ENDMDL
MODEL 8
REMARK VINA RESULT:    -2.341      1.710      1.832
REMARK INTER + INTRA:          -2.341
REMARK INTER:                  -2.341
REMARK INTRA:                   0.000
REMARK UNBOUND:                 0.000
REMARK SMILES CC(=O)[O-]
REMARK SMILES IDX 1 1 2 2 3 3 4 4
REMARK H PARENT
REMARK Flexibility Score: inf
ROOT
ATOM      1  C   UNL     1      18.543  37.379  84.282  1.00  0.00     0.063 C 
ATOM      2  C   UNL     1      18.185  37.749  85.682  1.00  0.00     0.038 C 
ATOM      3  O   UNL     1      18.709  38.758  86.222  1.00  0.00    -0.550 OA
ATOM      4  O   UNL     1      17.232  37.012  86.374  1.00  0.00    -0.550 OA
ENDROOT
TORSDOF 0
ENDMDL
