MODEL 1
REMARK VINA RESULT:    -3.823      0.000      0.000
REMARK INTER + INTRA:          -4.956
REMARK INTER:                  -4.717
REMARK INTRA:                  -0.240
REMARK UNBOUND:                -0.240
REMARK SMILES CCCCCC(=O)[O-]
REMARK SMILES IDX 4 1 5 2 6 3 7 4 8 5 3 6 2 7 1 8
REMARK H PARENT
REMARK Flexibility Score: inf
ROOT
ATOM      1  C   UNL     1      45.407 -49.090 162.983  1.00  0.00     0.006 C 
ENDROOT
BRANCH   1   2
ATOM      2  C   UNL     1      45.017 -47.743 162.355  1.00  0.00     0.053 C 
BRANCH   2   3
ATOM      3  C   UNL     1      43.820 -47.865 161.463  1.00  0.00     0.041 C 
ATOM      4  O   UNL     1      43.963 -48.177 160.251  1.00  0.00    -0.550 OA
ATOM      5  O   UNL     1      42.544 -47.669 161.976  1.00  0.00    -0.550 OA
ENDBRANCH   2   3
ENDBRANCH   1   2
BRANCH   1   6
ATOM      6  C   UNL     1      44.619 -49.454 164.257  1.00  0.00     0.000 C 
BRANCH   6   7
ATOM      7  C   UNL     1      44.255 -48.261 165.158  1.00  0.00    -0.003 C 
ATOM      8  C   UNL     1      42.780 -48.241 165.556  1.00  0.00     0.004 C 
ENDBRANCH   6   7
ENDBRANCH   1   6
TORSDOF 4
ENDMDL
MODEL 2
REMARK VINA RESULT:    -3.796      2.609      3.191
REMARK INTER + INTRA:          -4.924
REMARK INTER:                  -4.764
REMARK INTRA:                  -0.159
REMARK UNBOUND:                -0.240
REMARK SMILES CCCCCC(=O)[O-]
REMARK SMILES IDX 4 1 5 2 6 3 7 4 8 5 3 6 2 7 1 8
REMARK H PARENT
REMARK Flexibility Score: inf
ROOT
ATOM      1  C   UNL     1      44.562 -46.830 162.792  1.00  0.00     0.006 C 
ENDROOT
BRANCH   1   2
ATOM      2  C   UNL     1      44.986 -48.103 162.043  1.00  0.00     0.053 C 
BRANCH   2   3
ATOM      3  C   UNL     1      45.584 -49.122 162.963  1.00  0.00     0.041 C 
ATOM      4  O   UNL     1      46.766 -49.519 162.786  1.00  0.00    -0.550 OA
ATOM      5  O   UNL     1      44.848 -49.609 164.036  1.00  0.00    -0.550 OA
ENDBRANCH   2   3
ENDBRANCH   1   2
BRANCH   1   6
ATOM      6  C   UNL     1      45.666 -46.207 163.672  1.00  0.00     0.000 C 
BRANCH   6   7
ATOM      7  C   UNL     1      45.321 -46.104 165.167  1.00  0.00    -0.003 C 
ATOM      8  C   UNL     1      46.438 -45.469 165.995  1.00  0.00     0.004 C 
ENDBRANCH   6   7
ENDBRANCH   1   6
TORSDOF 4
ENDMDL
MODEL 3
REMARK VINA RESULT:    -3.796      0.807      1.343
REMARK INTER + INTRA:          -4.923
REMARK INTER:                  -4.692
REMARK INTRA:                  -0.231
REMARK UNBOUND:                -0.240
REMARK SMILES CCCCCC(=O)[O-]
REMARK SMILES IDX 4 1 5 2 6 3 7 4 8 5 3 6 2 7 1 8
REMARK H PARENT
REMARK Flexibility Score: inf
ROOT
ATOM      1  C   UNL     1      44.749 -46.475 163.210  1.00  0.00     0.006 C 
ENDROOT
BRANCH   1   2
ATOM      2  C   UNL     1      44.969 -47.647 162.242  1.00  0.00     0.053 C 
BRANCH   2   3
ATOM      3  C   UNL     1      43.781 -47.877 161.360  1.00  0.00     0.041 C 
ATOM      4  O   UNL     1      43.941 -48.202 160.154  1.00  0.00    -0.550 OA
ATOM      5  O   UNL     1      42.496 -47.768 161.878  1.00  0.00    -0.550 OA
ENDBRANCH   2   3
ENDBRANCH   1   2
BRANCH   1   6
ATOM      6  C   UNL     1      44.838 -46.852 164.703  1.00  0.00     0.000 C 
BRANCH   6   7
ATOM      7  C   UNL     1      44.243 -48.225 165.062  1.00  0.00    -0.003 C 
ATOM      8  C   UNL     1      42.775 -48.149 165.478  1.00  0.00     0.004 C 
ENDBRANCH   6   7
ENDBRANCH   1   6
TORSDOF 4
ENDMDL
MODEL 4
REMARK VINA RESULT:    -3.789      3.269      4.419
REMARK INTER + INTRA:          -4.915
REMARK INTER:                  -4.677
REMARK INTRA:                  -0.237
REMARK UNBOUND:                -0.240
REMARK SMILES CCCCCC(=O)[O-]
REMARK SMILES IDX 4 1 5 2 6 3 7 4 8 5 3 6 2 7 1 8
REMARK H PARENT
REMARK Flexibility Score: inf
ROOT
ATOM      1  C   UNL     1      45.067 -46.521 163.016  1.00  0.00     0.006 C 
ENDROOT
BRANCH   1   2
ATOM      2  C   UNL     1      44.946 -46.626 164.544  1.00  0.00     0.053 C 
BRANCH   2   3
ATOM      3  C   UNL     1      46.156 -46.085 165.241  1.00  0.00     0.041 C 
ATOM      4  O   UNL     1      46.027 -45.316 166.230  1.00  0.00    -0.550 OA
ATOM      5  O   UNL     1      47.427 -46.458 164.822  1.00  0.00    -0.550 OA
ENDBRANCH   2   3
ENDBRANCH   1   2
BRANCH   1   6
ATOM      6  C   UNL     1      44.996 -47.872 162.274  1.00  0.00     0.000 C 
BRANCH   6   7
ATOM      7  C   UNL     1      45.470 -49.086 163.092  1.00  0.00    -0.003 C 
ATOM      8  C   UNL     1      46.943 -49.421 162.864  1.00  0.00     0.004 C 
ENDBRANCH   6   7
ENDBRANCH   1   6
TORSDOF 4
ENDMDL
MODEL 5
REMARK VINA RESULT:    -3.740      1.755      3.514
REMARK INTER + INTRA:          -4.854
REMARK INTER:                  -4.643
REMARK INTRA:                  -0.210
REMARK UNBOUND:                -0.240
REMARK SMILES CCCCCC(=O)[O-]
REMARK SMILES IDX 4 1 5 2 6 3 7 4 8 5 3 6 2 7 1 8
REMARK H PARENT
REMARK Flexibility Score: inf
ROOT
ATOM      1  C   UNL     1      45.140 -49.385 164.309  1.00  0.00     0.006 C 
ENDROOT
BRANCH   1   2
ATOM      2  C   UNL     1      44.418 -48.194 164.957  1.00  0.00     0.053 C 
BRANCH   2   3
ATOM      3  C   UNL     1      42.935 -48.393 165.001  1.00  0.00     0.041 C 
ATOM      4  O   UNL     1      42.260 -47.914 165.951  1.00  0.00    -0.550 OA
ATOM      5  O   UNL     1      42.292 -49.076 163.977  1.00  0.00    -0.550 OA
ENDBRANCH   2   3
ENDBRANCH   1   2
BRANCH   1   6
ATOM      6  C   UNL     1      45.664 -49.118 162.882  1.00  0.00     0.000 C 
BRANCH   6   7
ATOM      7  C   UNL     1      45.220 -47.779 162.269  1.00  0.00    -0.003 C 
ATOM      8  C   UNL     1      44.228 -47.948 161.119  1.00  0.00     0.004 C 
ENDBRANCH   6   7
ENDBRANCH   1   6
TORSDOF 4
ENDMDL
MODEL 6
REMARK VINA RESULT:    -3.737      1.367      1.882
REMARK INTER + INTRA:          -4.851
REMARK INTER:                  -4.609
REMARK INTRA:                  -0.242
REMARK UNBOUND:                -0.240
REMARK SMILES CCCCCC(=O)[O-]
REMARK SMILES IDX 4 1 5 2 6 3 7 4 8 5 3 6 2 7 1 8
REMARK H PARENT
REMARK Flexibility Score: inf
ROOT
ATOM      1  C   UNL     1      44.448 -49.495 164.326  1.00  0.00     0.006 C 
ENDROOT
BRANCH   1   2
ATOM      2  C   UNL     1      45.476 -49.001 163.296  1.00  0.00     0.053 C 
BRANCH   2   3
ATOM      3  C   UNL     1      44.949 -47.862 162.479  1.00  0.00     0.041 C 
ATOM      4  O   UNL     1      44.107 -48.074 161.566  1.00  0.00    -0.550 OA
ATOM      5  O   UNL     1      45.361 -46.563 162.746  1.00  0.00    -0.550 OA
ENDBRANCH   2   3
ENDBRANCH   1   2
BRANCH   1   6
ATOM      6  C   UNL     1      44.000 -48.428 165.346  1.00  0.00     0.000 C 
BRANCH   6   7
ATOM      7  C   UNL     1      42.477 -48.292 165.516  1.00  0.00    -0.003 C 
ATOM      8  C   UNL     1      41.703 -48.609 164.237  1.00  0.00     0.004 C 
ENDBRANCH   6   7
ENDBRANCH   1   6
TORSDOF 4
ENDMDL
MODEL 7
REMARK VINA RESULT:    -3.683      6.179      6.908
REMARK INTER + INTRA:          -4.783
REMARK INTER:                  -4.695
REMARK INTRA:                  -0.088
REMARK UNBOUND:                -0.240
REMARK SMILES CCCCCC(=O)[O-]
REMARK SMILES IDX 4 1 5 2 6 3 7 4 8 5 3 6 2 7 1 8
REMARK H PARENT
REMARK Flexibility Score: inf
ROOT
ATOM      1  C   UNL     1      50.119 -46.103 164.753  1.00  0.00     0.006 C 
ENDROOT
BRANCH   1   2
ATOM      2  C   UNL     1      49.121 -47.271 164.762  1.00  0.00     0.053 C 
BRANCH   2   3
ATOM      3  C   UNL     1      47.703 -46.797 164.853  1.00  0.00     0.041 C 
ATOM      4  O   UNL     1      47.432 -45.723 165.452  1.00  0.00    -0.550 OA
ATOM      5  O   UNL     1      46.685 -47.522 164.246  1.00  0.00    -0.550 OA
ENDBRANCH   2   3
ENDBRANCH   1   2
BRANCH   1   6
ATOM      6  C   UNL     1      51.392 -46.343 165.591  1.00  0.00     0.000 C 
BRANCH   6   7
ATOM      7  C   UNL     1      51.916 -47.789 165.575  1.00  0.00    -0.003 C 
ATOM      8  C   UNL     1      53.405 -47.889 165.905  1.00  0.00     0.004 C 
ENDBRANCH   6   7
ENDBRANCH   1   6
TORSDOF 4
ENDMDL
MODEL 8
REMARK VINA RESULT:    -3.670      2.379      3.719
REMARK INTER + INTRA:          -4.767
REMARK INTER:                  -4.524
REMARK INTRA:                  -0.243
REMARK UNBOUND:                -0.240
REMARK SMILES CCCCCC(=O)[O-]
REMARK SMILES IDX 4 1 5 2 6 3 7 4 8 5 3 6 2 7 1 8
REMARK H PARENT
REMARK Flexibility Score: inf
ROOT
ATOM      1  C   UNL     1      44.594 -46.446 163.107  1.00  0.00     0.006 C 
ENDROOT
BRANCH   1   2
ATOM      2  C   UNL     1      45.069 -46.941 164.482  1.00  0.00     0.053 C 
BRANCH   2   3
ATOM      3  C   UNL     1      44.290 -48.131 164.950  1.00  0.00     0.041 C 
ATOM      4  O   UNL     1      43.167 -47.977 165.499  1.00  0.00    -0.550 OA
ATOM      5  O   UNL     1      44.787 -49.412 164.749  1.00  0.00    -0.550 OA
ENDBRANCH   2   3
ENDBRANCH   1   2
BRANCH   1   6
ATOM      6  C   UNL     1      45.046 -47.321 161.920  1.00  0.00     0.000 C 
BRANCH   6   7
ATOM      7  C   UNL     1      43.904 -47.995 161.140  1.00  0.00    -0.003 C 
ATOM      8  C   UNL     1      42.527 -47.726 161.745  1.00  0.00     0.004 C 
ENDBRANCH   6   7
ENDBRANCH   1   6
TORSDOF 4
ENDMDL
MODEL 9
REMARK VINA RESULT:    -3.631      1.490      3.149
REMARK INTER + INTRA:          -4.720
REMARK INTER:                  -4.461
REMARK INTRA:                  -0.259
REMARK UNBOUND:                -0.240
REMARK SMILES CCCCCC(=O)[O-]
REMARK SMILES IDX 4 1 5 2 6 3 7 4 8 5 3 6 2 7 1 8
REMARK H PARENT
REMARK Flexibility Score: inf
ROOT
ATOM      1  C   UNL     1      43.942 -48.224 164.955  1.00  0.00     0.006 C 
ENDROOT
BRANCH   1   2
ATOM      2  C   UNL     1      42.431 -48.348 165.201  1.00  0.00     0.053 C 
BRANCH   2   3
ATOM      3  C   UNL     1      41.686 -48.701 163.951  1.00  0.00     0.041 C 
ATOM      4  O   UNL     1      41.714 -47.928 162.957  1.00  0.00    -0.550 OA
ATOM      5  O   UNL     1      40.990 -49.901 163.869  1.00  0.00    -0.550 OA
ENDBRANCH   2   3
ENDBRANCH   1   2
BRANCH   1   6
ATOM      6  C   UNL     1      44.605 -49.495 164.386  1.00  0.00     0.000 C 
BRANCH   6   7
ATOM      7  C   UNL     1      45.573 -49.253 163.215  1.00  0.00    -0.003 C 
ATOM      8  C   UNL     1      45.240 -47.995 162.415  1.00  0.00     0.004 C 
ENDBRANCH   6   7
ENDBRANCH   1   6
TORSDOF 4
ENDMDL
