MODEL 1
REMARK VINA RESULT:    -1.510      0.000      0.000
REMARK INTER + INTRA:          -2.965
REMARK INTER:                  -2.436
REMARK INTRA:                  -0.529
REMARK UNBOUND:                -0.529
REMARK SMILES C=C(CC[C@@H](C(=O)[O-])[C@H]1[C@H](O)C[C@]2(C)C3=CC[C@@H](C(=C)C)[C@@](C)(CCC(=O)[O-])C3=CC[C@]12C)C(C)C
REMARK SMILES IDX 5 1 9 2 22 3 29 4 18 5 23 6 15 7 30 8 17 9 13 10 16 11 31 12
REMARK SMILES IDX 32 13 12 14 14 15 33 16 10 17 24 18 25 19 26 20 27 21 28 22
REMARK SMILES IDX 19 23 20 24 21 25 11 26 6 28 7 29 8 30 4 31 3 32 2 33 1 34
REMARK SMILES IDX 34 35 35 36 36 37
REMARK H PARENT 11 27
REMARK Flexibility Score: inf
ROOT
ATOM      1  C   UNL     1      99.992 112.166 114.445  1.00  0.00     0.042 C 
ENDROOT
BRANCH   1   2
ATOM      2  C   UNL     1     100.813 112.493 115.747  1.00  0.00     0.034 C 
ATOM      3  C   UNL     1     100.135 114.425 121.325  1.00  0.00    -0.000 C 
ATOM      4  C   UNL     1     100.402 113.859 119.910  1.00  0.00    -0.042 C 
ATOM      5  C   UNL     1     101.385 115.319 121.682  1.00  0.00     0.028 C 
ATOM      6  C   UNL     1     100.036 113.273 122.371  1.00  0.00     0.017 C 
ATOM      7  C   UNL     1     100.967 114.759 118.855  1.00  0.00    -0.042 C 
ATOM      8  C   UNL     1     100.098 112.594 119.562  1.00  0.00    -0.022 C 
ATOM      9  C   UNL     1     101.691 116.392 120.616  1.00  0.00     0.036 C 
ATOM     10  C   UNL     1     100.817 114.421 117.354  1.00  0.00     0.001 C 
ATOM     11  C   UNL     1     101.631 115.873 119.214  1.00  0.00    -0.022 C 
ATOM     12  C   UNL     1     100.500 112.050 118.228  1.00  0.00     0.035 C 
ATOM     13  C   UNL     1     100.131 113.026 117.075  1.00  0.00    -0.014 C 
ATOM     14  C   UNL     1     102.208 114.266 116.717  1.00  0.00     0.044 C 
ATOM     15  C   UNL     1     100.061 115.588 116.651  1.00  0.00     0.017 C 
ATOM     16  C   UNL     1      98.582 113.112 117.042  1.00  0.00     0.013 C 
ATOM     17  C   UNL     1     101.998 113.441 115.456  1.00  0.00     0.119 C 
BRANCH   3  18
ATOM     18  C   UNL     1      98.790 115.234 121.245  1.00  0.00     0.018 C 
BRANCH  18  19
ATOM     19  C   UNL     1      97.919 115.284 122.523  1.00  0.00     0.053 C 
BRANCH  19  20
ATOM     20  C   UNL     1      97.967 116.624 123.203  1.00  0.00     0.041 C 
ATOM     21  O   UNL     1      97.945 116.698 124.460  1.00  0.00    -0.550 OA
ATOM     22  O   UNL     1      98.069 117.784 122.446  1.00  0.00    -0.550 OA
ENDBRANCH  19  20
ENDBRANCH  18  19
ENDBRANCH   3  18
BRANCH   5  23
ATOM     23  C   UNL     1     101.390 115.931 123.090  1.00  0.00    -0.076 C 
ATOM     24  C   UNL     1     101.605 117.250 123.240  1.00  0.00     0.008 C 
ATOM     25  C   UNL     1     100.982 115.129 124.306  1.00  0.00     0.039 C 
ENDBRANCH   5  23
BRANCH  17  26
ATOM     26  O   UNL     1     103.155 112.715 115.132  1.00  0.00    -0.393 OA
ATOM     27  H   UNL     1     103.915 113.187 115.557  1.00  0.00     0.210 HD
ENDBRANCH  17  26
ENDBRANCH   1   2
BRANCH   1  28
ATOM     28  C   UNL     1      99.087 110.950 114.501  1.00  0.00     0.045 C 
ATOM     29  O   UNL     1      99.518 109.828 114.873  1.00  0.00    -0.550 OA
ATOM     30  O   UNL     1      97.776 111.041 114.055  1.00  0.00    -0.550 OA
ENDBRANCH   1  28
BRANCH   1  31
ATOM     31  C   UNL     1     100.836 112.212 113.140  1.00  0.00     0.014 C 
BRANCH  31  32
ATOM     32  C   UNL     1      99.962 112.099 111.865  1.00  0.00     0.031 C 
BRANCH  32  33
ATOM     33  C   UNL     1     100.701 112.510 110.603  1.00  0.00    -0.075 C 
ATOM     34  C   UNL     1     101.446 113.633 110.605  1.00  0.00     0.008 C 
BRANCH  33  35
ATOM     35  C   UNL     1     100.563 111.668 109.338  1.00  0.00     0.008 C 
ATOM     36  C   UNL     1      99.167 111.044 109.234  1.00  0.00     0.012 C 
ATOM     37  C   UNL     1     101.662 110.597 109.263  1.00  0.00     0.012 C 
ENDBRANCH  33  35
ENDBRANCH  32  33
ENDBRANCH  31  32
ENDBRANCH   1  31
TORSDOF 11
ENDMDL
MODEL 2
REMARK VINA RESULT:    -0.727      1.938      2.561
REMARK INTER + INTRA:          -1.702
REMARK INTER:                  -2.720
REMARK INTRA:                   1.018
REMARK UNBOUND:                -0.529
REMARK SMILES C=C(CC[C@@H](C(=O)[O-])[C@H]1[C@H](O)C[C@]2(C)C3=CC[C@@H](C(=C)C)[C@@](C)(CCC(=O)[O-])C3=CC[C@]12C)C(C)C
REMARK SMILES IDX 5 1 9 2 22 3 29 4 18 5 23 6 15 7 30 8 17 9 13 10 16 11 31 12
REMARK SMILES IDX 32 13 12 14 14 15 33 16 10 17 24 18 25 19 26 20 27 21 28 22
REMARK SMILES IDX 19 23 20 24 21 25 11 26 6 28 7 29 8 30 4 31 3 32 2 33 1 34
REMARK SMILES IDX 34 35 35 36 36 37
REMARK H PARENT 11 27
REMARK Flexibility Score: inf
ROOT
ATOM      1  C   UNL     1      99.680 111.567 114.320  1.00  0.00     0.042 C 
ENDROOT
BRANCH   1   2
ATOM      2  C   UNL     1     100.585 112.035 115.520  1.00  0.00     0.034 C 
ATOM      3  C   UNL     1     100.250 114.271 121.015  1.00  0.00    -0.000 C 
ATOM      4  C   UNL     1     100.435 113.635 119.616  1.00  0.00    -0.042 C 
ATOM      5  C   UNL     1     101.454 115.273 121.203  1.00  0.00     0.028 C 
ATOM      6  C   UNL     1     100.333 113.185 122.130  1.00  0.00     0.017 C 
ATOM      7  C   UNL     1     100.835 114.503 118.464  1.00  0.00    -0.042 C 
ATOM      8  C   UNL     1     100.201 112.332 119.372  1.00  0.00    -0.022 C 
ATOM      9  C   UNL     1     101.581 116.295 120.052  1.00  0.00     0.036 C 
ATOM     10  C   UNL     1     100.580 114.059 117.005  1.00  0.00     0.001 C 
ATOM     11  C   UNL     1     101.439 115.683 118.694  1.00  0.00    -0.022 C 
ATOM     12  C   UNL     1     100.525 111.733 118.040  1.00  0.00     0.035 C 
ATOM     13  C   UNL     1      99.982 112.603 116.871  1.00  0.00    -0.014 C 
ATOM     14  C   UNL     1     101.918 113.963 116.252  1.00  0.00     0.044 C 
ATOM     15  C   UNL     1      99.678 115.120 116.308  1.00  0.00     0.017 C 
ATOM     16  C   UNL     1      98.434 112.575 116.977  1.00  0.00     0.013 C 
ATOM     17  C   UNL     1     101.662 113.046 115.066  1.00  0.00     0.119 C 
BRANCH   3  18
ATOM     18  C   UNL     1      98.845 114.974 121.012  1.00  0.00     0.018 C 
BRANCH  18  19
ATOM     19  C   UNL     1      98.046 114.959 122.337  1.00  0.00     0.053 C 
BRANCH  19  20
ATOM     20  C   UNL     1      98.062 116.290 123.037  1.00  0.00     0.041 C 
ATOM     21  O   UNL     1      98.079 117.358 122.369  1.00  0.00    -0.550 OA
ATOM     22  O   UNL     1      98.025 116.345 124.425  1.00  0.00    -0.550 OA
ENDBRANCH  19  20
ENDBRANCH  18  19
ENDBRANCH   3  18
BRANCH   5  23
ATOM     23  C   UNL     1     101.535 115.974 122.566  1.00  0.00    -0.076 C 
ATOM     24  C   UNL     1     101.773 117.297 122.620  1.00  0.00     0.008 C 
ATOM     25  C   UNL     1     101.177 115.258 123.849  1.00  0.00     0.039 C 
ENDBRANCH   5  23
BRANCH  17  26
ATOM     26  O   UNL     1     102.840 112.385 114.679  1.00  0.00    -0.393 OA
ATOM     27  H   UNL     1     103.046 112.688 113.760  1.00  0.00     0.210 HD
ENDBRANCH  17  26
ENDBRANCH   1   2
BRANCH   1  28
ATOM     28  C   UNL     1     100.006 112.148 112.958  1.00  0.00     0.045 C 
ATOM     29  O   UNL     1     100.299 113.364 112.816  1.00  0.00    -0.550 OA
ATOM     30  O   UNL     1      99.900 111.356 111.823  1.00  0.00    -0.550 OA
ENDBRANCH   1  28
BRANCH   1  31
ATOM     31  C   UNL     1      98.157 111.606 114.628  1.00  0.00     0.014 C 
BRANCH  31  32
ATOM     32  C   UNL     1      97.298 111.123 113.431  1.00  0.00     0.031 C 
BRANCH  32  33
ATOM     33  C   UNL     1      96.481 112.238 112.802  1.00  0.00    -0.075 C 
ATOM     34  C   UNL     1      96.520 113.475 113.336  1.00  0.00     0.008 C 
BRANCH  33  35
ATOM     35  C   UNL     1      95.597 111.939 111.595  1.00  0.00     0.008 C 
ATOM     36  C   UNL     1      94.720 113.144 111.234  1.00  0.00     0.012 C 
ATOM     37  C   UNL     1      94.748 110.680 111.828  1.00  0.00     0.012 C 
ENDBRANCH  33  35
ENDBRANCH  32  33
ENDBRANCH  31  32
ENDBRANCH   1  31
TORSDOF 11
ENDMDL
MODEL 3
REMARK VINA RESULT:     0.233      2.789     10.002
REMARK INTER + INTRA:          -0.153
REMARK INTER:                  -0.447
REMARK INTRA:                   0.294
REMARK UNBOUND:                -0.529
REMARK SMILES C=C(CC[C@@H](C(=O)[O-])[C@H]1[C@H](O)C[C@]2(C)C3=CC[C@@H](C(=C)C)[C@@](C)(CCC(=O)[O-])C3=CC[C@]12C)C(C)C
REMARK SMILES IDX 5 1 9 2 22 3 29 4 18 5 23 6 15 7 30 8 17 9 13 10 16 11 31 12
REMARK SMILES IDX 32 13 12 14 14 15 33 16 10 17 24 18 25 19 26 20 27 21 28 22
REMARK SMILES IDX 19 23 20 24 21 25 11 26 6 28 7 29 8 30 4 31 3 32 2 33 1 34
REMARK SMILES IDX 34 35 35 36 36 37
REMARK H PARENT 11 27
REMARK Flexibility Score: inf
ROOT
ATOM      1  C   UNL     1     100.454 112.733 118.171  1.00  0.00     0.042 C 
ENDROOT
BRANCH   1   2
ATOM      2  C   UNL     1     100.277 113.060 116.641  1.00  0.00     0.034 C 
ATOM      3  C   UNL     1      96.625 112.085 112.057  1.00  0.00    -0.000 C 
ATOM      4  C   UNL     1      97.602 112.441 113.202  1.00  0.00    -0.042 C 
ATOM      5  C   UNL     1      97.509 111.939 110.757  1.00  0.00     0.028 C 
ATOM      6  C   UNL     1      95.598 113.234 111.830  1.00  0.00     0.017 C 
ATOM      7  C   UNL     1      98.912 111.722 113.301  1.00  0.00    -0.042 C 
ATOM      8  C   UNL     1      97.306 113.342 114.158  1.00  0.00    -0.022 C 
ATOM      9  C   UNL     1      98.681 110.948 110.925  1.00  0.00     0.036 C 
ATOM     10  C   UNL     1      99.698 111.674 114.630  1.00  0.00     0.001 C 
ATOM     11  C   UNL     1      99.424 111.118 112.212  1.00  0.00    -0.022 C 
ATOM     12  C   UNL     1      98.332 113.755 115.165  1.00  0.00     0.035 C 
ATOM     13  C   UNL     1      99.050 112.527 115.791  1.00  0.00    -0.014 C 
ATOM     14  C   UNL     1     101.078 112.326 114.439  1.00  0.00     0.044 C 
ATOM     15  C   UNL     1      99.891 110.185 115.045  1.00  0.00     0.017 C 
ATOM     16  C   UNL     1      97.975 111.741 116.589  1.00  0.00     0.013 C 
ATOM     17  C   UNL     1     101.548 112.719 115.831  1.00  0.00     0.119 C 
BRANCH   3  18
ATOM     18  C   UNL     1      95.903 110.753 112.473  1.00  0.00     0.018 C 
BRANCH  18  19
ATOM     19  C   UNL     1      94.375 110.675 112.239  1.00  0.00     0.053 C 
BRANCH  19  20
ATOM     20  C   UNL     1      94.025 110.085 110.901  1.00  0.00     0.041 C 
ATOM     21  O   UNL     1      94.424 108.930 110.593  1.00  0.00    -0.550 OA
ATOM     22  O   UNL     1      93.231 110.799 110.013  1.00  0.00    -0.550 OA
ENDBRANCH  19  20
ENDBRANCH  18  19
ENDBRANCH   3  18
BRANCH   5  23
ATOM     23  C   UNL     1      96.744 111.665 109.455  1.00  0.00    -0.076 C 
ATOM     24  C   UNL     1      96.832 110.454 108.877  1.00  0.00     0.008 C 
ATOM     25  C   UNL     1      95.749 112.656 108.894  1.00  0.00     0.039 C 
ENDBRANCH   5  23
BRANCH  17  26
ATOM     26  O   UNL     1     102.419 113.819 115.775  1.00  0.00    -0.393 OA
ATOM     27  H   UNL     1     102.187 114.323 114.955  1.00  0.00     0.210 HD
ENDBRANCH  17  26
ENDBRANCH   1   2
BRANCH   1  28
ATOM     28  C   UNL     1     100.275 111.283 118.580  1.00  0.00     0.045 C 
ATOM     29  O   UNL     1      99.144 110.732 118.562  1.00  0.00    -0.550 OA
ATOM     30  O   UNL     1     101.356 110.563 119.067  1.00  0.00    -0.550 OA
ENDBRANCH   1  28
BRANCH   1  31
ATOM     31  C   UNL     1      99.695 113.709 119.114  1.00  0.00     0.014 C 
BRANCH  31  32
ATOM     32  C   UNL     1      99.830 113.314 120.608  1.00  0.00     0.031 C 
BRANCH  32  33
ATOM     33  C   UNL     1     100.011 114.514 121.521  1.00  0.00    -0.075 C 
ATOM     34  C   UNL     1     101.038 115.361 121.313  1.00  0.00     0.008 C 
BRANCH  33  35
ATOM     35  C   UNL     1      99.050 114.726 122.688  1.00  0.00     0.008 C 
ATOM     36  C   UNL     1      98.089 115.889 122.413  1.00  0.00     0.012 C 
ATOM     37  C   UNL     1      99.815 114.932 124.005  1.00  0.00     0.012 C 
ENDBRANCH  33  35
ENDBRANCH  32  33
ENDBRANCH  31  32
ENDBRANCH   1  31
TORSDOF 11
ENDMDL
MODEL 4
REMARK VINA RESULT:     0.527      2.940      5.643
REMARK INTER + INTRA:           0.322
REMARK INTER:                   1.010
REMARK INTRA:                  -0.688
REMARK UNBOUND:                -0.529
REMARK SMILES C=C(CC[C@@H](C(=O)[O-])[C@H]1[C@H](O)C[C@]2(C)C3=CC[C@@H](C(=C)C)[C@@](C)(CCC(=O)[O-])C3=CC[C@]12C)C(C)C
REMARK SMILES IDX 5 1 9 2 22 3 29 4 18 5 23 6 15 7 30 8 17 9 13 10 16 11 31 12
REMARK SMILES IDX 32 13 12 14 14 15 33 16 10 17 24 18 25 19 26 20 27 21 28 22
REMARK SMILES IDX 19 23 20 24 21 25 11 26 6 28 7 29 8 30 4 31 3 32 2 33 1 34
REMARK SMILES IDX 34 35 35 36 36 37
REMARK H PARENT 11 27
REMARK Flexibility Score: inf
ROOT
ATOM      1  C   UNL     1      97.549 111.980 110.612  1.00  0.00     0.042 C 
ENDROOT
BRANCH   1   2
ATOM      2  C   UNL     1      97.316 112.045 112.167  1.00  0.00     0.034 C 
ATOM      3  C   UNL     1     100.168 113.120 117.267  1.00  0.00    -0.000 C 
ATOM      4  C   UNL     1      99.330 112.882 115.989  1.00  0.00    -0.042 C 
ATOM      5  C   UNL     1      99.575 112.154 118.365  1.00  0.00     0.028 C 
ATOM      6  C   UNL     1     100.013 114.589 117.764  1.00  0.00     0.017 C 
ATOM      7  C   UNL     1      98.970 111.483 115.597  1.00  0.00    -0.042 C 
ATOM      8  C   UNL     1      98.947 113.883 115.173  1.00  0.00    -0.022 C 
ATOM      9  C   UNL     1      99.513 110.680 117.911  1.00  0.00     0.036 C 
ATOM     10  C   UNL     1      98.569 111.139 114.144  1.00  0.00     0.001 C 
ATOM     11  C   UNL     1      98.980 110.507 116.524  1.00  0.00    -0.022 C 
ATOM     12  C   UNL     1      98.022 113.623 114.026  1.00  0.00     0.035 C 
ATOM     13  C   UNL     1      98.476 112.394 113.189  1.00  0.00    -0.014 C 
ATOM     14  C   UNL     1      97.141 110.570 114.122  1.00  0.00     0.044 C 
ATOM     15  C   UNL     1      99.555 110.066 113.593  1.00  0.00     0.017 C 
ATOM     16  C   UNL     1      99.840 112.768 112.550  1.00  0.00     0.013 C 
ATOM     17  C   UNL     1      96.639 110.762 112.699  1.00  0.00     0.119 C 
BRANCH   3  18
ATOM     18  C   UNL     1     101.662 112.802 116.896  1.00  0.00     0.018 C 
BRANCH  18  19
ATOM     19  C   UNL     1     102.394 113.817 115.986  1.00  0.00     0.053 C 
BRANCH  19  20
ATOM     20  C   UNL     1     103.122 114.875 116.767  1.00  0.00     0.041 C 
ATOM     21  O   UNL     1     104.317 114.695 117.119  1.00  0.00    -0.550 OA
ATOM     22  O   UNL     1     102.485 116.071 117.075  1.00  0.00    -0.550 OA
ENDBRANCH  19  20
ENDBRANCH  18  19
ENDBRANCH   3  18
BRANCH   5  23
ATOM     23  C   UNL     1     100.199 112.268 119.764  1.00  0.00    -0.076 C 
ATOM     24  C   UNL     1     101.167 111.410 120.131  1.00  0.00     0.008 C 
ATOM     25  C   UNL     1      99.886 113.430 120.680  1.00  0.00     0.039 C 
ENDBRANCH   5  23
BRANCH  17  26
ATOM     26  O   UNL     1      95.240 110.884 112.672  1.00  0.00    -0.393 OA
ATOM     27  H   UNL     1      94.988 111.435 113.455  1.00  0.00     0.210 HD
ENDBRANCH  17  26
ENDBRANCH   1   2
BRANCH   1  28
ATOM     28  C   UNL     1      96.310 111.849 109.745  1.00  0.00     0.045 C 
ATOM     29  O   UNL     1      95.513 112.809 109.590  1.00  0.00    -0.550 OA
ATOM     30  O   UNL     1      95.992 110.624 109.175  1.00  0.00    -0.550 OA
ENDBRANCH   1  28
BRANCH   1  31
ATOM     31  C   UNL     1      98.674 110.996 110.183  1.00  0.00     0.014 C 
BRANCH  31  32
ATOM     32  C   UNL     1      99.447 111.488 108.933  1.00  0.00     0.031 C 
BRANCH  32  33
ATOM     33  C   UNL     1     100.867 111.923 109.250  1.00  0.00    -0.075 C 
ATOM     34  C   UNL     1     101.800 110.993 109.536  1.00  0.00     0.008 C 
BRANCH  33  35
ATOM     35  C   UNL     1     101.215 113.408 109.277  1.00  0.00     0.008 C 
ATOM     36  C   UNL     1     101.768 113.826 110.644  1.00  0.00     0.012 C 
ATOM     37  C   UNL     1     100.006 114.268 108.876  1.00  0.00     0.012 C 
ENDBRANCH  33  35
ENDBRANCH  32  33
ENDBRANCH  31  32
ENDBRANCH   1  31
TORSDOF 11
ENDMDL
MODEL 5
REMARK VINA RESULT:     1.104      2.095      9.339
REMARK INTER + INTRA:           1.252
REMARK INTER:                   0.104
REMARK INTRA:                   1.148
REMARK UNBOUND:                -0.529
REMARK SMILES C=C(CC[C@@H](C(=O)[O-])[C@H]1[C@H](O)C[C@]2(C)C3=CC[C@@H](C(=C)C)[C@@](C)(CCC(=O)[O-])C3=CC[C@]12C)C(C)C
REMARK SMILES IDX 5 1 9 2 22 3 29 4 18 5 23 6 15 7 30 8 17 9 13 10 16 11 31 12
REMARK SMILES IDX 32 13 12 14 14 15 33 16 10 17 24 18 25 19 26 20 27 21 28 22
REMARK SMILES IDX 19 23 20 24 21 25 11 26 6 28 7 29 8 30 4 31 3 32 2 33 1 34
REMARK SMILES IDX 34 35 35 36 36 37
REMARK H PARENT 11 27
REMARK Flexibility Score: inf
ROOT
ATOM      1  C   UNL     1     100.358 113.536 120.737  1.00  0.00     0.042 C 
ENDROOT
BRANCH   1   2
ATOM      2  C   UNL     1     100.830 112.828 119.413  1.00  0.00     0.034 C 
ATOM      3  C   UNL     1      99.986 112.904 113.531  1.00  0.00    -0.000 C 
ATOM      4  C   UNL     1     100.315 112.851 115.042  1.00  0.00    -0.042 C 
ATOM      5  C   UNL     1     100.076 111.417 113.011  1.00  0.00     0.028 C 
ATOM      6  C   UNL     1     101.040 113.760 112.767  1.00  0.00     0.017 C 
ATOM      7  C   UNL     1      99.729 111.759 115.882  1.00  0.00    -0.042 C 
ATOM      8  C   UNL     1     101.070 113.781 115.656  1.00  0.00    -0.022 C 
ATOM      9  C   UNL     1      99.200 110.435 113.818  1.00  0.00     0.036 C 
ATOM     10  C   UNL     1      99.619 111.905 117.417  1.00  0.00     0.001 C 
ATOM     11  C   UNL     1      99.304 110.623 115.299  1.00  0.00    -0.022 C 
ATOM     12  C   UNL     1     101.476 113.615 117.087  1.00  0.00     0.035 C 
ATOM     13  C   UNL     1     100.268 113.228 117.985  1.00  0.00    -0.014 C 
ATOM     14  C   UNL     1     100.428 110.791 118.103  1.00  0.00     0.044 C 
ATOM     15  C   UNL     1      98.121 111.773 117.826  1.00  0.00     0.017 C 
ATOM     16  C   UNL     1      99.293 114.435 117.965  1.00  0.00     0.013 C 
ATOM     17  C   UNL     1     100.713 111.290 119.511  1.00  0.00     0.119 C 
BRANCH   3  18
ATOM     18  C   UNL     1      98.549 113.526 113.401  1.00  0.00     0.018 C 
BRANCH  18  19
ATOM     19  C   UNL     1      97.359 112.659 113.876  1.00  0.00     0.053 C 
BRANCH  19  20
ATOM     20  C   UNL     1      96.204 112.685 112.914  1.00  0.00     0.041 C 
ATOM     21  O   UNL     1      95.624 113.772 112.648  1.00  0.00    -0.550 OA
ATOM     22  O   UNL     1      95.794 111.514 112.289  1.00  0.00    -0.550 OA
ENDBRANCH  19  20
ENDBRANCH  18  19
ENDBRANCH   3  18
BRANCH   5  23
ATOM     23  C   UNL     1      99.867 111.222 111.503  1.00  0.00    -0.076 C 
ATOM     24  C   UNL     1      98.619 111.206 111.002  1.00  0.00     0.008 C 
ATOM     25  C   UNL     1     101.027 111.227 110.533  1.00  0.00     0.039 C 
ENDBRANCH   5  23
BRANCH  17  26
ATOM     26  O   UNL     1     101.898 110.728 120.013  1.00  0.00    -0.393 OA
ATOM     27  H   UNL     1     102.435 110.452 119.229  1.00  0.00     0.210 HD
ENDBRANCH  17  26
ENDBRANCH   1   2
BRANCH   1  28
ATOM     28  C   UNL     1      98.861 113.649 120.949  1.00  0.00     0.045 C 
ATOM     29  O   UNL     1      98.156 114.424 120.252  1.00  0.00    -0.550 OA
ATOM     30  O   UNL     1      98.254 112.955 121.987  1.00  0.00    -0.550 OA
ENDBRANCH   1  28
BRANCH   1  31
ATOM     31  C   UNL     1     101.098 114.871 121.034  1.00  0.00     0.014 C 
BRANCH  31  32
ATOM     32  C   UNL     1     101.051 115.252 122.537  1.00  0.00     0.031 C 
BRANCH  32  33
ATOM     33  C   UNL     1     101.110 116.752 122.768  1.00  0.00    -0.075 C 
ATOM     34  C   UNL     1     102.217 117.437 122.417  1.00  0.00     0.008 C 
BRANCH  33  35
ATOM     35  C   UNL     1      99.931 117.462 123.427  1.00  0.00     0.008 C 
ATOM     36  C   UNL     1      98.678 116.579 123.426  1.00  0.00     0.012 C 
ATOM     37  C   UNL     1      99.660 118.820 122.763  1.00  0.00     0.012 C 
ENDBRANCH  33  35
ENDBRANCH  32  33
ENDBRANCH  31  32
ENDBRANCH   1  31
TORSDOF 11
ENDMDL
MODEL 6
REMARK VINA RESULT:     1.143      2.906      5.861
REMARK INTER + INTRA:           1.315
REMARK INTER:                   0.578
REMARK INTRA:                   0.737
REMARK UNBOUND:                -0.529
REMARK SMILES C=C(CC[C@@H](C(=O)[O-])[C@H]1[C@H](O)C[C@]2(C)C3=CC[C@@H](C(=C)C)[C@@](C)(CCC(=O)[O-])C3=CC[C@]12C)C(C)C
REMARK SMILES IDX 5 1 9 2 22 3 29 4 18 5 23 6 15 7 30 8 17 9 13 10 16 11 31 12
REMARK SMILES IDX 32 13 12 14 14 15 33 16 10 17 24 18 25 19 26 20 27 21 28 22
REMARK SMILES IDX 19 23 20 24 21 25 11 26 6 28 7 29 8 30 4 31 3 32 2 33 1 34
REMARK SMILES IDX 34 35 35 36 36 37
REMARK H PARENT 11 27
REMARK Flexibility Score: inf
ROOT
ATOM      1  C   UNL     1      98.343 111.530 110.653  1.00  0.00     0.042 C 
ENDROOT
BRANCH   1   2
ATOM      2  C   UNL     1      97.947 111.935 112.122  1.00  0.00     0.034 C 
ATOM      3  C   UNL     1     100.329 113.656 117.286  1.00  0.00    -0.000 C 
ATOM      4  C   UNL     1      99.616 113.271 115.968  1.00  0.00    -0.042 C 
ATOM      5  C   UNL     1      99.478 113.014 118.449  1.00  0.00     0.028 C 
ATOM      6  C   UNL     1     100.339 115.203 117.477  1.00  0.00     0.017 C 
ATOM      7  C   UNL     1      99.098 111.877 115.794  1.00  0.00    -0.042 C 
ATOM      8  C   UNL     1      99.481 114.126 114.936  1.00  0.00    -0.022 C 
ATOM      9  C   UNL     1      99.249 111.498 118.269  1.00  0.00     0.036 C 
ATOM     10  C   UNL     1      98.818 111.300 114.388  1.00  0.00     0.001 C 
ATOM     11  C   UNL     1      98.857 111.115 116.877  1.00  0.00    -0.022 C 
ATOM     12  C   UNL     1      98.665 113.757 113.738  1.00  0.00     0.035 C 
ATOM     13  C   UNL     1      99.022 112.337 113.215  1.00  0.00    -0.014 C 
ATOM     14  C   UNL     1      97.333 110.919 114.271  1.00  0.00     0.044 C 
ATOM     15  C   UNL     1      99.689 110.023 114.189  1.00  0.00     0.017 C 
ATOM     16  C   UNL     1     100.490 112.402 112.716  1.00  0.00     0.013 C 
ATOM     17  C   UNL     1      97.030 110.880 112.781  1.00  0.00     0.119 C 
BRANCH   3  18
ATOM     18  C   UNL     1     101.792 113.088 117.193  1.00  0.00     0.018 C 
BRANCH  18  19
ATOM     19  C   UNL     1     102.788 113.847 116.285  1.00  0.00     0.053 C 
BRANCH  19  20
ATOM     20  C   UNL     1     103.583 114.879 117.035  1.00  0.00     0.041 C 
ATOM     21  O   UNL     1     104.730 114.601 117.475  1.00  0.00    -0.550 OA
ATOM     22  O   UNL     1     103.066 116.156 117.218  1.00  0.00    -0.550 OA
ENDBRANCH  19  20
ENDBRANCH  18  19
ENDBRANCH   3  18
BRANCH   5  23
ATOM     23  C   UNL     1      99.948 113.330 119.875  1.00  0.00    -0.076 C 
ATOM     24  C   UNL     1      99.593 114.494 120.449  1.00  0.00     0.008 C 
ATOM     25  C   UNL     1     100.651 112.297 120.727  1.00  0.00     0.039 C 
ENDBRANCH   5  23
BRANCH  17  26
ATOM     26  O   UNL     1      95.677 111.167 112.536  1.00  0.00    -0.393 OA
ATOM     27  H   UNL     1      95.162 110.373 112.825  1.00  0.00     0.210 HD
ENDBRANCH  17  26
ENDBRANCH   1   2
BRANCH   1  28
ATOM     28  C   UNL     1      99.825 111.521 110.328  1.00  0.00     0.045 C 
ATOM     29  O   UNL     1     100.365 112.472 109.707  1.00  0.00    -0.550 OA
ATOM     30  O   UNL     1     100.596 110.410 110.640  1.00  0.00    -0.550 OA
ENDBRANCH   1  28
BRANCH   1  31
ATOM     31  C   UNL     1      97.504 112.242 109.555  1.00  0.00     0.014 C 
BRANCH  31  32
ATOM     32  C   UNL     1      96.462 111.299 108.900  1.00  0.00     0.031 C 
BRANCH  32  33
ATOM     33  C   UNL     1      95.030 111.750 109.131  1.00  0.00    -0.075 C 
ATOM     34  C   UNL     1      94.789 112.994 109.590  1.00  0.00     0.008 C 
BRANCH  33  35
ATOM     35  C   UNL     1      93.882 110.778 108.875  1.00  0.00     0.008 C 
ATOM     36  C   UNL     1      92.522 111.470 109.031  1.00  0.00     0.012 C 
ATOM     37  C   UNL     1      93.988 109.543 109.782  1.00  0.00     0.012 C 
ENDBRANCH  33  35
ENDBRANCH  32  33
ENDBRANCH  31  32
ENDBRANCH   1  31
TORSDOF 11
ENDMDL
MODEL 7
REMARK VINA RESULT:     1.422      1.944      9.129
REMARK INTER + INTRA:           1.766
REMARK INTER:                   1.791
REMARK INTRA:                  -0.025
REMARK UNBOUND:                -0.529
REMARK SMILES C=C(CC[C@@H](C(=O)[O-])[C@H]1[C@H](O)C[C@]2(C)C3=CC[C@@H](C(=C)C)[C@@](C)(CCC(=O)[O-])C3=CC[C@]12C)C(C)C
REMARK SMILES IDX 5 1 9 2 22 3 29 4 18 5 23 6 15 7 30 8 17 9 13 10 16 11 31 12
REMARK SMILES IDX 32 13 12 14 14 15 33 16 10 17 24 18 25 19 26 20 27 21 28 22
REMARK SMILES IDX 19 23 20 24 21 25 11 26 6 28 7 29 8 30 4 31 3 32 2 33 1 34
REMARK SMILES IDX 34 35 35 36 36 37
REMARK H PARENT 11 27
REMARK Flexibility Score: inf
ROOT
ATOM      1  C   UNL     1     101.194 114.780 120.565  1.00  0.00     0.042 C 
ENDROOT
BRANCH   1   2
ATOM      2  C   UNL     1     100.826 114.942 119.043  1.00  0.00     0.034 C 
ATOM      3  C   UNL     1      99.167 111.790 114.287  1.00  0.00    -0.000 C 
ATOM      4  C   UNL     1      99.539 112.699 115.483  1.00  0.00    -0.042 C 
ATOM      5  C   UNL     1      99.850 112.434 113.018  1.00  0.00     0.028 C 
ATOM      6  C   UNL     1      97.625 111.773 114.064  1.00  0.00     0.017 C 
ATOM      7  C   UNL     1     100.938 113.217 115.604  1.00  0.00    -0.042 C 
ATOM      8  C   UNL     1      98.665 113.010 116.460  1.00  0.00    -0.022 C 
ATOM      9  C   UNL     1     101.366 112.666 113.194  1.00  0.00     0.036 C 
ATOM     10  C   UNL     1     101.492 113.710 116.960  1.00  0.00     0.001 C 
ATOM     11  C   UNL     1     101.727 113.270 114.515  1.00  0.00    -0.022 C 
ATOM     12  C   UNL     1      99.025 114.002 117.520  1.00  0.00     0.035 C 
ATOM     13  C   UNL     1     100.427 113.712 118.127  1.00  0.00    -0.014 C 
ATOM     14  C   UNL     1     101.897 115.189 116.848  1.00  0.00     0.044 C 
ATOM     15  C   UNL     1     102.748 112.863 117.326  1.00  0.00     0.017 C 
ATOM     16  C   UNL     1     100.324 112.344 118.852  1.00  0.00     0.013 C 
ATOM     17  C   UNL     1     101.911 115.726 118.270  1.00  0.00     0.119 C 
BRANCH   3  18
ATOM     18  C   UNL     1      99.707 110.353 114.625  1.00  0.00     0.018 C 
BRANCH  18  19
ATOM     19  C   UNL     1      98.823 109.462 115.530  1.00  0.00     0.053 C 
BRANCH  19  20
ATOM     20  C   UNL     1      99.114 109.654 116.992  1.00  0.00     0.041 C 
ATOM     21  O   UNL     1     100.301 109.612 117.413  1.00  0.00    -0.550 OA
ATOM     22  O   UNL     1      98.077 109.910 117.880  1.00  0.00    -0.550 OA
ENDBRANCH  19  20
ENDBRANCH  18  19
ENDBRANCH   3  18
BRANCH   5  23
ATOM     23  C   UNL     1      99.554 111.746 111.678  1.00  0.00    -0.076 C 
ATOM     24  C   UNL     1      98.282 111.474 111.338  1.00  0.00     0.008 C 
ATOM     25  C   UNL     1     100.635 111.524 110.644  1.00  0.00     0.039 C 
ENDBRANCH   5  23
BRANCH  17  26
ATOM     26  O   UNL     1     101.645 117.104 118.290  1.00  0.00    -0.393 OA
ATOM     27  H   UNL     1     101.212 117.298 119.159  1.00  0.00     0.210 HD
ENDBRANCH  17  26
ENDBRANCH   1   2
BRANCH   1  28
ATOM     28  C   UNL     1     100.225 113.981 121.415  1.00  0.00     0.045 C 
ATOM     29  O   UNL     1     100.626 113.071 122.186  1.00  0.00    -0.550 OA
ATOM     30  O   UNL     1      98.859 114.187 121.289  1.00  0.00    -0.550 OA
ENDBRANCH   1  28
BRANCH   1  31
ATOM     31  C   UNL     1     101.625 116.107 121.253  1.00  0.00     0.014 C 
BRANCH  31  32
ATOM     32  C   UNL     1     101.268 116.134 122.761  1.00  0.00     0.031 C 
BRANCH  32  33
ATOM     33  C   UNL     1     100.502 117.382 123.164  1.00  0.00    -0.075 C 
ATOM     34  C   UNL     1     101.179 118.486 123.542  1.00  0.00     0.008 C 
BRANCH  33  35
ATOM     35  C   UNL     1      98.977 117.363 123.173  1.00  0.00     0.008 C 
ATOM     36  C   UNL     1      98.406 118.685 123.701  1.00  0.00     0.012 C 
ATOM     37  C   UNL     1      98.442 116.165 123.971  1.00  0.00     0.012 C 
ENDBRANCH  33  35
ENDBRANCH  32  33
ENDBRANCH  31  32
ENDBRANCH   1  31
TORSDOF 11
ENDMDL
