MODEL 1
REMARK VINA RESULT:    -4.137      0.000      0.000
REMARK INTER + INTRA:          -4.137
REMARK INTER:                  -4.137
REMARK INTRA:                   0.000
REMARK UNBOUND:                 0.000
REMARK SMILES CC1=CC(=O)[C@@H]2C[C@H]1C2(C)C
REMARK SMILES IDX 1 1 2 2 3 3 4 4 5 5 6 6 7 7 8 8 9 9 10 10 11 11
REMARK H PARENT
REMARK Flexibility Score: inf
ROOT
ATOM      1  C   UNL     1      34.946  32.298  25.278  1.00  0.00     0.040 C 
ATOM      2  C   UNL     1      34.434  31.857  26.613  1.00  0.00    -0.066 C 
ATOM      3  C   UNL     1      35.125  32.116  27.757  1.00  0.00     0.047 C 
ATOM      4  C   UNL     1      34.492  31.650  29.034  1.00  0.00     0.159 C 
ATOM      5  O   UNL     1      35.013  31.864  30.159  1.00  0.00    -0.295 OA
ATOM      6  C   UNL     1      33.170  30.900  28.872  1.00  0.00     0.067 C 
ATOM      7  C   UNL     1      33.436  29.909  27.718  1.00  0.00     0.021 C 
ATOM      8  C   UNL     1      33.111  31.075  26.758  1.00  0.00     0.022 C 
ATOM      9  C   UNL     1      32.260  31.703  27.899  1.00  0.00    -0.019 C 
ATOM     10  C   UNL     1      32.230  33.252  28.026  1.00  0.00     0.012 C 
ATOM     11  C   UNL     1      30.799  31.187  27.897  1.00  0.00     0.012 C 
ENDROOT
TORSDOF 0
ENDMDL
MODEL 2
REMARK VINA RESULT:    -4.005      1.769      3.325
REMARK INTER + INTRA:          -4.005
REMARK INTER:                  -4.005
REMARK INTRA:                   0.000
REMARK UNBOUND:                 0.000
REMARK SMILES CC1=CC(=O)[C@@H]2C[C@H]1C2(C)C
REMARK SMILES IDX 1 1 2 2 3 3 4 4 5 5 6 6 7 7 8 8 9 9 10 10 11 11
REMARK H PARENT
REMARK Flexibility Score: inf
ROOT
ATOM      1  C   UNL     1      32.284  33.466  30.695  1.00  0.00     0.040 C 
ATOM      2  C   UNL     1      32.765  32.910  29.392  1.00  0.00    -0.066 C 
ATOM      3  C   UNL     1      33.462  33.678  28.509  1.00  0.00     0.047 C 
ATOM      4  C   UNL     1      33.917  32.997  27.253  1.00  0.00     0.159 C 
ATOM      5  O   UNL     1      34.601  33.588  26.378  1.00  0.00    -0.295 OA
ATOM      6  C   UNL     1      33.492  31.536  27.111  1.00  0.00     0.067 C 
ATOM      7  C   UNL     1      32.000  31.534  27.512  1.00  0.00     0.021 C 
ATOM      8  C   UNL     1      32.484  31.450  28.977  1.00  0.00     0.022 C 
ATOM      9  C   UNL     1      33.795  30.800  28.448  1.00  0.00    -0.019 C 
ATOM     10  C   UNL     1      35.125  31.124  29.184  1.00  0.00     0.012 C 
ATOM     11  C   UNL     1      33.676  29.261  28.314  1.00  0.00     0.012 C 
ENDROOT
TORSDOF 0
ENDMDL
MODEL 3
REMARK VINA RESULT:    -4.001     14.784     17.268
REMARK INTER + INTRA:          -4.001
REMARK INTER:                  -4.001
REMARK INTRA:                   0.000
REMARK UNBOUND:                 0.000
REMARK SMILES CC1=CC(=O)[C@@H]2C[C@H]1C2(C)C
REMARK SMILES IDX 1 1 2 2 3 3 4 4 5 5 6 6 7 7 8 8 9 9 10 10 11 11
REMARK H PARENT
REMARK Flexibility Score: inf
ROOT
ATOM      1  C   UNL     1      14.876  30.005  29.408  1.00  0.00     0.040 C 
ATOM      2  C   UNL     1      15.671  31.125  30.002  1.00  0.00    -0.066 C 
ATOM      3  C   UNL     1      15.295  31.719  31.169  1.00  0.00     0.047 C 
ATOM      4  C   UNL     1      16.191  32.808  31.678  1.00  0.00     0.159 C 
ATOM      5  O   UNL     1      15.973  33.405  32.763  1.00  0.00    -0.295 OA
ATOM      6  C   UNL     1      17.389  33.138  30.787  1.00  0.00     0.067 C 
ATOM      7  C   UNL     1      16.793  33.209  29.364  1.00  0.00     0.021 C 
ATOM      8  C   UNL     1      16.942  31.672  29.318  1.00  0.00     0.022 C 
ATOM      9  C   UNL     1      18.079  31.808  30.372  1.00  0.00    -0.019 C 
ATOM     10  C   UNL     1      18.229  30.689  31.440  1.00  0.00     0.012 C 
ATOM     11  C   UNL     1      19.464  32.042  29.716  1.00  0.00     0.012 C 
ENDROOT
TORSDOF 0
ENDMDL
MODEL 4
REMARK VINA RESULT:    -3.964     15.213     16.944
REMARK INTER + INTRA:          -3.964
REMARK INTER:                  -3.964
REMARK INTRA:                   0.000
REMARK UNBOUND:                 0.000
REMARK SMILES CC1=CC(=O)[C@@H]2C[C@H]1C2(C)C
REMARK SMILES IDX 1 1 2 2 3 3 4 4 5 5 6 6 7 7 8 8 9 9 10 10 11 11
REMARK H PARENT
REMARK Flexibility Score: inf
ROOT
ATOM      1  C   UNL     1      16.435  33.421  33.125  1.00  0.00     0.040 C 
ATOM      2  C   UNL     1      16.891  32.875  31.809  1.00  0.00    -0.066 C 
ATOM      3  C   UNL     1      18.214  32.810  31.490  1.00  0.00     0.047 C 
ATOM      4  C   UNL     1      18.546  32.214  30.155  1.00  0.00     0.159 C 
ATOM      5  O   UNL     1      19.731  32.064  29.762  1.00  0.00    -0.295 OA
ATOM      6  C   UNL     1      17.343  31.801  29.307  1.00  0.00     0.067 C 
ATOM      7  C   UNL     1      16.373  32.998  29.415  1.00  0.00     0.021 C 
ATOM      8  C   UNL     1      15.891  32.376  30.745  1.00  0.00     0.022 C 
ATOM      9  C   UNL     1      16.359  30.994  30.202  1.00  0.00    -0.019 C 
ATOM     10  C   UNL     1      16.949  29.970  31.211  1.00  0.00     0.012 C 
ATOM     11  C   UNL     1      15.258  30.283  29.375  1.00  0.00     0.012 C 
ENDROOT
TORSDOF 0
ENDMDL
MODEL 5
REMARK VINA RESULT:    -3.948     15.027     16.442
REMARK INTER + INTRA:          -3.948
REMARK INTER:                  -3.948
REMARK INTRA:                   0.000
REMARK UNBOUND:                 0.000
REMARK SMILES CC1=CC(=O)[C@@H]2C[C@H]1C2(C)C
REMARK SMILES IDX 1 1 2 2 3 3 4 4 5 5 6 6 7 7 8 8 9 9 10 10 11 11
REMARK H PARENT
REMARK Flexibility Score: inf
ROOT
ATOM      1  C   UNL     1      19.271  29.808  28.762  1.00  0.00     0.040 C 
ATOM      2  C   UNL     1      18.256  30.789  29.259  1.00  0.00    -0.066 C 
ATOM      3  C   UNL     1      16.980  30.406  29.538  1.00  0.00     0.047 C 
ATOM      4  C   UNL     1      16.066  31.475  30.059  1.00  0.00     0.159 C 
ATOM      5  O   UNL     1      14.875  31.238  30.389  1.00  0.00    -0.295 OA
ATOM      6  C   UNL     1      16.683  32.869  30.161  1.00  0.00     0.067 C 
ATOM      7  C   UNL     1      17.426  33.054  28.820  1.00  0.00     0.021 C 
ATOM      8  C   UNL     1      18.599  32.280  29.463  1.00  0.00     0.022 C 
ATOM      9  C   UNL     1      18.072  32.747  30.851  1.00  0.00    -0.019 C 
ATOM     10  C   UNL     1      18.215  31.776  32.056  1.00  0.00     0.012 C 
ATOM     11  C   UNL     1      18.647  34.125  31.266  1.00  0.00     0.012 C 
ENDROOT
TORSDOF 0
ENDMDL
MODEL 6
REMARK VINA RESULT:    -3.924     14.241     16.101
REMARK INTER + INTRA:          -3.924
REMARK INTER:                  -3.924
REMARK INTRA:                   0.000
REMARK UNBOUND:                 0.000
REMARK SMILES CC1=CC(=O)[C@@H]2C[C@H]1C2(C)C
REMARK SMILES IDX 1 1 2 2 3 3 4 4 5 5 6 6 7 7 8 8 9 9 10 10 11 11
REMARK H PARENT
REMARK Flexibility Score: inf
ROOT
ATOM      1  C   UNL     1      20.001  34.113  29.757  1.00  0.00     0.040 C 
ATOM      2  C   UNL     1      18.939  33.059  29.751  1.00  0.00    -0.066 C 
ATOM      3  C   UNL     1      19.206  31.788  29.340  1.00  0.00     0.047 C 
ATOM      4  C   UNL     1      18.067  30.815  29.410  1.00  0.00     0.159 C 
ATOM      5  O   UNL     1      18.198  29.604  29.096  1.00  0.00    -0.295 OA
ATOM      6  C   UNL     1      16.739  31.398  29.892  1.00  0.00     0.067 C 
ATOM      7  C   UNL     1      16.598  32.720  29.106  1.00  0.00     0.021 C 
ATOM      8  C   UNL     1      17.491  33.360  30.192  1.00  0.00     0.022 C 
ATOM      9  C   UNL     1      17.004  32.249  31.167  1.00  0.00    -0.019 C 
ATOM     10  C   UNL     1      18.008  31.705  32.222  1.00  0.00     0.012 C 
ATOM     11  C   UNL     1      15.695  32.639  31.898  1.00  0.00     0.012 C 
ENDROOT
TORSDOF 0
ENDMDL
MODEL 7
REMARK VINA RESULT:    -3.904      1.783      2.385
REMARK INTER + INTRA:          -3.904
REMARK INTER:                  -3.904
REMARK INTRA:                   0.000
REMARK UNBOUND:                 0.000
REMARK SMILES CC1=CC(=O)[C@@H]2C[C@H]1C2(C)C
REMARK SMILES IDX 1 1 2 2 3 3 4 4 5 5 6 6 7 7 8 8 9 9 10 10 11 11
REMARK H PARENT
REMARK Flexibility Score: inf
ROOT
ATOM      1  C   UNL     1      34.454  33.853  26.788  1.00  0.00     0.040 C 
ATOM      2  C   UNL     1      33.742  32.753  27.510  1.00  0.00    -0.066 C 
ATOM      3  C   UNL     1      34.200  31.471  27.476  1.00  0.00     0.047 C 
ATOM      4  C   UNL     1      33.417  30.466  28.267  1.00  0.00     0.159 C 
ATOM      5  O   UNL     1      33.760  29.259  28.345  1.00  0.00    -0.295 OA
ATOM      6  C   UNL     1      32.174  31.012  28.970  1.00  0.00     0.067 C 
ATOM      7  C   UNL     1      31.483  31.882  27.897  1.00  0.00     0.021 C 
ATOM      8  C   UNL     1      32.450  33.012  28.314  1.00  0.00     0.022 C 
ATOM      9  C   UNL     1      32.560  32.327  29.707  1.00  0.00    -0.019 C 
ATOM     10  C   UNL     1      33.925  32.384  30.449  1.00  0.00     0.012 C 
ATOM     11  C   UNL     1      31.455  32.800  30.685  1.00  0.00     0.012 C 
ENDROOT
TORSDOF 0
ENDMDL
MODEL 8
REMARK VINA RESULT:    -3.888     14.848     16.375
REMARK INTER + INTRA:          -3.888
REMARK INTER:                  -3.888
REMARK INTRA:                   0.000
REMARK UNBOUND:                 0.000
REMARK SMILES CC1=CC(=O)[C@@H]2C[C@H]1C2(C)C
REMARK SMILES IDX 1 1 2 2 3 3 4 4 5 5 6 6 7 7 8 8 9 9 10 10 11 11
REMARK H PARENT
REMARK Flexibility Score: inf
ROOT
ATOM      1  C   UNL     1      14.916  30.382  29.712  1.00  0.00     0.040 C 
ATOM      2  C   UNL     1      16.260  31.038  29.710  1.00  0.00    -0.066 C 
ATOM      3  C   UNL     1      16.401  32.363  29.428  1.00  0.00     0.047 C 
ATOM      4  C   UNL     1      17.796  32.910  29.490  1.00  0.00     0.159 C 
ATOM      5  O   UNL     1      18.050  34.125  29.288  1.00  0.00    -0.295 OA
ATOM      6  C   UNL     1      18.884  31.888  29.817  1.00  0.00     0.067 C 
ATOM      7  C   UNL     1      18.552  30.678  28.916  1.00  0.00     0.021 C 
ATOM      8  C   UNL     1      17.551  30.247  30.011  1.00  0.00     0.022 C 
ATOM      9  C   UNL     1      18.417  31.038  31.034  1.00  0.00    -0.019 C 
ATOM     10  C   UNL     1      17.694  31.761  32.205  1.00  0.00     0.012 C 
ATOM     11  C   UNL     1      19.562  30.178  31.626  1.00  0.00     0.012 C 
ENDROOT
TORSDOF 0
ENDMDL
MODEL 9
REMARK VINA RESULT:    -3.838     13.871     15.455
REMARK INTER + INTRA:          -3.838
REMARK INTER:                  -3.838
REMARK INTRA:                   0.000
REMARK UNBOUND:                 0.000
REMARK SMILES CC1=CC(=O)[C@@H]2C[C@H]1C2(C)C
REMARK SMILES IDX 1 1 2 2 3 3 4 4 5 5 6 6 7 7 8 8 9 9 10 10 11 11
REMARK H PARENT
REMARK Flexibility Score: inf
ROOT
ATOM      1  C   UNL     1      19.186  29.374  28.252  1.00  0.00     0.040 C 
ATOM      2  C   UNL     1      18.934  30.416  29.295  1.00  0.00    -0.066 C 
ATOM      3  C   UNL     1      19.922  31.257  29.708  1.00  0.00     0.047 C 
ATOM      4  C   UNL     1      19.536  32.279  30.736  1.00  0.00     0.159 C 
ATOM      5  O   UNL     1      20.349  33.136  31.168  1.00  0.00    -0.295 OA
ATOM      6  C   UNL     1      18.088  32.206  31.218  1.00  0.00     0.067 C 
ATOM      7  C   UNL     1      17.850  30.702  31.476  1.00  0.00     0.021 C 
ATOM      8  C   UNL     1      17.552  30.579  29.965  1.00  0.00     0.022 C 
ATOM      9  C   UNL     1      17.157  32.084  29.978  1.00  0.00    -0.019 C 
ATOM     10  C   UNL     1      17.485  32.941  28.723  1.00  0.00     0.012 C 
ATOM     11  C   UNL     1      15.665  32.298  30.337  1.00  0.00     0.012 C 
ENDROOT
TORSDOF 0
ENDMDL
