MODEL 1
REMARK VINA RESULT:    -5.170      0.000      0.000
REMARK INTER + INTRA:         -10.372
REMARK INTER:                  -9.402
REMARK INTRA:                  -0.970
REMARK UNBOUND:                -0.970
REMARK SMILES CCCCCCCCCCCCCCCC(=O)[O-]
REMARK SMILES IDX 9 1 10 2 11 3 12 4 13 5 14 6 15 7 16 8 17 9 18 10 8 11 7 12
REMARK SMILES IDX 6 13 5 14 4 15 3 16 2 17 1 18
REMARK H PARENT
REMARK Flexibility Score: inf
ROOT
ATOM      1  C   UNL     1      83.408  60.678  10.043  1.00  0.00     0.000 C 
ENDROOT
BRANCH   1   2
ATOM      2  C   UNL     1      84.458  61.028  11.104  1.00  0.00     0.000 C 
BRANCH   2   3
ATOM      3  C   UNL     1      85.314  59.804  11.460  1.00  0.00     0.000 C 
BRANCH   3   4
ATOM      4  C   UNL     1      85.514  59.648  12.983  1.00  0.00     0.000 C 
BRANCH   4   5
ATOM      5  C   UNL     1      84.450  60.377  13.826  1.00  0.00     0.000 C 
BRANCH   5   6
ATOM      6  C   UNL     1      84.901  60.766  15.247  1.00  0.00     0.006 C 
BRANCH   6   7
ATOM      7  C   UNL     1      85.932  61.907  15.294  1.00  0.00     0.053 C 
BRANCH   7   8
ATOM      8  C   UNL     1      85.327  63.188  15.777  1.00  0.00     0.041 C 
ATOM      9  O   UNL     1      84.857  63.268  16.943  1.00  0.00    -0.550 OA
ATOM     10  O   UNL     1      85.250  64.284  14.928  1.00  0.00    -0.550 OA
ENDBRANCH   7   8
ENDBRANCH   6   7
ENDBRANCH   5   6
ENDBRANCH   4   5
ENDBRANCH   3   4
ENDBRANCH   2   3
ENDBRANCH   1   2
BRANCH   1  11
ATOM     11  C   UNL     1      82.667  59.383  10.408  1.00  0.00     0.000 C 
BRANCH  11  12
ATOM     12  C   UNL     1      81.346  59.645  11.150  1.00  0.00    -0.000 C 
BRANCH  12  13
ATOM     13  C   UNL     1      80.127  59.083  10.403  1.00  0.00    -0.000 C 
BRANCH  13  14
ATOM     14  C   UNL     1      80.155  57.546  10.387  1.00  0.00    -0.000 C 
BRANCH  14  15
ATOM     15  C   UNL     1      78.803  56.933  10.795  1.00  0.00    -0.000 C 
BRANCH  15  16
ATOM     16  C   UNL     1      77.727  57.036   9.690  1.00  0.00    -0.000 C 
BRANCH  16  17
ATOM     17  C   UNL     1      78.129  56.341   8.378  1.00  0.00    -0.003 C 
ATOM     18  C   UNL     1      78.273  54.829   8.528  1.00  0.00     0.004 C 
ENDBRANCH  16  17
ENDBRANCH  15  16
ENDBRANCH  14  15
ENDBRANCH  13  14
ENDBRANCH  12  13
ENDBRANCH  11  12
ENDBRANCH   1  11
TORSDOF 14
ENDMDL
MODEL 2
REMARK VINA RESULT:    -5.023      5.141      8.289
REMARK INTER + INTRA:         -10.104
REMARK INTER:                  -8.656
REMARK INTRA:                  -1.448
REMARK UNBOUND:                -0.970
REMARK SMILES CCCCCCCCCCCCCCCC(=O)[O-]
REMARK SMILES IDX 9 1 10 2 11 3 12 4 13 5 14 6 15 7 16 8 17 9 18 10 8 11 7 12
REMARK SMILES IDX 6 13 5 14 4 15 3 16 2 17 1 18
REMARK H PARENT
REMARK Flexibility Score: inf
ROOT
ATOM      1  C   UNL     1      84.309  58.358  10.159  1.00  0.00     0.000 C 
ENDROOT
BRANCH   1   2
ATOM      2  C   UNL     1      83.426  59.612  10.178  1.00  0.00     0.000 C 
BRANCH   2   3
ATOM      3  C   UNL     1      82.149  59.376  10.998  1.00  0.00     0.000 C 
BRANCH   3   4
ATOM      4  C   UNL     1      80.907  60.030  10.355  1.00  0.00     0.000 C 
BRANCH   4   5
ATOM      5  C   UNL     1      79.723  59.062  10.168  1.00  0.00     0.000 C 
BRANCH   5   6
ATOM      6  C   UNL     1      79.985  57.616  10.634  1.00  0.00     0.006 C 
BRANCH   6   7
ATOM      7  C   UNL     1      78.736  56.719  10.645  1.00  0.00     0.053 C 
BRANCH   7   8
ATOM      8  C   UNL     1      78.333  56.304   9.264  1.00  0.00     0.041 C 
ATOM      9  O   UNL     1      77.362  56.865   8.691  1.00  0.00    -0.550 OA
ATOM     10  O   UNL     1      79.009  55.274   8.623  1.00  0.00    -0.550 OA
ENDBRANCH   7   8
ENDBRANCH   6   7
ENDBRANCH   5   6
ENDBRANCH   4   5
ENDBRANCH   3   4
ENDBRANCH   2   3
ENDBRANCH   1   2
BRANCH   1  11
ATOM     11  C   UNL     1      84.703  57.984   8.723  1.00  0.00     0.000 C 
BRANCH  11  12
ATOM     12  C   UNL     1      85.688  58.984   8.098  1.00  0.00    -0.000 C 
BRANCH  12  13
ATOM     13  C   UNL     1      86.827  59.370   9.054  1.00  0.00    -0.000 C 
BRANCH  13  14
ATOM     14  C   UNL     1      88.180  58.873   8.523  1.00  0.00    -0.000 C 
BRANCH  14  15
ATOM     15  C   UNL     1      88.688  57.637   9.289  1.00  0.00    -0.000 C 
BRANCH  15  16
ATOM     16  C   UNL     1      87.918  57.373  10.603  1.00  0.00    -0.000 C 
BRANCH  16  17
ATOM     17  C   UNL     1      87.365  55.942  10.710  1.00  0.00    -0.003 C 
ATOM     18  C   UNL     1      87.219  55.258   9.352  1.00  0.00     0.004 C 
ENDBRANCH  16  17
ENDBRANCH  15  16
ENDBRANCH  14  15
ENDBRANCH  13  14
ENDBRANCH  12  13
ENDBRANCH  11  12
ENDBRANCH   1  11
TORSDOF 14
ENDMDL
MODEL 3
REMARK VINA RESULT:    -5.010      3.134      4.277
REMARK INTER + INTRA:         -10.080
REMARK INTER:                  -8.806
REMARK INTRA:                  -1.274
REMARK UNBOUND:                -0.970
REMARK SMILES CCCCCCCCCCCCCCCC(=O)[O-]
REMARK SMILES IDX 9 1 10 2 11 3 12 4 13 5 14 6 15 7 16 8 17 9 18 10 8 11 7 12
REMARK SMILES IDX 6 13 5 14 4 15 3 16 2 17 1 18
REMARK H PARENT
REMARK Flexibility Score: inf
ROOT
ATOM      1  C   UNL     1      80.025  59.283  10.400  1.00  0.00     0.000 C 
ENDROOT
BRANCH   1   2
ATOM      2  C   UNL     1      81.459  58.827  10.691  1.00  0.00     0.000 C 
BRANCH   2   3
ATOM      3  C   UNL     1      82.230  59.894  11.480  1.00  0.00     0.000 C 
BRANCH   3   4
ATOM      4  C   UNL     1      83.089  60.796  10.568  1.00  0.00     0.000 C 
BRANCH   4   5
ATOM      5  C   UNL     1      84.487  61.103  11.137  1.00  0.00     0.000 C 
BRANCH   5   6
ATOM      6  C   UNL     1      84.844  60.343  12.430  1.00  0.00     0.006 C 
BRANCH   6   7
ATOM      7  C   UNL     1      86.099  59.461  12.321  1.00  0.00     0.053 C 
BRANCH   7   8
ATOM      8  C   UNL     1      86.116  58.669  11.050  1.00  0.00     0.041 C 
ATOM      9  O   UNL     1      87.035  58.844  10.207  1.00  0.00    -0.550 OA
ATOM     10  O   UNL     1      85.099  57.763  10.782  1.00  0.00    -0.550 OA
ENDBRANCH   7   8
ENDBRANCH   6   7
ENDBRANCH   5   6
ENDBRANCH   4   5
ENDBRANCH   3   4
ENDBRANCH   2   3
ENDBRANCH   1   2
BRANCH   1  11
ATOM     11  C   UNL     1      79.121  58.085  10.073  1.00  0.00     0.000 C 
BRANCH  11  12
ATOM     12  C   UNL     1      79.292  56.924  11.065  1.00  0.00    -0.000 C 
BRANCH  12  13
ATOM     13  C   UNL     1      79.072  55.551  10.413  1.00  0.00    -0.000 C 
BRANCH  13  14
ATOM     14  C   UNL     1      80.112  55.295   9.310  1.00  0.00    -0.000 C 
BRANCH  14  15
ATOM     15  C   UNL     1      79.458  54.912   7.969  1.00  0.00    -0.000 C 
BRANCH  15  16
ATOM     16  C   UNL     1      77.913  54.948   8.010  1.00  0.00    -0.000 C 
BRANCH  16  17
ATOM     17  C   UNL     1      77.323  56.309   7.603  1.00  0.00    -0.003 C 
ATOM     18  C   UNL     1      78.102  56.980   6.475  1.00  0.00     0.004 C 
ENDBRANCH  16  17
ENDBRANCH  15  16
ENDBRANCH  14  15
ENDBRANCH  13  14
ENDBRANCH  12  13
ENDBRANCH  11  12
ENDBRANCH   1  11
TORSDOF 14
ENDMDL
MODEL 4
REMARK VINA RESULT:    -5.006      1.880      3.564
REMARK INTER + INTRA:         -10.074
REMARK INTER:                  -8.948
REMARK INTRA:                  -1.126
REMARK UNBOUND:                -0.970
REMARK SMILES CCCCCCCCCCCCCCCC(=O)[O-]
REMARK SMILES IDX 9 1 10 2 11 3 12 4 13 5 14 6 15 7 16 8 17 9 18 10 8 11 7 12
REMARK SMILES IDX 6 13 5 14 4 15 3 16 2 17 1 18
REMARK H PARENT
REMARK Flexibility Score: inf
ROOT
ATOM      1  C   UNL     1      80.794  58.885  10.773  1.00  0.00     0.000 C 
ENDROOT
BRANCH   1   2
ATOM      2  C   UNL     1      81.231  60.279  10.306  1.00  0.00     0.000 C 
BRANCH   2   3
ATOM      3  C   UNL     1      82.630  60.627  10.836  1.00  0.00     0.000 C 
BRANCH   3   4
ATOM      4  C   UNL     1      83.744  60.302   9.818  1.00  0.00     0.000 C 
BRANCH   4   5
ATOM      5  C   UNL     1      84.697  59.182  10.278  1.00  0.00     0.000 C 
BRANCH   5   6
ATOM      6  C   UNL     1      85.864  59.648  11.170  1.00  0.00     0.006 C 
BRANCH   6   7
ATOM      7  C   UNL     1      85.778  59.166  12.628  1.00  0.00     0.053 C 
BRANCH   7   8
ATOM      8  C   UNL     1      85.145  60.190  13.518  1.00  0.00     0.041 C 
ATOM      9  O   UNL     1      85.188  61.410  13.211  1.00  0.00    -0.550 OA
ATOM     10  O   UNL     1      84.537  59.800  14.704  1.00  0.00    -0.550 OA
ENDBRANCH   7   8
ENDBRANCH   6   7
ENDBRANCH   5   6
ENDBRANCH   4   5
ENDBRANCH   3   4
ENDBRANCH   2   3
ENDBRANCH   1   2
BRANCH   1  11
ATOM     11  C   UNL     1      79.541  58.419  10.018  1.00  0.00     0.000 C 
BRANCH  11  12
ATOM     12  C   UNL     1      79.161  56.965  10.339  1.00  0.00    -0.000 C 
BRANCH  12  13
ATOM     13  C   UNL     1      77.818  56.552   9.718  1.00  0.00    -0.000 C 
BRANCH  13  14
ATOM     14  C   UNL     1      77.742  56.980   8.243  1.00  0.00    -0.000 C 
BRANCH  14  15
ATOM     15  C   UNL     1      78.203  55.864   7.288  1.00  0.00    -0.000 C 
BRANCH  15  16
ATOM     16  C   UNL     1      77.916  54.443   7.824  1.00  0.00    -0.000 C 
BRANCH  16  17
ATOM     17  C   UNL     1      79.183  53.590   8.004  1.00  0.00    -0.003 C 
ATOM     18  C   UNL     1      80.469  54.385   7.794  1.00  0.00     0.004 C 
ENDBRANCH  16  17
ENDBRANCH  15  16
ENDBRANCH  14  15
ENDBRANCH  13  14
ENDBRANCH  12  13
ENDBRANCH  11  12
ENDBRANCH   1  11
TORSDOF 14
ENDMDL
MODEL 5
REMARK VINA RESULT:    -4.980      4.021      5.317
REMARK INTER + INTRA:         -10.026
REMARK INTER:                  -8.608
REMARK INTRA:                  -1.417
REMARK UNBOUND:                -0.970
REMARK SMILES CCCCCCCCCCCCCCCC(=O)[O-]
REMARK SMILES IDX 9 1 10 2 11 3 12 4 13 5 14 6 15 7 16 8 17 9 18 10 8 11 7 12
REMARK SMILES IDX 6 13 5 14 4 15 3 16 2 17 1 18
REMARK H PARENT
REMARK Flexibility Score: inf
ROOT
ATOM      1  C   UNL     1      80.712  59.808  10.229  1.00  0.00     0.000 C 
ENDROOT
BRANCH   1   2
ATOM      2  C   UNL     1      81.863  59.744  11.241  1.00  0.00     0.000 C 
BRANCH   2   3
ATOM      3  C   UNL     1      83.103  60.482  10.715  1.00  0.00     0.000 C 
BRANCH   3   4
ATOM      4  C   UNL     1      84.322  59.548  10.560  1.00  0.00     0.000 C 
BRANCH   4   5
ATOM      5  C   UNL     1      84.675  59.226   9.095  1.00  0.00     0.000 C 
BRANCH   5   6
ATOM      6  C   UNL     1      85.046  57.755   8.823  1.00  0.00     0.006 C 
BRANCH   6   7
ATOM      7  C   UNL     1      83.978  56.741   9.268  1.00  0.00     0.053 C 
BRANCH   7   8
ATOM      8  C   UNL     1      84.498  55.803  10.312  1.00  0.00     0.041 C 
ATOM      9  O   UNL     1      83.905  54.715  10.539  1.00  0.00    -0.550 OA
ATOM     10  O   UNL     1      85.618  56.144  11.058  1.00  0.00    -0.550 OA
ENDBRANCH   7   8
ENDBRANCH   6   7
ENDBRANCH   5   6
ENDBRANCH   4   5
ENDBRANCH   3   4
ENDBRANCH   2   3
ENDBRANCH   1   2
BRANCH   1  11
ATOM     11  C   UNL     1      79.778  58.599  10.381  1.00  0.00     0.000 C 
BRANCH  11  12
ATOM     12  C   UNL     1      80.540  57.286  10.620  1.00  0.00    -0.000 C 
BRANCH  12  13
ATOM     13  C   UNL     1      79.644  56.176  11.191  1.00  0.00    -0.000 C 
BRANCH  13  14
ATOM     14  C   UNL     1      78.497  55.846  10.222  1.00  0.00    -0.000 C 
BRANCH  14  15
ATOM     15  C   UNL     1      78.986  55.074   8.982  1.00  0.00    -0.000 C 
BRANCH  15  16
ATOM     16  C   UNL     1      78.035  55.201   7.770  1.00  0.00    -0.000 C 
BRANCH  16  17
ATOM     17  C   UNL     1      77.460  56.616   7.590  1.00  0.00    -0.003 C 
ATOM     18  C   UNL     1      77.857  57.254   6.261  1.00  0.00     0.004 C 
ENDBRANCH  16  17
ENDBRANCH  15  16
ENDBRANCH  14  15
ENDBRANCH  13  14
ENDBRANCH  12  13
ENDBRANCH  11  12
ENDBRANCH   1  11
TORSDOF 14
ENDMDL
MODEL 6
REMARK VINA RESULT:    -4.969      2.760      4.701
REMARK INTER + INTRA:         -10.006
REMARK INTER:                  -8.651
REMARK INTRA:                  -1.355
REMARK UNBOUND:                -0.970
REMARK SMILES CCCCCCCCCCCCCCCC(=O)[O-]
REMARK SMILES IDX 9 1 10 2 11 3 12 4 13 5 14 6 15 7 16 8 17 9 18 10 8 11 7 12
REMARK SMILES IDX 6 13 5 14 4 15 3 16 2 17 1 18
REMARK H PARENT
REMARK Flexibility Score: inf
ROOT
ATOM      1  C   UNL     1      80.171  56.934  10.363  1.00  0.00     0.000 C 
ENDROOT
BRANCH   1   2
ATOM      2  C   UNL     1      81.164  58.039  10.742  1.00  0.00     0.000 C 
BRANCH   2   3
ATOM      3  C   UNL     1      80.528  59.429  10.593  1.00  0.00     0.000 C 
BRANCH   3   4
ATOM      4  C   UNL     1      81.561  60.512  10.213  1.00  0.00     0.000 C 
BRANCH   4   5
ATOM      5  C   UNL     1      83.015  60.004  10.201  1.00  0.00     0.000 C 
BRANCH   5   6
ATOM      6  C   UNL     1      84.001  60.837  11.045  1.00  0.00     0.006 C 
BRANCH   6   7
ATOM      7  C   UNL     1      85.480  60.475  10.830  1.00  0.00     0.053 C 
BRANCH   7   8
ATOM      8  C   UNL     1      85.930  59.387  11.755  1.00  0.00     0.041 C 
ATOM      9  O   UNL     1      85.603  59.414  12.971  1.00  0.00    -0.550 OA
ATOM     10  O   UNL     1      86.737  58.361  11.282  1.00  0.00    -0.550 OA
ENDBRANCH   7   8
ENDBRANCH   6   7
ENDBRANCH   5   6
ENDBRANCH   4   5
ENDBRANCH   3   4
ENDBRANCH   2   3
ENDBRANCH   1   2
BRANCH   1  11
ATOM     11  C   UNL     1      78.729  57.460  10.378  1.00  0.00     0.000 C 
BRANCH  11  12
ATOM     12  C   UNL     1      77.760  56.561   9.594  1.00  0.00    -0.000 C 
BRANCH  12  13
ATOM     13  C   UNL     1      77.778  56.845   8.084  1.00  0.00    -0.000 C 
BRANCH  13  14
ATOM     14  C   UNL     1      78.172  55.586   7.295  1.00  0.00    -0.000 C 
BRANCH  14  15
ATOM     15  C   UNL     1      78.158  54.320   8.171  1.00  0.00    -0.000 C 
BRANCH  15  16
ATOM     16  C   UNL     1      79.314  53.344   7.853  1.00  0.00    -0.000 C 
BRANCH  16  17
ATOM     17  C   UNL     1      80.502  53.466   8.823  1.00  0.00    -0.003 C 
ATOM     18  C   UNL     1      81.643  54.310   8.261  1.00  0.00     0.004 C 
ENDBRANCH  16  17
ENDBRANCH  15  16
ENDBRANCH  14  15
ENDBRANCH  13  14
ENDBRANCH  12  13
ENDBRANCH  11  12
ENDBRANCH   1  11
TORSDOF 14
ENDMDL
MODEL 7
REMARK VINA RESULT:    -4.902      3.428      5.370
REMARK INTER + INTRA:          -9.885
REMARK INTER:                  -8.214
REMARK INTRA:                  -1.671
REMARK UNBOUND:                -0.970
REMARK SMILES CCCCCCCCCCCCCCCC(=O)[O-]
REMARK SMILES IDX 9 1 10 2 11 3 12 4 13 5 14 6 15 7 16 8 17 9 18 10 8 11 7 12
REMARK SMILES IDX 6 13 5 14 4 15 3 16 2 17 1 18
REMARK H PARENT
REMARK Flexibility Score: inf
ROOT
ATOM      1  C   UNL     1      81.811  54.916  10.628  1.00  0.00     0.000 C 
ENDROOT
BRANCH   1   2
ATOM      2  C   UNL     1      83.205  54.277  10.639  1.00  0.00     0.000 C 
BRANCH   2   3
ATOM      3  C   UNL     1      84.295  55.322  10.361  1.00  0.00     0.000 C 
BRANCH   3   4
ATOM      4  C   UNL     1      84.002  56.155   9.095  1.00  0.00     0.000 C 
BRANCH   4   5
ATOM      5  C   UNL     1      84.634  57.560   9.117  1.00  0.00     0.000 C 
BRANCH   5   6
ATOM      6  C   UNL     1      84.216  58.442  10.309  1.00  0.00     0.006 C 
BRANCH   6   7
ATOM      7  C   UNL     1      82.699  58.663  10.432  1.00  0.00     0.053 C 
BRANCH   7   8
ATOM      8  C   UNL     1      82.376  59.966  11.096  1.00  0.00     0.041 C 
ATOM      9  O   UNL     1      82.463  60.077  12.348  1.00  0.00    -0.550 OA
ATOM     10  O   UNL     1      81.945  61.046  10.337  1.00  0.00    -0.550 OA
ENDBRANCH   7   8
ENDBRANCH   6   7
ENDBRANCH   5   6
ENDBRANCH   4   5
ENDBRANCH   3   4
ENDBRANCH   2   3
ENDBRANCH   1   2
BRANCH   1  11
ATOM     11  C   UNL     1      80.784  53.987   9.965  1.00  0.00     0.000 C 
BRANCH  11  12
ATOM     12  C   UNL     1      80.972  53.886   8.443  1.00  0.00    -0.000 C 
BRANCH  12  13
ATOM     13  C   UNL     1      79.662  53.573   7.704  1.00  0.00    -0.000 C 
BRANCH  13  14
ATOM     14  C   UNL     1      78.467  54.246   8.399  1.00  0.00    -0.000 C 
BRANCH  14  15
ATOM     15  C   UNL     1      77.788  55.298   7.503  1.00  0.00    -0.000 C 
BRANCH  15  16
ATOM     16  C   UNL     1      77.783  56.715   8.121  1.00  0.00    -0.000 C 
BRANCH  16  17
ATOM     17  C   UNL     1      77.830  56.712   9.658  1.00  0.00    -0.003 C 
ATOM     18  C   UNL     1      79.059  57.425  10.216  1.00  0.00     0.004 C 
ENDBRANCH  16  17
ENDBRANCH  15  16
ENDBRANCH  14  15
ENDBRANCH  13  14
ENDBRANCH  12  13
ENDBRANCH  11  12
ENDBRANCH   1  11
TORSDOF 14
ENDMDL
MODEL 8
REMARK VINA RESULT:    -4.900      4.947      9.146
REMARK INTER + INTRA:          -9.880
REMARK INTER:                  -8.864
REMARK INTRA:                  -1.016
REMARK UNBOUND:                -0.970
REMARK SMILES CCCCCCCCCCCCCCCC(=O)[O-]
REMARK SMILES IDX 9 1 10 2 11 3 12 4 13 5 14 6 15 7 16 8 17 9 18 10 8 11 7 12
REMARK SMILES IDX 6 13 5 14 4 15 3 16 2 17 1 18
REMARK H PARENT
REMARK Flexibility Score: inf
ROOT
ATOM      1  C   UNL     1      79.561  57.406  10.362  1.00  0.00     0.000 C 
ENDROOT
BRANCH   1   2
ATOM      2  C   UNL     1      78.178  56.745  10.316  1.00  0.00     0.000 C 
BRANCH   2   3
ATOM      3  C   UNL     1      77.555  56.865   8.917  1.00  0.00     0.000 C 
BRANCH   3   4
ATOM      4  C   UNL     1      78.273  55.982   7.875  1.00  0.00     0.000 C 
BRANCH   4   5
ATOM      5  C   UNL     1      78.005  54.475   8.049  1.00  0.00     0.000 C 
BRANCH   5   6
ATOM      6  C   UNL     1      79.240  53.570   7.870  1.00  0.00     0.006 C 
BRANCH   6   7
ATOM      7  C   UNL     1      80.414  53.911   8.804  1.00  0.00     0.053 C 
BRANCH   7   8
ATOM      8  C   UNL     1      80.962  52.692   9.479  1.00  0.00     0.041 C 
ATOM      9  O   UNL     1      81.984  52.778  10.210  1.00  0.00    -0.550 OA
ATOM     10  O   UNL     1      80.366  51.455   9.274  1.00  0.00    -0.550 OA
ENDBRANCH   7   8
ENDBRANCH   6   7
ENDBRANCH   5   6
ENDBRANCH   4   5
ENDBRANCH   3   4
ENDBRANCH   2   3
ENDBRANCH   1   2
BRANCH   1  11
ATOM     11  C   UNL     1      79.455  58.923  10.147  1.00  0.00     0.000 C 
BRANCH  11  12
ATOM     12  C   UNL     1      80.789  59.649  10.376  1.00  0.00    -0.000 C 
BRANCH  12  13
ATOM     13  C   UNL     1      81.937  58.687  10.716  1.00  0.00    -0.000 C 
BRANCH  13  14
ATOM     14  C   UNL     1      83.300  59.378  10.548  1.00  0.00    -0.000 C 
BRANCH  14  15
ATOM     15  C   UNL     1      83.163  60.902  10.370  1.00  0.00    -0.000 C 
BRANCH  15  16
ATOM     16  C   UNL     1      84.498  61.660  10.548  1.00  0.00    -0.000 C 
BRANCH  16  17
ATOM     17  C   UNL     1      85.107  62.146   9.222  1.00  0.00    -0.003 C 
ATOM     18  C   UNL     1      84.174  63.071   8.444  1.00  0.00     0.004 C 
ENDBRANCH  16  17
ENDBRANCH  15  16
ENDBRANCH  14  15
ENDBRANCH  13  14
ENDBRANCH  12  13
ENDBRANCH  11  12
ENDBRANCH   1  11
TORSDOF 14
ENDMDL
MODEL 9
REMARK VINA RESULT:    -4.888      6.703      8.719
REMARK INTER + INTRA:          -9.858
REMARK INTER:                  -8.051
REMARK INTRA:                  -1.808
REMARK UNBOUND:                -0.970
REMARK SMILES CCCCCCCCCCCCCCCC(=O)[O-]
REMARK SMILES IDX 9 1 10 2 11 3 12 4 13 5 14 6 15 7 16 8 17 9 18 10 8 11 7 12
REMARK SMILES IDX 6 13 5 14 4 15 3 16 2 17 1 18
REMARK H PARENT
REMARK Flexibility Score: inf
ROOT
ATOM      1  C   UNL     1      81.278  54.103   8.778  1.00  0.00     0.000 C 
ENDROOT
BRANCH   1   2
ATOM      2  C   UNL     1      80.658  52.988   7.927  1.00  0.00     0.000 C 
BRANCH   2   3
ATOM      3  C   UNL     1      79.969  51.936   8.808  1.00  0.00     0.000 C 
BRANCH   3   4
ATOM      4  C   UNL     1      80.625  50.544   8.686  1.00  0.00     0.000 C 
BRANCH   4   5
ATOM      5  C   UNL     1      82.157  50.563   8.855  1.00  0.00     0.000 C 
BRANCH   5   6
ATOM      6  C   UNL     1      82.669  50.017  10.202  1.00  0.00     0.006 C 
BRANCH   6   7
ATOM      7  C   UNL     1      81.863  50.490  11.424  1.00  0.00     0.053 C 
BRANCH   7   8
ATOM      8  C   UNL     1      82.731  51.172  12.436  1.00  0.00     0.041 C 
ATOM      9  O   UNL     1      82.613  50.896  13.659  1.00  0.00    -0.550 OA
ATOM     10  O   UNL     1      83.644  52.136  12.032  1.00  0.00    -0.550 OA
ENDBRANCH   7   8
ENDBRANCH   6   7
ENDBRANCH   5   6
ENDBRANCH   4   5
ENDBRANCH   3   4
ENDBRANCH   2   3
ENDBRANCH   1   2
BRANCH   1  11
ATOM     11  C   UNL     1      81.071  53.831  10.276  1.00  0.00     0.000 C 
BRANCH  11  12
ATOM     12  C   UNL     1      80.908  55.120  11.096  1.00  0.00    -0.000 C 
BRANCH  12  13
ATOM     13  C   UNL     1      79.455  55.619  11.131  1.00  0.00    -0.000 C 
BRANCH  13  14
ATOM     14  C   UNL     1      79.334  56.998  10.463  1.00  0.00    -0.000 C 
BRANCH  14  15
ATOM     15  C   UNL     1      78.135  57.076   9.499  1.00  0.00    -0.000 C 
BRANCH  15  16
ATOM     16  C   UNL     1      77.855  55.746   8.764  1.00  0.00    -0.000 C 
BRANCH  16  17
ATOM     17  C   UNL     1      78.247  55.775   7.277  1.00  0.00    -0.003 C 
ATOM     18  C   UNL     1      77.734  57.017   6.552  1.00  0.00     0.004 C 
ENDBRANCH  16  17
ENDBRANCH  15  16
ENDBRANCH  14  15
ENDBRANCH  13  14
ENDBRANCH  12  13
ENDBRANCH  11  12
ENDBRANCH   1  11
TORSDOF 14
ENDMDL
