MODEL 1
REMARK VINA RESULT:    -3.356      0.000      0.000
REMARK INTER + INTRA:          -4.265
REMARK INTER:                  -4.140
REMARK INTRA:                  -0.124
REMARK UNBOUND:                -0.124
REMARK SMILES CCCCCC(=O)[O-]
REMARK SMILES IDX 4 1 5 2 6 3 7 4 8 5 3 6 2 7 1 8
REMARK H PARENT
REMARK Flexibility Score: inf
ROOT
ATOM      1  C   UNL     1     -16.730  43.136  -5.336  1.00  0.00     0.006 C 
ENDROOT
BRANCH   1   2
ATOM      2  C   UNL     1     -17.890  43.515  -6.267  1.00  0.00     0.053 C 
BRANCH   2   3
ATOM      3  C   UNL     1     -17.371  44.167  -7.509  1.00  0.00     0.041 C 
ATOM      4  O   UNL     1     -16.149  44.087  -7.804  1.00  0.00    -0.550 OA
ATOM      5  O   UNL     1     -18.245  44.822  -8.368  1.00  0.00    -0.550 OA
ENDBRANCH   2   3
ENDBRANCH   1   2
BRANCH   1   6
ATOM      6  C   UNL     1     -17.128  43.165  -3.852  1.00  0.00     0.000 C 
BRANCH   6   7
ATOM      7  C   UNL     1     -18.594  43.575  -3.641  1.00  0.00    -0.003 C 
ATOM      8  C   UNL     1     -19.396  42.440  -3.011  1.00  0.00     0.004 C 
ENDBRANCH   6   7
ENDBRANCH   1   6
TORSDOF 4
ENDMDL
MODEL 2
REMARK VINA RESULT:    -3.354      0.115      1.148
REMARK INTER + INTRA:          -4.262
REMARK INTER:                  -4.140
REMARK INTRA:                  -0.122
REMARK UNBOUND:                -0.124
REMARK SMILES CCCCCC(=O)[O-]
REMARK SMILES IDX 4 1 5 2 6 3 7 4 8 5 3 6 2 7 1 8
REMARK H PARENT
REMARK Flexibility Score: inf
ROOT
ATOM      1  C   UNL     1     -16.734  43.153  -5.295  1.00  0.00     0.006 C 
ENDROOT
BRANCH   1   2
ATOM      2  C   UNL     1     -17.891  43.462  -6.254  1.00  0.00     0.053 C 
BRANCH   2   3
ATOM      3  C   UNL     1     -17.387  44.184  -7.464  1.00  0.00     0.041 C 
ATOM      4  O   UNL     1     -18.167  44.902  -8.144  1.00  0.00    -0.550 OA
ATOM      5  O   UNL     1     -16.045  44.104  -7.811  1.00  0.00    -0.550 OA
ENDBRANCH   2   3
ENDBRANCH   1   2
BRANCH   1   6
ATOM      6  C   UNL     1     -17.185  43.080  -3.828  1.00  0.00     0.000 C 
BRANCH   6   7
ATOM      7  C   UNL     1     -18.643  43.522  -3.634  1.00  0.00    -0.003 C 
ATOM      8  C   UNL     1     -19.481  42.403  -3.022  1.00  0.00     0.004 C 
ENDBRANCH   6   7
ENDBRANCH   1   6
TORSDOF 4
ENDMDL
MODEL 3
REMARK VINA RESULT:    -3.148      2.978      4.254
REMARK INTER + INTRA:          -4.009
REMARK INTER:                  -3.855
REMARK INTRA:                  -0.154
REMARK UNBOUND:                -0.124
REMARK SMILES CCCCCC(=O)[O-]
REMARK SMILES IDX 4 1 5 2 6 3 7 4 8 5 3 6 2 7 1 8
REMARK H PARENT
REMARK Flexibility Score: inf
ROOT
ATOM      1  C   UNL     1     -16.584  43.109  -4.479  1.00  0.00     0.006 C 
ENDROOT
BRANCH   1   2
ATOM      2  C   UNL     1     -17.868  42.273  -4.381  1.00  0.00     0.053 C 
BRANCH   2   3
ATOM      3  C   UNL     1     -18.841  42.921  -3.446  1.00  0.00     0.041 C 
ATOM      4  O   UNL     1     -19.482  42.224  -2.616  1.00  0.00    -0.550 OA
ATOM      5  O   UNL     1     -19.003  44.300  -3.458  1.00  0.00    -0.550 OA
ENDBRANCH   2   3
ENDBRANCH   1   2
BRANCH   1   6
ATOM      6  C   UNL     1     -16.209  43.448  -5.930  1.00  0.00     0.000 C 
BRANCH   6   7
ATOM      7  C   UNL     1     -17.439  43.676  -6.822  1.00  0.00    -0.003 C 
ATOM      8  C   UNL     1     -17.035  44.231  -8.184  1.00  0.00     0.004 C 
ENDBRANCH   6   7
ENDBRANCH   1   6
TORSDOF 4
ENDMDL
MODEL 4
REMARK VINA RESULT:    -2.985      2.927      4.475
REMARK INTER + INTRA:          -3.808
REMARK INTER:                  -3.744
REMARK INTRA:                  -0.064
REMARK UNBOUND:                -0.124
REMARK SMILES CCCCCC(=O)[O-]
REMARK SMILES IDX 4 1 5 2 6 3 7 4 8 5 3 6 2 7 1 8
REMARK H PARENT
REMARK Flexibility Score: inf
ROOT
ATOM      1  C   UNL     1     -17.917  43.521  -6.207  1.00  0.00     0.006 C 
ENDROOT
BRANCH   1   2
ATOM      2  C   UNL     1     -18.745  43.804  -4.946  1.00  0.00     0.053 C 
BRANCH   2   3
ATOM      3  C   UNL     1     -18.191  43.051  -3.778  1.00  0.00     0.041 C 
ATOM      4  O   UNL     1     -16.956  43.076  -3.536  1.00  0.00    -0.550 OA
ATOM      5  O   UNL     1     -19.046  42.362  -2.927  1.00  0.00    -0.550 OA
ENDBRANCH   2   3
ENDBRANCH   1   2
BRANCH   1   6
ATOM      6  C   UNL     1     -18.423  44.296  -7.433  1.00  0.00     0.000 C 
BRANCH   6   7
ATOM      7  C   UNL     1     -17.934  43.692  -8.758  1.00  0.00    -0.003 C 
ATOM      8  C   UNL     1     -19.002  42.798  -9.382  1.00  0.00     0.004 C 
ENDBRANCH   6   7
ENDBRANCH   1   6
TORSDOF 4
ENDMDL
MODEL 5
REMARK VINA RESULT:    -2.693      1.762      2.435
REMARK INTER + INTRA:          -3.447
REMARK INTER:                  -3.391
REMARK INTRA:                  -0.056
REMARK UNBOUND:                -0.124
REMARK SMILES CCCCCC(=O)[O-]
REMARK SMILES IDX 4 1 5 2 6 3 7 4 8 5 3 6 2 7 1 8
REMARK H PARENT
REMARK Flexibility Score: inf
ROOT
ATOM      1  C   UNL     1     -18.437  44.196  -6.970  1.00  0.00     0.006 C 
ENDROOT
BRANCH   1   2
ATOM      2  C   UNL     1     -17.673  43.829  -8.250  1.00  0.00     0.053 C 
BRANCH   2   3
ATOM      3  C   UNL     1     -18.609  43.265  -9.272  1.00  0.00     0.041 C 
ATOM      4  O   UNL     1     -19.801  43.665  -9.329  1.00  0.00    -0.550 OA
ATOM      5  O   UNL     1     -18.150  42.332 -10.194  1.00  0.00    -0.550 OA
ENDBRANCH   2   3
ENDBRANCH   1   2
BRANCH   1   6
ATOM      6  C   UNL     1     -17.976  43.380  -5.753  1.00  0.00     0.000 C 
BRANCH   6   7
ATOM      7  C   UNL     1     -18.771  43.713  -4.481  1.00  0.00    -0.003 C 
ATOM      8  C   UNL     1     -18.732  42.555  -3.489  1.00  0.00     0.004 C 
ENDBRANCH   6   7
ENDBRANCH   1   6
TORSDOF 4
ENDMDL
MODEL 6
REMARK VINA RESULT:    -2.665      2.582      4.430
REMARK INTER + INTRA:          -3.413
REMARK INTER:                  -3.299
REMARK INTRA:                  -0.114
REMARK UNBOUND:                -0.124
REMARK SMILES CCCCCC(=O)[O-]
REMARK SMILES IDX 4 1 5 2 6 3 7 4 8 5 3 6 2 7 1 8
REMARK H PARENT
REMARK Flexibility Score: inf
ROOT
ATOM      1  C   UNL     1     -17.988  43.761  -6.896  1.00  0.00     0.006 C 
ENDROOT
BRANCH   1   2
ATOM      2  C   UNL     1     -17.137  43.322  -5.697  1.00  0.00     0.053 C 
BRANCH   2   3
ATOM      3  C   UNL     1     -17.963  43.307  -4.449  1.00  0.00     0.041 C 
ATOM      4  O   UNL     1     -17.601  42.619  -3.459  1.00  0.00    -0.550 OA
ATOM      5  O   UNL     1     -19.105  44.092  -4.363  1.00  0.00    -0.550 OA
ENDBRANCH   2   3
ENDBRANCH   1   2
BRANCH   1   6
ATOM      6  C   UNL     1     -17.137  44.122  -8.124  1.00  0.00     0.000 C 
BRANCH   6   7
ATOM      7  C   UNL     1     -15.686  44.468  -7.759  1.00  0.00    -0.003 C 
ATOM      8  C   UNL     1     -15.329  45.883  -8.205  1.00  0.00     0.004 C 
ENDBRANCH   6   7
ENDBRANCH   1   6
TORSDOF 4
ENDMDL
MODEL 7
REMARK VINA RESULT:    -2.661      2.607      4.511
REMARK INTER + INTRA:          -3.408
REMARK INTER:                  -3.206
REMARK INTRA:                  -0.202
REMARK UNBOUND:                -0.124
REMARK SMILES CCCCCC(=O)[O-]
REMARK SMILES IDX 4 1 5 2 6 3 7 4 8 5 3 6 2 7 1 8
REMARK H PARENT
REMARK Flexibility Score: inf
ROOT
ATOM      1  C   UNL     1     -18.192  45.106  -8.145  1.00  0.00     0.006 C 
ENDROOT
BRANCH   1   2
ATOM      2  C   UNL     1     -19.228  44.827  -7.047  1.00  0.00     0.053 C 
BRANCH   2   3
ATOM      3  C   UNL     1     -18.608  44.045  -5.933  1.00  0.00     0.041 C 
ATOM      4  O   UNL     1     -17.596  43.327  -6.149  1.00  0.00    -0.550 OA
ATOM      5  O   UNL     1     -19.117  44.149  -4.645  1.00  0.00    -0.550 OA
ENDBRANCH   2   3
ENDBRANCH   1   2
BRANCH   1   6
ATOM      6  C   UNL     1     -18.710  44.757  -9.549  1.00  0.00     0.000 C 
BRANCH   6   7
ATOM      7  C   UNL     1     -19.605  43.509  -9.557  1.00  0.00    -0.003 C 
ATOM      8  C   UNL     1     -18.786  42.247  -9.815  1.00  0.00     0.004 C 
ENDBRANCH   6   7
ENDBRANCH   1   6
TORSDOF 4
ENDMDL
MODEL 8
REMARK VINA RESULT:    -2.413      2.702      5.235
REMARK INTER + INTRA:          -3.102
REMARK INTER:                  -2.881
REMARK INTRA:                  -0.222
REMARK UNBOUND:                -0.124
REMARK SMILES CCCCCC(=O)[O-]
REMARK SMILES IDX 4 1 5 2 6 3 7 4 8 5 3 6 2 7 1 8
REMARK H PARENT
REMARK Flexibility Score: inf
ROOT
ATOM      1  C   UNL     1     -19.286  43.669  -9.201  1.00  0.00     0.006 C 
ENDROOT
BRANCH   1   2
ATOM      2  C   UNL     1     -19.060  44.488  -7.923  1.00  0.00     0.053 C 
BRANCH   2   3
ATOM      3  C   UNL     1     -17.861  43.983  -7.185  1.00  0.00     0.041 C 
ATOM      4  O   UNL     1     -18.000  43.387  -6.084  1.00  0.00    -0.550 OA
ATOM      5  O   UNL     1     -16.595  44.126  -7.736  1.00  0.00    -0.550 OA
ENDBRANCH   2   3
ENDBRANCH   1   2
BRANCH   1   6
ATOM      6  C   UNL     1     -19.548  44.552 -10.431  1.00  0.00     0.000 C 
BRANCH   6   7
ATOM      7  C   UNL     1     -18.466  45.623 -10.633  1.00  0.00    -0.003 C 
ATOM      8  C   UNL     1     -17.162  45.000 -11.123  1.00  0.00     0.004 C 
ENDBRANCH   6   7
ENDBRANCH   1   6
TORSDOF 4
ENDMDL
MODEL 9
REMARK VINA RESULT:    -2.349      4.082      4.763
REMARK INTER + INTRA:          -3.023
REMARK INTER:                  -2.799
REMARK INTRA:                  -0.224
REMARK UNBOUND:                -0.124
REMARK SMILES CCCCCC(=O)[O-]
REMARK SMILES IDX 4 1 5 2 6 3 7 4 8 5 3 6 2 7 1 8
REMARK H PARENT
REMARK Flexibility Score: inf
ROOT
ATOM      1  C   UNL     1     -17.401  43.401  -9.956  1.00  0.00     0.006 C 
ENDROOT
BRANCH   1   2
ATOM      2  C   UNL     1     -16.733  44.131  -8.783  1.00  0.00     0.053 C 
BRANCH   2   3
ATOM      3  C   UNL     1     -16.572  45.585  -9.097  1.00  0.00     0.041 C 
ATOM      4  O   UNL     1     -15.921  46.332  -8.320  1.00  0.00    -0.550 OA
ATOM      5  O   UNL     1     -17.098  46.104 -10.273  1.00  0.00    -0.550 OA
ENDBRANCH   2   3
ENDBRANCH   1   2
BRANCH   1   6
ATOM      6  C   UNL     1     -18.765  42.802  -9.580  1.00  0.00     0.000 C 
BRANCH   6   7
ATOM      7  C   UNL     1     -19.847  43.873  -9.379  1.00  0.00    -0.003 C 
ATOM      8  C   UNL     1     -20.224  44.530 -10.704  1.00  0.00     0.004 C 
ENDBRANCH   6   7
ENDBRANCH   1   6
TORSDOF 4
ENDMDL
