MODEL 1
REMARK VINA RESULT:    -5.272      0.000      0.000
REMARK INTER + INTRA:          -5.272
REMARK INTER:                  -5.272
REMARK INTRA:                   0.000
REMARK UNBOUND:                 0.000
REMARK SMILES C=C1CCCC(C)(C)[C@]12CC=C(C)CC2
REMARK SMILES IDX 13 1 12 2 11 3 10 4 9 5 15 6 14 7 2 8 1 9 3 10 4 11 5 12
REMARK SMILES IDX 6 13 7 14 8 15
REMARK H PARENT
REMARK Flexibility Score: inf
ROOT
ATOM      1  C   UNL     1      28.775   9.991  22.883  1.00  0.00     0.039 C 
ATOM      2  C   UNL     1      29.213   9.694  24.290  1.00  0.00    -0.077 C 
ATOM      3  C   UNL     1      30.398   9.110  24.519  1.00  0.00    -0.027 C 
ATOM      4  C   UNL     1      30.809   8.782  25.930  1.00  0.00     0.039 C 
ATOM      5  C   UNL     1      29.656   8.119  26.774  1.00  0.00    -0.000 C 
ATOM      6  C   UNL     1      28.240   8.716  26.355  1.00  0.00     0.017 C 
ATOM      7  C   UNL     1      28.315   9.972  25.466  1.00  0.00     0.031 C 
ATOM      8  C   UNL     1      29.945   8.465  28.260  1.00  0.00    -0.070 C 
ATOM      9  C   UNL     1      29.675   9.683  28.775  1.00  0.00     0.008 C 
ATOM     10  C   UNL     1      30.629   7.463  29.166  1.00  0.00     0.031 C 
ATOM     11  C   UNL     1      31.613   6.613  28.379  1.00  0.00     0.005 C 
ATOM     12  C   UNL     1      30.970   5.875  27.194  1.00  0.00     0.008 C 
ATOM     13  C   UNL     1      29.665   6.523  26.599  1.00  0.00    -0.026 C 
ATOM     14  C   UNL     1      28.427   5.877  27.300  1.00  0.00     0.012 C 
ATOM     15  C   UNL     1      29.597   6.094  25.105  1.00  0.00     0.012 C 
ENDROOT
TORSDOF 0
ENDMDL
MODEL 2
REMARK VINA RESULT:    -5.219      5.353      7.638
REMARK INTER + INTRA:          -5.219
REMARK INTER:                  -5.219
REMARK INTRA:                   0.000
REMARK UNBOUND:                 0.000
REMARK SMILES C=C1CCCC(C)(C)[C@]12CC=C(C)CC2
REMARK SMILES IDX 13 1 12 2 11 3 10 4 9 5 15 6 14 7 2 8 1 9 3 10 4 11 5 12
REMARK SMILES IDX 6 13 7 14 8 15
REMARK H PARENT
REMARK Flexibility Score: inf
ROOT
ATOM      1  C   UNL     1      30.517   7.955  29.728  1.00  0.00     0.039 C 
ATOM      2  C   UNL     1      30.876   8.140  31.176  1.00  0.00    -0.077 C 
ATOM      3  C   UNL     1      31.493   7.159  31.849  1.00  0.00    -0.027 C 
ATOM      4  C   UNL     1      31.814   7.341  33.310  1.00  0.00     0.039 C 
ATOM      5  C   UNL     1      30.622   7.957  34.134  1.00  0.00    -0.000 C 
ATOM      6  C   UNL     1      29.804   8.996  33.246  1.00  0.00     0.017 C 
ATOM      7  C   UNL     1      30.494   9.389  31.926  1.00  0.00     0.031 C 
ATOM      8  C   UNL     1      31.259   8.696  35.342  1.00  0.00    -0.070 C 
ATOM      9  C   UNL     1      31.845   9.905  35.211  1.00  0.00     0.008 C 
ATOM     10  C   UNL     1      31.323   8.037  36.703  1.00  0.00     0.031 C 
ATOM     11  C   UNL     1      31.484   6.532  36.563  1.00  0.00     0.005 C 
ATOM     12  C   UNL     1      30.373   5.875  35.728  1.00  0.00     0.008 C 
ATOM     13  C   UNL     1      29.650   6.803  34.684  1.00  0.00    -0.026 C 
ATOM     14  C   UNL     1      28.381   7.415  35.359  1.00  0.00     0.012 C 
ATOM     15  C   UNL     1      29.137   5.875  33.545  1.00  0.00     0.012 C 
ENDROOT
TORSDOF 0
ENDMDL
MODEL 3
REMARK VINA RESULT:    -4.894      7.671     10.742
REMARK INTER + INTRA:          -4.894
REMARK INTER:                  -4.894
REMARK INTRA:                   0.000
REMARK UNBOUND:                 0.000
REMARK SMILES C=C1CCCC(C)(C)[C@]12CC=C(C)CC2
REMARK SMILES IDX 13 1 12 2 11 3 10 4 9 5 15 6 14 7 2 8 1 9 3 10 4 11 5 12
REMARK SMILES IDX 6 13 7 14 8 15
REMARK H PARENT
REMARK Flexibility Score: inf
ROOT
ATOM      1  C   UNL     1      30.434  10.668  40.041  1.00  0.00     0.039 C 
ATOM      2  C   UNL     1      30.793   9.751  38.905  1.00  0.00    -0.077 C 
ATOM      3  C   UNL     1      31.517  10.207  37.873  1.00  0.00    -0.027 C 
ATOM      4  C   UNL     1      31.838   9.291  36.721  1.00  0.00     0.039 C 
ATOM      5  C   UNL     1      30.600   8.443  36.240  1.00  0.00    -0.000 C 
ATOM      6  C   UNL     1      29.667   8.063  37.474  1.00  0.00     0.017 C 
ATOM      7  C   UNL     1      30.294   8.331  38.854  1.00  0.00     0.031 C 
ATOM      8  C   UNL     1      31.175   7.148  35.605  1.00  0.00    -0.070 C 
ATOM      9  C   UNL     1      31.631   6.126  36.358  1.00  0.00     0.008 C 
ATOM     10  C   UNL     1      31.325   7.026  34.103  1.00  0.00     0.031 C 
ATOM     11  C   UNL     1      31.639   8.379  33.485  1.00  0.00     0.005 C 
ATOM     12  C   UNL     1      30.589   9.455  33.808  1.00  0.00     0.008 C 
ATOM     13  C   UNL     1      29.760   9.240  35.128  1.00  0.00    -0.026 C 
ATOM     14  C   UNL     1      28.444   8.478  34.768  1.00  0.00     0.012 C 
ATOM     15  C   UNL     1      29.329  10.653  35.616  1.00  0.00     0.012 C 
ENDROOT
TORSDOF 0
ENDMDL
MODEL 4
REMARK VINA RESULT:    -4.853      7.058      9.120
REMARK INTER + INTRA:          -4.853
REMARK INTER:                  -4.853
REMARK INTRA:                   0.000
REMARK UNBOUND:                 0.000
REMARK SMILES C=C1CCCC(C)(C)[C@]12CC=C(C)CC2
REMARK SMILES IDX 13 1 12 2 11 3 10 4 9 5 15 6 14 7 2 8 1 9 3 10 4 11 5 12
REMARK SMILES IDX 6 13 7 14 8 15
REMARK H PARENT
REMARK Flexibility Score: inf
ROOT
ATOM      1  C   UNL     1      32.675  10.822  33.002  1.00  0.00     0.039 C 
ATOM      2  C   UNL     1      31.660   9.765  33.342  1.00  0.00    -0.077 C 
ATOM      3  C   UNL     1      30.654  10.042  34.184  1.00  0.00    -0.027 C 
ATOM      4  C   UNL     1      29.666   8.965  34.547  1.00  0.00     0.039 C 
ATOM      5  C   UNL     1      30.348   7.584  34.881  1.00  0.00    -0.000 C 
ATOM      6  C   UNL     1      31.641   7.365  33.978  1.00  0.00     0.017 C 
ATOM      7  C   UNL     1      31.782   8.361  32.812  1.00  0.00     0.031 C 
ATOM      8  C   UNL     1      29.298   6.487  34.558  1.00  0.00    -0.070 C 
ATOM      9  C   UNL     1      29.039   6.097  33.292  1.00  0.00     0.008 C 
ATOM     10  C   UNL     1      28.458   5.875  35.659  1.00  0.00     0.031 C 
ATOM     11  C   UNL     1      28.178   6.896  36.749  1.00  0.00     0.005 C 
ATOM     12  C   UNL     1      29.452   7.505  37.357  1.00  0.00     0.008 C 
ATOM     13  C   UNL     1      30.730   7.498  36.438  1.00  0.00    -0.026 C 
ATOM     14  C   UNL     1      31.551   6.204  36.741  1.00  0.00     0.012 C 
ATOM     15  C   UNL     1      31.612   8.695  36.895  1.00  0.00     0.012 C 
ENDROOT
TORSDOF 0
ENDMDL
MODEL 5
REMARK VINA RESULT:    -4.850      7.098      9.625
REMARK INTER + INTRA:          -4.850
REMARK INTER:                  -4.850
REMARK INTRA:                   0.000
REMARK UNBOUND:                 0.000
REMARK SMILES C=C1CCCC(C)(C)[C@]12CC=C(C)CC2
REMARK SMILES IDX 13 1 12 2 11 3 10 4 9 5 15 6 14 7 2 8 1 9 3 10 4 11 5 12
REMARK SMILES IDX 6 13 7 14 8 15
REMARK H PARENT
REMARK Flexibility Score: inf
ROOT
ATOM      1  C   UNL     1      31.386   7.181  31.801  1.00  0.00     0.039 C 
ATOM      2  C   UNL     1      31.435   7.557  33.256  1.00  0.00    -0.077 C 
ATOM      3  C   UNL     1      31.428   6.604  34.199  1.00  0.00    -0.027 C 
ATOM      4  C   UNL     1      31.438   6.992  35.655  1.00  0.00     0.039 C 
ATOM      5  C   UNL     1      30.435   8.159  35.992  1.00  0.00    -0.000 C 
ATOM      6  C   UNL     1      30.339   9.184  34.777  1.00  0.00     0.017 C 
ATOM      7  C   UNL     1      31.419   8.996  33.696  1.00  0.00     0.031 C 
ATOM      8  C   UNL     1      31.008   8.885  37.239  1.00  0.00    -0.070 C 
ATOM      9  C   UNL     1      32.043   9.747  37.150  1.00  0.00     0.008 C 
ATOM     10  C   UNL     1      30.477   8.576  38.623  1.00  0.00     0.031 C 
ATOM     11  C   UNL     1      30.050   7.121  38.721  1.00  0.00     0.005 C 
ATOM     12  C   UNL     1      29.002   6.721  37.670  1.00  0.00     0.008 C 
ATOM     13  C   UNL     1      28.981   7.577  36.350  1.00  0.00    -0.026 C 
ATOM     14  C   UNL     1      27.944   8.733  36.524  1.00  0.00     0.012 C 
ATOM     15  C   UNL     1      28.425   6.653  35.229  1.00  0.00     0.012 C 
ENDROOT
TORSDOF 0
ENDMDL
MODEL 6
REMARK VINA RESULT:    -4.746      1.234      4.645
REMARK INTER + INTRA:          -4.746
REMARK INTER:                  -4.746
REMARK INTRA:                   0.000
REMARK UNBOUND:                 0.000
REMARK SMILES C=C1CCCC(C)(C)[C@]12CC=C(C)CC2
REMARK SMILES IDX 13 1 12 2 11 3 10 4 9 5 15 6 14 7 2 8 1 9 3 10 4 11 5 12
REMARK SMILES IDX 6 13 7 14 8 15
REMARK H PARENT
REMARK Flexibility Score: inf
ROOT
ATOM      1  C   UNL     1      29.704   6.054  30.330  1.00  0.00     0.039 C 
ATOM      2  C   UNL     1      29.954   6.405  28.890  1.00  0.00    -0.077 C 
ATOM      3  C   UNL     1      30.936   7.257  28.564  1.00  0.00    -0.027 C 
ATOM      4  C   UNL     1      31.152   7.632  27.121  1.00  0.00     0.039 C 
ATOM      5  C   UNL     1      29.813   7.961  26.358  1.00  0.00    -0.000 C 
ATOM      6  C   UNL     1      28.625   7.045  26.893  1.00  0.00     0.017 C 
ATOM      7  C   UNL     1      29.073   5.876  27.789  1.00  0.00     0.031 C 
ATOM      8  C   UNL     1      30.074   7.650  24.860  1.00  0.00    -0.070 C 
ATOM      9  C   UNL     1      30.081   6.388  24.383  1.00  0.00     0.008 C 
ATOM     10  C   UNL     1      30.420   8.761  23.891  1.00  0.00     0.031 C 
ATOM     11  C   UNL     1      31.214   9.853  24.589  1.00  0.00     0.005 C 
ATOM     12  C   UNL     1      30.492  10.446  25.810  1.00  0.00     0.008 C 
ATOM     13  C   UNL     1      29.435   9.514  26.511  1.00  0.00    -0.026 C 
ATOM     14  C   UNL     1      28.029   9.810  25.898  1.00  0.00     0.012 C 
ATOM     15  C   UNL     1      29.368   9.960  27.999  1.00  0.00     0.012 C 
ENDROOT
TORSDOF 0
ENDMDL
MODEL 7
REMARK VINA RESULT:    -4.687      1.447      3.417
REMARK INTER + INTRA:          -4.687
REMARK INTER:                  -4.687
REMARK INTRA:                   0.000
REMARK UNBOUND:                 0.000
REMARK SMILES C=C1CCCC(C)(C)[C@]12CC=C(C)CC2
REMARK SMILES IDX 13 1 12 2 11 3 10 4 9 5 15 6 14 7 2 8 1 9 3 10 4 11 5 12
REMARK SMILES IDX 6 13 7 14 8 15
REMARK H PARENT
REMARK Flexibility Score: inf
ROOT
ATOM      1  C   UNL     1      29.247  12.878  26.864  1.00  0.00     0.039 C 
ATOM      2  C   UNL     1      29.242  11.490  26.284  1.00  0.00    -0.077 C 
ATOM      3  C   UNL     1      28.289  10.615  26.636  1.00  0.00    -0.027 C 
ATOM      4  C   UNL     1      28.316   9.216  26.079  1.00  0.00     0.039 C 
ATOM      5  C   UNL     1      29.750   8.565  26.108  1.00  0.00    -0.000 C 
ATOM      6  C   UNL     1      30.871   9.667  25.855  1.00  0.00     0.017 C 
ATOM      7  C   UNL     1      30.334  11.022  25.360  1.00  0.00     0.031 C 
ATOM      8  C   UNL     1      29.781   7.520  24.960  1.00  0.00    -0.070 C 
ATOM      9  C   UNL     1      29.929   7.882  23.669  1.00  0.00     0.008 C 
ATOM     10  C   UNL     1      29.554   6.051  25.248  1.00  0.00     0.031 C 
ATOM     11  C   UNL     1      28.588   5.875  26.409  1.00  0.00     0.005 C 
ATOM     12  C   UNL     1      29.045   6.583  27.694  1.00  0.00     0.008 C 
ATOM     13  C   UNL     1      30.007   7.813  27.504  1.00  0.00    -0.026 C 
ATOM     14  C   UNL     1      31.483   7.308  27.603  1.00  0.00     0.012 C 
ATOM     15  C   UNL     1      29.781   8.748  28.726  1.00  0.00     0.012 C 
ENDROOT
TORSDOF 0
ENDMDL
MODEL 8
REMARK VINA RESULT:    -4.652      7.003      8.480
REMARK INTER + INTRA:          -4.652
REMARK INTER:                  -4.652
REMARK INTRA:                   0.000
REMARK UNBOUND:                 0.000
REMARK SMILES C=C1CCCC(C)(C)[C@]12CC=C(C)CC2
REMARK SMILES IDX 13 1 12 2 11 3 10 4 9 5 15 6 14 7 2 8 1 9 3 10 4 11 5 12
REMARK SMILES IDX 6 13 7 14 8 15
REMARK H PARENT
REMARK Flexibility Score: inf
ROOT
ATOM      1  C   UNL     1      31.925  11.585  31.979  1.00  0.00     0.039 C 
ATOM      2  C   UNL     1      31.364  10.895  33.191  1.00  0.00    -0.077 C 
ATOM      3  C   UNL     1      32.185  10.320  34.081  1.00  0.00    -0.027 C 
ATOM      4  C   UNL     1      31.610   9.598  35.272  1.00  0.00     0.039 C 
ATOM      5  C   UNL     1      30.397   8.662  34.904  1.00  0.00    -0.000 C 
ATOM      6  C   UNL     1      29.538   9.297  33.723  1.00  0.00     0.017 C 
ATOM      7  C   UNL     1      29.879  10.765  33.404  1.00  0.00     0.031 C 
ATOM      8  C   UNL     1      29.522   8.555  36.182  1.00  0.00    -0.070 C 
ATOM      9  C   UNL     1      28.692   9.547  36.564  1.00  0.00     0.008 C 
ATOM     10  C   UNL     1      29.641   7.356  37.099  1.00  0.00     0.031 C 
ATOM     11  C   UNL     1      31.066   6.827  37.107  1.00  0.00     0.005 C 
ATOM     12  C   UNL     1      31.587   6.455  35.710  1.00  0.00     0.008 C 
ATOM     13  C   UNL     1      30.910   7.196  34.498  1.00  0.00    -0.026 C 
ATOM     14  C   UNL     1      29.729   6.316  33.975  1.00  0.00     0.012 C 
ATOM     15  C   UNL     1      31.966   7.237  33.356  1.00  0.00     0.012 C 
ENDROOT
TORSDOF 0
ENDMDL
MODEL 9
REMARK VINA RESULT:    -4.586      7.603     10.528
REMARK INTER + INTRA:          -4.586
REMARK INTER:                  -4.586
REMARK INTRA:                   0.000
REMARK UNBOUND:                 0.000
REMARK SMILES C=C1CCCC(C)(C)[C@]12CC=C(C)CC2
REMARK SMILES IDX 13 1 12 2 11 3 10 4 9 5 15 6 14 7 2 8 1 9 3 10 4 11 5 12
REMARK SMILES IDX 6 13 7 14 8 15
REMARK H PARENT
REMARK Flexibility Score: inf
ROOT
ATOM      1  C   UNL     1      29.454  10.594  39.654  1.00  0.00     0.039 C 
ATOM      2  C   UNL     1      29.863  10.214  38.258  1.00  0.00    -0.077 C 
ATOM      3  C   UNL     1      28.979   9.644  37.427  1.00  0.00    -0.027 C 
ATOM      4  C   UNL     1      29.410   9.232  36.044  1.00  0.00     0.039 C 
ATOM      5  C   UNL     1      30.799   8.489  36.023  1.00  0.00    -0.000 C 
ATOM      6  C   UNL     1      31.768   9.080  37.140  1.00  0.00     0.017 C 
ATOM      7  C   UNL     1      31.280  10.393  37.779  1.00  0.00     0.031 C 
ATOM      8  C   UNL     1      31.411   8.742  34.619  1.00  0.00    -0.070 C 
ATOM      9  C   UNL     1      31.991   9.916  34.293  1.00  0.00     0.008 C 
ATOM     10  C   UNL     1      31.296   7.698  33.527  1.00  0.00     0.031 C 
ATOM     11  C   UNL     1      29.994   6.925  33.660  1.00  0.00     0.005 C 
ATOM     12  C   UNL     1      29.821   6.253  35.032  1.00  0.00     0.008 C 
ATOM     13  C   UNL     1      30.604   6.908  36.229  1.00  0.00    -0.026 C 
ATOM     14  C   UNL     1      31.983   6.189  36.373  1.00  0.00     0.012 C 
ATOM     15  C   UNL     1      29.799   6.578  37.519  1.00  0.00     0.012 C 
ENDROOT
TORSDOF 0
ENDMDL
