MODEL 1
REMARK VINA RESULT:    -5.092      0.000      0.000
REMARK INTER + INTRA:          -5.899
REMARK INTER:                  -5.687
REMARK INTRA:                  -0.212
REMARK UNBOUND:                -0.212
REMARK SMILES CC(C)c1ccc(C(=O)[O-])cc1
REMARK SMILES IDX 7 1 6 2 11 3 5 4 12 5 4 6 8 7 9 8 10 9 2 10 1 11 3 12
REMARK H PARENT
REMARK Flexibility Score: inf
ROOT
ATOM      1  C   UNL     1      24.652  16.210  18.955  1.00  0.00    -0.003 A 
ATOM      2  C   UNL     1      25.409  16.999  19.835  1.00  0.00     0.010 A 
ATOM      3  C   UNL     1      25.296  15.197  18.223  1.00  0.00     0.010 A 
ATOM      4  C   UNL     1      26.782  16.779  19.983  1.00  0.00     0.004 A 
ATOM      5  C   UNL     1      26.668  14.978  18.371  1.00  0.00     0.004 A 
ATOM      6  C   UNL     1      27.427  15.766  19.251  1.00  0.00    -0.045 A 
ENDROOT
BRANCH   1   7
ATOM      7  C   UNL     1      23.199  16.444  18.801  1.00  0.00     0.071 C 
ATOM      8  O   UNL     1      22.565  17.125  19.650  1.00  0.00    -0.545 OA
ATOM      9  O   UNL     1      22.512  15.914  17.715  1.00  0.00    -0.545 OA
ENDBRANCH   1   7
BRANCH   6  10
ATOM     10  C   UNL     1      28.916  15.517  19.402  1.00  0.00     0.013 C 
ATOM     11  C   UNL     1      29.723  16.395  18.438  1.00  0.00     0.012 C 
ATOM     12  C   UNL     1      29.251  14.033  19.211  1.00  0.00     0.012 C 
ENDBRANCH   6  10
TORSDOF 2
ENDMDL
MODEL 2
REMARK VINA RESULT:    -5.088      2.227      3.265
REMARK INTER + INTRA:          -5.895
REMARK INTER:                  -5.680
REMARK INTRA:                  -0.214
REMARK UNBOUND:                -0.212
REMARK SMILES CC(C)c1ccc(C(=O)[O-])cc1
REMARK SMILES IDX 7 1 6 2 11 3 5 4 12 5 4 6 8 7 9 8 10 9 2 10 1 11 3 12
REMARK H PARENT
REMARK Flexibility Score: inf
ROOT
ATOM      1  C   UNL     1      26.396  16.668  20.430  1.00  0.00    -0.003 A 
ATOM      2  C   UNL     1      25.577  15.896  19.590  1.00  0.00     0.010 A 
ATOM      3  C   UNL     1      27.758  16.809  20.111  1.00  0.00     0.010 A 
ATOM      4  C   UNL     1      26.107  15.279  18.453  1.00  0.00     0.004 A 
ATOM      5  C   UNL     1      28.287  16.193  18.974  1.00  0.00     0.004 A 
ATOM      6  C   UNL     1      27.469  15.421  18.133  1.00  0.00    -0.045 A 
ENDROOT
BRANCH   1   7
ATOM      7  C   UNL     1      25.831  17.320  21.632  1.00  0.00     0.071 C 
ATOM      8  O   UNL     1      24.873  18.131  21.533  1.00  0.00    -0.545 OA
ATOM      9  O   UNL     1      26.353  17.046  22.892  1.00  0.00    -0.545 OA
ENDBRANCH   1   7
BRANCH   6  10
ATOM     10  C   UNL     1      28.058  14.756  16.902  1.00  0.00     0.013 C 
ATOM     11  C   UNL     1      29.167  15.617  16.286  1.00  0.00     0.012 C 
ATOM     12  C   UNL     1      26.967  14.439  15.871  1.00  0.00     0.012 C 
ENDBRANCH   6  10
TORSDOF 2
ENDMDL
MODEL 3
REMARK VINA RESULT:    -5.069      1.323      1.623
REMARK INTER + INTRA:          -5.874
REMARK INTER:                  -5.671
REMARK INTRA:                  -0.203
REMARK UNBOUND:                -0.212
REMARK SMILES CC(C)c1ccc(C(=O)[O-])cc1
REMARK SMILES IDX 7 1 6 2 11 3 5 4 12 5 4 6 8 7 9 8 10 9 2 10 1 11 3 12
REMARK H PARENT
REMARK Flexibility Score: inf
ROOT
ATOM      1  C   UNL     1      25.238  17.390  19.628  1.00  0.00    -0.003 A 
ATOM      2  C   UNL     1      26.052  17.227  20.760  1.00  0.00     0.010 A 
ATOM      3  C   UNL     1      25.743  17.023  18.368  1.00  0.00     0.010 A 
ATOM      4  C   UNL     1      27.343  16.707  20.637  1.00  0.00     0.004 A 
ATOM      5  C   UNL     1      27.034  16.503  18.245  1.00  0.00     0.004 A 
ATOM      6  C   UNL     1      27.849  16.340  19.377  1.00  0.00    -0.045 A 
ENDROOT
BRANCH   1   7
ATOM      7  C   UNL     1      23.871  17.940  19.762  1.00  0.00     0.071 C 
ATOM      8  O   UNL     1      22.893  17.182  19.994  1.00  0.00    -0.545 OA
ATOM      9  O   UNL     1      23.647  19.307  19.631  1.00  0.00    -0.545 OA
ENDBRANCH   1   7
BRANCH   6  10
ATOM     10  C   UNL     1      29.250  15.774  19.229  1.00  0.00     0.013 C 
ATOM     11  C   UNL     1      29.958  16.365  18.005  1.00  0.00     0.012 C 
ATOM     12  C   UNL     1      29.223  14.242  19.167  1.00  0.00     0.012 C 
ENDBRANCH   6  10
TORSDOF 2
ENDMDL
MODEL 4
REMARK VINA RESULT:    -5.067      2.442      3.978
REMARK INTER + INTRA:          -5.871
REMARK INTER:                  -5.657
REMARK INTRA:                  -0.214
REMARK UNBOUND:                -0.212
REMARK SMILES CC(C)c1ccc(C(=O)[O-])cc1
REMARK SMILES IDX 7 1 6 2 11 3 5 4 12 5 4 6 8 7 9 8 10 9 2 10 1 11 3 12
REMARK H PARENT
REMARK Flexibility Score: inf
ROOT
ATOM      1  C   UNL     1      21.775  17.157  18.403  1.00  0.00    -0.003 A 
ATOM      2  C   UNL     1      22.802  16.210  18.254  1.00  0.00     0.010 A 
ATOM      3  C   UNL     1      21.983  18.258  19.252  1.00  0.00     0.010 A 
ATOM      4  C   UNL     1      24.011  16.361  18.938  1.00  0.00     0.004 A 
ATOM      5  C   UNL     1      23.192  18.408  19.936  1.00  0.00     0.004 A 
ATOM      6  C   UNL     1      24.219  17.462  19.788  1.00  0.00    -0.045 A 
ENDROOT
BRANCH   1   7
ATOM      7  C   UNL     1      20.497  16.995  17.676  1.00  0.00     0.071 C 
ATOM      8  O   UNL     1      19.992  17.959  17.042  1.00  0.00    -0.545 OA
ATOM      9  O   UNL     1      19.832  15.774  17.685  1.00  0.00    -0.545 OA
ENDBRANCH   1   7
BRANCH   6  10
ATOM     10  C   UNL     1      25.527  17.637  20.537  1.00  0.00     0.013 C 
ATOM     11  C   UNL     1      26.449  16.430  20.329  1.00  0.00     0.012 C 
ATOM     12  C   UNL     1      25.280  17.893  22.029  1.00  0.00     0.012 C 
ENDBRANCH   6  10
TORSDOF 2
ENDMDL
MODEL 5
REMARK VINA RESULT:    -4.982      3.024      5.304
REMARK INTER + INTRA:          -5.776
REMARK INTER:                  -5.569
REMARK INTRA:                  -0.206
REMARK UNBOUND:                -0.212
REMARK SMILES CC(C)c1ccc(C(=O)[O-])cc1
REMARK SMILES IDX 7 1 6 2 11 3 5 4 12 5 4 6 8 7 9 8 10 9 2 10 1 11 3 12
REMARK H PARENT
REMARK Flexibility Score: inf
ROOT
ATOM      1  C   UNL     1      26.315  16.769  19.540  1.00  0.00    -0.003 A 
ATOM      2  C   UNL     1      25.871  17.321  20.752  1.00  0.00     0.010 A 
ATOM      3  C   UNL     1      25.564  16.994  18.373  1.00  0.00     0.010 A 
ATOM      4  C   UNL     1      24.701  18.084  20.798  1.00  0.00     0.004 A 
ATOM      5  C   UNL     1      24.394  17.757  18.420  1.00  0.00     0.004 A 
ATOM      6  C   UNL     1      23.949  18.310  19.631  1.00  0.00    -0.045 A 
ENDROOT
BRANCH   1   7
ATOM      7  C   UNL     1      27.555  15.962  19.495  1.00  0.00     0.071 C 
ATOM      8  O   UNL     1      28.596  16.351  20.086  1.00  0.00    -0.545 OA
ATOM      9  O   UNL     1      27.587  14.760  18.796  1.00  0.00    -0.545 OA
ENDBRANCH   1   7
BRANCH   6  10
ATOM     10  C   UNL     1      22.676  19.137  19.667  1.00  0.00     0.013 C 
ATOM     11  C   UNL     1      21.511  18.385  19.014  1.00  0.00     0.012 C 
ATOM     12  C   UNL     1      22.889  20.506  19.011  1.00  0.00     0.012 C 
ENDBRANCH   6  10
TORSDOF 2
ENDMDL
MODEL 6
REMARK VINA RESULT:    -4.980      3.185      5.076
REMARK INTER + INTRA:          -5.774
REMARK INTER:                  -5.562
REMARK INTRA:                  -0.212
REMARK UNBOUND:                -0.212
REMARK SMILES CC(C)c1ccc(C(=O)[O-])cc1
REMARK SMILES IDX 7 1 6 2 11 3 5 4 12 5 4 6 8 7 9 8 10 9 2 10 1 11 3 12
REMARK H PARENT
REMARK Flexibility Score: inf
ROOT
ATOM      1  C   UNL     1      27.696  15.594  19.264  1.00  0.00    -0.003 A 
ATOM      2  C   UNL     1      27.476  16.623  20.194  1.00  0.00     0.010 A 
ATOM      3  C   UNL     1      26.609  15.112  18.513  1.00  0.00     0.010 A 
ATOM      4  C   UNL     1      26.198  17.161  20.369  1.00  0.00     0.004 A 
ATOM      5  C   UNL     1      25.331  15.650  18.688  1.00  0.00     0.004 A 
ATOM      6  C   UNL     1      25.111  16.679  19.618  1.00  0.00    -0.045 A 
ENDROOT
BRANCH   1   7
ATOM      7  C   UNL     1      29.050  15.027  19.081  1.00  0.00     0.071 C 
ATOM      8  O   UNL     1      29.261  13.799  19.258  1.00  0.00    -0.545 OA
ATOM      9  O   UNL     1      30.111  15.846  18.709  1.00  0.00    -0.545 OA
ENDBRANCH   1   7
BRANCH   6  10
ATOM     10  C   UNL     1      23.718  17.254  19.799  1.00  0.00     0.013 C 
ATOM     11  C   UNL     1      22.720  16.598  18.836  1.00  0.00     0.012 C 
ATOM     12  C   UNL     1      23.724  18.778  19.635  1.00  0.00     0.012 C 
ENDBRANCH   6  10
TORSDOF 2
ENDMDL
MODEL 7
REMARK VINA RESULT:    -4.976      3.020      5.455
REMARK INTER + INTRA:          -5.769
REMARK INTER:                  -5.566
REMARK INTRA:                  -0.203
REMARK UNBOUND:                -0.212
REMARK SMILES CC(C)c1ccc(C(=O)[O-])cc1
REMARK SMILES IDX 7 1 6 2 11 3 5 4 12 5 4 6 8 7 9 8 10 9 2 10 1 11 3 12
REMARK H PARENT
REMARK Flexibility Score: inf
ROOT
ATOM      1  C   UNL     1      26.285  16.787  19.528  1.00  0.00    -0.003 A 
ATOM      2  C   UNL     1      25.541  16.995  18.355  1.00  0.00     0.010 A 
ATOM      3  C   UNL     1      25.825  17.346  20.734  1.00  0.00     0.010 A 
ATOM      4  C   UNL     1      24.363  17.745  18.386  1.00  0.00     0.004 A 
ATOM      5  C   UNL     1      24.646  18.096  20.764  1.00  0.00     0.004 A 
ATOM      6  C   UNL     1      23.902  18.305  19.591  1.00  0.00    -0.045 A 
ENDROOT
BRANCH   1   7
ATOM      7  C   UNL     1      27.531  15.992  19.493  1.00  0.00     0.071 C 
ATOM      8  O   UNL     1      28.572  16.403  20.071  1.00  0.00    -0.545 OA
ATOM      9  O   UNL     1      27.572  14.776  18.819  1.00  0.00    -0.545 OA
ENDBRANCH   1   7
BRANCH   6  10
ATOM     10  C   UNL     1      22.624  19.122  19.638  1.00  0.00     0.013 C 
ATOM     11  C   UNL     1      21.466  18.375  18.965  1.00  0.00     0.012 C 
ATOM     12  C   UNL     1      22.829  20.505  19.010  1.00  0.00     0.012 C 
ENDBRANCH   6  10
TORSDOF 2
ENDMDL
MODEL 8
REMARK VINA RESULT:    -4.925      3.423      5.654
REMARK INTER + INTRA:          -5.712
REMARK INTER:                  -5.501
REMARK INTRA:                  -0.211
REMARK UNBOUND:                -0.212
REMARK SMILES CC(C)c1ccc(C(=O)[O-])cc1
REMARK SMILES IDX 7 1 6 2 11 3 5 4 12 5 4 6 8 7 9 8 10 9 2 10 1 11 3 12
REMARK H PARENT
REMARK Flexibility Score: inf
ROOT
ATOM      1  C   UNL     1      24.395  17.321  20.112  1.00  0.00    -0.003 A 
ATOM      2  C   UNL     1      23.417  18.327  20.080  1.00  0.00     0.010 A 
ATOM      3  C   UNL     1      24.275  16.227  19.236  1.00  0.00     0.010 A 
ATOM      4  C   UNL     1      22.341  18.244  19.191  1.00  0.00     0.004 A 
ATOM      5  C   UNL     1      23.200  16.145  18.347  1.00  0.00     0.004 A 
ATOM      6  C   UNL     1      22.221  17.150  18.315  1.00  0.00    -0.045 A 
ENDROOT
BRANCH   1   7
ATOM      7  C   UNL     1      25.532  17.412  21.053  1.00  0.00     0.071 C 
ATOM      8  O   UNL     1      25.375  17.896  22.206  1.00  0.00    -0.545 OA
ATOM      9  O   UNL     1      26.794  16.964  20.678  1.00  0.00    -0.545 OA
ENDBRANCH   1   7
BRANCH   6  10
ATOM     10  C   UNL     1      21.058  17.048  17.345  1.00  0.00     0.013 C 
ATOM     11  C   UNL     1      20.306  18.380  17.242  1.00  0.00     0.012 C 
ATOM     12  C   UNL     1      20.112  15.907  17.736  1.00  0.00     0.012 C 
ENDBRANCH   6  10
TORSDOF 2
ENDMDL
MODEL 9
REMARK VINA RESULT:    -4.894      2.395      3.634
REMARK INTER + INTRA:          -5.677
REMARK INTER:                  -5.466
REMARK INTRA:                  -0.212
REMARK UNBOUND:                -0.212
REMARK SMILES CC(C)c1ccc(C(=O)[O-])cc1
REMARK SMILES IDX 7 1 6 2 11 3 5 4 12 5 4 6 8 7 9 8 10 9 2 10 1 11 3 12
REMARK H PARENT
REMARK Flexibility Score: inf
ROOT
ATOM      1  C   UNL     1      25.580  16.611  19.611  1.00  0.00    -0.003 A 
ATOM      2  C   UNL     1      24.664  15.655  19.142  1.00  0.00     0.010 A 
ATOM      3  C   UNL     1      26.647  16.997  18.779  1.00  0.00     0.010 A 
ATOM      4  C   UNL     1      24.810  15.097  17.869  1.00  0.00     0.004 A 
ATOM      5  C   UNL     1      26.791  16.438  17.507  1.00  0.00     0.004 A 
ATOM      6  C   UNL     1      25.876  15.482  17.037  1.00  0.00    -0.045 A 
ENDROOT
BRANCH   1   7
ATOM      7  C   UNL     1      25.423  17.201  20.958  1.00  0.00     0.071 C 
ATOM      8  O   UNL     1      26.283  16.992  21.855  1.00  0.00    -0.545 OA
ATOM      9  O   UNL     1      24.321  17.995  21.255  1.00  0.00    -0.545 OA
ENDBRANCH   1   7
BRANCH   6  10
ATOM     10  C   UNL     1      26.046  14.884  15.653  1.00  0.00     0.013 C 
ATOM     11  C   UNL     1      25.045  13.746  15.416  1.00  0.00     0.012 C 
ATOM     12  C   UNL     1      27.486  14.408  15.429  1.00  0.00     0.012 C 
ENDBRANCH   6  10
TORSDOF 2
ENDMDL
