MODEL 1
REMARK VINA RESULT:    19.914      0.000      0.000
REMARK INTER + INTRA:          23.710
REMARK INTER:                  23.989
REMARK INTRA:                  -0.279
REMARK UNBOUND:                -0.279
REMARK SMILES O=c1c(O)c(-c2ccc(O)c(O)c2)oc2cc(O)cc(O)c12
REMARK SMILES IDX 5 1 3 2 2 3 1 4 22 5 20 6 19 7 17 8 16 9 15 10 14 11 6 12
REMARK SMILES IDX 7 13 8 14 9 15 13 16 11 17 10 18 12 20 4 22 21 24 18 26
REMARK H PARENT 10 19 12 21 4 23 21 25 18 27
REMARK Flexibility Score: inf
ROOT
ATOM      1  C   UNL     1       8.536   8.271  13.557  1.00  0.00     0.180 A 
ATOM      2  C   UNL     1       8.187   9.139  12.508  1.00  0.00     0.208 A 
ATOM      3  C   UNL     1       6.935   8.992  11.890  1.00  0.00     0.238 A 
ATOM      4  O   UNL     1       6.660   9.724  10.903  1.00  0.00    -0.285 OA
ATOM      5  C   UNL     1       6.025   8.016  12.363  1.00  0.00     0.111 A 
ATOM      6  C   UNL     1       4.712   7.809  11.841  1.00  0.00     0.134 A 
ATOM      7  C   UNL     1       3.941   6.742  12.320  1.00  0.00     0.093 A 
ATOM      8  C   UNL     1       4.405   5.917  13.341  1.00  0.00     0.123 A 
ATOM      9  C   UNL     1       5.665   6.144  13.896  1.00  0.00     0.094 A 
ATOM     10  C   UNL     1       6.475   7.176  13.415  1.00  0.00     0.146 A 
ATOM     11  O   UNL     1       7.675   7.343  13.957  1.00  0.00    -0.452 OA
ENDROOT
BRANCH   1  12
ATOM     12  C   UNL     1       9.843   8.354  14.247  1.00  0.00     0.025 A 
ATOM     13  C   UNL     1       9.902   8.865  15.551  1.00  0.00     0.016 A 
ATOM     14  C   UNL     1      11.120   8.934  16.229  1.00  0.00     0.051 A 
ATOM     15  C   UNL     1      12.300   8.481  15.627  1.00  0.00     0.157 A 
ATOM     16  C   UNL     1      11.022   7.877  13.648  1.00  0.00     0.062 A 
ATOM     17  C   UNL     1      12.248   7.939  14.321  1.00  0.00     0.158 A 
BRANCH  15  18
ATOM     18  O   UNL     1      13.486   8.585  16.356  1.00  0.00    -0.504 OA
ATOM     19  H   UNL     1      13.751   7.952  17.096  1.00  0.00     0.293 HD
ENDBRANCH  15  18
BRANCH  17  20
ATOM     20  O   UNL     1      13.378   7.449  13.663  1.00  0.00    -0.504 OA
ATOM     21  H   UNL     1      14.076   6.865  14.099  1.00  0.00     0.293 HD
ENDBRANCH  17  20
ENDBRANCH   1  12
BRANCH   2  22
ATOM     22  O   UNL     1       9.069  10.147  12.106  1.00  0.00    -0.502 OA
ATOM     23  H   UNL     1       9.807   9.986  11.431  1.00  0.00     0.293 HD
ENDBRANCH   2  22
BRANCH   6  24
ATOM     24  O   UNL     1       4.113   8.628  10.881  1.00  0.00    -0.507 OA
ATOM     25  H   UNL     1       4.576   9.378  10.390  1.00  0.00     0.293 HD
ENDBRANCH   6  24
BRANCH   8  26
ATOM     26  O   UNL     1       3.603   4.875  13.804  1.00  0.00    -0.508 OA
ATOM     27  H   UNL     1       3.646   3.951  13.393  1.00  0.00     0.293 HD
ENDBRANCH   8  26
TORSDOF 6
ENDMDL
MODEL 2
REMARK VINA RESULT:    19.940      1.752      2.366
REMARK INTER + INTRA:          23.741
REMARK INTER:                  23.405
REMARK INTRA:                   0.336
REMARK UNBOUND:                -0.279
REMARK SMILES O=c1c(O)c(-c2ccc(O)c(O)c2)oc2cc(O)cc(O)c12
REMARK SMILES IDX 5 1 3 2 2 3 1 4 22 5 20 6 19 7 17 8 16 9 15 10 14 11 6 12
REMARK SMILES IDX 7 13 8 14 9 15 13 16 11 17 10 18 12 20 4 22 21 24 18 26
REMARK H PARENT 10 19 12 21 4 23 21 25 18 27
REMARK Flexibility Score: inf
ROOT
ATOM      1  C   UNL     1       7.950   7.440  13.721  1.00  0.00     0.180 A 
ATOM      2  C   UNL     1       7.798   6.311  12.898  1.00  0.00     0.208 A 
ATOM      3  C   UNL     1       6.509   5.930  12.493  1.00  0.00     0.238 A 
ATOM      4  O   UNL     1       6.375   4.876  11.818  1.00  0.00    -0.285 OA
ATOM      5  C   UNL     1       5.391   6.713  12.871  1.00  0.00     0.111 A 
ATOM      6  C   UNL     1       4.044   6.447  12.481  1.00  0.00     0.134 A 
ATOM      7  C   UNL     1       3.007   7.231  13.003  1.00  0.00     0.093 A 
ATOM      8  C   UNL     1       3.272   8.308  13.846  1.00  0.00     0.123 A 
ATOM      9  C   UNL     1       4.589   8.611  14.190  1.00  0.00     0.094 A 
ATOM     10  C   UNL     1       5.643   7.824  13.717  1.00  0.00     0.146 A 
ATOM     11  O   UNL     1       6.880   8.135  14.086  1.00  0.00    -0.452 OA
ENDROOT
BRANCH   1  12
ATOM     12  C   UNL     1       9.275   7.894  14.200  1.00  0.00     0.025 A 
ATOM     13  C   UNL     1       9.367   8.597  15.409  1.00  0.00     0.016 A 
ATOM     14  C   UNL     1      10.608   9.017  15.890  1.00  0.00     0.051 A 
ATOM     15  C   UNL     1      11.782   8.733  15.184  1.00  0.00     0.157 A 
ATOM     16  C   UNL     1      10.453   7.587  13.498  1.00  0.00     0.062 A 
ATOM     17  C   UNL     1      11.703   8.001  13.975  1.00  0.00     0.158 A 
BRANCH  15  18
ATOM     18  O   UNL     1      12.990   9.187  15.714  1.00  0.00    -0.504 OA
ATOM     19  H   UNL     1      13.482   8.732  16.469  1.00  0.00     0.293 HD
ENDBRANCH  15  18
BRANCH  17  20
ATOM     20  O   UNL     1      12.831   7.662  13.224  1.00  0.00    -0.504 OA
ATOM     21  H   UNL     1      12.839   7.590  12.218  1.00  0.00     0.293 HD
ENDBRANCH  17  20
ENDBRANCH   1  12
BRANCH   2  22
ATOM     22  O   UNL     1       8.921   5.595  12.472  1.00  0.00    -0.502 OA
ATOM     23  H   UNL     1       9.398   4.927  13.066  1.00  0.00     0.293 HD
ENDBRANCH   2  22
BRANCH   6  24
ATOM     24  O   UNL     1       3.674   5.451  11.573  1.00  0.00    -0.507 OA
ATOM     25  H   UNL     1       3.057   4.680  11.779  1.00  0.00     0.293 HD
ENDBRANCH   6  24
BRANCH   8  26
ATOM     26  O   UNL     1       2.216   9.076  14.333  1.00  0.00    -0.508 OA
ATOM     27  H   UNL     1       1.679   8.788  15.142  1.00  0.00     0.293 HD
ENDBRANCH   8  26
TORSDOF 6
ENDMDL
MODEL 3
REMARK VINA RESULT:    20.330      1.606      1.646
REMARK INTER + INTRA:          24.211
REMARK INTER:                  23.756
REMARK INTRA:                   0.455
REMARK UNBOUND:                -0.279
REMARK SMILES O=c1c(O)c(-c2ccc(O)c(O)c2)oc2cc(O)cc(O)c12
REMARK SMILES IDX 5 1 3 2 2 3 1 4 22 5 20 6 19 7 17 8 16 9 15 10 14 11 6 12
REMARK SMILES IDX 7 13 8 14 9 15 13 16 11 17 10 18 12 20 4 22 21 24 18 26
REMARK H PARENT 10 19 12 21 4 23 21 25 18 27
REMARK Flexibility Score: inf
ROOT
ATOM      1  C   UNL     1       8.819   7.966  13.879  1.00  0.00     0.180 A 
ATOM      2  C   UNL     1       8.701   7.498  12.559  1.00  0.00     0.208 A 
ATOM      3  C   UNL     1       7.421   7.262  12.031  1.00  0.00     0.238 A 
ATOM      4  O   UNL     1       7.326   6.772  10.876  1.00  0.00    -0.285 OA
ATOM      5  C   UNL     1       6.274   7.549  12.810  1.00  0.00     0.111 A 
ATOM      6  C   UNL     1       4.928   7.390  12.361  1.00  0.00     0.134 A 
ATOM      7  C   UNL     1       3.872   7.605  13.257  1.00  0.00     0.093 A 
ATOM      8  C   UNL     1       4.109   8.034  14.561  1.00  0.00     0.123 A 
ATOM      9  C   UNL     1       5.418   8.244  14.994  1.00  0.00     0.094 A 
ATOM     10  C   UNL     1       6.495   8.002  14.136  1.00  0.00     0.146 A 
ATOM     11  O   UNL     1       7.726   8.195  14.596  1.00  0.00    -0.452 OA
ENDROOT
BRANCH   1  12
ATOM     12  C   UNL     1      10.133   8.225  14.509  1.00  0.00     0.025 A 
ATOM     13  C   UNL     1      10.184   8.780  15.794  1.00  0.00     0.016 A 
ATOM     14  C   UNL     1      11.412   9.013  16.416  1.00  0.00     0.051 A 
ATOM     15  C   UNL     1      12.611   8.684  15.775  1.00  0.00     0.157 A 
ATOM     16  C   UNL     1      11.335   7.871  13.870  1.00  0.00     0.062 A 
ATOM     17  C   UNL     1      12.571   8.098  14.488  1.00  0.00     0.158 A 
BRANCH  15  18
ATOM     18  O   UNL     1      13.806   8.949  16.447  1.00  0.00    -0.504 OA
ATOM     19  H   UNL     1      14.006   8.638  17.387  1.00  0.00     0.293 HD
ENDBRANCH  15  18
BRANCH  17  20
ATOM     20  O   UNL     1      13.724   7.724  13.794  1.00  0.00    -0.504 OA
ATOM     21  H   UNL     1      14.503   8.342  13.619  1.00  0.00     0.293 HD
ENDBRANCH  17  20
ENDBRANCH   1  12
BRANCH   2  22
ATOM     22  O   UNL     1       9.843   7.294  11.780  1.00  0.00    -0.502 OA
ATOM     23  H   UNL     1      10.780   7.414  12.146  1.00  0.00     0.293 HD
ENDBRANCH   2  22
BRANCH   6  24
ATOM     24  O   UNL     1       4.573   7.051  11.052  1.00  0.00    -0.507 OA
ATOM     25  H   UNL     1       5.140   6.505  10.422  1.00  0.00     0.293 HD
ENDBRANCH   6  24
BRANCH   8  26
ATOM     26  O   UNL     1       3.034   8.254  15.419  1.00  0.00    -0.508 OA
ATOM     27  H   UNL     1       2.593   7.494  15.923  1.00  0.00     0.293 HD
ENDBRANCH   8  26
TORSDOF 6
ENDMDL
MODEL 4
REMARK VINA RESULT:    21.042      1.239      2.762
REMARK INTER + INTRA:          25.068
REMARK INTER:                  25.348
REMARK INTRA:                  -0.280
REMARK UNBOUND:                -0.279
REMARK SMILES O=c1c(O)c(-c2ccc(O)c(O)c2)oc2cc(O)cc(O)c12
REMARK SMILES IDX 5 1 3 2 2 3 1 4 22 5 20 6 19 7 17 8 16 9 15 10 14 11 6 12
REMARK SMILES IDX 7 13 8 14 9 15 13 16 11 17 10 18 12 20 4 22 21 24 18 26
REMARK H PARENT 10 19 12 21 4 23 21 25 18 27
REMARK Flexibility Score: inf
ROOT
ATOM      1  C   UNL     1       8.444   7.589  13.760  1.00  0.00     0.180 A 
ATOM      2  C   UNL     1       7.916   6.295  13.908  1.00  0.00     0.208 A 
ATOM      3  C   UNL     1       6.637   6.019  13.399  1.00  0.00     0.238 A 
ATOM      4  O   UNL     1       6.141   4.880  13.601  1.00  0.00    -0.285 OA
ATOM      5  C   UNL     1       5.924   7.023  12.700  1.00  0.00     0.111 A 
ATOM      6  C   UNL     1       4.640   6.840  12.103  1.00  0.00     0.134 A 
ATOM      7  C   UNL     1       3.985   7.937  11.528  1.00  0.00     0.093 A 
ATOM      8  C   UNL     1       4.591   9.190  11.470  1.00  0.00     0.123 A 
ATOM      9  C   UNL     1       5.868   9.367  12.002  1.00  0.00     0.094 A 
ATOM     10  C   UNL     1       6.533   8.302  12.617  1.00  0.00     0.146 A 
ATOM     11  O   UNL     1       7.738   8.519  13.129  1.00  0.00    -0.452 OA
ENDROOT
BRANCH   1  12
ATOM     12  C   UNL     1       9.778   7.961  14.283  1.00  0.00     0.025 A 
ATOM     13  C   UNL     1       9.875   8.649  15.500  1.00  0.00     0.016 A 
ATOM     14  C   UNL     1      11.123   8.991  16.022  1.00  0.00     0.051 A 
ATOM     15  C   UNL     1      12.299   8.641  15.349  1.00  0.00     0.157 A 
ATOM     16  C   UNL     1      10.958   7.586  13.615  1.00  0.00     0.062 A 
ATOM     17  C   UNL     1      12.215   7.922  14.133  1.00  0.00     0.158 A 
BRANCH  15  18
ATOM     18  O   UNL     1      13.516   9.019  15.920  1.00  0.00    -0.504 OA
ATOM     19  H   UNL     1      13.926   8.569  16.725  1.00  0.00     0.293 HD
ENDBRANCH  15  18
BRANCH  17  20
ATOM     20  O   UNL     1      13.343   7.520  13.415  1.00  0.00    -0.504 OA
ATOM     21  H   UNL     1      13.885   6.696  13.630  1.00  0.00     0.293 HD
ENDBRANCH  17  20
ENDBRANCH   1  12
BRANCH   2  22
ATOM     22  O   UNL     1       8.667   5.296  14.534  1.00  0.00    -0.502 OA
ATOM     23  H   UNL     1       9.664   5.192  14.387  1.00  0.00     0.293 HD
ENDBRANCH   2  22
BRANCH   6  24
ATOM     24  O   UNL     1       3.980   5.610  12.024  1.00  0.00    -0.507 OA
ATOM     25  H   UNL     1       3.653   5.183  11.172  1.00  0.00     0.293 HD
ENDBRANCH   6  24
BRANCH   8  26
ATOM     26  O   UNL     1       3.916  10.254  10.876  1.00  0.00    -0.508 OA
ATOM     27  H   UNL     1       3.071  10.111  10.335  1.00  0.00     0.293 HD
ENDBRANCH   8  26
TORSDOF 6
ENDMDL
