MODEL 1
REMARK VINA RESULT:    -3.310      0.000      0.000
REMARK INTER + INTRA:          -5.104
REMARK INTER:                  -5.051
REMARK INTRA:                  -0.053
REMARK UNBOUND:                -0.053
REMARK SMILES CC1=CCC[C@@H](C)C(=O)C[C@@H](C(C)C)C(=O)C1
REMARK SMILES IDX 8 1 9 2 6 3 7 4 5 5 4 6 3 7 2 8 1 9 10 11 11 12 15 13 16 14
REMARK SMILES IDX 17 15 12 17 13 18 14 19
REMARK H PARENT
REMARK Flexibility Score: 70.00
ROOT
ATOM      1  C   UNL     1       2.559  12.926  -7.773  1.00  0.00     0.136 C 
ATOM      2  O   UNL     1       2.698  12.410  -6.673  1.00  0.00    -0.299 OA
ENDROOT
BRANCH   1   3
ATOM      3  C   UNL     1       2.858  12.062  -8.992  1.00  0.00     0.053 C 
ATOM      4  C   UNL     1       1.769  10.988  -9.125  1.00  0.00     0.016 C 
BRANCH   3   5
ATOM      5  C   UNL     1       4.252  11.399  -9.023  1.00  0.00     0.015 C 
BRANCH   5   6
ATOM      6  C   UNL     1       5.410  12.383  -8.745  1.00  0.00     0.028 C 
BRANCH   6   7
ATOM      7  C   UNL     1       5.892  12.236  -7.325  1.00  0.00    -0.028 C 
ATOM      8  C   UNL     1       5.988  13.218  -6.399  1.00  0.00    -0.070 CG0
ATOM      9  C   UNL     1       6.590  12.833  -5.067  1.00  0.00     0.039 C 
ATOM     10  G   UNL     1       5.740  14.693  -6.684  1.00  0.00     0.000 G0
ENDBRANCH   6   7
ENDBRANCH   5   6
ENDBRANCH   3   5
ENDBRANCH   1   3
BRANCH   1  11
ATOM     11  C   UNL     1       2.162  14.393  -7.820  1.00  0.00     0.087 C 
BRANCH  11  12
ATOM     12  C   UNL     1       3.402  15.319  -7.888  1.00  0.00     0.066 C 
BRANCH  12  13
ATOM     13  C   UNL     1       4.305  15.172  -6.665  1.00  0.00     0.140 C 
ATOM     14  O   UNL     1       3.815  15.441  -5.577  1.00  0.00    -0.299 OA
BRANCH  13  15
ATOM     15  C   UNL     1       5.744  14.685  -6.669  1.00  0.00     0.106 CG0
ATOM     16  G   UNL     1       5.986  13.205  -6.402  1.00  0.00     0.000 G0
ENDBRANCH  13  15
ENDBRANCH  12  13
BRANCH  12  17
ATOM     17  C   UNL     1       3.074  16.773  -8.348  1.00  0.00    -0.006 C 
ATOM     18  C   UNL     1       1.851  17.416  -7.684  1.00  0.00     0.008 C 
ATOM     19  C   UNL     1       4.297  17.697  -8.232  1.00  0.00     0.008 C 
ENDBRANCH  12  17
ENDBRANCH  11  12
ENDBRANCH   1  11
TORSDOF 1
ENDMDL
MODEL 2
REMARK VINA RESULT:    -3.303      2.582      4.224
REMARK INTER + INTRA:          -5.094
REMARK INTER:                  -5.621
REMARK INTRA:                   0.527
REMARK UNBOUND:                -0.053
REMARK SMILES CC1=CCC[C@@H](C)C(=O)C[C@@H](C(C)C)C(=O)C1
REMARK SMILES IDX 8 1 9 2 6 3 7 4 5 5 4 6 3 7 2 8 1 9 10 11 11 12 15 13 16 14
REMARK SMILES IDX 17 15 12 17 13 18 14 19
REMARK H PARENT
REMARK Flexibility Score: 70.00
ROOT
ATOM      1  C   UNL     1       3.626  17.441  -5.622  1.00  0.00     0.136 C 
ATOM      2  O   UNL     1       4.456  18.165  -5.089  1.00  0.00    -0.299 OA
ENDROOT
BRANCH   1   3
ATOM      3  C   UNL     1       3.872  15.939  -5.568  1.00  0.00     0.053 C 
ATOM      4  C   UNL     1       3.217  15.369  -4.303  1.00  0.00     0.016 C 
BRANCH   3   5
ATOM      5  C   UNL     1       5.350  15.495  -5.636  1.00  0.00     0.015 C 
BRANCH   5   6
ATOM      6  C   UNL     1       5.674  14.614  -6.863  1.00  0.00     0.028 C 
BRANCH   6   7
ATOM      7  C   UNL     1       4.409  14.256  -7.599  1.00  0.00    -0.028 C 
ATOM      8  C   UNL     1       3.839  14.950  -8.611  1.00  0.00    -0.070 CG0
ATOM      9  C   UNL     1       2.516  14.430  -9.124  1.00  0.00     0.039 C 
ATOM     10  G   UNL     1       4.323  16.310  -9.097  1.00  0.00     0.000 G0
ENDBRANCH   6   7
ENDBRANCH   5   6
ENDBRANCH   3   5
ENDBRANCH   1   3
BRANCH   1  11
ATOM     11  C   UNL     1       2.463  18.110  -6.339  1.00  0.00     0.087 C 
BRANCH  11  12
ATOM     12  C   UNL     1       2.351  17.639  -7.810  1.00  0.00     0.066 C 
BRANCH  12  13
ATOM     13  C   UNL     1       3.712  17.558  -8.499  1.00  0.00     0.140 C 
ATOM     14  O   UNL     1       4.374  18.586  -8.545  1.00  0.00    -0.299 OA
BRANCH  13  15
ATOM     15  C   UNL     1       4.339  16.311  -9.099  1.00  0.00     0.106 CG0
ATOM     16  G   UNL     1       3.834  14.962  -8.604  1.00  0.00     0.000 G0
ENDBRANCH  13  15
ENDBRANCH  12  13
BRANCH  12  17
ATOM     17  C   UNL     1       1.202  18.331  -8.605  1.00  0.00    -0.006 C 
ATOM     18  C   UNL     1      -0.211  17.813  -8.310  1.00  0.00     0.008 C 
ATOM     19  C   UNL     1       1.253  19.860  -8.466  1.00  0.00     0.008 C 
ENDBRANCH  12  17
ENDBRANCH  11  12
ENDBRANCH   1  11
TORSDOF 1
ENDMDL
MODEL 3
REMARK VINA RESULT:    -3.294      1.973      4.723
REMARK INTER + INTRA:          -5.080
REMARK INTER:                  -5.845
REMARK INTRA:                   0.766
REMARK UNBOUND:                -0.053
REMARK SMILES CC1=CCC[C@@H](C)C(=O)C[C@@H](C(C)C)C(=O)C1
REMARK SMILES IDX 8 1 9 2 6 3 7 4 5 5 4 6 3 7 2 8 1 9 10 11 11 12 15 13 16 14
REMARK SMILES IDX 17 15 12 17 13 18 14 19
REMARK H PARENT
REMARK Flexibility Score: 70.00
ROOT
ATOM      1  C   UNL     1       2.675  16.023  -8.976  1.00  0.00     0.136 C 
ATOM      2  O   UNL     1       1.701  15.294  -9.101  1.00  0.00    -0.299 OA
ENDROOT
BRANCH   1   3
ATOM      3  C   UNL     1       2.416  17.519  -8.858  1.00  0.00     0.053 C 
ATOM      4  C   UNL     1       3.748  18.241  -8.612  1.00  0.00     0.016 C 
BRANCH   3   5
ATOM      5  C   UNL     1       1.387  17.943  -7.788  1.00  0.00     0.015 C 
BRANCH   5   6
ATOM      6  C   UNL     1       1.385  17.035  -6.538  1.00  0.00     0.028 C 
BRANCH   6   7
ATOM      7  C   UNL     1       2.654  17.227  -5.749  1.00  0.00    -0.028 C 
ATOM      8  C   UNL     1       3.574  16.280  -5.454  1.00  0.00    -0.070 CG0
ATOM      9  C   UNL     1       4.721  16.706  -4.567  1.00  0.00     0.039 C 
ATOM     10  G   UNL     1       3.411  14.799  -5.770  1.00  0.00     0.000 G0
ENDBRANCH   6   7
ENDBRANCH   5   6
ENDBRANCH   3   5
ENDBRANCH   1   3
BRANCH   1  11
ATOM     11  C   UNL     1       4.051  15.376  -9.012  1.00  0.00     0.087 C 
BRANCH  11  12
ATOM     12  C   UNL     1       4.063  14.014  -8.273  1.00  0.00     0.066 C 
BRANCH  12  13
ATOM     13  C   UNL     1       4.351  14.166  -6.781  1.00  0.00     0.140 C 
ATOM     14  O   UNL     1       5.441  13.778  -6.383  1.00  0.00    -0.299 OA
BRANCH  13  15
ATOM     15  C   UNL     1       3.425  14.789  -5.749  1.00  0.00     0.106 CG0
ATOM     16  G   UNL     1       3.591  16.275  -5.463  1.00  0.00     0.000 G0
ENDBRANCH  13  15
ENDBRANCH  12  13
BRANCH  12  17
ATOM     17  C   UNL     1       4.845  12.896  -9.029  1.00  0.00    -0.006 C 
ATOM     18  C   UNL     1       6.373  12.984  -8.941  1.00  0.00     0.008 C 
ATOM     19  C   UNL     1       4.363  11.493  -8.629  1.00  0.00     0.008 C 
ENDBRANCH  12  17
ENDBRANCH  11  12
ENDBRANCH   1  11
TORSDOF 1
ENDMDL
MODEL 4
REMARK VINA RESULT:    -2.975      2.595      5.686
REMARK INTER + INTRA:          -4.593
REMARK INTER:                  -4.465
REMARK INTRA:                  -0.128
REMARK UNBOUND:                -0.053
REMARK SMILES CC1=CCC[C@@H](C)C(=O)C[C@@H](C(C)C)C(=O)C1
REMARK SMILES IDX 8 1 9 2 6 3 7 4 5 5 4 6 3 7 2 8 1 9 10 11 11 12 15 13 16 14
REMARK SMILES IDX 17 15 12 17 13 18 14 19
REMARK H PARENT
REMARK Flexibility Score: 70.00
ROOT
ATOM      1  C   UNL     1       3.638  15.279  -5.475  1.00  0.00     0.136 C 
ATOM      2  O   UNL     1       3.773  14.931  -4.311  1.00  0.00    -0.299 OA
ENDROOT
BRANCH   1   3
ATOM      3  C   UNL     1       3.778  16.765  -5.781  1.00  0.00     0.053 C 
ATOM      4  C   UNL     1       4.976  17.326  -5.002  1.00  0.00     0.016 C 
BRANCH   3   5
ATOM      5  C   UNL     1       2.528  17.630  -5.511  1.00  0.00     0.015 C 
BRANCH   5   6
ATOM      6  C   UNL     1       2.232  18.655  -6.628  1.00  0.00     0.028 C 
BRANCH   6   7
ATOM      7  C   UNL     1       1.023  18.232  -7.420  1.00  0.00    -0.028 C 
ATOM      8  C   UNL     1       0.990  17.326  -8.425  1.00  0.00    -0.070 CG0
ATOM      9  C   UNL     1      -0.336  17.142  -9.125  1.00  0.00     0.039 C 
ATOM     10  G   UNL     1       2.225  16.663  -9.021  1.00  0.00     0.000 G0
ENDBRANCH   6   7
ENDBRANCH   5   6
ENDBRANCH   3   5
ENDBRANCH   1   3
BRANCH   1  11
ATOM     11  C   UNL     1       3.282  14.209  -6.496  1.00  0.00     0.087 C 
BRANCH  11  12
ATOM     12  C   UNL     1       3.667  14.639  -7.934  1.00  0.00     0.066 C 
BRANCH  12  13
ATOM     13  C   UNL     1       2.477  15.193  -8.712  1.00  0.00     0.140 C 
ATOM     14  O   UNL     1       1.635  14.389  -9.089  1.00  0.00    -0.299 OA
BRANCH  13  15
ATOM     15  C   UNL     1       2.219  16.657  -9.031  1.00  0.00     0.106 CG0
ATOM     16  G   UNL     1       1.004  17.312  -8.388  1.00  0.00     0.000 G0
ENDBRANCH  13  15
ENDBRANCH  12  13
BRANCH  12  17
ATOM     17  C   UNL     1       4.573  13.607  -8.675  1.00  0.00    -0.006 C 
ATOM     18  C   UNL     1       6.052  13.992  -8.792  1.00  0.00     0.008 C 
ATOM     19  C   UNL     1       4.430  12.196  -8.086  1.00  0.00     0.008 C 
ENDBRANCH  12  17
ENDBRANCH  11  12
ENDBRANCH   1  11
TORSDOF 1
ENDMDL
MODEL 5
REMARK VINA RESULT:    -2.877      1.969      3.508
REMARK INTER + INTRA:          -4.444
REMARK INTER:                  -5.529
REMARK INTRA:                   1.085
REMARK UNBOUND:                -0.053
REMARK SMILES CC1=CCC[C@@H](C)C(=O)C[C@@H](C(C)C)C(=O)C1
REMARK SMILES IDX 8 1 9 2 6 3 7 4 5 5 4 6 3 7 2 8 1 9 10 11 11 12 15 13 16 14
REMARK SMILES IDX 17 15 12 17 13 18 14 19
REMARK H PARENT
REMARK Flexibility Score: 70.00
ROOT
ATOM      1  C   UNL     1       5.104  14.108  -6.095  1.00  0.00     0.136 C 
ATOM      2  O   UNL     1       5.876  15.046  -5.950  1.00  0.00    -0.299 OA
ENDROOT
BRANCH   1   3
ATOM      3  C   UNL     1       5.695  12.780  -6.550  1.00  0.00     0.053 C 
ATOM      4  C   UNL     1       6.630  12.247  -5.457  1.00  0.00     0.016 C 
BRANCH   3   5
ATOM      5  C   UNL     1       6.435  12.801  -7.906  1.00  0.00     0.015 C 
BRANCH   5   6
ATOM      6  C   UNL     1       5.490  12.883  -9.125  1.00  0.00     0.028 C 
BRANCH   6   7
ATOM      7  C   UNL     1       4.245  12.071  -8.877  1.00  0.00    -0.028 C 
ATOM      8  C   UNL     1       2.968  12.514  -8.928  1.00  0.00    -0.070 CG0
ATOM      9  C   UNL     1       1.894  11.520  -8.549  1.00  0.00     0.039 C 
ATOM     10  G   UNL     1       2.573  13.971  -9.123  1.00  0.00     0.000 G0
ENDBRANCH   6   7
ENDBRANCH   5   6
ENDBRANCH   3   5
ENDBRANCH   1   3
BRANCH   1  11
ATOM     11  C   UNL     1       3.623  14.371  -5.868  1.00  0.00     0.087 C 
BRANCH  11  12
ATOM     12  C   UNL     1       3.070  15.423  -6.862  1.00  0.00     0.066 C 
BRANCH  12  13
ATOM     13  C   UNL     1       3.325  15.036  -8.317  1.00  0.00     0.140 C 
ATOM     14  O   UNL     1       4.247  15.601  -8.890  1.00  0.00    -0.299 OA
BRANCH  13  15
ATOM     15  C   UNL     1       2.565  13.987  -9.112  1.00  0.00     0.106 CG0
ATOM     16  G   UNL     1       2.972  12.532  -8.924  1.00  0.00     0.000 G0
ENDBRANCH  13  15
ENDBRANCH  12  13
BRANCH  12  17
ATOM     17  C   UNL     1       3.389  16.896  -6.460  1.00  0.00    -0.006 C 
ATOM     18  C   UNL     1       2.239  17.893  -6.640  1.00  0.00     0.008 C 
ATOM     19  C   UNL     1       3.963  16.987  -5.038  1.00  0.00     0.008 C 
ENDBRANCH  12  17
ENDBRANCH  11  12
ENDBRANCH   1  11
TORSDOF 1
ENDMDL
MODEL 6
REMARK VINA RESULT:    -2.876      2.696      3.957
REMARK INTER + INTRA:          -4.443
REMARK INTER:                  -6.234
REMARK INTRA:                   1.791
REMARK UNBOUND:                -0.053
REMARK SMILES CC1=CCC[C@@H](C)C(=O)C[C@@H](C(C)C)C(=O)C1
REMARK SMILES IDX 8 1 9 2 6 3 7 4 5 5 4 6 3 7 2 8 1 9 10 11 11 12 15 13 16 14
REMARK SMILES IDX 17 15 12 17 13 18 14 19
REMARK H PARENT
REMARK Flexibility Score: 70.00
ROOT
ATOM      1  C   UNL     1       4.068  16.261  -8.682  1.00  0.00     0.136 C 
ATOM      2  O   UNL     1       2.964  15.928  -9.092  1.00  0.00    -0.299 OA
ENDROOT
BRANCH   1   3
ATOM      3  C   UNL     1       4.939  15.176  -8.063  1.00  0.00     0.053 C 
ATOM      4  C   UNL     1       5.980  14.720  -9.093  1.00  0.00     0.016 C 
BRANCH   3   5
ATOM      5  C   UNL     1       4.188  13.949  -7.500  1.00  0.00     0.015 C 
BRANCH   5   6
ATOM      6  C   UNL     1       4.023  13.976  -5.965  1.00  0.00     0.028 C 
BRANCH   6   7
ATOM      7  C   UNL     1       2.786  14.747  -5.584  1.00  0.00    -0.028 C 
ATOM      8  C   UNL     1       2.647  16.093  -5.566  1.00  0.00    -0.070 CG0
ATOM      9  C   UNL     1       1.328  16.627  -5.057  1.00  0.00     0.039 C 
ATOM     10  G   UNL     1       3.784  17.076  -5.810  1.00  0.00     0.000 G0
ENDBRANCH   6   7
ENDBRANCH   5   6
ENDBRANCH   3   5
ENDBRANCH   1   3
BRANCH   1  11
ATOM     11  C   UNL     1       4.440  17.733  -8.772  1.00  0.00     0.087 C 
BRANCH  11  12
ATOM     12  C   UNL     1       3.424  18.627  -8.018  1.00  0.00     0.066 C 
BRANCH  12  13
ATOM     13  C   UNL     1       3.464  18.406  -6.508  1.00  0.00     0.140 C 
ATOM     14  O   UNL     1       3.184  19.362  -5.798  1.00  0.00    -0.299 OA
BRANCH  13  15
ATOM     15  C   UNL     1       3.782  17.098  -5.803  1.00  0.00     0.106 CG0
ATOM     16  G   UNL     1       2.638  16.115  -5.596  1.00  0.00     0.000 G0
ENDBRANCH  13  15
ENDBRANCH  12  13
BRANCH  12  17
ATOM     17  C   UNL     1       2.014  18.674  -8.684  1.00  0.00    -0.006 C 
ATOM     18  C   UNL     1       0.944  17.793  -8.028  1.00  0.00     0.008 C 
ATOM     19  C   UNL     1       1.503  20.114  -8.838  1.00  0.00     0.008 C 
ENDBRANCH  12  17
ENDBRANCH  11  12
ENDBRANCH   1  11
TORSDOF 1
ENDMDL
MODEL 7
REMARK VINA RESULT:    -2.782      2.286      4.814
REMARK INTER + INTRA:          -4.298
REMARK INTER:                  -5.046
REMARK INTRA:                   0.748
REMARK UNBOUND:                -0.053
REMARK SMILES CC1=CCC[C@@H](C)C(=O)C[C@@H](C(C)C)C(=O)C1
REMARK SMILES IDX 8 1 9 2 6 3 7 4 5 5 4 6 3 7 2 8 1 9 10 11 11 12 15 13 16 14
REMARK SMILES IDX 17 15 12 17 13 18 14 19
REMARK H PARENT
REMARK Flexibility Score: 70.00
ROOT
ATOM      1  C   UNL     1       3.554  18.986  -6.345  1.00  0.00     0.136 C 
ATOM      2  O   UNL     1       2.829  19.623  -5.593  1.00  0.00    -0.299 OA
ENDROOT
BRANCH   1   3
ATOM      3  C   UNL     1       3.754  19.535  -7.752  1.00  0.00     0.053 C 
ATOM      4  C   UNL     1       2.390  19.931  -8.334  1.00  0.00     0.016 C 
BRANCH   3   5
ATOM      5  C   UNL     1       4.493  18.607  -8.739  1.00  0.00     0.015 C 
BRANCH   5   6
ATOM      6  C   UNL     1       3.730  17.300  -9.049  1.00  0.00     0.028 C 
BRANCH   6   7
ATOM      7  C   UNL     1       4.668  16.122  -9.002  1.00  0.00    -0.028 C 
ATOM      8  C   UNL     1       4.477  14.964  -8.329  1.00  0.00    -0.070 CG0
ATOM      9  C   UNL     1       5.613  13.967  -8.367  1.00  0.00     0.039 C 
ATOM     10  G   UNL     1       3.314  14.704  -7.382  1.00  0.00     0.000 G0
ENDBRANCH   6   7
ENDBRANCH   5   6
ENDBRANCH   3   5
ENDBRANCH   1   3
BRANCH   1  11
ATOM     11  C   UNL     1       4.135  17.679  -5.828  1.00  0.00     0.087 C 
BRANCH  11  12
ATOM     12  C   UNL     1       3.024  16.649  -5.501  1.00  0.00     0.066 C 
BRANCH  12  13
ATOM     13  C   UNL     1       3.393  15.236  -5.946  1.00  0.00     0.140 C 
ATOM     14  O   UNL     1       3.772  14.461  -5.080  1.00  0.00    -0.299 OA
BRANCH  13  15
ATOM     15  C   UNL     1       3.298  14.690  -7.361  1.00  0.00     0.106 CG0
ATOM     16  G   UNL     1       4.461  14.972  -8.303  1.00  0.00     0.000 G0
ENDBRANCH  13  15
ENDBRANCH  12  13
BRANCH  12  17
ATOM     17  C   UNL     1       1.587  17.144  -5.851  1.00  0.00    -0.006 C 
ATOM     18  C   UNL     1       1.065  16.731  -7.232  1.00  0.00     0.008 C 
ATOM     19  C   UNL     1       0.573  16.769  -4.759  1.00  0.00     0.008 C 
ENDBRANCH  12  17
ENDBRANCH  11  12
ENDBRANCH   1  11
TORSDOF 1
ENDMDL
MODEL 8
REMARK VINA RESULT:    -2.678      3.199      6.405
REMARK INTER + INTRA:          -4.139
REMARK INTER:                  -4.356
REMARK INTRA:                   0.216
REMARK UNBOUND:                -0.053
REMARK SMILES CC1=CCC[C@@H](C)C(=O)C[C@@H](C(C)C)C(=O)C1
REMARK SMILES IDX 8 1 9 2 6 3 7 4 5 5 4 6 3 7 2 8 1 9 10 11 11 12 15 13 16 14
REMARK SMILES IDX 17 15 12 17 13 18 14 19
REMARK H PARENT
REMARK Flexibility Score: 70.00
ROOT
ATOM      1  C   UNL     1       4.097  18.774  -6.320  1.00  0.00     0.136 C 
ATOM      2  O   UNL     1       4.842  19.587  -5.791  1.00  0.00    -0.299 OA
ENDROOT
BRANCH   1   3
ATOM      3  C   UNL     1       3.436  19.184  -7.630  1.00  0.00     0.053 C 
ATOM      4  C   UNL     1       4.511  19.305  -8.718  1.00  0.00     0.016 C 
BRANCH   3   5
ATOM      5  C   UNL     1       2.591  20.476  -7.584  1.00  0.00     0.015 C 
BRANCH   5   6
ATOM      6  C   UNL     1       1.136  20.281  -8.066  1.00  0.00     0.028 C 
BRANCH   6   7
ATOM      7  C   UNL     1       0.992  18.958  -8.773  1.00  0.00    -0.028 C 
ATOM      8  C   UNL     1       0.622  17.781  -8.218  1.00  0.00    -0.070 CG0
ATOM      9  C   UNL     1       0.640  16.572  -9.125  1.00  0.00     0.039 C 
ATOM     10  G   UNL     1       0.409  17.567  -6.725  1.00  0.00     0.000 G0
ENDBRANCH   6   7
ENDBRANCH   5   6
ENDBRANCH   3   5
ENDBRANCH   1   3
BRANCH   1  11
ATOM     11  C   UNL     1       3.854  17.461  -5.594  1.00  0.00     0.087 C 
BRANCH  11  12
ATOM     12  C   UNL     1       2.911  16.529  -6.395  1.00  0.00     0.066 C 
BRANCH  12  13
ATOM     13  C   UNL     1       1.446  16.709  -6.002  1.00  0.00     0.140 C 
ATOM     14  O   UNL     1       1.070  16.143  -4.984  1.00  0.00    -0.299 OA
BRANCH  13  15
ATOM     15  C   UNL     1       0.419  17.555  -6.735  1.00  0.00     0.106 CG0
ATOM     16  G   UNL     1       0.628  17.777  -8.227  1.00  0.00     0.000 G0
ENDBRANCH  13  15
ENDBRANCH  12  13
BRANCH  12  17
ATOM     17  C   UNL     1       3.431  15.064  -6.518  1.00  0.00    -0.006 C 
ATOM     18  C   UNL     1       3.065  14.340  -7.819  1.00  0.00     0.008 C 
ATOM     19  C   UNL     1       4.942  14.972  -6.258  1.00  0.00     0.008 C 
ENDBRANCH  12  17
ENDBRANCH  11  12
ENDBRANCH   1  11
TORSDOF 1
ENDMDL
