MODEL 1
REMARK VINA RESULT:    20.527      0.000      0.000
REMARK INTER + INTRA:          37.924
REMARK INTER:                  38.526
REMARK INTRA:                  -0.602
REMARK UNBOUND:                -0.602
REMARK SMILES CCCCCCCCC=CCCCCCCCC(=O)[O-]
REMARK SMILES IDX 10 1 9 2 11 3 12 4 13 5 14 6 15 7 16 8 17 9 18 10 19 11
REMARK SMILES IDX 20 12 8 13 7 14 6 15 5 16 4 17 3 18 2 19 1 20
REMARK H PARENT
REMARK Flexibility Score: inf
ROOT
ATOM      1  C   UNL     1      -2.094  20.435   9.000  1.00  0.00    -0.031 C 
ATOM      2  C   UNL     1      -2.059  21.742   9.326  1.00  0.00    -0.031 C 
ENDROOT
BRANCH   1   3
ATOM      3  C   UNL     1      -1.119  19.386   9.480  1.00  0.00     0.027 C 
BRANCH   3   4
ATOM      4  C   UNL     1      -1.807  18.035   9.741  1.00  0.00     0.004 C 
BRANCH   4   5
ATOM      5  C   UNL     1      -0.952  16.799   9.407  1.00  0.00     0.000 C 
BRANCH   5   6
ATOM      6  C   UNL     1      -1.787  15.622   8.875  1.00  0.00     0.000 C 
BRANCH   6   7
ATOM      7  C   UNL     1      -2.859  16.069   7.866  1.00  0.00     0.000 C 
BRANCH   7   8
ATOM      8  C   UNL     1      -3.926  14.991   7.622  1.00  0.00     0.006 C 
BRANCH   8   9
ATOM      9  C   UNL     1      -5.292  15.627   7.343  1.00  0.00     0.053 C 
BRANCH   9  10
ATOM     10  C   UNL     1      -6.391  14.662   7.657  1.00  0.00     0.041 C 
ATOM     11  O   UNL     1      -6.546  13.629   6.954  1.00  0.00    -0.550 OA
ATOM     12  O   UNL     1      -7.210  14.875   8.758  1.00  0.00    -0.550 OA
ENDBRANCH   9  10
ENDBRANCH   8   9
ENDBRANCH   7   8
ENDBRANCH   6   7
ENDBRANCH   5   6
ENDBRANCH   4   5
ENDBRANCH   3   4
ENDBRANCH   1   3
BRANCH   2  13
ATOM     13  C   UNL     1      -1.011  22.402  10.189  1.00  0.00     0.027 C 
BRANCH  13  14
ATOM     14  C   UNL     1      -0.168  23.451   9.445  1.00  0.00     0.004 C 
BRANCH  14  15
ATOM     15  C   UNL     1      -0.776  24.869   9.473  1.00  0.00     0.000 C 
BRANCH  15  16
ATOM     16  C   UNL     1       0.286  25.970   9.312  1.00  0.00     0.000 C 
BRANCH  16  17
ATOM     17  C   UNL     1       0.331  26.923  10.518  1.00  0.00    -0.000 C 
BRANCH  17  18
ATOM     18  C   UNL     1      -1.024  27.607  10.780  1.00  0.00    -0.000 C 
BRANCH  18  19
ATOM     19  C   UNL     1      -1.791  26.962  11.945  1.00  0.00    -0.003 C 
ATOM     20  C   UNL     1      -1.497  27.634  13.286  1.00  0.00     0.004 C 
ENDBRANCH  18  19
ENDBRANCH  17  18
ENDBRANCH  16  17
ENDBRANCH  15  16
ENDBRANCH  14  15
ENDBRANCH  13  14
ENDBRANCH   2  13
TORSDOF 15
ENDMDL
MODEL 2
REMARK VINA RESULT:    20.871      4.741     10.645
REMARK INTER + INTRA:          38.571
REMARK INTER:                  39.404
REMARK INTRA:                  -0.833
REMARK UNBOUND:                -0.602
REMARK SMILES CCCCCCCCC=CCCCCCCCC(=O)[O-]
REMARK SMILES IDX 10 1 9 2 11 3 12 4 13 5 14 6 15 7 16 8 17 9 18 10 19 11
REMARK SMILES IDX 20 12 8 13 7 14 6 15 5 16 4 17 3 18 2 19 1 20
REMARK H PARENT
REMARK Flexibility Score: inf
ROOT
ATOM      1  C   UNL     1      -2.063  19.122  10.059  1.00  0.00    -0.031 C 
ATOM      2  C   UNL     1      -1.931  17.800  10.280  1.00  0.00    -0.031 C 
ENDROOT
BRANCH   1   3
ATOM      3  C   UNL     1      -1.204  19.944   9.126  1.00  0.00     0.027 C 
BRANCH   3   4
ATOM      4  C   UNL     1      -1.707  21.393   9.006  1.00  0.00     0.004 C 
BRANCH   4   5
ATOM      5  C   UNL     1      -1.515  22.251  10.269  1.00  0.00     0.000 C 
BRANCH   5   6
ATOM      6  C   UNL     1      -0.396  23.295  10.118  1.00  0.00     0.000 C 
BRANCH   6   7
ATOM      7  C   UNL     1      -0.690  24.315   9.005  1.00  0.00     0.000 C 
BRANCH   7   8
ATOM      8  C   UNL     1      -0.221  25.734   9.365  1.00  0.00     0.006 C 
BRANCH   8   9
ATOM      9  C   UNL     1      -0.120  25.908  10.883  1.00  0.00     0.053 C 
BRANCH   9  10
ATOM     10  C   UNL     1      -0.802  27.169  11.312  1.00  0.00     0.041 C 
ATOM     11  O   UNL     1      -1.532  27.177  12.338  1.00  0.00    -0.550 OA
ATOM     12  O   UNL     1      -0.586  28.348  10.610  1.00  0.00    -0.550 OA
ENDBRANCH   9  10
ENDBRANCH   8   9
ENDBRANCH   7   8
ENDBRANCH   6   7
ENDBRANCH   5   6
ENDBRANCH   4   5
ENDBRANCH   3   4
ENDBRANCH   1   3
BRANCH   2  13
ATOM     13  C   UNL     1      -0.872  16.912   9.675  1.00  0.00     0.027 C 
BRANCH  13  14
ATOM     14  C   UNL     1      -1.245  16.361   8.288  1.00  0.00     0.004 C 
BRANCH  14  15
ATOM     15  C   UNL     1      -2.556  15.548   8.275  1.00  0.00     0.000 C 
BRANCH  15  16
ATOM     16  C   UNL     1      -3.343  15.716   6.963  1.00  0.00     0.000 C 
BRANCH  16  17
ATOM     17  C   UNL     1      -4.863  15.743   7.190  1.00  0.00    -0.000 C 
BRANCH  17  18
ATOM     18  C   UNL     1      -5.411  14.387   7.674  1.00  0.00    -0.000 C 
BRANCH  18  19
ATOM     19  C   UNL     1      -6.847  14.493   8.210  1.00  0.00    -0.003 C 
ATOM     20  C   UNL     1      -7.892  14.044   7.187  1.00  0.00     0.004 C 
ENDBRANCH  18  19
ENDBRANCH  17  18
ENDBRANCH  16  17
ENDBRANCH  15  16
ENDBRANCH  14  15
ENDBRANCH  13  14
ENDBRANCH   2  13
TORSDOF 15
ENDMDL
MODEL 3
REMARK VINA RESULT:    20.999     11.410     12.384
REMARK INTER + INTRA:          38.811
REMARK INTER:                  40.139
REMARK INTRA:                  -1.328
REMARK UNBOUND:                -0.602
REMARK SMILES CCCCCCCCC=CCCCCCCCC(=O)[O-]
REMARK SMILES IDX 10 1 9 2 11 3 12 4 13 5 14 6 15 7 16 8 17 9 18 10 19 11
REMARK SMILES IDX 20 12 8 13 7 14 6 15 5 16 4 17 3 18 2 19 1 20
REMARK H PARENT
REMARK Flexibility Score: inf
ROOT
ATOM      1  C   UNL     1      -1.233  13.347  18.539  1.00  0.00    -0.031 C 
ATOM      2  C   UNL     1      -0.565  14.502  18.727  1.00  0.00    -0.031 C 
ENDROOT
BRANCH   1   3
ATOM      3  C   UNL     1      -1.998  12.595  19.602  1.00  0.00     0.027 C 
BRANCH   3   4
ATOM      4  C   UNL     1      -3.520  12.750  19.436  1.00  0.00     0.004 C 
BRANCH   4   5
ATOM      5  C   UNL     1      -4.264  13.212  20.703  1.00  0.00     0.000 C 
BRANCH   5   6
ATOM      6  C   UNL     1      -3.807  14.598  21.191  1.00  0.00     0.000 C 
BRANCH   6   7
ATOM      7  C   UNL     1      -4.325  15.737  20.296  1.00  0.00     0.000 C 
BRANCH   7   8
ATOM      8  C   UNL     1      -5.387  16.600  20.993  1.00  0.00     0.006 C 
BRANCH   8   9
ATOM      9  C   UNL     1      -6.369  17.188  19.975  1.00  0.00     0.053 C 
BRANCH   9  10
ATOM     10  C   UNL     1      -7.655  16.424  19.987  1.00  0.00     0.041 C 
ATOM     11  O   UNL     1      -7.699  15.251  19.532  1.00  0.00    -0.550 OA
ATOM     12  O   UNL     1      -8.792  16.987  20.552  1.00  0.00    -0.550 OA
ENDBRANCH   9  10
ENDBRANCH   8   9
ENDBRANCH   7   8
ENDBRANCH   6   7
ENDBRANCH   5   6
ENDBRANCH   4   5
ENDBRANCH   3   4
ENDBRANCH   1   3
BRANCH   2  13
ATOM     13  C   UNL     1      -0.420  15.226  20.044  1.00  0.00     0.027 C 
BRANCH  13  14
ATOM     14  C   UNL     1       0.022  16.692  19.898  1.00  0.00     0.004 C 
BRANCH  14  15
ATOM     15  C   UNL     1      -0.916  17.696  20.599  1.00  0.00     0.000 C 
BRANCH  15  16
ATOM     16  C   UNL     1      -0.504  19.159  20.354  1.00  0.00     0.000 C 
BRANCH  16  17
ATOM     17  C   UNL     1      -1.242  20.139  21.281  1.00  0.00    -0.000 C 
BRANCH  17  18
ATOM     18  C   UNL     1      -0.277  20.989  22.128  1.00  0.00    -0.000 C 
BRANCH  18  19
ATOM     19  C   UNL     1      -0.703  22.464  22.200  1.00  0.00    -0.003 C 
ATOM     20  C   UNL     1      -2.000  22.664  22.985  1.00  0.00     0.004 C 
ENDBRANCH  18  19
ENDBRANCH  17  18
ENDBRANCH  16  17
ENDBRANCH  15  16
ENDBRANCH  14  15
ENDBRANCH  13  14
ENDBRANCH   2  13
TORSDOF 15
ENDMDL
MODEL 4
REMARK VINA RESULT:    21.185      0.828      1.750
REMARK INTER + INTRA:          39.160
REMARK INTER:                  40.053
REMARK INTRA:                  -0.893
REMARK UNBOUND:                -0.602
REMARK SMILES CCCCCCCCC=CCCCCCCCC(=O)[O-]
REMARK SMILES IDX 10 1 9 2 11 3 12 4 13 5 14 6 15 7 16 8 17 9 18 10 19 11
REMARK SMILES IDX 20 12 8 13 7 14 6 15 5 16 4 17 3 18 2 19 1 20
REMARK H PARENT
REMARK Flexibility Score: inf
ROOT
ATOM      1  C   UNL     1      -1.906  18.273  10.072  1.00  0.00    -0.031 C 
ATOM      2  C   UNL     1      -2.258  19.532   9.745  1.00  0.00    -0.031 C 
ENDROOT
BRANCH   1   3
ATOM      3  C   UNL     1      -0.581  17.623   9.754  1.00  0.00     0.027 C 
BRANCH   3   4
ATOM      4  C   UNL     1      -0.723  16.504   8.708  1.00  0.00     0.004 C 
BRANCH   4   5
ATOM      5  C   UNL     1      -1.805  15.456   9.027  1.00  0.00     0.000 C 
BRANCH   5   6
ATOM      6  C   UNL     1      -2.799  15.254   7.871  1.00  0.00     0.000 C 
BRANCH   6   7
ATOM      7  C   UNL     1      -3.930  16.297   7.877  1.00  0.00     0.000 C 
BRANCH   7   8
ATOM      8  C   UNL     1      -5.175  15.824   7.113  1.00  0.00     0.006 C 
BRANCH   8   9
ATOM      9  C   UNL     1      -5.593  14.420   7.562  1.00  0.00     0.053 C 
BRANCH   9  10
ATOM     10  C   UNL     1      -7.058  14.382   7.863  1.00  0.00     0.041 C 
ATOM     11  O   UNL     1      -7.864  13.898   7.024  1.00  0.00    -0.550 OA
ATOM     12  O   UNL     1      -7.527  14.829   9.090  1.00  0.00    -0.550 OA
ENDBRANCH   9  10
ENDBRANCH   8   9
ENDBRANCH   7   8
ENDBRANCH   6   7
ENDBRANCH   5   6
ENDBRANCH   4   5
ENDBRANCH   3   4
ENDBRANCH   1   3
BRANCH   2  13
ATOM     13  C   UNL     1      -1.410  20.503   8.960  1.00  0.00     0.027 C 
BRANCH  13  14
ATOM     14  C   UNL     1      -1.867  21.966   9.087  1.00  0.00     0.004 C 
BRANCH  14  15
ATOM     15  C   UNL     1      -1.033  22.791  10.089  1.00  0.00     0.000 C 
BRANCH  15  16
ATOM     16  C   UNL     1      -0.327  23.987   9.425  1.00  0.00     0.000 C 
BRANCH  16  17
ATOM     17  C   UNL     1      -0.078  25.142  10.409  1.00  0.00    -0.000 C 
BRANCH  17  18
ATOM     18  C   UNL     1      -0.574  26.495   9.866  1.00  0.00    -0.000 C 
BRANCH  18  19
ATOM     19  C   UNL     1      -0.613  27.583  10.951  1.00  0.00    -0.003 C 
ATOM     20  C   UNL     1      -1.472  27.185  12.152  1.00  0.00     0.004 C 
ENDBRANCH  18  19
ENDBRANCH  17  18
ENDBRANCH  16  17
ENDBRANCH  15  16
ENDBRANCH  14  15
ENDBRANCH  13  14
ENDBRANCH   2  13
TORSDOF 15
ENDMDL
MODEL 5
REMARK VINA RESULT:    21.465      4.877     10.083
REMARK INTER + INTRA:          39.685
REMARK INTER:                  40.752
REMARK INTRA:                  -1.067
REMARK UNBOUND:                -0.602
REMARK SMILES CCCCCCCCC=CCCCCCCCC(=O)[O-]
REMARK SMILES IDX 10 1 9 2 11 3 12 4 13 5 14 6 15 7 16 8 17 9 18 10 19 11
REMARK SMILES IDX 20 12 8 13 7 14 6 15 5 16 4 17 3 18 2 19 1 20
REMARK H PARENT
REMARK Flexibility Score: inf
ROOT
ATOM      1  C   UNL     1      -1.174  18.119  10.004  1.00  0.00    -0.031 C 
ATOM      2  C   UNL     1      -1.467  16.851   9.656  1.00  0.00    -0.031 C 
ENDROOT
BRANCH   1   3
ATOM      3  C   UNL     1      -1.128  19.298   9.062  1.00  0.00     0.027 C 
BRANCH   3   4
ATOM      4  C   UNL     1      -1.951  20.487   9.585  1.00  0.00     0.004 C 
BRANCH   4   5
ATOM      5  C   UNL     1      -1.560  21.854   8.993  1.00  0.00     0.000 C 
BRANCH   5   6
ATOM      6  C   UNL     1      -0.868  22.772  10.015  1.00  0.00     0.000 C 
BRANCH   6   7
ATOM      7  C   UNL     1      -0.248  24.018   9.362  1.00  0.00     0.000 C 
BRANCH   7   8
ATOM      8  C   UNL     1      -0.043  25.168  10.359  1.00  0.00     0.006 C 
BRANCH   8   9
ATOM      9  C   UNL     1      -0.614  26.479   9.809  1.00  0.00     0.053 C 
BRANCH   9  10
ATOM     10  C   UNL     1      -0.715  27.502  10.895  1.00  0.00     0.041 C 
ATOM     11  O   UNL     1      -0.235  28.654  10.726  1.00  0.00    -0.550 OA
ATOM     12  O   UNL     1      -1.387  27.203  12.072  1.00  0.00    -0.550 OA
ENDBRANCH   9  10
ENDBRANCH   8   9
ENDBRANCH   7   8
ENDBRANCH   6   7
ENDBRANCH   5   6
ENDBRANCH   4   5
ENDBRANCH   3   4
ENDBRANCH   1   3
BRANCH   2  13
ATOM     13  C   UNL     1      -1.753  16.371   8.253  1.00  0.00     0.027 C 
BRANCH  13  14
ATOM     14  C   UNL     1      -2.824  15.269   8.183  1.00  0.00     0.004 C 
BRANCH  14  15
ATOM     15  C   UNL     1      -3.912  15.529   7.121  1.00  0.00     0.000 C 
BRANCH  15  16
ATOM     16  C   UNL     1      -5.271  14.919   7.507  1.00  0.00     0.000 C 
BRANCH  16  17
ATOM     17  C   UNL     1      -6.313  15.990   7.870  1.00  0.00    -0.000 C 
BRANCH  17  18
ATOM     18  C   UNL     1      -5.713  17.408   7.907  1.00  0.00    -0.000 C 
BRANCH  18  19
ATOM     19  C   UNL     1      -6.313  18.269   9.030  1.00  0.00    -0.003 C 
ATOM     20  C   UNL     1      -5.252  18.800   9.995  1.00  0.00     0.004 C 
ENDBRANCH  18  19
ENDBRANCH  17  18
ENDBRANCH  16  17
ENDBRANCH  15  16
ENDBRANCH  14  15
ENDBRANCH  13  14
ENDBRANCH   2  13
TORSDOF 15
ENDMDL
MODEL 6
REMARK VINA RESULT:    21.573      2.410      3.450
REMARK INTER + INTRA:          39.888
REMARK INTER:                  40.849
REMARK INTRA:                  -0.961
REMARK UNBOUND:                -0.602
REMARK SMILES CCCCCCCCC=CCCCCCCCC(=O)[O-]
REMARK SMILES IDX 10 1 9 2 11 3 12 4 13 5 14 6 15 7 16 8 17 9 18 10 19 11
REMARK SMILES IDX 20 12 8 13 7 14 6 15 5 16 4 17 3 18 2 19 1 20
REMARK H PARENT
REMARK Flexibility Score: inf
ROOT
ATOM      1  C   UNL     1      -3.869  21.695   8.501  1.00  0.00    -0.031 C 
ATOM      2  C   UNL     1      -2.564  21.994   8.350  1.00  0.00    -0.031 C 
ENDROOT
BRANCH   1   3
ATOM      3  C   UNL     1      -4.511  21.193   9.773  1.00  0.00     0.027 C 
BRANCH   3   4
ATOM      4  C   UNL     1      -5.507  20.053   9.505  1.00  0.00     0.004 C 
BRANCH   4   5
ATOM      5  C   UNL     1      -5.234  18.757  10.291  1.00  0.00     0.000 C 
BRANCH   5   6
ATOM      6  C   UNL     1      -4.146  17.884   9.643  1.00  0.00     0.000 C 
BRANCH   6   7
ATOM      7  C   UNL     1      -2.824  17.910  10.430  1.00  0.00     0.000 C 
BRANCH   7   8
ATOM      8  C   UNL     1      -1.662  18.495   9.613  1.00  0.00     0.006 C 
BRANCH   8   9
ATOM      9  C   UNL     1      -0.616  17.420   9.303  1.00  0.00     0.053 C 
BRANCH   9  10
ATOM     10  C   UNL     1      -1.269  16.082   9.153  1.00  0.00     0.041 C 
ATOM     11  O   UNL     1      -1.933  15.815   8.117  1.00  0.00    -0.550 OA
ATOM     12  O   UNL     1      -1.097  15.112  10.131  1.00  0.00    -0.550 OA
ENDBRANCH   9  10
ENDBRANCH   8   9
ENDBRANCH   7   8
ENDBRANCH   6   7
ENDBRANCH   5   6
ENDBRANCH   4   5
ENDBRANCH   3   4
ENDBRANCH   1   3
BRANCH   2  13
ATOM     13  C   UNL     1      -1.500  21.835   9.409  1.00  0.00     0.027 C 
BRANCH  13  14
ATOM     14  C   UNL     1      -0.964  23.170   9.952  1.00  0.00     0.004 C 
BRANCH  14  15
ATOM     15  C   UNL     1       0.036  23.868   9.007  1.00  0.00     0.000 C 
BRANCH  15  16
ATOM     16  C   UNL     1       0.050  25.396   9.187  1.00  0.00     0.000 C 
BRANCH  16  17
ATOM     17  C   UNL     1      -0.306  25.822  10.621  1.00  0.00    -0.000 C 
BRANCH  17  18
ATOM     18  C   UNL     1      -0.420  27.351  10.771  1.00  0.00    -0.000 C 
BRANCH  18  19
ATOM     19  C   UNL     1      -1.627  27.768  11.625  1.00  0.00    -0.003 C 
ATOM     20  C   UNL     1      -1.482  27.357  13.090  1.00  0.00     0.004 C 
ENDBRANCH  18  19
ENDBRANCH  17  18
ENDBRANCH  16  17
ENDBRANCH  15  16
ENDBRANCH  14  15
ENDBRANCH  13  14
ENDBRANCH   2  13
TORSDOF 15
ENDMDL
MODEL 7
REMARK VINA RESULT:    21.688      1.619      1.969
REMARK INTER + INTRA:          40.103
REMARK INTER:                  41.046
REMARK INTRA:                  -0.942
REMARK UNBOUND:                -0.602
REMARK SMILES CCCCCCCCC=CCCCCCCCC(=O)[O-]
REMARK SMILES IDX 10 1 9 2 11 3 12 4 13 5 14 6 15 7 16 8 17 9 18 10 19 11
REMARK SMILES IDX 20 12 8 13 7 14 6 15 5 16 4 17 3 18 2 19 1 20
REMARK H PARENT
REMARK Flexibility Score: inf
ROOT
ATOM      1  C   UNL     1      -2.014  19.256   9.505  1.00  0.00    -0.031 C 
ATOM      2  C   UNL     1      -2.272  20.574   9.398  1.00  0.00    -0.031 C 
ENDROOT
BRANCH   1   3
ATOM      3  C   UNL     1      -0.668  18.606   9.287  1.00  0.00     0.027 C 
BRANCH   3   4
ATOM      4  C   UNL     1      -0.722  17.083   9.496  1.00  0.00     0.004 C 
BRANCH   4   5
ATOM      5  C   UNL     1      -2.105  16.447   9.262  1.00  0.00     0.000 C 
BRANCH   5   6
ATOM      6  C   UNL     1      -2.320  16.007   7.805  1.00  0.00     0.000 C 
BRANCH   6   7
ATOM      7  C   UNL     1      -3.663  15.284   7.600  1.00  0.00     0.000 C 
BRANCH   7   8
ATOM      8  C   UNL     1      -4.753  16.211   7.041  1.00  0.00     0.006 C 
BRANCH   8   9
ATOM      9  C   UNL     1      -5.894  16.384   8.048  1.00  0.00     0.053 C 
BRANCH   9  10
ATOM     10  C   UNL     1      -6.048  17.824   8.422  1.00  0.00     0.041 C 
ATOM     11  O   UNL     1      -5.460  18.281   9.437  1.00  0.00    -0.550 OA
ATOM     12  O   UNL     1      -6.796  18.674   7.618  1.00  0.00    -0.550 OA
ENDBRANCH   9  10
ENDBRANCH   8   9
ENDBRANCH   7   8
ENDBRANCH   6   7
ENDBRANCH   5   6
ENDBRANCH   4   5
ENDBRANCH   3   4
ENDBRANCH   1   3
BRANCH   2  13
ATOM     13  C   UNL     1      -1.275  21.632   8.995  1.00  0.00     0.027 C 
BRANCH  13  14
ATOM     14  C   UNL     1      -1.239  22.842   9.944  1.00  0.00     0.004 C 
BRANCH  14  15
ATOM     15  C   UNL     1      -0.043  23.785   9.702  1.00  0.00     0.000 C 
BRANCH  15  16
ATOM     16  C   UNL     1      -0.483  25.210   9.321  1.00  0.00     0.000 C 
BRANCH  16  17
ATOM     17  C   UNL     1       0.208  26.286  10.175  1.00  0.00    -0.000 C 
BRANCH  17  18
ATOM     18  C   UNL     1      -0.778  27.348  10.697  1.00  0.00    -0.000 C 
BRANCH  18  19
ATOM     19  C   UNL     1      -1.610  26.842  11.886  1.00  0.00    -0.003 C 
ATOM     20  C   UNL     1      -1.514  27.760  13.105  1.00  0.00     0.004 C 
ENDBRANCH  18  19
ENDBRANCH  17  18
ENDBRANCH  16  17
ENDBRANCH  15  16
ENDBRANCH  14  15
ENDBRANCH  13  14
ENDBRANCH   2  13
TORSDOF 15
ENDMDL
MODEL 8
REMARK VINA RESULT:    21.885      4.678      9.742
REMARK INTER + INTRA:          40.473
REMARK INTER:                  41.763
REMARK INTRA:                  -1.290
REMARK UNBOUND:                -0.602
REMARK SMILES CCCCCCCCC=CCCCCCCCC(=O)[O-]
REMARK SMILES IDX 10 1 9 2 11 3 12 4 13 5 14 6 15 7 16 8 17 9 18 10 19 11
REMARK SMILES IDX 20 12 8 13 7 14 6 15 5 16 4 17 3 18 2 19 1 20
REMARK H PARENT
REMARK Flexibility Score: inf
ROOT
ATOM      1  C   UNL     1      -2.551  21.841   8.341  1.00  0.00    -0.031 C 
ATOM      2  C   UNL     1      -3.876  21.648   8.490  1.00  0.00    -0.031 C 
ENDROOT
BRANCH   1   3
ATOM      3  C   UNL     1      -1.498  21.526   9.378  1.00  0.00     0.027 C 
BRANCH   3   4
ATOM      4  C   UNL     1      -1.439  22.594  10.483  1.00  0.00     0.004 C 
BRANCH   4   5
ATOM      5  C   UNL     1      -0.310  23.629  10.322  1.00  0.00     0.000 C 
BRANCH   5   6
ATOM      6  C   UNL     1      -0.351  24.350   8.964  1.00  0.00     0.000 C 
BRANCH   6   7
ATOM      7  C   UNL     1      -0.539  25.870   9.109  1.00  0.00     0.000 C 
BRANCH   7   8
ATOM      8  C   UNL     1       0.047  26.415  10.420  1.00  0.00     0.006 C 
BRANCH   8   9
ATOM      9  C   UNL     1      -0.748  27.628  10.912  1.00  0.00     0.053 C 
BRANCH   9  10
ATOM     10  C   UNL     1      -1.499  27.289  12.161  1.00  0.00     0.041 C 
ATOM     11  O   UNL     1      -2.085  26.180  12.265  1.00  0.00    -0.550 OA
ATOM     12  O   UNL     1      -1.505  28.175  13.230  1.00  0.00    -0.550 OA
ENDBRANCH   9  10
ENDBRANCH   8   9
ENDBRANCH   7   8
ENDBRANCH   6   7
ENDBRANCH   5   6
ENDBRANCH   4   5
ENDBRANCH   3   4
ENDBRANCH   1   3
BRANCH   2  13
ATOM     13  C   UNL     1      -4.551  21.127   9.735  1.00  0.00     0.027 C 
BRANCH  13  14
ATOM     14  C   UNL     1      -5.295  19.797   9.525  1.00  0.00     0.004 C 
BRANCH  14  15
ATOM     15  C   UNL     1      -4.723  18.629  10.355  1.00  0.00     0.000 C 
BRANCH  15  16
ATOM     16  C   UNL     1      -3.627  17.853   9.604  1.00  0.00     0.000 C 
BRANCH  16  17
ATOM     17  C   UNL     1      -2.215  18.197  10.106  1.00  0.00    -0.000 C 
BRANCH  17  18
ATOM     18  C   UNL     1      -1.110  17.582   9.227  1.00  0.00    -0.000 C 
BRANCH  18  19
ATOM     19  C   UNL     1      -0.489  16.326   9.858  1.00  0.00    -0.003 C 
ATOM     20  C   UNL     1      -1.374  15.089   9.697  1.00  0.00     0.004 C 
ENDBRANCH  18  19
ENDBRANCH  17  18
ENDBRANCH  16  17
ENDBRANCH  15  16
ENDBRANCH  14  15
ENDBRANCH  13  14
ENDBRANCH   2  13
TORSDOF 15
ENDMDL
MODEL 9
REMARK VINA RESULT:    21.948      2.316      3.754
REMARK INTER + INTRA:          40.593
REMARK INTER:                  41.787
REMARK INTRA:                  -1.194
REMARK UNBOUND:                -0.602
REMARK SMILES CCCCCCCCC=CCCCCCCCC(=O)[O-]
REMARK SMILES IDX 10 1 9 2 11 3 12 4 13 5 14 6 15 7 16 8 17 9 18 10 19 11
REMARK SMILES IDX 20 12 8 13 7 14 6 15 5 16 4 17 3 18 2 19 1 20
REMARK H PARENT
REMARK Flexibility Score: inf
ROOT
ATOM      1  C   UNL     1      -1.431  17.084   9.984  1.00  0.00    -0.031 C 
ATOM      2  C   UNL     1      -1.449  18.418  10.176  1.00  0.00    -0.031 C 
ENDROOT
BRANCH   1   3
ATOM      3  C   UNL     1      -1.302  16.394   8.647  1.00  0.00     0.027 C 
BRANCH   3   4
ATOM      4  C   UNL     1      -2.478  15.440   8.374  1.00  0.00     0.004 C 
BRANCH   4   5
ATOM      5  C   UNL     1      -3.390  15.856   7.206  1.00  0.00     0.000 C 
BRANCH   5   6
ATOM      6  C   UNL     1      -4.884  15.655   7.513  1.00  0.00     0.000 C 
BRANCH   6   7
ATOM      7  C   UNL     1      -5.695  16.953   7.366  1.00  0.00     0.000 C 
BRANCH   7   8
ATOM      8  C   UNL     1      -6.128  17.536   8.720  1.00  0.00     0.006 C 
BRANCH   8   9
ATOM      9  C   UNL     1      -5.058  18.479   9.277  1.00  0.00     0.053 C 
BRANCH   9  10
ATOM     10  C   UNL     1      -5.634  19.347  10.352  1.00  0.00     0.041 C 
ATOM     11  O   UNL     1      -6.413  18.857  11.211  1.00  0.00    -0.550 OA
ATOM     12  O   UNL     1      -5.267  20.683  10.437  1.00  0.00    -0.550 OA
ENDBRANCH   9  10
ENDBRANCH   8   9
ENDBRANCH   7   8
ENDBRANCH   6   7
ENDBRANCH   5   6
ENDBRANCH   4   5
ENDBRANCH   3   4
ENDBRANCH   1   3
BRANCH   2  13
ATOM     13  C   UNL     1      -1.392  19.461   9.087  1.00  0.00     0.027 C 
BRANCH  13  14
ATOM     14  C   UNL     1      -2.022  20.806   9.486  1.00  0.00     0.004 C 
BRANCH  14  15
ATOM     15  C   UNL     1      -1.316  22.030   8.868  1.00  0.00     0.000 C 
BRANCH  15  16
ATOM     16  C   UNL     1      -0.817  23.024   9.932  1.00  0.00     0.000 C 
BRANCH  16  17
ATOM     17  C   UNL     1      -0.288  24.329   9.314  1.00  0.00    -0.000 C 
BRANCH  17  18
ATOM     18  C   UNL     1      -0.075  25.435  10.365  1.00  0.00    -0.000 C 
BRANCH  18  19
ATOM     19  C   UNL     1      -0.800  26.739   9.999  1.00  0.00    -0.003 C 
ATOM     20  C   UNL     1      -0.330  27.929  10.837  1.00  0.00     0.004 C 
ENDBRANCH  18  19
ENDBRANCH  17  18
ENDBRANCH  16  17
ENDBRANCH  15  16
ENDBRANCH  14  15
ENDBRANCH  13  14
ENDBRANCH   2  13
TORSDOF 15
ENDMDL
