MODEL 1
REMARK VINA RESULT:    -4.832      0.000      0.000
REMARK INTER + INTRA:          -6.893
REMARK INTER:                  -7.374
REMARK INTRA:                   0.481
REMARK UNBOUND:                 0.481
REMARK SMILES CC1=CCC[C@H](C)C(=O)C[C@@H](C(C)C)C(=O)C1
REMARK SMILES IDX 8 1 9 2 6 3 7 4 5 5 4 6 3 7 2 8 1 9 10 11 11 12 15 13 16 14
REMARK SMILES IDX 17 15 12 17 13 18 14 19
REMARK H PARENT
REMARK Flexibility Score: 70.00
ROOT
ATOM      1  C   UNL     1       0.470  14.860  45.972  1.00  0.00     0.136 C 
ATOM      2  O   UNL     1       0.944  14.921  44.846  1.00  0.00    -0.299 OA
ENDROOT
BRANCH   1   3
ATOM      3  C   UNL     1      -0.829  15.570  46.277  1.00  0.00     0.053 C 
ATOM      4  C   UNL     1      -0.814  16.981  45.676  1.00  0.00     0.016 C 
BRANCH   3   5
ATOM      5  C   UNL     1      -2.040  14.769  45.762  1.00  0.00     0.015 C 
BRANCH   5   6
ATOM      6  C   UNL     1      -1.634  13.468  45.037  1.00  0.00     0.028 C 
BRANCH   6   7
ATOM      7  C   UNL     1      -1.929  12.247  45.878  1.00  0.00    -0.028 C 
ATOM      8  C   UNL     1      -1.079  11.240  46.189  1.00  0.00    -0.070 CG0
ATOM      9  C   UNL     1      -1.599  10.147  47.092  1.00  0.00     0.039 C 
ATOM     10  G   UNL     1       0.347  11.120  45.677  1.00  0.00     0.000 G0
ENDBRANCH   6   7
ENDBRANCH   5   6
ENDBRANCH   3   5
ENDBRANCH   1   3
BRANCH   1  11
ATOM     11  C   UNL     1       1.210  14.137  47.075  1.00  0.00     0.087 C 
BRANCH  11  12
ATOM     12  C   UNL     1       2.066  12.950  46.570  1.00  0.00     0.066 C 
BRANCH  12  13
ATOM     13  C   UNL     1       1.364  11.603  46.676  1.00  0.00     0.140 C 
ATOM     14  O   UNL     1       1.582  10.916  47.664  1.00  0.00    -0.299 OA
BRANCH  13  15
ATOM     15  C   UNL     1       0.359  11.108  45.660  1.00  0.00     0.106 CG0
ATOM     16  G   UNL     1      -1.062  11.248  46.180  1.00  0.00     0.000 G0
ENDBRANCH  13  15
ENDBRANCH  12  13
BRANCH  12  17
ATOM     17  C   UNL     1       3.494  12.945  47.198  1.00  0.00    -0.006 C 
ATOM     18  C   UNL     1       4.211  14.285  46.970  1.00  0.00     0.008 C 
ATOM     19  C   UNL     1       4.388  11.788  46.717  1.00  0.00     0.008 C 
ENDBRANCH  12  17
ENDBRANCH  11  12
ENDBRANCH   1  11
TORSDOF 1
ENDMDL
MODEL 2
REMARK VINA RESULT:    -4.620      1.846      3.635
REMARK INTER + INTRA:          -6.570
REMARK INTER:                  -7.117
REMARK INTRA:                   0.546
REMARK UNBOUND:                 0.481
REMARK SMILES CC1=CCC[C@H](C)C(=O)C[C@@H](C(C)C)C(=O)C1
REMARK SMILES IDX 8 1 9 2 6 3 7 4 5 5 4 6 3 7 2 8 1 9 10 11 11 12 15 13 16 14
REMARK SMILES IDX 17 15 12 17 13 18 14 19
REMARK H PARENT
REMARK Flexibility Score: 70.00
ROOT
ATOM      1  C   UNL     1      -0.480  11.300  46.141  1.00  0.00     0.136 C 
ATOM      2  O   UNL     1      -0.649  10.529  47.076  1.00  0.00    -0.299 OA
ENDROOT
BRANCH   1   3
ATOM      3  C   UNL     1      -1.677  11.851  45.400  1.00  0.00     0.053 C 
ATOM      4  C   UNL     1      -2.882  11.956  46.343  1.00  0.00     0.016 C 
BRANCH   3   5
ATOM      5  C   UNL     1      -1.360  13.219  44.764  1.00  0.00     0.015 C 
BRANCH   5   6
ATOM      6  C   UNL     1      -2.217  14.364  45.347  1.00  0.00     0.028 C 
BRANCH   6   7
ATOM      7  C   UNL     1      -1.499  15.081  46.467  1.00  0.00    -0.028 C 
ATOM      8  C   UNL     1      -0.164  15.265  46.601  1.00  0.00    -0.070 CG0
ATOM      9  C   UNL     1       0.310  16.062  47.792  1.00  0.00     0.039 C 
ATOM     10  G   UNL     1       0.887  14.708  45.654  1.00  0.00     0.000 G0
ENDBRANCH   6   7
ENDBRANCH   5   6
ENDBRANCH   3   5
ENDBRANCH   1   3
BRANCH   1  11
ATOM     11  C   UNL     1       0.916  11.648  45.680  1.00  0.00     0.087 C 
BRANCH  11  12
ATOM     12  C   UNL     1       1.744  12.417  46.739  1.00  0.00     0.066 C 
BRANCH  12  13
ATOM     13  C   UNL     1       1.928  13.893  46.414  1.00  0.00     0.140 C 
ATOM     14  O   UNL     1       2.988  14.423  46.719  1.00  0.00    -0.299 OA
BRANCH  13  15
ATOM     15  C   UNL     1       0.899  14.716  45.671  1.00  0.00     0.106 CG0
ATOM     16  G   UNL     1      -0.161  15.253  46.618  1.00  0.00     0.000 G0
ENDBRANCH  13  15
ENDBRANCH  12  13
BRANCH  12  17
ATOM     17  C   UNL     1       3.084  11.695  47.079  1.00  0.00    -0.006 C 
ATOM     18  C   UNL     1       3.346  10.523  46.121  1.00  0.00     0.008 C 
ATOM     19  C   UNL     1       3.186  11.211  48.536  1.00  0.00     0.008 C 
ENDBRANCH  12  17
ENDBRANCH  11  12
ENDBRANCH   1  11
TORSDOF 1
ENDMDL
MODEL 3
REMARK VINA RESULT:    -4.227      1.549      2.389
REMARK INTER + INTRA:          -5.969
REMARK INTER:                  -6.852
REMARK INTRA:                   0.883
REMARK UNBOUND:                 0.481
REMARK SMILES CC1=CCC[C@H](C)C(=O)C[C@@H](C(C)C)C(=O)C1
REMARK SMILES IDX 8 1 9 2 6 3 7 4 5 5 4 6 3 7 2 8 1 9 10 11 11 12 15 13 16 14
REMARK SMILES IDX 17 15 12 17 13 18 14 19
REMARK H PARENT
REMARK Flexibility Score: 70.00
ROOT
ATOM      1  C   UNL     1       1.439  14.299  46.255  1.00  0.00     0.136 C 
ATOM      2  O   UNL     1       1.737  14.548  45.095  1.00  0.00    -0.299 OA
ENDROOT
BRANCH   1   3
ATOM      3  C   UNL     1      -0.014  14.125  46.634  1.00  0.00     0.053 C 
ATOM      4  C   UNL     1      -0.726  15.483  46.639  1.00  0.00     0.016 C 
BRANCH   3   5
ATOM      5  C   UNL     1      -0.725  13.138  45.687  1.00  0.00     0.015 C 
BRANCH   5   6
ATOM      6  C   UNL     1      -0.709  11.686  46.213  1.00  0.00     0.028 C 
BRANCH   6   7
ATOM      7  C   UNL     1       0.424  10.889  45.611  1.00  0.00    -0.028 C 
ATOM      8  C   UNL     1       1.641  10.653  46.156  1.00  0.00    -0.070 CG0
ATOM      9  C   UNL     1       2.594   9.780  45.375  1.00  0.00     0.039 C 
ATOM     10  G   UNL     1       2.122  11.221  47.481  1.00  0.00     0.000 G0
ENDBRANCH   6   7
ENDBRANCH   5   6
ENDBRANCH   3   5
ENDBRANCH   1   3
BRANCH   1  11
ATOM     11  C   UNL     1       2.508  14.233  47.321  1.00  0.00     0.087 C 
BRANCH  11  12
ATOM     12  C   UNL     1       3.695  13.310  46.951  1.00  0.00     0.066 C 
BRANCH  12  13
ATOM     13  C   UNL     1       3.489  11.858  47.360  1.00  0.00     0.140 C 
ATOM     14  O   UNL     1       4.475  11.195  47.651  1.00  0.00    -0.299 OA
BRANCH  13  15
ATOM     15  C   UNL     1       2.125  11.218  47.495  1.00  0.00     0.106 CG0
ATOM     16  G   UNL     1       1.647  10.659  46.164  1.00  0.00     0.000 G0
ENDBRANCH  13  15
ENDBRANCH  12  13
BRANCH  12  17
ATOM     17  C   UNL     1       5.063  13.889  47.426  1.00  0.00    -0.006 C 
ATOM     18  C   UNL     1       6.148  13.714  46.352  1.00  0.00     0.008 C 
ATOM     19  C   UNL     1       5.557  13.315  48.765  1.00  0.00     0.008 C 
ENDBRANCH  12  17
ENDBRANCH  11  12
ENDBRANCH   1  11
TORSDOF 1
ENDMDL
MODEL 4
REMARK VINA RESULT:    -4.121      1.889      4.538
REMARK INTER + INTRA:          -5.808
REMARK INTER:                  -5.868
REMARK INTRA:                   0.059
REMARK UNBOUND:                 0.481
REMARK SMILES CC1=CCC[C@H](C)C(=O)C[C@@H](C(C)C)C(=O)C1
REMARK SMILES IDX 8 1 9 2 6 3 7 4 5 5 4 6 3 7 2 8 1 9 10 11 11 12 15 13 16 14
REMARK SMILES IDX 17 15 12 17 13 18 14 19
REMARK H PARENT
REMARK Flexibility Score: 70.00
ROOT
ATOM      1  C   UNL     1       3.452  14.170  46.979  1.00  0.00     0.136 C 
ATOM      2  O   UNL     1       3.472  15.196  47.646  1.00  0.00    -0.299 OA
ENDROOT
BRANCH   1   3
ATOM      3  C   UNL     1       4.592  13.183  47.091  1.00  0.00     0.053 C 
ATOM      4  C   UNL     1       5.935  13.903  46.915  1.00  0.00     0.016 C 
BRANCH   3   5
ATOM      5  C   UNL     1       4.548  12.427  48.433  1.00  0.00     0.015 C 
BRANCH   5   6
ATOM      6  C   UNL     1       3.700  11.139  48.368  1.00  0.00     0.028 C 
BRANCH   6   7
ATOM      7  C   UNL     1       3.527  10.658  46.946  1.00  0.00    -0.028 C 
ATOM      8  C   UNL     1       2.371  10.557  46.249  1.00  0.00    -0.070 CG0
ATOM      9  C   UNL     1       2.463  10.092  44.815  1.00  0.00     0.039 C 
ATOM     10  G   UNL     1       0.990  10.855  46.812  1.00  0.00     0.000 G0
ENDBRANCH   6   7
ENDBRANCH   5   6
ENDBRANCH   3   5
ENDBRANCH   1   3
BRANCH   1  11
ATOM     11  C   UNL     1       2.332  13.918  45.997  1.00  0.00     0.087 C 
BRANCH  11  12
ATOM     12  C   UNL     1       0.990  13.544  46.672  1.00  0.00     0.066 C 
BRANCH  12  13
ATOM     13  C   UNL     1       0.456  12.180  46.253  1.00  0.00     0.140 C 
ATOM     14  O   UNL     1      -0.405  12.140  45.385  1.00  0.00    -0.299 OA
BRANCH  13  15
ATOM     15  C   UNL     1       0.988  10.875  46.803  1.00  0.00     0.106 CG0
ATOM     16  G   UNL     1       2.366  10.565  46.243  1.00  0.00     0.000 G0
ENDBRANCH  13  15
ENDBRANCH  12  13
BRANCH  12  17
ATOM     17  C   UNL     1      -0.072  14.679  46.544  1.00  0.00    -0.006 C 
ATOM     18  C   UNL     1      -0.012  15.348  45.162  1.00  0.00     0.008 C 
ATOM     19  C   UNL     1       0.017  15.750  47.646  1.00  0.00     0.008 C 
ENDBRANCH  12  17
ENDBRANCH  11  12
ENDBRANCH   1  11
TORSDOF 1
ENDMDL
MODEL 5
REMARK VINA RESULT:    -3.994      1.624      3.890
REMARK INTER + INTRA:          -5.614
REMARK INTER:                  -6.498
REMARK INTRA:                   0.884
REMARK UNBOUND:                 0.481
REMARK SMILES CC1=CCC[C@H](C)C(=O)C[C@@H](C(C)C)C(=O)C1
REMARK SMILES IDX 8 1 9 2 6 3 7 4 5 5 4 6 3 7 2 8 1 9 10 11 11 12 15 13 16 14
REMARK SMILES IDX 17 15 12 17 13 18 14 19
REMARK H PARENT
REMARK Flexibility Score: 70.00
ROOT
ATOM      1  C   UNL     1       2.345  13.809  46.578  1.00  0.00     0.136 C 
ATOM      2  O   UNL     1       3.048  14.628  47.155  1.00  0.00    -0.299 OA
ENDROOT
BRANCH   1   3
ATOM      3  C   UNL     1       2.704  12.342  46.636  1.00  0.00     0.053 C 
ATOM      4  C   UNL     1       2.704  11.854  48.090  1.00  0.00     0.016 C 
BRANCH   3   5
ATOM      5  C   UNL     1       1.744  11.496  45.776  1.00  0.00     0.015 C 
BRANCH   5   6
ATOM      6  C   UNL     1       1.357  10.160  46.447  1.00  0.00     0.028 C 
BRANCH   6   7
ATOM      7  C   UNL     1      -0.085  10.163  46.899  1.00  0.00    -0.028 C 
ATOM      8  C   UNL     1      -1.100  10.907  46.400  1.00  0.00    -0.070 CG0
ATOM      9  C   UNL     1      -2.472  10.694  46.992  1.00  0.00     0.039 C 
ATOM     10  G   UNL     1      -0.951  11.955  45.309  1.00  0.00     0.000 G0
ENDBRANCH   6   7
ENDBRANCH   5   6
ENDBRANCH   3   5
ENDBRANCH   1   3
BRANCH   1  11
ATOM     11  C   UNL     1       1.165  14.263  45.751  1.00  0.00     0.087 C 
BRANCH  11  12
ATOM     12  C   UNL     1      -0.180  14.220  46.518  1.00  0.00     0.066 C 
BRANCH  12  13
ATOM     13  C   UNL     1      -1.234  13.345  45.853  1.00  0.00     0.140 C 
ATOM     14  O   UNL     1      -2.352  13.813  45.688  1.00  0.00    -0.299 OA
BRANCH  13  15
ATOM     15  C   UNL     1      -0.948  11.958  45.322  1.00  0.00     0.106 CG0
ATOM     16  G   UNL     1      -1.129  10.908  46.406  1.00  0.00     0.000 G0
ENDBRANCH  13  15
ENDBRANCH  12  13
BRANCH  12  17
ATOM     17  C   UNL     1      -0.705  15.647  46.867  1.00  0.00    -0.006 C 
ATOM     18  C   UNL     1      -0.505  16.620  45.694  1.00  0.00     0.008 C 
ATOM     19  C   UNL     1      -0.097  16.244  48.149  1.00  0.00     0.008 C 
ENDBRANCH  12  17
ENDBRANCH  11  12
ENDBRANCH   1  11
TORSDOF 1
ENDMDL
MODEL 6
REMARK VINA RESULT:    -3.942      1.834      5.216
REMARK INTER + INTRA:          -5.535
REMARK INTER:                  -6.540
REMARK INTRA:                   1.005
REMARK UNBOUND:                 0.481
REMARK SMILES CC1=CCC[C@H](C)C(=O)C[C@@H](C(C)C)C(=O)C1
REMARK SMILES IDX 8 1 9 2 6 3 7 4 5 5 4 6 3 7 2 8 1 9 10 11 11 12 15 13 16 14
REMARK SMILES IDX 17 15 12 17 13 18 14 19
REMARK H PARENT
REMARK Flexibility Score: 70.00
ROOT
ATOM      1  C   UNL     1       2.204  10.621  46.152  1.00  0.00     0.136 C 
ATOM      2  O   UNL     1       2.062  10.218  45.005  1.00  0.00    -0.299 OA
ENDROOT
BRANCH   1   3
ATOM      3  C   UNL     1       3.592  10.743  46.735  1.00  0.00     0.053 C 
ATOM      4  C   UNL     1       4.629  10.878  45.613  1.00  0.00     0.016 C 
BRANCH   3   5
ATOM      5  C   UNL     1       3.687  11.932  47.712  1.00  0.00     0.015 C 
BRANCH   5   6
ATOM      6  C   UNL     1       3.849  13.288  46.992  1.00  0.00     0.028 C 
BRANCH   6   7
ATOM      7  C   UNL     1       2.711  14.228  47.314  1.00  0.00    -0.028 C 
ATOM      8  C   UNL     1       1.516  14.316  46.683  1.00  0.00    -0.070 CG0
ATOM      9  C   UNL     1       0.516  15.309  47.226  1.00  0.00     0.039 C 
ATOM     10  G   UNL     1       1.120  13.506  45.459  1.00  0.00     0.000 G0
ENDBRANCH   6   7
ENDBRANCH   5   6
ENDBRANCH   3   5
ENDBRANCH   1   3
BRANCH   1  11
ATOM     11  C   UNL     1       0.997  10.929  47.008  1.00  0.00     0.087 C 
BRANCH  11  12
ATOM     12  C   UNL     1      -0.251  11.345  46.192  1.00  0.00     0.066 C 
BRANCH  12  13
ATOM     13  C   UNL     1      -0.181  12.767  45.652  1.00  0.00     0.140 C 
ATOM     14  O   UNL     1      -1.233  13.351  45.430  1.00  0.00    -0.299 OA
BRANCH  13  15
ATOM     15  C   UNL     1       1.117  13.516  45.448  1.00  0.00     0.106 CG0
ATOM     16  G   UNL     1       1.491  14.313  46.687  1.00  0.00     0.000 G0
ENDBRANCH  13  15
ENDBRANCH  12  13
BRANCH  12  17
ATOM     17  C   UNL     1      -1.579  11.045  46.952  1.00  0.00    -0.006 C 
ATOM     18  C   UNL     1      -1.573   9.631  47.554  1.00  0.00     0.008 C 
ATOM     19  C   UNL     1      -2.848  11.246  46.105  1.00  0.00     0.008 C 
ENDBRANCH  12  17
ENDBRANCH  11  12
ENDBRANCH   1  11
TORSDOF 1
ENDMDL
MODEL 7
REMARK VINA RESULT:    -3.935      1.832      3.844
REMARK INTER + INTRA:          -5.524
REMARK INTER:                  -5.921
REMARK INTRA:                   0.397
REMARK UNBOUND:                 0.481
REMARK SMILES CC1=CCC[C@H](C)C(=O)C[C@@H](C(C)C)C(=O)C1
REMARK SMILES IDX 8 1 9 2 6 3 7 4 5 5 4 6 3 7 2 8 1 9 10 11 11 12 15 13 16 14
REMARK SMILES IDX 17 15 12 17 13 18 14 19
REMARK H PARENT
REMARK Flexibility Score: 70.00
ROOT
ATOM      1  C   UNL     1      -1.051  13.313  45.126  1.00  0.00     0.136 C 
ATOM      2  O   UNL     1      -1.829  14.083  44.578  1.00  0.00    -0.299 OA
ENDROOT
BRANCH   1   3
ATOM      3  C   UNL     1      -1.578  12.281  46.096  1.00  0.00     0.053 C 
ATOM      4  C   UNL     1      -3.107  12.202  46.007  1.00  0.00     0.016 C 
BRANCH   3   5
ATOM      5  C   UNL     1      -0.944  10.899  45.841  1.00  0.00     0.015 C 
BRANCH   5   6
ATOM      6  C   UNL     1      -0.051  10.426  47.008  1.00  0.00     0.028 C 
BRANCH   6   7
ATOM      7  C   UNL     1       1.411  10.429  46.626  1.00  0.00    -0.028 C 
ATOM      8  C   UNL     1       2.326  11.392  46.890  1.00  0.00    -0.070 CG0
ATOM      9  C   UNL     1       3.746  11.140  46.443  1.00  0.00     0.039 C 
ATOM     10  G   UNL     1       2.021  12.711  47.580  1.00  0.00     0.000 G0
ENDBRANCH   6   7
ENDBRANCH   5   6
ENDBRANCH   3   5
ENDBRANCH   1   3
BRANCH   1  11
ATOM     11  C   UNL     1       0.437  13.436  44.891  1.00  0.00     0.087 C 
BRANCH  11  12
ATOM     12  C   UNL     1       1.122  14.485  45.801  1.00  0.00     0.066 C 
BRANCH  12  13
ATOM     13  C   UNL     1       2.226  13.907  46.674  1.00  0.00     0.140 C 
ATOM     14  O   UNL     1       3.311  14.472  46.681  1.00  0.00    -0.299 OA
BRANCH  13  15
ATOM     15  C   UNL     1       2.028  12.716  47.585  1.00  0.00     0.106 CG0
ATOM     16  G   UNL     1       2.334  11.415  46.862  1.00  0.00     0.000 G0
ENDBRANCH  13  15
ENDBRANCH  12  13
BRANCH  12  17
ATOM     17  C   UNL     1       0.089  15.333  46.605  1.00  0.00    -0.006 C 
ATOM     18  C   UNL     1      -0.246  16.645  45.878  1.00  0.00     0.008 C 
ATOM     19  C   UNL     1       0.513  15.632  48.053  1.00  0.00     0.008 C 
ENDBRANCH  12  17
ENDBRANCH  11  12
ENDBRANCH   1  11
TORSDOF 1
ENDMDL
MODEL 8
REMARK VINA RESULT:    -3.724      1.528      4.005
REMARK INTER + INTRA:          -5.202
REMARK INTER:                  -5.671
REMARK INTRA:                   0.469
REMARK UNBOUND:                 0.481
REMARK SMILES CC1=CCC[C@H](C)C(=O)C[C@@H](C(C)C)C(=O)C1
REMARK SMILES IDX 8 1 9 2 6 3 7 4 5 5 4 6 3 7 2 8 1 9 10 11 11 12 15 13 16 14
REMARK SMILES IDX 17 15 12 17 13 18 14 19
REMARK H PARENT
REMARK Flexibility Score: 70.00
ROOT
ATOM      1  C   UNL     1      -0.937  14.243  45.866  1.00  0.00     0.136 C 
ATOM      2  O   UNL     1      -2.055  14.527  46.274  1.00  0.00    -0.299 OA
ENDROOT
BRANCH   1   3
ATOM      3  C   UNL     1       0.155  15.288  45.885  1.00  0.00     0.053 C 
ATOM      4  C   UNL     1      -0.456  16.692  45.963  1.00  0.00     0.016 C 
BRANCH   3   5
ATOM      5  C   UNL     1       1.135  15.053  47.052  1.00  0.00     0.015 C 
BRANCH   5   6
ATOM      6  C   UNL     1       2.522  14.566  46.582  1.00  0.00     0.028 C 
BRANCH   6   7
ATOM      7  C   UNL     1       2.989  13.366  47.373  1.00  0.00    -0.028 C 
ATOM      8  C   UNL     1       2.809  12.060  47.064  1.00  0.00    -0.070 CG0
ATOM      9  C   UNL     1       3.416  11.038  47.995  1.00  0.00     0.039 C 
ATOM     10  G   UNL     1       2.024  11.552  45.866  1.00  0.00     0.000 G0
ENDBRANCH   6   7
ENDBRANCH   5   6
ENDBRANCH   3   5
ENDBRANCH   1   3
BRANCH   1  11
ATOM     11  C   UNL     1      -0.662  12.877  45.280  1.00  0.00     0.087 C 
BRANCH  11  12
ATOM     12  C   UNL     1      -0.605  11.749  46.339  1.00  0.00     0.066 C 
BRANCH  12  13
ATOM     13  C   UNL     1       0.695  10.958  46.319  1.00  0.00     0.140 C 
ATOM     14  O   UNL     1       0.654   9.773  46.618  1.00  0.00    -0.299 OA
BRANCH  13  15
ATOM     15  C   UNL     1       2.018  11.544  45.879  1.00  0.00     0.106 CG0
ATOM     16  G   UNL     1       2.813  12.059  47.068  1.00  0.00     0.000 G0
ENDBRANCH  13  15
ENDBRANCH  12  13
BRANCH  12  17
ATOM     17  C   UNL     1      -1.873  10.841  46.301  1.00  0.00    -0.006 C 
ATOM     18  C   UNL     1      -3.122  11.640  45.898  1.00  0.00     0.008 C 
ATOM     19  C   UNL     1      -2.140  10.080  47.611  1.00  0.00     0.008 C 
ENDBRANCH  12  17
ENDBRANCH  11  12
ENDBRANCH   1  11
TORSDOF 1
ENDMDL
MODEL 9
REMARK VINA RESULT:    -3.421      1.908      4.604
REMARK INTER + INTRA:          -4.740
REMARK INTER:                  -4.805
REMARK INTRA:                   0.064
REMARK UNBOUND:                 0.481
REMARK SMILES CC1=CCC[C@H](C)C(=O)C[C@@H](C(C)C)C(=O)C1
REMARK SMILES IDX 8 1 9 2 6 3 7 4 5 5 4 6 3 7 2 8 1 9 10 11 11 12 15 13 16 14
REMARK SMILES IDX 17 15 12 17 13 18 14 19
REMARK H PARENT
REMARK Flexibility Score: 70.00
ROOT
ATOM      1  C   UNL     1      -1.520  12.373  45.922  1.00  0.00     0.136 C 
ATOM      2  O   UNL     1      -2.389  12.103  45.104  1.00  0.00    -0.299 OA
ENDROOT
BRANCH   1   3
ATOM      3  C   UNL     1      -0.740  11.258  46.580  1.00  0.00     0.053 C 
ATOM      4  C   UNL     1      -1.692  10.303  47.309  1.00  0.00     0.016 C 
BRANCH   3   5
ATOM      5  C   UNL     1       0.120  10.495  45.553  1.00  0.00     0.015 C 
BRANCH   5   6
ATOM      6  C   UNL     1       1.448  11.213  45.231  1.00  0.00     0.028 C 
BRANCH   6   7
ATOM      7  C   UNL     1       2.278  11.430  46.475  1.00  0.00    -0.028 C 
ATOM      8  C   UNL     1       2.726  12.609  46.968  1.00  0.00    -0.070 CG0
ATOM      9  C   UNL     1       3.502  12.570  48.262  1.00  0.00     0.039 C 
ATOM     10  G   UNL     1       2.524  13.960  46.300  1.00  0.00     0.000 G0
ENDBRANCH   6   7
ENDBRANCH   5   6
ENDBRANCH   3   5
ENDBRANCH   1   3
BRANCH   1  11
ATOM     11  C   UNL     1      -1.273  13.807  46.329  1.00  0.00     0.087 C 
BRANCH  11  12
ATOM     12  C   UNL     1      -0.018  14.430  45.670  1.00  0.00     0.066 C 
BRANCH  12  13
ATOM     13  C   UNL     1       1.170  14.552  46.615  1.00  0.00     0.140 C 
ATOM     14  O   UNL     1       0.992  15.092  47.698  1.00  0.00    -0.299 OA
BRANCH  13  15
ATOM     15  C   UNL     1       2.535  13.977  46.311  1.00  0.00     0.106 CG0
ATOM     16  G   UNL     1       2.711  12.612  46.956  1.00  0.00     0.000 G0
ENDBRANCH  13  15
ENDBRANCH  12  13
BRANCH  12  17
ATOM     17  C   UNL     1      -0.343  15.760  44.923  1.00  0.00    -0.006 C 
ATOM     18  C   UNL     1      -0.500  16.930  45.907  1.00  0.00     0.008 C 
ATOM     19  C   UNL     1      -1.576  15.681  44.006  1.00  0.00     0.008 C 
ENDBRANCH  12  17
ENDBRANCH  11  12
ENDBRANCH   1  11
TORSDOF 1
ENDMDL
