MODEL 1
REMARK VINA RESULT:    -3.979      0.000      0.000
REMARK INTER + INTRA:          -4.758
REMARK INTER:                  -4.676
REMARK INTRA:                  -0.082
REMARK UNBOUND:                -0.082
REMARK SMILES O=C([O-])CCC(=O)[O-]
REMARK SMILES IDX 4 1 2 2 1 3 3 4 5 5 6 6 7 7 8 8
REMARK H PARENT
REMARK Flexibility Score: inf
ROOT
ATOM      1  C   UNL     1       1.252  -2.796  -6.009  1.00  0.00     0.059 C 
ENDROOT
BRANCH   1   2
ATOM      2  C   UNL     1       1.671  -1.486  -6.607  1.00  0.00     0.042 C 
ATOM      3  O   UNL     1       1.112  -0.417  -6.244  1.00  0.00    -0.550 OA
ATOM      4  O   UNL     1       2.649  -1.451  -7.593  1.00  0.00    -0.550 OA
ENDBRANCH   1   2
BRANCH   1   5
ATOM      5  C   UNL     1       1.229  -3.913  -7.058  1.00  0.00     0.059 C 
BRANCH   5   6
ATOM      6  C   UNL     1       2.374  -4.861  -6.880  1.00  0.00     0.042 C 
ATOM      7  O   UNL     1       2.668  -5.292  -5.734  1.00  0.00    -0.550 OA
ATOM      8  O   UNL     1       3.143  -5.238  -7.974  1.00  0.00    -0.550 OA
ENDBRANCH   5   6
ENDBRANCH   1   5
TORSDOF 3
ENDMDL
MODEL 2
REMARK VINA RESULT:    -3.978      0.092      3.717
REMARK INTER + INTRA:          -4.758
REMARK INTER:                  -4.676
REMARK INTRA:                  -0.081
REMARK UNBOUND:                -0.082
REMARK SMILES O=C([O-])CCC(=O)[O-]
REMARK SMILES IDX 4 1 2 2 1 3 3 4 5 5 6 6 7 7 8 8
REMARK H PARENT
REMARK Flexibility Score: inf
ROOT
ATOM      1  C   UNL     1       1.165  -3.897  -6.924  1.00  0.00     0.059 C 
ENDROOT
BRANCH   1   2
ATOM      2  C   UNL     1       2.321  -4.847  -6.847  1.00  0.00     0.042 C 
ATOM      3  O   UNL     1       2.676  -5.324  -5.737  1.00  0.00    -0.550 OA
ATOM      4  O   UNL     1       3.031  -5.173  -7.995  1.00  0.00    -0.550 OA
ENDBRANCH   1   2
BRANCH   1   5
ATOM      5  C   UNL     1       1.298  -2.761  -5.902  1.00  0.00     0.059 C 
BRANCH   5   6
ATOM      6  C   UNL     1       1.704  -1.476  -6.556  1.00  0.00     0.042 C 
ATOM      7  O   UNL     1       1.147  -0.396  -6.229  1.00  0.00    -0.550 OA
ATOM      8  O   UNL     1       2.668  -1.478  -7.555  1.00  0.00    -0.550 OA
ENDBRANCH   5   6
ENDBRANCH   1   5
TORSDOF 3
ENDMDL
MODEL 3
REMARK VINA RESULT:    -3.908      0.247      1.620
REMARK INTER + INTRA:          -4.675
REMARK INTER:                  -4.588
REMARK INTRA:                  -0.087
REMARK UNBOUND:                -0.082
REMARK SMILES O=C([O-])CCC(=O)[O-]
REMARK SMILES IDX 4 1 2 2 1 3 3 4 5 5 6 6 7 7 8 8
REMARK H PARENT
REMARK Flexibility Score: inf
ROOT
ATOM      1  C   UNL     1       1.293  -2.735  -5.958  1.00  0.00     0.059 C 
ENDROOT
BRANCH   1   2
ATOM      2  C   UNL     1       1.636  -1.503  -6.739  1.00  0.00     0.042 C 
ATOM      3  O   UNL     1       2.678  -1.472  -7.446  1.00  0.00    -0.550 OA
ATOM      4  O   UNL     1       0.827  -0.377  -6.654  1.00  0.00    -0.550 OA
ENDBRANCH   1   2
BRANCH   1   5
ATOM      5  C   UNL     1       1.155  -3.961  -6.868  1.00  0.00     0.059 C 
BRANCH   5   6
ATOM      6  C   UNL     1       2.342  -4.868  -6.756  1.00  0.00     0.042 C 
ATOM      7  O   UNL     1       3.036  -5.132  -7.772  1.00  0.00    -0.550 OA
ATOM      8  O   UNL     1       2.658  -5.453  -5.536  1.00  0.00    -0.550 OA
ENDBRANCH   5   6
ENDBRANCH   1   5
TORSDOF 3
ENDMDL
MODEL 4
REMARK VINA RESULT:    -3.827      1.377      3.976
REMARK INTER + INTRA:          -4.579
REMARK INTER:                  -4.479
REMARK INTRA:                  -0.100
REMARK UNBOUND:                -0.082
REMARK SMILES O=C([O-])CCC(=O)[O-]
REMARK SMILES IDX 4 1 2 2 1 3 3 4 5 5 6 6 7 7 8 8
REMARK H PARENT
REMARK Flexibility Score: inf
ROOT
ATOM      1  C   UNL     1       2.614  -2.981  -6.476  1.00  0.00     0.059 C 
ENDROOT
BRANCH   1   2
ATOM      2  C   UNL     1       2.003  -4.316  -6.171  1.00  0.00     0.042 C 
ATOM      3  O   UNL     1       2.738  -5.296  -5.880  1.00  0.00    -0.550 OA
ATOM      4  O   UNL     1       0.627  -4.486  -6.250  1.00  0.00    -0.550 OA
ENDBRANCH   1   2
BRANCH   1   5
ATOM      5  C   UNL     1       1.929  -2.306  -7.670  1.00  0.00     0.059 C 
BRANCH   5   6
ATOM      6  C   UNL     1       1.259  -1.028  -7.272  1.00  0.00     0.042 C 
ATOM      7  O   UNL     1       1.244  -0.669  -6.065  1.00  0.00    -0.550 OA
ATOM      8  O   UNL     1       0.615  -0.253  -8.228  1.00  0.00    -0.550 OA
ENDBRANCH   5   6
ENDBRANCH   1   5
TORSDOF 3
ENDMDL
MODEL 5
REMARK VINA RESULT:    -3.774      1.394      1.842
REMARK INTER + INTRA:          -4.517
REMARK INTER:                  -4.449
REMARK INTRA:                  -0.069
REMARK UNBOUND:                -0.082
REMARK SMILES O=C([O-])CCC(=O)[O-]
REMARK SMILES IDX 4 1 2 2 1 3 3 4 5 5 6 6 7 7 8 8
REMARK H PARENT
REMARK Flexibility Score: inf
ROOT
ATOM      1  C   UNL     1       1.490  -2.279  -7.628  1.00  0.00     0.059 C 
ENDROOT
BRANCH   1   2
ATOM      2  C   UNL     1       0.729  -1.040  -7.260  1.00  0.00     0.042 C 
ATOM      3  O   UNL     1       1.087  -0.350  -6.269  1.00  0.00    -0.550 OA
ATOM      4  O   UNL     1      -0.397  -0.673  -7.985  1.00  0.00    -0.550 OA
ENDBRANCH   1   2
BRANCH   1   5
ATOM      5  C   UNL     1       2.216  -2.876  -6.418  1.00  0.00     0.059 C 
BRANCH   5   6
ATOM      6  C   UNL     1       1.848  -4.313  -6.208  1.00  0.00     0.042 C 
ATOM      7  O   UNL     1       0.644  -4.675  -6.271  1.00  0.00    -0.550 OA
ATOM      8  O   UNL     1       2.832  -5.245  -5.903  1.00  0.00    -0.550 OA
ENDBRANCH   5   6
ENDBRANCH   1   5
TORSDOF 3
ENDMDL
MODEL 6
REMARK VINA RESULT:    -3.496      1.506      3.866
REMARK INTER + INTRA:          -4.191
REMARK INTER:                  -4.071
REMARK INTRA:                  -0.119
REMARK UNBOUND:                -0.082
REMARK SMILES O=C([O-])CCC(=O)[O-]
REMARK SMILES IDX 4 1 2 2 1 3 3 4 5 5 6 6 7 7 8 8
REMARK H PARENT
REMARK Flexibility Score: inf
ROOT
ATOM      1  C   UNL     1       0.907  -4.317  -6.655  1.00  0.00     0.059 C 
ENDROOT
BRANCH   1   2
ATOM      2  C   UNL     1       1.143  -5.164  -7.870  1.00  0.00     0.042 C 
ATOM      3  O   UNL     1       2.318  -5.422  -8.242  1.00  0.00    -0.550 OA
ATOM      4  O   UNL     1       0.066  -5.633  -8.611  1.00  0.00    -0.550 OA
ENDBRANCH   1   2
BRANCH   1   5
ATOM      5  C   UNL     1       2.211  -3.700  -6.136  1.00  0.00     0.059 C 
BRANCH   5   6
ATOM      6  C   UNL     1       2.356  -2.273  -6.567  1.00  0.00     0.042 C 
ATOM      7  O   UNL     1       2.986  -1.990  -7.620  1.00  0.00    -0.550 OA
ATOM      8  O   UNL     1       1.830  -1.252  -5.785  1.00  0.00    -0.550 OA
ENDBRANCH   5   6
ENDBRANCH   1   5
TORSDOF 3
ENDMDL
MODEL 7
REMARK VINA RESULT:    -3.438      2.126      3.167
REMARK INTER + INTRA:          -4.123
REMARK INTER:                  -4.045
REMARK INTRA:                  -0.078
REMARK UNBOUND:                -0.082
REMARK SMILES O=C([O-])CCC(=O)[O-]
REMARK SMILES IDX 4 1 2 2 1 3 3 4 5 5 6 6 7 7 8 8
REMARK H PARENT
REMARK Flexibility Score: inf
ROOT
ATOM      1  C   UNL     1       0.929  -4.435  -6.837  1.00  0.00     0.059 C 
ENDROOT
BRANCH   1   2
ATOM      2  C   UNL     1       2.290  -4.354  -6.215  1.00  0.00     0.042 C 
ATOM      3  O   UNL     1       2.806  -5.373  -5.685  1.00  0.00    -0.550 OA
ATOM      4  O   UNL     1       2.971  -3.143  -6.185  1.00  0.00    -0.550 OA
ENDBRANCH   1   2
BRANCH   1   5
ATOM      5  C   UNL     1       1.012  -4.522  -8.366  1.00  0.00     0.059 C 
BRANCH   5   6
ATOM      6  C   UNL     1       0.744  -5.912  -8.854  1.00  0.00     0.042 C 
ATOM      7  O   UNL     1      -0.392  -6.432  -8.697  1.00  0.00    -0.550 OA
ATOM      8  O   UNL     1       1.761  -6.649  -9.448  1.00  0.00    -0.550 OA
ENDBRANCH   5   6
ENDBRANCH   1   5
TORSDOF 3
ENDMDL
MODEL 8
REMARK VINA RESULT:    -3.241     15.112     16.835
REMARK INTER + INTRA:          -3.891
REMARK INTER:                  -3.788
REMARK INTRA:                  -0.103
REMARK UNBOUND:                -0.082
REMARK SMILES O=C([O-])CCC(=O)[O-]
REMARK SMILES IDX 4 1 2 2 1 3 3 4 5 5 6 6 7 7 8 8
REMARK H PARENT
REMARK Flexibility Score: inf
ROOT
ATOM      1  C   UNL     1      -3.796   3.866   5.929  1.00  0.00     0.059 C 
ENDROOT
BRANCH   1   2
ATOM      2  C   UNL     1      -4.611   3.501   4.725  1.00  0.00     0.042 C 
ATOM      3  O   UNL     1      -4.253   3.882   3.580  1.00  0.00    -0.550 OA
ATOM      4  O   UNL     1      -5.787   2.777   4.874  1.00  0.00    -0.550 OA
ENDBRANCH   1   2
BRANCH   1   5
ATOM      5  C   UNL     1      -4.587   3.668   7.228  1.00  0.00     0.059 C 
BRANCH   5   6
ATOM      6  C   UNL     1      -5.183   4.954   7.711  1.00  0.00     0.042 C 
ATOM      7  O   UNL     1      -6.426   5.050   7.887  1.00  0.00    -0.550 OA
ATOM      8  O   UNL     1      -4.370   6.059   7.930  1.00  0.00    -0.550 OA
ENDBRANCH   5   6
ENDBRANCH   1   5
TORSDOF 3
ENDMDL
MODEL 9
REMARK VINA RESULT:    -3.220     15.128     16.649
REMARK INTER + INTRA:          -3.866
REMARK INTER:                  -3.771
REMARK INTRA:                  -0.095
REMARK UNBOUND:                -0.082
REMARK SMILES O=C([O-])CCC(=O)[O-]
REMARK SMILES IDX 4 1 2 2 1 3 3 4 5 5 6 6 7 7 8 8
REMARK H PARENT
REMARK Flexibility Score: inf
ROOT
ATOM      1  C   UNL     1      -4.581   3.664   7.221  1.00  0.00     0.059 C 
ENDROOT
BRANCH   1   2
ATOM      2  C   UNL     1      -5.189   4.924   7.758  1.00  0.00     0.042 C 
ATOM      3  O   UNL     1      -6.415   4.964   8.042  1.00  0.00    -0.550 OA
ATOM      4  O   UNL     1      -4.410   6.065   7.906  1.00  0.00    -0.550 OA
ENDBRANCH   1   2
BRANCH   1   5
ATOM      5  C   UNL     1      -3.811   3.918   5.920  1.00  0.00     0.059 C 
BRANCH   5   6
ATOM      6  C   UNL     1      -4.610   3.518   4.719  1.00  0.00     0.042 C 
ATOM      7  O   UNL     1      -4.251   3.882   3.568  1.00  0.00    -0.550 OA
ATOM      8  O   UNL     1      -5.775   2.777   4.873  1.00  0.00    -0.550 OA
ENDBRANCH   5   6
ENDBRANCH   1   5
TORSDOF 3
ENDMDL
