MODEL 1
REMARK VINA RESULT:    -5.393      0.000      0.000
REMARK INTER + INTRA:          -6.233
REMARK INTER:                  -6.023
REMARK INTRA:                  -0.210
REMARK UNBOUND:                -0.210
REMARK SMILES CC(C)c1ccc(C(=O)[O-])cc1
REMARK SMILES IDX 7 1 6 2 11 3 5 4 12 5 4 6 8 7 9 8 10 9 2 10 1 11 3 12
REMARK H PARENT
REMARK Flexibility Score: inf
ROOT
ATOM      1  C   UNL     1      -7.512   8.432 -26.482  1.00  0.00    -0.003 A 
ATOM      2  C   UNL     1      -7.344   7.395 -27.416  1.00  0.00     0.010 A 
ATOM      3  C   UNL     1      -7.023   9.710 -26.790  1.00  0.00     0.010 A 
ATOM      4  C   UNL     1      -6.698   7.633 -28.632  1.00  0.00     0.004 A 
ATOM      5  C   UNL     1      -6.376   9.950 -28.006  1.00  0.00     0.004 A 
ATOM      6  C   UNL     1      -6.206   8.915 -28.941  1.00  0.00    -0.045 A 
ENDROOT
BRANCH   1   7
ATOM      7  C   UNL     1      -8.196   8.183 -25.194  1.00  0.00     0.071 C 
ATOM      8  O   UNL     1      -8.843   7.118 -25.006  1.00  0.00    -0.545 OA
ATOM      9  O   UNL     1      -8.135   9.122 -24.170  1.00  0.00    -0.545 OA
ENDBRANCH   1   7
BRANCH   6  10
ATOM     10  C   UNL     1      -5.503   9.189 -30.257  1.00  0.00     0.013 C 
ATOM     11  C   UNL     1      -6.348  10.100 -31.155  1.00  0.00     0.012 C 
ATOM     12  C   UNL     1      -4.108   9.783 -30.026  1.00  0.00     0.012 C 
ENDBRANCH   6  10
TORSDOF 2
ENDMDL
MODEL 2
REMARK VINA RESULT:    -5.331      0.919      2.091
REMARK INTER + INTRA:          -6.165
REMARK INTER:                  -5.960
REMARK INTRA:                  -0.205
REMARK UNBOUND:                -0.210
REMARK SMILES CC(C)c1ccc(C(=O)[O-])cc1
REMARK SMILES IDX 7 1 6 2 11 3 5 4 12 5 4 6 8 7 9 8 10 9 2 10 1 11 3 12
REMARK H PARENT
REMARK Flexibility Score: inf
ROOT
ATOM      1  C   UNL     1      -7.523   8.043 -27.016  1.00  0.00    -0.003 A 
ATOM      2  C   UNL     1      -7.169   9.393 -26.851  1.00  0.00     0.010 A 
ATOM      3  C   UNL     1      -7.116   7.370 -28.178  1.00  0.00     0.010 A 
ATOM      4  C   UNL     1      -6.424  10.055 -27.831  1.00  0.00     0.004 A 
ATOM      5  C   UNL     1      -6.371   8.031 -29.159  1.00  0.00     0.004 A 
ATOM      6  C   UNL     1      -6.016   9.381 -28.997  1.00  0.00    -0.045 A 
ENDROOT
BRANCH   1   7
ATOM      7  C   UNL     1      -8.311   7.338 -25.980  1.00  0.00     0.071 C 
ATOM      8  O   UNL     1      -7.868   7.220 -24.807  1.00  0.00    -0.545 OA
ATOM      9  O   UNL     1      -9.554   6.796 -26.289  1.00  0.00    -0.545 OA
ENDBRANCH   1   7
BRANCH   6  10
ATOM     10  C   UNL     1      -5.207  10.087 -30.069  1.00  0.00     0.013 C 
ATOM     11  C   UNL     1      -3.711   9.790 -29.915  1.00  0.00     0.012 C 
ATOM     12  C   UNL     1      -5.703   9.714 -31.471  1.00  0.00     0.012 C 
ENDBRANCH   6  10
TORSDOF 2
ENDMDL
MODEL 3
REMARK VINA RESULT:    -4.931      3.174      5.043
REMARK INTER + INTRA:          -5.718
REMARK INTER:                  -5.508
REMARK INTRA:                  -0.210
REMARK UNBOUND:                -0.210
REMARK SMILES CC(C)c1ccc(C(=O)[O-])cc1
REMARK SMILES IDX 7 1 6 2 11 3 5 4 12 5 4 6 8 7 9 8 10 9 2 10 1 11 3 12
REMARK H PARENT
REMARK Flexibility Score: inf
ROOT
ATOM      1  C   UNL     1      -5.935   9.111 -29.128  1.00  0.00    -0.003 A 
ATOM      2  C   UNL     1      -6.310   7.758 -29.070  1.00  0.00     0.010 A 
ATOM      3  C   UNL     1      -6.308   9.966 -28.080  1.00  0.00     0.010 A 
ATOM      4  C   UNL     1      -7.043   7.271 -27.984  1.00  0.00     0.004 A 
ATOM      5  C   UNL     1      -7.042   9.480 -26.993  1.00  0.00     0.004 A 
ATOM      6  C   UNL     1      -7.418   8.128 -26.932  1.00  0.00    -0.045 A 
ENDROOT
BRANCH   1   7
ATOM      7  C   UNL     1      -5.159   9.629 -30.276  1.00  0.00     0.071 C 
ATOM      8  O   UNL     1      -3.982  10.050 -30.117  1.00  0.00    -0.545 OA
ATOM      9  O   UNL     1      -5.718   9.659 -31.549  1.00  0.00    -0.545 OA
ENDBRANCH   1   7
BRANCH   6  10
ATOM     10  C   UNL     1      -8.213   7.614 -25.747  1.00  0.00     0.013 C 
ATOM     11  C   UNL     1      -8.556   6.129 -25.915  1.00  0.00     0.012 C 
ATOM     12  C   UNL     1      -7.467   7.863 -24.431  1.00  0.00     0.012 C 
ENDBRANCH   6  10
TORSDOF 2
ENDMDL
MODEL 4
REMARK VINA RESULT:    -4.772      3.699      6.577
REMARK INTER + INTRA:          -5.540
REMARK INTER:                  -5.322
REMARK INTRA:                  -0.218
REMARK UNBOUND:                -0.210
REMARK SMILES CC(C)c1ccc(C(=O)[O-])cc1
REMARK SMILES IDX 7 1 6 2 11 3 5 4 12 5 4 6 8 7 9 8 10 9 2 10 1 11 3 12
REMARK H PARENT
REMARK Flexibility Score: inf
ROOT
ATOM      1  C   UNL     1      -7.108   9.021 -24.599  1.00  0.00    -0.003 A 
ATOM      2  C   UNL     1      -8.141   8.646 -23.723  1.00  0.00     0.010 A 
ATOM      3  C   UNL     1      -5.860   9.378 -24.065  1.00  0.00     0.010 A 
ATOM      4  C   UNL     1      -7.929   8.628 -22.342  1.00  0.00     0.004 A 
ATOM      5  C   UNL     1      -5.647   9.361 -22.684  1.00  0.00     0.004 A 
ATOM      6  C   UNL     1      -6.678   8.986 -21.806  1.00  0.00    -0.045 A 
ENDROOT
BRANCH   1   7
ATOM      7  C   UNL     1      -7.329   9.041 -26.062  1.00  0.00     0.071 C 
ATOM      8  O   UNL     1      -8.041   8.160 -26.615  1.00  0.00    -0.545 OA
ATOM      9  O   UNL     1      -6.754  10.033 -26.848  1.00  0.00    -0.545 OA
ENDBRANCH   1   7
BRANCH   6  10
ATOM     10  C   UNL     1      -6.433   8.971 -20.309  1.00  0.00     0.013 C 
ATOM     11  C   UNL     1      -5.510  10.122 -19.890  1.00  0.00     0.012 C 
ATOM     12  C   UNL     1      -7.754   9.011 -19.532  1.00  0.00     0.012 C 
ENDBRANCH   6  10
TORSDOF 2
ENDMDL
MODEL 5
REMARK VINA RESULT:    -4.770     10.900     11.980
REMARK INTER + INTRA:          -5.539
REMARK INTER:                  -5.334
REMARK INTRA:                  -0.205
REMARK UNBOUND:                -0.210
REMARK SMILES CC(C)c1ccc(C(=O)[O-])cc1
REMARK SMILES IDX 7 1 6 2 11 3 5 4 12 5 4 6 8 7 9 8 10 9 2 10 1 11 3 12
REMARK H PARENT
REMARK Flexibility Score: inf
ROOT
ATOM      1  C   UNL     1      -0.320  -0.799 -31.554  1.00  0.00    -0.003 A 
ATOM      2  C   UNL     1      -0.291  -0.751 -32.958  1.00  0.00     0.010 A 
ATOM      3  C   UNL     1      -1.481  -0.386 -30.883  1.00  0.00     0.010 A 
ATOM      4  C   UNL     1      -1.403  -0.300 -33.675  1.00  0.00     0.004 A 
ATOM      5  C   UNL     1      -2.593   0.066 -31.599  1.00  0.00     0.004 A 
ATOM      6  C   UNL     1      -2.568   0.114 -33.003  1.00  0.00    -0.045 A 
ENDROOT
BRANCH   1   7
ATOM      7  C   UNL     1       0.856  -1.276 -30.792  1.00  0.00     0.071 C 
ATOM      8  O   UNL     1       1.131  -2.504 -30.741  1.00  0.00    -0.545 OA
ATOM      9  O   UNL     1       1.673  -0.374 -30.120  1.00  0.00    -0.545 OA
ENDBRANCH   1   7
BRANCH   6  10
ATOM     10  C   UNL     1      -3.782   0.606 -33.767  1.00  0.00     0.013 C 
ATOM     11  C   UNL     1      -5.073   0.343 -32.981  1.00  0.00     0.012 C 
ATOM     12  C   UNL     1      -3.646   2.091 -34.125  1.00  0.00     0.012 C 
ENDBRANCH   6  10
TORSDOF 2
ENDMDL
MODEL 6
REMARK VINA RESULT:    -4.769      5.819      8.110
REMARK INTER + INTRA:          -5.537
REMARK INTER:                  -5.319
REMARK INTRA:                  -0.218
REMARK UNBOUND:                -0.210
REMARK SMILES CC(C)c1ccc(C(=O)[O-])cc1
REMARK SMILES IDX 7 1 6 2 11 3 5 4 12 5 4 6 8 7 9 8 10 9 2 10 1 11 3 12
REMARK H PARENT
REMARK Flexibility Score: inf
ROOT
ATOM      1  C   UNL     1      -6.067   9.579 -18.839  1.00  0.00    -0.003 A 
ATOM      2  C   UNL     1      -5.490  10.115 -20.003  1.00  0.00     0.010 A 
ATOM      3  C   UNL     1      -7.139   8.682 -18.962  1.00  0.00     0.010 A 
ATOM      4  C   UNL     1      -5.978   9.760 -21.264  1.00  0.00     0.004 A 
ATOM      5  C   UNL     1      -7.626   8.325 -20.222  1.00  0.00     0.004 A 
ATOM      6  C   UNL     1      -7.052   8.860 -21.388  1.00  0.00    -0.045 A 
ENDROOT
BRANCH   1   7
ATOM      7  C   UNL     1      -5.553   9.954 -17.502  1.00  0.00     0.071 C 
ATOM      8  O   UNL     1      -6.344  10.122 -16.536  1.00  0.00    -0.545 OA
ATOM      9  O   UNL     1      -4.189  10.125 -17.294  1.00  0.00    -0.545 OA
ENDBRANCH   1   7
BRANCH   6  10
ATOM     10  C   UNL     1      -7.592   8.464 -22.749  1.00  0.00     0.013 C 
ATOM     11  C   UNL     1      -6.471   8.416 -23.794  1.00  0.00     0.012 C 
ATOM     12  C   UNL     1      -8.340   7.128 -22.681  1.00  0.00     0.012 C 
ENDBRANCH   6  10
TORSDOF 2
ENDMDL
MODEL 7
REMARK VINA RESULT:    -4.731      2.035      3.458
REMARK INTER + INTRA:          -5.494
REMARK INTER:                  -5.280
REMARK INTRA:                  -0.214
REMARK UNBOUND:                -0.210
REMARK SMILES CC(C)c1ccc(C(=O)[O-])cc1
REMARK SMILES IDX 7 1 6 2 11 3 5 4 12 5 4 6 8 7 9 8 10 9 2 10 1 11 3 12
REMARK H PARENT
REMARK Flexibility Score: inf
ROOT
ATOM      1  C   UNL     1      -6.892   8.983 -23.661  1.00  0.00    -0.003 A 
ATOM      2  C   UNL     1      -6.651  10.125 -24.444  1.00  0.00     0.010 A 
ATOM      3  C   UNL     1      -7.242   7.782 -24.298  1.00  0.00     0.010 A 
ATOM      4  C   UNL     1      -6.757  10.065 -25.836  1.00  0.00     0.004 A 
ATOM      5  C   UNL     1      -7.349   7.722 -25.691  1.00  0.00     0.004 A 
ATOM      6  C   UNL     1      -7.108   8.862 -26.476  1.00  0.00    -0.045 A 
ENDROOT
BRANCH   1   7
ATOM      7  C   UNL     1      -6.780   9.042 -22.186  1.00  0.00     0.071 C 
ATOM      8  O   UNL     1      -5.696   9.376 -21.639  1.00  0.00    -0.545 OA
ATOM      9  O   UNL     1      -7.872   8.730 -21.384  1.00  0.00    -0.545 OA
ENDBRANCH   1   7
BRANCH   6  10
ATOM     10  C   UNL     1      -7.227   8.782 -27.986  1.00  0.00     0.013 C 
ATOM     11  C   UNL     1      -6.385   9.869 -28.664  1.00  0.00     0.012 C 
ATOM     12  C   UNL     1      -6.844   7.388 -28.498  1.00  0.00     0.012 C 
ENDBRANCH   6  10
TORSDOF 2
ENDMDL
MODEL 8
REMARK VINA RESULT:    -4.724     12.684     13.832
REMARK INTER + INTRA:          -5.487
REMARK INTER:                  -5.279
REMARK INTRA:                  -0.208
REMARK UNBOUND:                -0.210
REMARK SMILES CC(C)c1ccc(C(=O)[O-])cc1
REMARK SMILES IDX 7 1 6 2 11 3 5 4 12 5 4 6 8 7 9 8 10 9 2 10 1 11 3 12
REMARK H PARENT
REMARK Flexibility Score: inf
ROOT
ATOM      1  C   UNL     1      -1.504  -0.751 -32.743  1.00  0.00    -0.003 A 
ATOM      2  C   UNL     1      -0.394  -0.480 -33.562  1.00  0.00     0.010 A 
ATOM      3  C   UNL     1      -1.659  -2.040 -32.212  1.00  0.00     0.010 A 
ATOM      4  C   UNL     1       0.542  -1.480 -33.841  1.00  0.00     0.004 A 
ATOM      5  C   UNL     1      -0.724  -3.041 -32.491  1.00  0.00     0.004 A 
ATOM      6  C   UNL     1       0.387  -2.773 -33.309  1.00  0.00    -0.045 A 
ENDROOT
BRANCH   1   7
ATOM      7  C   UNL     1      -2.496   0.306 -32.445  1.00  0.00     0.071 C 
ATOM      8  O   UNL     1      -2.940   0.457 -31.276  1.00  0.00    -0.545 OA
ATOM      9  O   UNL     1      -2.953   1.148 -33.452  1.00  0.00    -0.545 OA
ENDBRANCH   1   7
BRANCH   6  10
ATOM     10  C   UNL     1       1.394  -3.869 -33.603  1.00  0.00     0.013 C 
ATOM     11  C   UNL     1       2.549  -3.842 -32.595  1.00  0.00     0.012 C 
ATOM     12  C   UNL     1       0.720  -5.246 -33.634  1.00  0.00     0.012 C 
ENDBRANCH   6  10
TORSDOF 2
ENDMDL
MODEL 9
REMARK VINA RESULT:    -4.715     12.643     13.751
REMARK INTER + INTRA:          -5.477
REMARK INTER:                  -5.271
REMARK INTRA:                  -0.206
REMARK UNBOUND:                -0.210
REMARK SMILES CC(C)c1ccc(C(=O)[O-])cc1
REMARK SMILES IDX 7 1 6 2 11 3 5 4 12 5 4 6 8 7 9 8 10 9 2 10 1 11 3 12
REMARK H PARENT
REMARK Flexibility Score: inf
ROOT
ATOM      1  C   UNL     1      -1.545  -0.726 -32.731  1.00  0.00    -0.003 A 
ATOM      2  C   UNL     1      -1.645  -1.993 -32.132  1.00  0.00     0.010 A 
ATOM      3  C   UNL     1      -0.494  -0.479 -33.628  1.00  0.00     0.010 A 
ATOM      4  C   UNL     1      -0.712  -2.992 -32.424  1.00  0.00     0.004 A 
ATOM      5  C   UNL     1       0.439  -1.477 -33.921  1.00  0.00     0.004 A 
ATOM      6  C   UNL     1       0.342  -2.744 -33.323  1.00  0.00    -0.045 A 
ENDROOT
BRANCH   1   7
ATOM      7  C   UNL     1      -2.531   0.334 -32.423  1.00  0.00     0.071 C 
ATOM      8  O   UNL     1      -2.932   0.513 -31.243  1.00  0.00    -0.545 OA
ATOM      9  O   UNL     1      -3.029   1.148 -33.435  1.00  0.00    -0.545 OA
ENDBRANCH   1   7
BRANCH   6  10
ATOM     10  C   UNL     1       1.361  -3.819 -33.651  1.00  0.00     0.013 C 
ATOM     11  C   UNL     1       2.564  -3.746 -32.703  1.00  0.00     0.012 C 
ATOM     12  C   UNL     1       0.723  -5.213 -33.628  1.00  0.00     0.012 C 
ENDBRANCH   6  10
TORSDOF 2
ENDMDL
