MODEL 1
REMARK VINA RESULT:    -3.124      0.000      0.000
REMARK INTER + INTRA:          -4.914
REMARK INTER:                  -4.767
REMARK INTRA:                  -0.147
REMARK UNBOUND:                -0.147
REMARK SMILES CC1=CCC[C@H](C)C(=O)C[C@@H](C(C)C)C(=O)C1
REMARK SMILES IDX 8 1 9 2 6 3 7 4 5 5 4 6 3 7 2 8 1 9 10 11 11 12 15 13 16 14
REMARK SMILES IDX 17 15 12 17 13 18 14 19
REMARK H PARENT
REMARK Flexibility Score: 70.00
ROOT
ATOM      1  C   UNL     1     151.970 160.508 198.719  1.00  0.00     0.136 C 
ATOM      2  O   UNL     1     151.524 161.524 198.212  1.00  0.00    -0.299 OA
ENDROOT
BRANCH   1   3
ATOM      3  C   UNL     1     151.108 159.253 198.690  1.00  0.00     0.053 C 
ATOM      4  C   UNL     1     149.658 159.561 198.287  1.00  0.00     0.016 C 
BRANCH   3   5
ATOM      5  C   UNL     1     151.726 158.173 197.781  1.00  0.00     0.015 C 
BRANCH   5   6
ATOM      6  C   UNL     1     152.222 156.958 198.591  1.00  0.00     0.028 C 
BRANCH   6   7
ATOM      7  C   UNL     1     153.726 156.866 198.615  1.00  0.00    -0.028 C 
ATOM      8  C   UNL     1     154.498 157.182 199.681  1.00  0.00    -0.070 CG0
ATOM      9  C   UNL     1     155.991 157.019 199.551  1.00  0.00     0.039 C 
ATOM     10  G   UNL     1     153.934 157.726 200.984  1.00  0.00     0.000 G0
ENDBRANCH   6   7
ENDBRANCH   5   6
ENDBRANCH   3   5
ENDBRANCH   1   3
BRANCH   1  11
ATOM     11  C   UNL     1     153.377 160.518 199.289  1.00  0.00     0.087 C 
BRANCH  11  12
ATOM     12  C   UNL     1     153.527 160.367 200.829  1.00  0.00     0.066 C 
BRANCH  12  13
ATOM     13  C   UNL     1     154.345 159.157 201.272  1.00  0.00     0.140 C 
ATOM     14  O   UNL     1     155.356 159.357 201.933  1.00  0.00    -0.299 OA
BRANCH  13  15
ATOM     15  C   UNL     1     153.932 157.729 200.995  1.00  0.00     0.106 CG0
ATOM     16  G   UNL     1     154.515 157.208 199.691  1.00  0.00     0.000 G0
ENDBRANCH  13  15
ENDBRANCH  12  13
BRANCH  12  17
ATOM     17  C   UNL     1     152.244 160.678 201.669  1.00  0.00    -0.006 C 
ATOM     18  C   UNL     1     151.868 159.635 202.728  1.00  0.00     0.008 C 
ATOM     19  C   UNL     1     152.303 162.081 202.298  1.00  0.00     0.008 C 
ENDBRANCH  12  17
ENDBRANCH  11  12
ENDBRANCH   1  11
TORSDOF 1
ENDMDL
MODEL 2
REMARK VINA RESULT:    -3.078      1.763      3.821
REMARK INTER + INTRA:          -4.844
REMARK INTER:                  -4.585
REMARK INTRA:                  -0.259
REMARK UNBOUND:                -0.147
REMARK SMILES CC1=CCC[C@H](C)C(=O)C[C@@H](C(C)C)C(=O)C1
REMARK SMILES IDX 8 1 9 2 6 3 7 4 5 5 4 6 3 7 2 8 1 9 10 11 11 12 15 13 16 14
REMARK SMILES IDX 17 15 12 17 13 18 14 19
REMARK H PARENT
REMARK Flexibility Score: 70.00
ROOT
ATOM      1  C   UNL     1     153.904 160.234 201.040  1.00  0.00     0.136 C 
ATOM      2  O   UNL     1     155.064 160.156 201.409  1.00  0.00    -0.299 OA
ENDROOT
BRANCH   1   3
ATOM      3  C   UNL     1     152.846 160.596 202.073  1.00  0.00     0.053 C 
ATOM      4  C   UNL     1     152.097 161.885 201.701  1.00  0.00     0.016 C 
BRANCH   3   5
ATOM      5  C   UNL     1     151.869 159.427 202.304  1.00  0.00     0.015 C 
BRANCH   5   6
ATOM      6  C   UNL     1     152.607 158.139 202.724  1.00  0.00     0.028 C 
BRANCH   6   7
ATOM      7  C   UNL     1     151.914 156.898 202.221  1.00  0.00    -0.028 C 
ATOM      8  C   UNL     1     152.202 156.277 201.054  1.00  0.00    -0.070 CG0
ATOM      9  C   UNL     1     151.430 155.031 200.701  1.00  0.00     0.039 C 
ATOM     10  G   UNL     1     153.240 156.795 200.070  1.00  0.00     0.000 G0
ENDBRANCH   6   7
ENDBRANCH   5   6
ENDBRANCH   3   5
ENDBRANCH   1   3
BRANCH   1  11
ATOM     11  C   UNL     1     153.577 160.038 199.571  1.00  0.00     0.087 C 
BRANCH  11  12
ATOM     12  C   UNL     1     152.331 159.174 199.224  1.00  0.00     0.066 C 
BRANCH  12  13
ATOM     13  C   UNL     1     152.629 157.696 198.990  1.00  0.00     0.140 C 
ATOM     14  O   UNL     1     152.411 157.235 197.877  1.00  0.00    -0.299 OA
BRANCH  13  15
ATOM     15  C   UNL     1     153.243 156.796 200.038  1.00  0.00     0.106 CG0
ATOM     16  G   UNL     1     152.209 156.284 201.028  1.00  0.00     0.000 G0
ENDBRANCH  13  15
ENDBRANCH  12  13
BRANCH  12  17
ATOM     17  C   UNL     1     151.298 159.833 198.251  1.00  0.00    -0.006 C 
ATOM     18  C   UNL     1     149.877 160.008 198.800  1.00  0.00     0.008 C 
ATOM     19  C   UNL     1     151.820 161.165 197.685  1.00  0.00     0.008 C 
ENDBRANCH  12  17
ENDBRANCH  11  12
ENDBRANCH   1  11
TORSDOF 1
ENDMDL
MODEL 3
REMARK VINA RESULT:    -3.040      1.681      3.516
REMARK INTER + INTRA:          -4.787
REMARK INTER:                  -4.562
REMARK INTRA:                  -0.224
REMARK UNBOUND:                -0.147
REMARK SMILES CC1=CCC[C@H](C)C(=O)C[C@@H](C(C)C)C(=O)C1
REMARK SMILES IDX 8 1 9 2 6 3 7 4 5 5 4 6 3 7 2 8 1 9 10 11 11 12 15 13 16 14
REMARK SMILES IDX 17 15 12 17 13 18 14 19
REMARK H PARENT
REMARK Flexibility Score: 70.00
ROOT
ATOM      1  C   UNL     1     154.843 160.543 200.015  1.00  0.00     0.136 C 
ATOM      2  O   UNL     1     155.342 160.633 201.125  1.00  0.00    -0.299 OA
ENDROOT
BRANCH   1   3
ATOM      3  C   UNL     1     155.710 160.019 198.879  1.00  0.00     0.053 C 
ATOM      4  C   UNL     1     156.903 160.944 198.591  1.00  0.00     0.016 C 
BRANCH   3   5
ATOM      5  C   UNL     1     156.174 158.575 199.152  1.00  0.00     0.015 C 
BRANCH   5   6
ATOM      6  C   UNL     1     154.981 157.619 199.357  1.00  0.00     0.028 C 
BRANCH   6   7
ATOM      7  C   UNL     1     154.176 157.437 198.095  1.00  0.00    -0.028 C 
ATOM      8  C   UNL     1     152.824 157.464 198.036  1.00  0.00    -0.070 CG0
ATOM      9  C   UNL     1     152.167 157.283 196.692  1.00  0.00     0.039 C 
ATOM     10  G   UNL     1     151.941 157.632 199.263  1.00  0.00     0.000 G0
ENDBRANCH   6   7
ENDBRANCH   5   6
ENDBRANCH   3   5
ENDBRANCH   1   3
BRANCH   1  11
ATOM     11  C   UNL     1     153.376 160.887 199.830  1.00  0.00     0.087 C 
BRANCH  11  12
ATOM     12  C   UNL     1     152.332 159.957 200.512  1.00  0.00     0.066 C 
BRANCH  12  13
ATOM     13  C   UNL     1     151.555 159.063 199.549  1.00  0.00     0.140 C 
ATOM     14  O   UNL     1     150.626 159.561 198.925  1.00  0.00    -0.299 OA
BRANCH  13  15
ATOM     15  C   UNL     1     151.919 157.621 199.278  1.00  0.00     0.106 CG0
ATOM     16  G   UNL     1     152.823 157.479 198.064  1.00  0.00     0.000 G0
ENDBRANCH  13  15
ENDBRANCH  12  13
BRANCH  12  17
ATOM     17  C   UNL     1     151.508 160.601 201.675  1.00  0.00    -0.006 C 
ATOM     18  C   UNL     1     151.127 159.662 202.826  1.00  0.00     0.008 C 
ATOM     19  C   UNL     1     152.189 161.868 202.220  1.00  0.00     0.008 C 
ENDBRANCH  12  17
ENDBRANCH  11  12
ENDBRANCH   1  11
TORSDOF 1
ENDMDL
MODEL 4
REMARK VINA RESULT:    -2.948      1.552      3.788
REMARK INTER + INTRA:          -4.646
REMARK INTER:                  -4.636
REMARK INTRA:                  -0.010
REMARK UNBOUND:                -0.147
REMARK SMILES CC1=CCC[C@H](C)C(=O)C[C@@H](C(C)C)C(=O)C1
REMARK SMILES IDX 8 1 9 2 6 3 7 4 5 5 4 6 3 7 2 8 1 9 10 11 11 12 15 13 16 14
REMARK SMILES IDX 17 15 12 17 13 18 14 19
REMARK H PARENT
REMARK Flexibility Score: 70.00
ROOT
ATOM      1  C   UNL     1     154.664 158.265 201.643  1.00  0.00     0.136 C 
ATOM      2  O   UNL     1     155.390 157.997 202.586  1.00  0.00    -0.299 OA
ENDROOT
BRANCH   1   3
ATOM      3  C   UNL     1     154.293 157.144 200.682  1.00  0.00     0.053 C 
ATOM      4  C   UNL     1     155.519 156.321 200.258  1.00  0.00     0.016 C 
BRANCH   3   5
ATOM      5  C   UNL     1     153.191 156.244 201.274  1.00  0.00     0.015 C 
BRANCH   5   6
ATOM      6  C   UNL     1     151.870 156.363 200.485  1.00  0.00     0.028 C 
BRANCH   6   7
ATOM      7  C   UNL     1     152.102 156.717 199.038  1.00  0.00    -0.028 C 
ATOM      8  C   UNL     1     151.791 157.909 198.480  1.00  0.00    -0.070 CG0
ATOM      9  C   UNL     1     152.103 158.115 197.020  1.00  0.00     0.039 C 
ATOM     10  G   UNL     1     151.111 159.034 199.246  1.00  0.00     0.000 G0
ENDBRANCH   6   7
ENDBRANCH   5   6
ENDBRANCH   3   5
ENDBRANCH   1   3
BRANCH   1  11
ATOM     11  C   UNL     1     154.110 159.672 201.508  1.00  0.00     0.087 C 
BRANCH  11  12
ATOM     12  C   UNL     1     152.572 159.822 201.331  1.00  0.00     0.066 C 
BRANCH  12  13
ATOM     13  C   UNL     1     152.112 159.976 199.884  1.00  0.00     0.140 C 
ATOM     14  O   UNL     1     152.624 160.860 199.210  1.00  0.00    -0.299 OA
BRANCH  13  15
ATOM     15  C   UNL     1     151.113 159.051 199.227  1.00  0.00     0.106 CG0
ATOM     16  G   UNL     1     151.794 157.921 198.470  1.00  0.00     0.000 G0
ENDBRANCH  13  15
ENDBRANCH  12  13
BRANCH  12  17
ATOM     17  C   UNL     1     151.852 160.726 202.385  1.00  0.00    -0.006 C 
ATOM     18  C   UNL     1     152.245 162.209 202.375  1.00  0.00     0.008 C 
ATOM     19  C   UNL     1     150.323 160.578 202.313  1.00  0.00     0.008 C 
ENDBRANCH  12  17
ENDBRANCH  11  12
ENDBRANCH   1  11
TORSDOF 1
ENDMDL
MODEL 5
REMARK VINA RESULT:    -2.908      2.162      4.373
REMARK INTER + INTRA:          -4.584
REMARK INTER:                  -4.335
REMARK INTRA:                  -0.250
REMARK UNBOUND:                -0.147
REMARK SMILES CC1=CCC[C@H](C)C(=O)C[C@@H](C(C)C)C(=O)C1
REMARK SMILES IDX 8 1 9 2 6 3 7 4 5 5 4 6 3 7 2 8 1 9 10 11 11 12 15 13 16 14
REMARK SMILES IDX 17 15 12 17 13 18 14 19
REMARK H PARENT
REMARK Flexibility Score: 70.00
ROOT
ATOM      1  C   UNL     1     151.803 158.623 202.436  1.00  0.00     0.136 C 
ATOM      2  O   UNL     1     151.946 158.591 203.647  1.00  0.00    -0.299 OA
ENDROOT
BRANCH   1   3
ATOM      3  C   UNL     1     151.326 159.924 201.805  1.00  0.00     0.053 C 
ATOM      4  C   UNL     1     149.979 160.384 202.383  1.00  0.00     0.016 C 
BRANCH   3   5
ATOM      5  C   UNL     1     152.395 161.027 201.926  1.00  0.00     0.015 C 
BRANCH   5   6
ATOM      6  C   UNL     1     153.256 161.133 200.651  1.00  0.00     0.028 C 
BRANCH   6   7
ATOM      7  C   UNL     1     152.472 160.802 199.407  1.00  0.00    -0.028 C 
ATOM      8  C   UNL     1     152.755 159.776 198.571  1.00  0.00    -0.070 CG0
ATOM      9  C   UNL     1     151.861 159.566 197.375  1.00  0.00     0.039 C 
ATOM     10  G   UNL     1     153.947 158.851 198.763  1.00  0.00     0.000 G0
ENDBRANCH   6   7
ENDBRANCH   5   6
ENDBRANCH   3   5
ENDBRANCH   1   3
BRANCH   1  11
ATOM     11  C   UNL     1     152.169 157.402 201.611  1.00  0.00     0.087 C 
BRANCH  11  12
ATOM     12  C   UNL     1     153.578 157.380 200.953  1.00  0.00     0.066 C 
BRANCH  12  13
ATOM     13  C   UNL     1     153.572 157.544 199.436  1.00  0.00     0.140 C 
ATOM     14  O   UNL     1     153.189 156.600 198.758  1.00  0.00    -0.299 OA
BRANCH  13  15
ATOM     15  C   UNL     1     153.946 158.832 198.738  1.00  0.00     0.106 CG0
ATOM     16  G   UNL     1     152.752 159.758 198.571  1.00  0.00     0.000 G0
ENDBRANCH  13  15
ENDBRANCH  12  13
BRANCH  12  17
ATOM     17  C   UNL     1     154.580 156.326 201.530  1.00  0.00    -0.006 C 
ATOM     18  C   UNL     1     155.740 156.889 202.361  1.00  0.00     0.008 C 
ATOM     19  C   UNL     1     153.852 155.218 202.310  1.00  0.00     0.008 C 
ENDBRANCH  12  17
ENDBRANCH  11  12
ENDBRANCH   1  11
TORSDOF 1
ENDMDL
MODEL 6
REMARK VINA RESULT:    -2.807      1.712      3.883
REMARK INTER + INTRA:          -4.430
REMARK INTER:                  -4.535
REMARK INTRA:                   0.104
REMARK UNBOUND:                -0.147
REMARK SMILES CC1=CCC[C@H](C)C(=O)C[C@@H](C(C)C)C(=O)C1
REMARK SMILES IDX 8 1 9 2 6 3 7 4 5 5 4 6 3 7 2 8 1 9 10 11 11 12 15 13 16 14
REMARK SMILES IDX 17 15 12 17 13 18 14 19
REMARK H PARENT
REMARK Flexibility Score: 70.00
ROOT
ATOM      1  C   UNL     1     150.749 160.569 201.113  1.00  0.00     0.136 C 
ATOM      2  O   UNL     1     149.548 160.559 201.330  1.00  0.00    -0.299 OA
ENDROOT
BRANCH   1   3
ATOM      3  C   UNL     1     151.694 160.552 202.306  1.00  0.00     0.053 C 
ATOM      4  C   UNL     1     151.554 161.815 203.169  1.00  0.00     0.016 C 
BRANCH   3   5
ATOM      5  C   UNL     1     151.507 159.274 203.147  1.00  0.00     0.015 C 
BRANCH   5   6
ATOM      6  C   UNL     1     152.045 158.025 202.419  1.00  0.00     0.028 C 
BRANCH   6   7
ATOM      7  C   UNL     1     153.526 158.116 202.154  1.00  0.00    -0.028 C 
ATOM      8  C   UNL     1     154.108 157.881 200.955  1.00  0.00    -0.070 CG0
ATOM      9  C   UNL     1     155.604 158.031 200.848  1.00  0.00     0.039 C 
ATOM     10  G   UNL     1     153.329 157.439 199.726  1.00  0.00     0.000 G0
ENDBRANCH   6   7
ENDBRANCH   5   6
ENDBRANCH   3   5
ENDBRANCH   1   3
BRANCH   1  11
ATOM     11  C   UNL     1     151.245 160.527 199.679  1.00  0.00     0.087 C 
BRANCH  11  12
ATOM     12  C   UNL     1     151.377 159.130 199.008  1.00  0.00     0.066 C 
BRANCH  12  13
ATOM     13  C   UNL     1     152.807 158.604 198.916  1.00  0.00     0.140 C 
ATOM     14  O   UNL     1     153.593 159.201 198.191  1.00  0.00    -0.299 OA
BRANCH  13  15
ATOM     15  C   UNL     1     153.315 157.432 199.725  1.00  0.00     0.106 CG0
ATOM     16  G   UNL     1     154.107 157.880 200.943  1.00  0.00     0.000 G0
ENDBRANCH  13  15
ENDBRANCH  12  13
BRANCH  12  17
ATOM     17  C   UNL     1     150.470 158.890 197.756  1.00  0.00    -0.006 C 
ATOM     18  C   UNL     1     149.827 160.140 197.145  1.00  0.00     0.008 C 
ATOM     19  C   UNL     1     151.201 158.079 196.672  1.00  0.00     0.008 C 
ENDBRANCH  12  17
ENDBRANCH  11  12
ENDBRANCH   1  11
TORSDOF 1
ENDMDL
MODEL 7
REMARK VINA RESULT:    -2.794      2.191      3.655
REMARK INTER + INTRA:          -4.411
REMARK INTER:                  -4.336
REMARK INTRA:                  -0.074
REMARK UNBOUND:                -0.147
REMARK SMILES CC1=CCC[C@H](C)C(=O)C[C@@H](C(C)C)C(=O)C1
REMARK SMILES IDX 8 1 9 2 6 3 7 4 5 5 4 6 3 7 2 8 1 9 10 11 11 12 15 13 16 14
REMARK SMILES IDX 17 15 12 17 13 18 14 19
REMARK H PARENT
REMARK Flexibility Score: 70.00
ROOT
ATOM      1  C   UNL     1     152.010 159.321 199.895  1.00  0.00     0.136 C 
ATOM      2  O   UNL     1     150.795 159.430 199.859  1.00  0.00    -0.299 OA
ENDROOT
BRANCH   1   3
ATOM      3  C   UNL     1     152.839 160.586 200.072  1.00  0.00     0.053 C 
ATOM      4  C   UNL     1     152.652 161.206 201.464  1.00  0.00     0.016 C 
BRANCH   3   5
ATOM      5  C   UNL     1     154.327 160.324 199.769  1.00  0.00     0.015 C 
BRANCH   5   6
ATOM      6  C   UNL     1     155.189 160.376 201.048  1.00  0.00     0.028 C 
BRANCH   6   7
ATOM      7  C   UNL     1     156.419 159.512 200.939  1.00  0.00    -0.028 C 
ATOM      8  C   UNL     1     156.520 158.255 201.429  1.00  0.00    -0.070 CG0
ATOM      9  C   UNL     1     157.816 157.512 201.223  1.00  0.00     0.039 C 
ATOM     10  G   UNL     1     155.405 157.573 202.206  1.00  0.00     0.000 G0
ENDBRANCH   6   7
ENDBRANCH   5   6
ENDBRANCH   3   5
ENDBRANCH   1   3
BRANCH   1  11
ATOM     11  C   UNL     1     152.634 157.938 199.834  1.00  0.00     0.087 C 
BRANCH  11  12
ATOM     12  C   UNL     1     152.978 157.248 201.185  1.00  0.00     0.066 C 
BRANCH  12  13
ATOM     13  C   UNL     1     154.439 156.832 201.330  1.00  0.00     0.140 C 
ATOM     14  O   UNL     1     154.841 155.899 200.646  1.00  0.00    -0.299 OA
BRANCH  13  15
ATOM     15  C   UNL     1     155.425 157.555 202.218  1.00  0.00     0.106 CG0
ATOM     16  G   UNL     1     156.518 158.244 201.416  1.00  0.00     0.000 G0
ENDBRANCH  13  15
ENDBRANCH  12  13
BRANCH  12  17
ATOM     17  C   UNL     1     151.914 156.234 201.719  1.00  0.00    -0.006 C 
ATOM     18  C   UNL     1     151.525 155.103 200.759  1.00  0.00     0.008 C 
ATOM     19  C   UNL     1     152.313 155.659 203.089  1.00  0.00     0.008 C 
ENDBRANCH  12  17
ENDBRANCH  11  12
ENDBRANCH   1  11
TORSDOF 1
ENDMDL
MODEL 8
REMARK VINA RESULT:    -2.752      2.385      4.225
REMARK INTER + INTRA:          -4.347
REMARK INTER:                  -4.275
REMARK INTRA:                  -0.072
REMARK UNBOUND:                -0.147
REMARK SMILES CC1=CCC[C@H](C)C(=O)C[C@@H](C(C)C)C(=O)C1
REMARK SMILES IDX 8 1 9 2 6 3 7 4 5 5 4 6 3 7 2 8 1 9 10 11 11 12 15 13 16 14
REMARK SMILES IDX 17 15 12 17 13 18 14 19
REMARK H PARENT
REMARK Flexibility Score: 70.00
ROOT
ATOM      1  C   UNL     1     151.578 160.908 200.102  1.00  0.00     0.136 C 
ATOM      2  O   UNL     1     150.527 160.347 200.367  1.00  0.00    -0.299 OA
ENDROOT
BRANCH   1   3
ATOM      3  C   UNL     1     152.644 160.983 201.185  1.00  0.00     0.053 C 
ATOM      4  C   UNL     1     152.252 161.949 202.313  1.00  0.00     0.016 C 
BRANCH   3   5
ATOM      5  C   UNL     1     152.978 159.583 201.736  1.00  0.00     0.015 C 
BRANCH   5   6
ATOM      6  C   UNL     1     154.037 158.865 200.873  1.00  0.00     0.028 C 
BRANCH   6   7
ATOM      7  C   UNL     1     155.082 159.816 200.348  1.00  0.00    -0.028 C 
ATOM      8  C   UNL     1     155.303 160.066 199.037  1.00  0.00    -0.070 CG0
ATOM      9  C   UNL     1     156.376 161.061 198.673  1.00  0.00     0.039 C 
ATOM     10  G   UNL     1     154.548 159.366 197.918  1.00  0.00     0.000 G0
ENDBRANCH   6   7
ENDBRANCH   5   6
ENDBRANCH   3   5
ENDBRANCH   1   3
BRANCH   1  11
ATOM     11  C   UNL     1     151.802 161.440 198.697  1.00  0.00     0.087 C 
BRANCH  11  12
ATOM     12  C   UNL     1     152.105 160.402 197.579  1.00  0.00     0.066 C 
BRANCH  12  13
ATOM     13  C   UNL     1     153.581 160.280 197.210  1.00  0.00     0.140 C 
ATOM     14  O   UNL     1     154.016 161.016 196.333  1.00  0.00    -0.299 OA
BRANCH  13  15
ATOM     15  C   UNL     1     154.541 159.352 197.919  1.00  0.00     0.106 CG0
ATOM     16  G   UNL     1     155.297 160.057 199.034  1.00  0.00     0.000 G0
ENDBRANCH  13  15
ENDBRANCH  12  13
BRANCH  12  17
ATOM     17  C   UNL     1     151.090 160.371 196.389  1.00  0.00    -0.006 C 
ATOM     18  C   UNL     1     150.136 159.171 196.353  1.00  0.00     0.008 C 
ATOM     19  C   UNL     1     150.299 161.686 196.282  1.00  0.00     0.008 C 
ENDBRANCH  12  17
ENDBRANCH  11  12
ENDBRANCH   1  11
TORSDOF 1
ENDMDL
MODEL 9
REMARK VINA RESULT:    -2.745      1.768      2.399
REMARK INTER + INTRA:          -4.337
REMARK INTER:                  -4.130
REMARK INTRA:                  -0.206
REMARK UNBOUND:                -0.147
REMARK SMILES CC1=CCC[C@H](C)C(=O)C[C@@H](C(C)C)C(=O)C1
REMARK SMILES IDX 8 1 9 2 6 3 7 4 5 5 4 6 3 7 2 8 1 9 10 11 11 12 15 13 16 14
REMARK SMILES IDX 17 15 12 17 13 18 14 19
REMARK H PARENT
REMARK Flexibility Score: 70.00
ROOT
ATOM      1  C   UNL     1     150.688 159.340 198.751  1.00  0.00     0.136 C 
ATOM      2  O   UNL     1     149.569 159.806 198.892  1.00  0.00    -0.299 OA
ENDROOT
BRANCH   1   3
ATOM      3  C   UNL     1     151.368 159.505 197.400  1.00  0.00     0.053 C 
ATOM      4  C   UNL     1     150.395 159.274 196.234  1.00  0.00     0.016 C 
BRANCH   3   5
ATOM      5  C   UNL     1     152.061 160.878 197.288  1.00  0.00     0.015 C 
BRANCH   5   6
ATOM      6  C   UNL     1     153.596 160.741 197.231  1.00  0.00     0.028 C 
BRANCH   6   7
ATOM      7  C   UNL     1     154.031 159.328 196.937  1.00  0.00    -0.028 C 
ATOM      8  C   UNL     1     154.626 158.506 197.832  1.00  0.00    -0.070 CG0
ATOM      9  C   UNL     1     154.985 157.111 197.388  1.00  0.00     0.039 C 
ATOM     10  G   UNL     1     154.982 158.935 199.247  1.00  0.00     0.000 G0
ENDBRANCH   6   7
ENDBRANCH   5   6
ENDBRANCH   3   5
ENDBRANCH   1   3
BRANCH   1  11
ATOM     11  C   UNL     1     151.375 158.686 199.936  1.00  0.00     0.087 C 
BRANCH  11  12
ATOM     12  C   UNL     1     152.663 159.366 200.482  1.00  0.00     0.066 C 
BRANCH  12  13
ATOM     13  C   UNL     1     153.943 158.563 200.270  1.00  0.00     0.140 C 
ATOM     14  O   UNL     1     154.089 157.534 200.917  1.00  0.00    -0.299 OA
BRANCH  13  15
ATOM     15  C   UNL     1     154.999 158.936 199.255  1.00  0.00     0.106 CG0
ATOM     16  G   UNL     1     154.613 158.509 197.847  1.00  0.00     0.000 G0
ENDBRANCH  13  15
ENDBRANCH  12  13
BRANCH  12  17
ATOM     17  C   UNL     1     152.517 160.082 201.865  1.00  0.00    -0.006 C 
ATOM     18  C   UNL     1     152.221 161.586 201.813  1.00  0.00     0.008 C 
ATOM     19  C   UNL     1     151.500 159.368 202.771  1.00  0.00     0.008 C 
ENDBRANCH  12  17
ENDBRANCH  11  12
ENDBRANCH   1  11
TORSDOF 1
ENDMDL
