MODEL 1
REMARK VINA RESULT:     2.533      0.000      0.000
REMARK INTER + INTRA:           2.512
REMARK INTER:                   2.755
REMARK INTRA:                  -0.243
REMARK UNBOUND:                -0.243
REMARK SMILES CC(C)c1cc2c(cc1O)[C@]1(C)CCCC(C)(C)[C@H]1CC2=O
REMARK SMILES IDX 4 1 9 2 8 3 7 4 6 5 5 6 21 7 22 8 20 9 19 10 11 11 13 12
REMARK SMILES IDX 14 13 15 14 16 15 17 16 18 17 12 18 2 19 1 20 3 21 10 22
REMARK H PARENT 10 23
REMARK Flexibility Score: inf
ROOT
ATOM      1  C   UNL     1      10.049 -31.145  16.964  1.00  0.00    -0.003 A 
ATOM      2  C   UNL     1       9.184 -31.812  17.865  1.00  0.00     0.119 A 
ATOM      3  C   UNL     1       8.280 -32.765  17.390  1.00  0.00     0.051 A 
ATOM      4  C   UNL     1       8.254 -33.156  16.034  1.00  0.00    -0.027 A 
ATOM      5  C   UNL     1       9.140 -32.512  15.138  1.00  0.00     0.022 A 
ATOM      6  C   UNL     1      10.037 -31.539  15.614  1.00  0.00     0.020 A 
ATOM      7  C   UNL     1       9.135 -32.856  13.694  1.00  0.00     0.163 C 
ATOM      8  O   UNL     1       9.825 -32.185  12.879  1.00  0.00    -0.294 OA
ATOM      9  C   UNL     1       8.293 -33.976  13.162  1.00  0.00     0.086 C 
ATOM     10  C   UNL     1       7.866 -34.941  14.292  1.00  0.00     0.013 C 
ATOM     11  C   UNL     1       7.206 -34.158  15.497  1.00  0.00    -0.003 C 
ATOM     12  C   UNL     1       6.794 -35.184  16.597  1.00  0.00     0.012 C 
ATOM     13  C   UNL     1       5.963 -36.355  16.065  1.00  0.00     0.001 C 
ATOM     14  C   UNL     1       6.723 -37.125  14.989  1.00  0.00     0.007 C 
ATOM     15  C   UNL     1       7.129 -36.245  13.778  1.00  0.00    -0.031 C 
ATOM     16  C   UNL     1       8.106 -37.095  12.922  1.00  0.00     0.011 C 
ATOM     17  C   UNL     1       5.891 -35.962  12.888  1.00  0.00     0.011 C 
ATOM     18  C   UNL     1       5.972 -33.303  15.108  1.00  0.00     0.017 C 
ENDROOT
BRANCH   1  19
ATOM     19  C   UNL     1      11.021 -30.067  17.441  1.00  0.00     0.017 C 
ATOM     20  C   UNL     1      12.283 -30.073  16.575  1.00  0.00     0.012 C 
ATOM     21  C   UNL     1      10.398 -28.661  17.487  1.00  0.00     0.012 C 
ENDBRANCH   1  19
BRANCH   2  22
ATOM     22  O   UNL     1       9.195 -31.573  19.242  1.00  0.00    -0.508 OA
ATOM     23  H   UNL     1       8.376 -31.604  19.832  1.00  0.00     0.293 HD
ENDBRANCH   2  22
TORSDOF 2
ENDMDL
MODEL 2
REMARK VINA RESULT:     3.813      2.277      4.099
REMARK INTER + INTRA:           3.905
REMARK INTER:                   4.146
REMARK INTRA:                  -0.241
REMARK UNBOUND:                -0.243
REMARK SMILES CC(C)c1cc2c(cc1O)[C@]1(C)CCCC(C)(C)[C@H]1CC2=O
REMARK SMILES IDX 4 1 9 2 8 3 7 4 6 5 5 6 21 7 22 8 20 9 19 10 11 11 13 12
REMARK SMILES IDX 14 13 15 14 16 15 17 16 18 17 12 18 2 19 1 20 3 21 10 22
REMARK H PARENT 10 23
REMARK Flexibility Score: inf
ROOT
ATOM      1  C   UNL     1      13.176 -31.326  14.507  1.00  0.00    -0.003 A 
ATOM      2  C   UNL     1      13.181 -32.480  13.686  1.00  0.00     0.119 A 
ATOM      3  C   UNL     1      12.063 -33.317  13.650  1.00  0.00     0.051 A 
ATOM      4  C   UNL     1      10.877 -33.005  14.347  1.00  0.00    -0.027 A 
ATOM      5  C   UNL     1      10.860 -31.835  15.144  1.00  0.00     0.022 A 
ATOM      6  C   UNL     1      11.993 -31.004  15.195  1.00  0.00     0.020 A 
ATOM      7  C   UNL     1       9.653 -31.473  15.927  1.00  0.00     0.163 C 
ATOM      8  O   UNL     1       9.688 -30.510  16.741  1.00  0.00    -0.294 OA
ATOM      9  C   UNL     1       8.379 -32.254  15.803  1.00  0.00     0.086 C 
ATOM     10  C   UNL     1       8.359 -33.089  14.502  1.00  0.00     0.013 C 
ATOM     11  C   UNL     1       9.667 -33.967  14.362  1.00  0.00    -0.003 C 
ATOM     12  C   UNL     1       9.583 -34.786  13.038  1.00  0.00     0.012 C 
ATOM     13  C   UNL     1       8.273 -35.561  12.877  1.00  0.00     0.001 C 
ATOM     14  C   UNL     1       7.070 -34.624  12.906  1.00  0.00     0.007 C 
ATOM     15  C   UNL     1       6.971 -33.796  14.214  1.00  0.00    -0.031 C 
ATOM     16  C   UNL     1       5.876 -32.721  13.975  1.00  0.00     0.011 C 
ATOM     17  C   UNL     1       6.467 -34.692  15.374  1.00  0.00     0.011 C 
ATOM     18  C   UNL     1       9.919 -34.936  15.547  1.00  0.00     0.017 C 
ENDROOT
BRANCH   1  19
ATOM     19  C   UNL     1      14.396 -30.411  14.606  1.00  0.00     0.017 C 
ATOM     20  C   UNL     1      14.286 -29.272  13.590  1.00  0.00     0.012 C 
ATOM     21  C   UNL     1      14.631 -29.857  16.022  1.00  0.00     0.012 C 
ENDBRANCH   1  19
BRANCH   2  22
ATOM     22  O   UNL     1      14.268 -32.829  12.879  1.00  0.00    -0.508 OA
ATOM     23  H   UNL     1      14.251 -33.568  12.190  1.00  0.00     0.293 HD
ENDBRANCH   2  22
TORSDOF 2
ENDMDL
