MODEL 1
REMARK VINA RESULT:    -6.474      0.000      0.000
REMARK INTER + INTRA:          -7.076
REMARK INTER:                  -6.853
REMARK INTRA:                  -0.223
REMARK UNBOUND:                -0.223
REMARK SMILES CC1=CC[C@@H]2[C@H]3[C@H](C(C)C)CC[C@]2(C)[C@@H]13
REMARK SMILES IDX 1 1 2 2 3 3 4 4 5 5 6 6 15 7 13 8 12 9 11 10 7 11 14 12 8 13
REMARK SMILES IDX 9 14 10 15
REMARK H PARENT
REMARK Flexibility Score: inf
ROOT
ATOM      1  C   UNL     1      11.211  29.560  20.808  1.00  0.00     0.039 C 
ATOM      2  C   UNL     1      11.554  30.928  21.317  1.00  0.00    -0.073 C 
ATOM      3  C   UNL     1      12.837  31.372  21.336  1.00  0.00    -0.027 C 
ATOM      4  C   UNL     1      13.124  32.785  21.851  1.00  0.00     0.031 C 
ATOM      5  C   UNL     1      11.801  33.473  22.320  1.00  0.00     0.003 C 
ATOM      6  C   UNL     1      11.029  32.454  23.192  1.00  0.00     0.004 C 
ATOM      7  C   UNL     1      10.482  31.875  21.860  1.00  0.00     0.024 C 
ATOM      8  C   UNL     1      10.669  33.297  21.277  1.00  0.00    -0.022 C 
ATOM      9  C   UNL     1       9.470  34.214  21.670  1.00  0.00     0.008 C 
ATOM     10  C   UNL     1       8.880  33.860  23.062  1.00  0.00     0.005 C 
ATOM     11  C   UNL     1       9.928  33.200  24.008  1.00  0.00    -0.005 C 
ATOM     12  C   UNL     1      11.012  33.449  19.777  1.00  0.00     0.012 C 
ENDROOT
BRANCH  11  13
ATOM     13  C   UNL     1       9.258  32.325  25.112  1.00  0.00    -0.014 C 
ATOM     14  C   UNL     1       7.757  32.632  25.237  1.00  0.00     0.007 C 
ATOM     15  C   UNL     1       9.931  32.438  26.491  1.00  0.00     0.007 C 
ENDBRANCH  11  13
TORSDOF 1
ENDMDL
MODEL 2
REMARK VINA RESULT:    -6.387      1.384      2.288
REMARK INTER + INTRA:          -6.984
REMARK INTER:                  -6.721
REMARK INTRA:                  -0.262
REMARK UNBOUND:                -0.223
REMARK SMILES CC1=CC[C@@H]2[C@H]3[C@H](C(C)C)CC[C@]2(C)[C@@H]13
REMARK SMILES IDX 1 1 2 2 3 3 4 4 5 5 6 6 15 7 13 8 12 9 11 10 7 11 14 12 8 13
REMARK SMILES IDX 9 14 10 15
REMARK H PARENT
REMARK Flexibility Score: inf
ROOT
ATOM      1  C   UNL     1      14.716  30.787  22.775  1.00  0.00     0.039 C 
ATOM      2  C   UNL     1      13.790  31.709  22.038  1.00  0.00    -0.073 C 
ATOM      3  C   UNL     1      14.253  32.556  21.084  1.00  0.00    -0.027 C 
ATOM      4  C   UNL     1      13.258  33.462  20.352  1.00  0.00     0.031 C 
ATOM      5  C   UNL     1      11.813  33.244  20.909  1.00  0.00     0.003 C 
ATOM      6  C   UNL     1      11.901  33.250  22.453  1.00  0.00     0.004 C 
ATOM      7  C   UNL     1      12.291  31.752  22.341  1.00  0.00     0.024 C 
ATOM      8  C   UNL     1      11.471  31.737  21.028  1.00  0.00    -0.022 C 
ATOM      9  C   UNL     1       9.949  31.584  21.331  1.00  0.00     0.008 C 
ATOM     10  C   UNL     1       9.537  32.262  22.666  1.00  0.00     0.005 C 
ATOM     11  C   UNL     1      10.474  33.447  23.052  1.00  0.00    -0.005 C 
ATOM     12  C   UNL     1      11.906  30.786  19.888  1.00  0.00     0.012 C 
ENDROOT
BRANCH  11  13
ATOM     13  C   UNL     1      10.467  33.728  24.586  1.00  0.00    -0.014 C 
ATOM     14  C   UNL     1      10.438  32.422  25.396  1.00  0.00     0.007 C 
ATOM     15  C   UNL     1       9.325  34.652  25.046  1.00  0.00     0.007 C 
ENDBRANCH  11  13
TORSDOF 1
ENDMDL
MODEL 3
REMARK VINA RESULT:    -6.383      1.784      4.570
REMARK INTER + INTRA:          -6.979
REMARK INTER:                  -6.671
REMARK INTRA:                  -0.309
REMARK UNBOUND:                -0.223
REMARK SMILES CC1=CC[C@@H]2[C@H]3[C@H](C(C)C)CC[C@]2(C)[C@@H]13
REMARK SMILES IDX 1 1 2 2 3 3 4 4 5 5 6 6 15 7 13 8 12 9 11 10 7 11 14 12 8 13
REMARK SMILES IDX 9 14 10 15
REMARK H PARENT
REMARK Flexibility Score: inf
ROOT
ATOM      1  C   UNL     1       7.361  30.861  24.185  1.00  0.00     0.039 C 
ATOM      2  C   UNL     1       8.073  32.169  24.007  1.00  0.00    -0.073 C 
ATOM      3  C   UNL     1       8.010  33.140  24.954  1.00  0.00    -0.027 C 
ATOM      4  C   UNL     1       8.773  34.448  24.724  1.00  0.00     0.031 C 
ATOM      5  C   UNL     1       9.493  34.422  23.336  1.00  0.00     0.003 C 
ATOM      6  C   UNL     1       8.475  33.906  22.292  1.00  0.00     0.004 C 
ATOM      7  C   UNL     1       8.881  32.478  22.744  1.00  0.00     0.024 C 
ATOM      8  C   UNL     1      10.253  33.091  23.116  1.00  0.00    -0.022 C 
ATOM      9  C   UNL     1      11.156  33.226  21.850  1.00  0.00     0.008 C 
ATOM     10  C   UNL     1      10.337  33.514  20.563  1.00  0.00     0.005 C 
ATOM     11  C   UNL     1       8.990  34.241  20.858  1.00  0.00    -0.005 C 
ATOM     12  C   UNL     1      11.046  32.485  24.297  1.00  0.00     0.012 C 
ENDROOT
BRANCH  11  13
ATOM     13  C   UNL     1       7.933  34.003  19.736  1.00  0.00    -0.014 C 
ATOM     14  C   UNL     1       6.653  33.362  20.298  1.00  0.00     0.007 C 
ATOM     15  C   UNL     1       8.457  33.169  18.553  1.00  0.00     0.007 C 
ENDBRANCH  11  13
TORSDOF 1
ENDMDL
MODEL 4
REMARK VINA RESULT:    -6.352      2.159      4.916
REMARK INTER + INTRA:          -6.947
REMARK INTER:                  -6.731
REMARK INTRA:                  -0.216
REMARK UNBOUND:                -0.223
REMARK SMILES CC1=CC[C@@H]2[C@H]3[C@H](C(C)C)CC[C@]2(C)[C@@H]13
REMARK SMILES IDX 1 1 2 2 3 3 4 4 5 5 6 6 15 7 13 8 12 9 11 10 7 11 14 12 8 13
REMARK SMILES IDX 9 14 10 15
REMARK H PARENT
REMARK Flexibility Score: inf
ROOT
ATOM      1  C   UNL     1      10.743  33.444  23.850  1.00  0.00     0.039 C 
ATOM      2  C   UNL     1      11.336  32.641  22.731  1.00  0.00    -0.073 C 
ATOM      3  C   UNL     1      10.580  31.781  22.003  1.00  0.00    -0.027 C 
ATOM      4  C   UNL     1      11.237  31.001  20.861  1.00  0.00     0.031 C 
ATOM      5  C   UNL     1      12.760  31.345  20.773  1.00  0.00     0.003 C 
ATOM      6  C   UNL     1      13.336  31.283  22.207  1.00  0.00     0.004 C 
ATOM      7  C   UNL     1      12.821  32.737  22.373  1.00  0.00     0.024 C 
ATOM      8  C   UNL     1      13.002  32.873  20.841  1.00  0.00    -0.022 C 
ATOM      9  C   UNL     1      14.493  33.167  20.488  1.00  0.00     0.008 C 
ATOM     10  C   UNL     1      15.483  32.494  21.475  1.00  0.00     0.005 C 
ATOM     11  C   UNL     1      14.893  31.211  22.137  1.00  0.00    -0.005 C 
ATOM     12  C   UNL     1      12.053  33.811  20.058  1.00  0.00     0.012 C 
ENDROOT
BRANCH  11  13
ATOM     13  C   UNL     1      15.572  30.886  23.503  1.00  0.00    -0.014 C 
ATOM     14  C   UNL     1      16.978  31.502  23.591  1.00  0.00     0.007 C 
ATOM     15  C   UNL     1      15.641  29.382  23.823  1.00  0.00     0.007 C 
ENDBRANCH  11  13
TORSDOF 1
ENDMDL
MODEL 5
REMARK VINA RESULT:    -6.304      2.026      3.878
REMARK INTER + INTRA:          -6.896
REMARK INTER:                  -6.623
REMARK INTRA:                  -0.273
REMARK UNBOUND:                -0.223
REMARK SMILES CC1=CC[C@@H]2[C@H]3[C@H](C(C)C)CC[C@]2(C)[C@@H]13
REMARK SMILES IDX 1 1 2 2 3 3 4 4 5 5 6 6 15 7 13 8 12 9 11 10 7 11 14 12 8 13
REMARK SMILES IDX 9 14 10 15
REMARK H PARENT
REMARK Flexibility Score: inf
ROOT
ATOM      1  C   UNL     1      10.725  32.766  26.148  1.00  0.00     0.039 C 
ATOM      2  C   UNL     1      10.072  33.121  24.845  1.00  0.00    -0.073 C 
ATOM      3  C   UNL     1       9.729  34.401  24.554  1.00  0.00    -0.027 C 
ATOM      4  C   UNL     1       9.081  34.705  23.200  1.00  0.00     0.031 C 
ATOM      5  C   UNL     1       8.896  33.388  22.377  1.00  0.00     0.003 C 
ATOM      6  C   UNL     1       8.289  32.327  23.326  1.00  0.00     0.004 C 
ATOM      7  C   UNL     1       9.742  32.056  23.796  1.00  0.00     0.024 C 
ATOM      8  C   UNL     1      10.183  32.526  22.389  1.00  0.00    -0.022 C 
ATOM      9  C   UNL     1      10.029  31.372  21.350  1.00  0.00     0.008 C 
ATOM     10  C   UNL     1       8.837  30.433  21.675  1.00  0.00     0.005 C 
ATOM     11  C   UNL     1       7.710  31.149  22.481  1.00  0.00    -0.005 C 
ATOM     12  C   UNL     1      11.550  33.232  22.232  1.00  0.00     0.012 C 
ENDROOT
BRANCH  11  13
ATOM     13  C   UNL     1       6.846  30.147  23.306  1.00  0.00    -0.014 C 
ATOM     14  C   UNL     1       6.971  30.408  24.816  1.00  0.00     0.007 C 
ATOM     15  C   UNL     1       7.149  28.668  23.006  1.00  0.00     0.007 C 
ENDBRANCH  11  13
TORSDOF 1
ENDMDL
MODEL 6
REMARK VINA RESULT:    -6.300      1.431      2.140
REMARK INTER + INTRA:          -6.891
REMARK INTER:                  -6.654
REMARK INTRA:                  -0.238
REMARK UNBOUND:                -0.223
REMARK SMILES CC1=CC[C@@H]2[C@H]3[C@H](C(C)C)CC[C@]2(C)[C@@H]13
REMARK SMILES IDX 1 1 2 2 3 3 4 4 5 5 6 6 15 7 13 8 12 9 11 10 7 11 14 12 8 13
REMARK SMILES IDX 9 14 10 15
REMARK H PARENT
REMARK Flexibility Score: inf
ROOT
ATOM      1  C   UNL     1      13.782  29.221  21.304  1.00  0.00     0.039 C 
ATOM      2  C   UNL     1      13.801  30.719  21.381  1.00  0.00    -0.073 C 
ATOM      3  C   UNL     1      14.965  31.403  21.519  1.00  0.00    -0.027 C 
ATOM      4  C   UNL     1      14.923  32.933  21.574  1.00  0.00     0.031 C 
ATOM      5  C   UNL     1      13.447  33.440  21.490  1.00  0.00     0.003 C 
ATOM      6  C   UNL     1      12.604  32.590  22.470  1.00  0.00     0.004 C 
ATOM      7  C   UNL     1      12.511  31.542  21.329  1.00  0.00     0.024 C 
ATOM      8  C   UNL     1      12.667  32.734  20.353  1.00  0.00    -0.022 C 
ATOM      9  C   UNL     1      11.301  33.459  20.147  1.00  0.00     0.008 C 
ATOM     10  C   UNL     1      10.410  33.420  21.417  1.00  0.00     0.005 C 
ATOM     11  C   UNL     1      11.240  33.302  22.731  1.00  0.00    -0.005 C 
ATOM     12  C   UNL     1      13.378  32.501  18.999  1.00  0.00     0.012 C 
ENDROOT
BRANCH  11  13
ATOM     13  C   UNL     1      10.415  32.675  23.897  1.00  0.00    -0.014 C 
ATOM     14  C   UNL     1       8.967  32.388  23.467  1.00  0.00     0.007 C 
ATOM     15  C   UNL     1      10.419  33.515  25.186  1.00  0.00     0.007 C 
ENDBRANCH  11  13
TORSDOF 1
ENDMDL
MODEL 7
REMARK VINA RESULT:    -6.292      1.396      4.446
REMARK INTER + INTRA:          -6.882
REMARK INTER:                  -6.633
REMARK INTRA:                  -0.249
REMARK UNBOUND:                -0.223
REMARK SMILES CC1=CC[C@@H]2[C@H]3[C@H](C(C)C)CC[C@]2(C)[C@@H]13
REMARK SMILES IDX 1 1 2 2 3 3 4 4 5 5 6 6 15 7 13 8 12 9 11 10 7 11 14 12 8 13
REMARK SMILES IDX 9 14 10 15
REMARK H PARENT
REMARK Flexibility Score: inf
ROOT
ATOM      1  C   UNL     1       9.636  34.556  24.968  1.00  0.00     0.039 C 
ATOM      2  C   UNL     1       9.536  33.562  23.849  1.00  0.00    -0.073 C 
ATOM      3  C   UNL     1       8.600  32.579  23.861  1.00  0.00    -0.027 C 
ATOM      4  C   UNL     1       8.535  31.604  22.682  1.00  0.00     0.031 C 
ATOM      5  C   UNL     1       9.657  31.931  21.643  1.00  0.00     0.003 C 
ATOM      6  C   UNL     1      10.974  32.137  22.428  1.00  0.00     0.004 C 
ATOM      7  C   UNL     1      10.496  33.596  22.658  1.00  0.00     0.024 C 
ATOM      8  C   UNL     1       9.716  33.447  21.329  1.00  0.00    -0.022 C 
ATOM      9  C   UNL     1      10.661  33.676  20.108  1.00  0.00     0.008 C 
ATOM     10  C   UNL     1      12.112  33.200  20.381  1.00  0.00     0.005 C 
ATOM     11  C   UNL     1      12.181  32.059  21.442  1.00  0.00    -0.005 C 
ATOM     12  C   UNL     1       8.388  34.220  21.152  1.00  0.00     0.012 C 
ENDROOT
BRANCH  11  13
ATOM     13  C   UNL     1      13.570  31.994  22.149  1.00  0.00    -0.014 C 
ATOM     14  C   UNL     1      14.454  33.191  21.761  1.00  0.00     0.007 C 
ATOM     15  C   UNL     1      14.334  30.681  21.903  1.00  0.00     0.007 C 
ENDBRANCH  11  13
TORSDOF 1
ENDMDL
MODEL 8
REMARK VINA RESULT:    -6.229      1.824      4.414
REMARK INTER + INTRA:          -6.816
REMARK INTER:                  -6.546
REMARK INTRA:                  -0.270
REMARK UNBOUND:                -0.223
REMARK SMILES CC1=CC[C@@H]2[C@H]3[C@H](C(C)C)CC[C@]2(C)[C@@H]13
REMARK SMILES IDX 1 1 2 2 3 3 4 4 5 5 6 6 15 7 13 8 12 9 11 10 7 11 14 12 8 13
REMARK SMILES IDX 9 14 10 15
REMARK H PARENT
REMARK Flexibility Score: inf
ROOT
ATOM      1  C   UNL     1       7.559  29.720  22.389  1.00  0.00     0.039 C 
ATOM      2  C   UNL     1       7.770  31.202  22.300  1.00  0.00    -0.073 C 
ATOM      3  C   UNL     1       6.854  32.010  21.707  1.00  0.00    -0.027 C 
ATOM      4  C   UNL     1       7.116  33.518  21.661  1.00  0.00     0.031 C 
ATOM      5  C   UNL     1       8.495  33.851  22.319  1.00  0.00     0.003 C 
ATOM      6  C   UNL     1       9.533  32.850  21.759  1.00  0.00     0.004 C 
ATOM      7  C   UNL     1       9.033  31.868  22.851  1.00  0.00     0.024 C 
ATOM      8  C   UNL     1       8.667  33.125  23.677  1.00  0.00    -0.022 C 
ATOM      9  C   UNL     1       9.926  33.694  24.401  1.00  0.00     0.008 C 
ATOM     10  C   UNL     1      11.230  33.475  23.587  1.00  0.00     0.005 C 
ATOM     11  C   UNL     1      10.972  33.378  22.053  1.00  0.00    -0.005 C 
ATOM     12  C   UNL     1       7.459  33.060  24.641  1.00  0.00     0.012 C 
ENDROOT
BRANCH  11  13
ATOM     13  C   UNL     1      12.097  32.590  21.314  1.00  0.00    -0.014 C 
ATOM     14  C   UNL     1      12.842  31.646  22.271  1.00  0.00     0.007 C 
ATOM     15  C   UNL     1      13.106  33.488  20.576  1.00  0.00     0.007 C 
ENDBRANCH  11  13
TORSDOF 1
ENDMDL
MODEL 9
REMARK VINA RESULT:    -6.117      2.475      3.845
REMARK INTER + INTRA:          -6.697
REMARK INTER:                  -6.422
REMARK INTRA:                  -0.275
REMARK UNBOUND:                -0.223
REMARK SMILES CC1=CC[C@@H]2[C@H]3[C@H](C(C)C)CC[C@]2(C)[C@@H]13
REMARK SMILES IDX 1 1 2 2 3 3 4 4 5 5 6 6 15 7 13 8 12 9 11 10 7 11 14 12 8 13
REMARK SMILES IDX 9 14 10 15
REMARK H PARENT
REMARK Flexibility Score: inf
ROOT
ATOM      1  C   UNL     1      11.852  32.105  22.763  1.00  0.00     0.039 C 
ATOM      2  C   UNL     1      10.502  32.589  23.201  1.00  0.00    -0.073 C 
ATOM      3  C   UNL     1      10.368  33.482  24.214  1.00  0.00    -0.027 C 
ATOM      4  C   UNL     1       8.965  33.953  24.605  1.00  0.00     0.031 C 
ATOM      5  C   UNL     1       7.886  33.240  23.726  1.00  0.00     0.003 C 
ATOM      6  C   UNL     1       8.235  31.733  23.693  1.00  0.00     0.004 C 
ATOM      7  C   UNL     1       9.216  32.084  22.543  1.00  0.00     0.024 C 
ATOM      8  C   UNL     1       8.268  33.266  22.225  1.00  0.00    -0.022 C 
ATOM      9  C   UNL     1       7.048  32.782  21.382  1.00  0.00     0.008 C 
ATOM     10  C   UNL     1       6.624  31.330  21.730  1.00  0.00     0.005 C 
ATOM     11  C   UNL     1       6.997  30.927  23.189  1.00  0.00    -0.005 C 
ATOM     12  C   UNL     1       8.867  34.564  21.635  1.00  0.00     0.012 C 
ENDROOT
BRANCH  11  13
ATOM     13  C   UNL     1       7.138  29.383  23.356  1.00  0.00    -0.014 C 
ATOM     14  C   UNL     1       7.543  28.710  22.035  1.00  0.00     0.007 C 
ATOM     15  C   UNL     1       5.882  28.700  23.927  1.00  0.00     0.007 C 
ENDBRANCH  11  13
TORSDOF 1
ENDMDL
