MODEL 1
REMARK VINA RESULT:    -5.132      0.000      0.000
REMARK INTER + INTRA:          -5.831
REMARK INTER:                  -5.582
REMARK INTRA:                  -0.248
REMARK UNBOUND:                -0.248
REMARK SMILES O=C([O-])c1ccccc1O
REMARK SMILES IDX 4 1 9 2 5 3 8 4 6 5 7 6 2 7 1 8 3 9 10 10
REMARK H PARENT 10 11
REMARK Flexibility Score: inf
ROOT
ATOM      1  C   UNL     1      -3.763 -34.592  53.804  1.00  0.00     0.039 A 
ATOM      2  C   UNL     1      -4.193 -35.375  54.907  1.00  0.00     0.124 A 
ATOM      3  C   UNL     1      -2.385 -34.382  53.615  1.00  0.00     0.014 A 
ATOM      4  C   UNL     1      -3.241 -35.970  55.746  1.00  0.00     0.047 A 
ATOM      5  C   UNL     1      -1.450 -34.966  54.472  1.00  0.00     0.001 A 
ATOM      6  C   UNL     1      -1.877 -35.767  55.531  1.00  0.00     0.004 A 
ENDROOT
BRANCH   1   7
ATOM      7  C   UNL     1      -4.703 -34.013  52.819  1.00  0.00     0.075 C 
ATOM      8  O   UNL     1      -4.613 -32.806  52.470  1.00  0.00    -0.545 OA
ATOM      9  O   UNL     1      -5.746 -34.783  52.317  1.00  0.00    -0.545 OA
ENDBRANCH   1   7
BRANCH   2  10
ATOM     10  O   UNL     1      -5.541 -35.556  55.225  1.00  0.00    -0.507 OA
ATOM     11  H   UNL     1      -6.288 -35.011  54.820  1.00  0.00     0.293 HD
ENDBRANCH   2  10
TORSDOF 2
ENDMDL
MODEL 2
REMARK VINA RESULT:    -4.903     11.060     12.352
REMARK INTER + INTRA:          -5.581
REMARK INTER:                  -5.333
REMARK INTRA:                  -0.248
REMARK UNBOUND:                -0.248
REMARK SMILES O=C([O-])c1ccccc1O
REMARK SMILES IDX 4 1 9 2 5 3 8 4 6 5 7 6 2 7 1 8 3 9 10 10
REMARK H PARENT 10 11
REMARK Flexibility Score: inf
ROOT
ATOM      1  C   UNL     1      -7.833 -32.450  43.130  1.00  0.00     0.039 A 
ATOM      2  C   UNL     1      -8.700 -33.339  43.818  1.00  0.00     0.124 A 
ATOM      3  C   UNL     1      -7.912 -32.371  41.727  1.00  0.00     0.014 A 
ATOM      4  C   UNL     1      -9.653 -34.070  43.098  1.00  0.00     0.047 A 
ATOM      5  C   UNL     1      -8.856 -33.122  41.023  1.00  0.00     0.001 A 
ATOM      6  C   UNL     1      -9.732 -33.964  41.709  1.00  0.00     0.004 A 
ENDROOT
BRANCH   1   7
ATOM      7  C   UNL     1      -6.867 -31.573  43.828  1.00  0.00     0.075 C 
ATOM      8  O   UNL     1      -6.118 -32.025  44.733  1.00  0.00    -0.545 OA
ATOM      9  O   UNL     1      -6.826 -30.213  43.536  1.00  0.00    -0.545 OA
ENDBRANCH   1   7
BRANCH   2  10
ATOM     10  O   UNL     1      -8.624 -33.551  45.196  1.00  0.00    -0.507 OA
ATOM     11  H   UNL     1      -8.501 -32.809  45.870  1.00  0.00     0.293 HD
ENDBRANCH   2  10
TORSDOF 2
ENDMDL
MODEL 3
REMARK VINA RESULT:    -4.818     11.435     12.637
REMARK INTER + INTRA:          -5.488
REMARK INTER:                  -5.248
REMARK INTRA:                  -0.241
REMARK UNBOUND:                -0.248
REMARK SMILES O=C([O-])c1ccccc1O
REMARK SMILES IDX 4 1 9 2 5 3 8 4 6 5 7 6 2 7 1 8 3 9 10 10
REMARK H PARENT 10 11
REMARK Flexibility Score: inf
ROOT
ATOM      1  C   UNL     1      -9.446 -33.956  43.243  1.00  0.00     0.039 A 
ATOM      2  C   UNL     1      -8.344 -33.128  43.585  1.00  0.00     0.124 A 
ATOM      3  C   UNL     1      -9.861 -34.016  41.900  1.00  0.00     0.014 A 
ATOM      4  C   UNL     1      -7.656 -32.441  42.576  1.00  0.00     0.047 A 
ATOM      5  C   UNL     1      -9.176 -33.308  40.910  1.00  0.00     0.001 A 
ATOM      6  C   UNL     1      -8.069 -32.529  41.246  1.00  0.00     0.004 A 
ENDROOT
BRANCH   1   7
ATOM      7  C   UNL     1     -10.161 -34.787  44.236  1.00  0.00     0.075 C 
ATOM      8  O   UNL     1     -10.277 -34.413  45.433  1.00  0.00    -0.545 OA
ATOM      9  O   UNL     1     -10.656 -36.035  43.871  1.00  0.00    -0.545 OA
ENDBRANCH   1   7
BRANCH   2  10
ATOM     10  O   UNL     1      -7.926 -32.935  44.903  1.00  0.00    -0.507 OA
ATOM     11  H   UNL     1      -8.316 -33.431  45.692  1.00  0.00     0.293 HD
ENDBRANCH   2  10
TORSDOF 2
ENDMDL
MODEL 4
REMARK VINA RESULT:    -4.801      2.259      3.130
REMARK INTER + INTRA:          -5.470
REMARK INTER:                  -5.217
REMARK INTRA:                  -0.253
REMARK UNBOUND:                -0.248
REMARK SMILES O=C([O-])c1ccccc1O
REMARK SMILES IDX 4 1 9 2 5 3 8 4 6 5 7 6 2 7 1 8 3 9 10 10
REMARK H PARENT 10 11
REMARK Flexibility Score: inf
ROOT
ATOM      1  C   UNL     1      -5.069 -33.812  52.121  1.00  0.00     0.039 A 
ATOM      2  C   UNL     1      -4.200 -33.131  53.014  1.00  0.00     0.124 A 
ATOM      3  C   UNL     1      -5.306 -35.185  52.317  1.00  0.00     0.014 A 
ATOM      4  C   UNL     1      -3.649 -33.820  54.102  1.00  0.00     0.047 A 
ATOM      5  C   UNL     1      -4.732 -35.861  53.397  1.00  0.00     0.001 A 
ATOM      6  C   UNL     1      -3.911 -35.177  54.293  1.00  0.00     0.004 A 
ENDROOT
BRANCH   1   7
ATOM      7  C   UNL     1      -5.766 -33.132  51.007  1.00  0.00     0.075 C 
ATOM      8  O   UNL     1      -5.847 -33.668  49.870  1.00  0.00    -0.545 OA
ATOM      9  O   UNL     1      -6.282 -31.854  51.187  1.00  0.00    -0.545 OA
ENDBRANCH   1   7
BRANCH   2  10
ATOM     10  O   UNL     1      -3.834 -31.795  52.838  1.00  0.00    -0.507 OA
ATOM     11  H   UNL     1      -4.383 -31.130  52.313  1.00  0.00     0.293 HD
ENDBRANCH   2  10
TORSDOF 2
ENDMDL
MODEL 5
REMARK VINA RESULT:    -4.800     11.474     12.716
REMARK INTER + INTRA:          -5.470
REMARK INTER:                  -5.225
REMARK INTRA:                  -0.245
REMARK UNBOUND:                -0.248
REMARK SMILES O=C([O-])c1ccccc1O
REMARK SMILES IDX 4 1 9 2 5 3 8 4 6 5 7 6 2 7 1 8 3 9 10 10
REMARK H PARENT 10 11
REMARK Flexibility Score: inf
ROOT
ATOM      1  C   UNL     1      -9.462 -34.017  43.194  1.00  0.00     0.039 A 
ATOM      2  C   UNL     1      -8.382 -33.160  43.533  1.00  0.00     0.124 A 
ATOM      3  C   UNL     1      -9.902 -34.061  41.858  1.00  0.00     0.014 A 
ATOM      4  C   UNL     1      -7.740 -32.426  42.527  1.00  0.00     0.047 A 
ATOM      5  C   UNL     1      -9.263 -33.307  40.871  1.00  0.00     0.001 A 
ATOM      6  C   UNL     1      -8.177 -32.498  41.204  1.00  0.00     0.004 A 
ENDROOT
BRANCH   1   7
ATOM      7  C   UNL     1     -10.127 -34.896  44.181  1.00  0.00     0.075 C 
ATOM      8  O   UNL     1     -10.635 -35.995  43.832  1.00  0.00    -0.545 OA
ATOM      9  O   UNL     1     -10.260 -34.482  45.502  1.00  0.00    -0.545 OA
ENDBRANCH   1   7
BRANCH   2  10
ATOM     10  O   UNL     1      -7.944 -32.983  44.846  1.00  0.00    -0.507 OA
ATOM     11  H   UNL     1      -7.379 -33.656  45.343  1.00  0.00     0.293 HD
ENDBRANCH   2  10
TORSDOF 2
ENDMDL
MODEL 6
REMARK VINA RESULT:    -4.726      2.359      4.142
REMARK INTER + INTRA:          -5.389
REMARK INTER:                  -5.172
REMARK INTRA:                  -0.217
REMARK UNBOUND:                -0.248
REMARK SMILES O=C([O-])c1ccccc1O
REMARK SMILES IDX 4 1 9 2 5 3 8 4 6 5 7 6 2 7 1 8 3 9 10 10
REMARK H PARENT 10 11
REMARK Flexibility Score: inf
ROOT
ATOM      1  C   UNL     1      -2.936 -35.209  54.375  1.00  0.00     0.039 A 
ATOM      2  C   UNL     1      -2.821 -34.073  53.531  1.00  0.00     0.124 A 
ATOM      3  C   UNL     1      -4.160 -35.903  54.420  1.00  0.00     0.014 A 
ATOM      4  C   UNL     1      -3.901 -33.704  52.718  1.00  0.00     0.047 A 
ATOM      5  C   UNL     1      -5.232 -35.509  53.616  1.00  0.00     0.001 A 
ATOM      6  C   UNL     1      -5.100 -34.416  52.760  1.00  0.00     0.004 A 
ENDROOT
BRANCH   1   7
ATOM      7  C   UNL     1      -1.811 -35.719  55.189  1.00  0.00     0.075 C 
ATOM      8  O   UNL     1      -2.007 -36.539  56.125  1.00  0.00    -0.545 OA
ATOM      9  O   UNL     1      -0.523 -35.241  54.972  1.00  0.00    -0.545 OA
ENDBRANCH   1   7
BRANCH   2  10
ATOM     10  O   UNL     1      -1.679 -33.271  53.497  1.00  0.00    -0.507 OA
ATOM     11  H   UNL     1      -1.292 -32.815  54.311  1.00  0.00     0.293 HD
ENDBRANCH   2  10
TORSDOF 2
ENDMDL
MODEL 7
REMARK VINA RESULT:    -4.674     11.018     12.584
REMARK INTER + INTRA:          -5.332
REMARK INTER:                  -5.083
REMARK INTRA:                  -0.249
REMARK UNBOUND:                -0.248
REMARK SMILES O=C([O-])c1ccccc1O
REMARK SMILES IDX 4 1 9 2 5 3 8 4 6 5 7 6 2 7 1 8 3 9 10 10
REMARK H PARENT 10 11
REMARK Flexibility Score: inf
ROOT
ATOM      1  C   UNL     1      -9.101 -33.746  42.715  1.00  0.00     0.039 A 
ATOM      2  C   UNL     1      -8.582 -33.025  43.822  1.00  0.00     0.124 A 
ATOM      3  C   UNL     1     -10.022 -34.783  42.950  1.00  0.00     0.014 A 
ATOM      4  C   UNL     1      -9.040 -33.316  45.114  1.00  0.00     0.047 A 
ATOM      5  C   UNL     1     -10.453 -35.074  44.247  1.00  0.00     0.001 A 
ATOM      6  C   UNL     1      -9.969 -34.335  45.326  1.00  0.00     0.004 A 
ENDROOT
BRANCH   1   7
ATOM      7  C   UNL     1      -8.740 -33.432  41.315  1.00  0.00     0.075 C 
ATOM      8  O   UNL     1      -7.544 -33.220  40.985  1.00  0.00    -0.545 OA
ATOM      9  O   UNL     1      -9.737 -33.298  40.354  1.00  0.00    -0.545 OA
ENDBRANCH   1   7
BRANCH   2  10
ATOM     10  O   UNL     1      -7.594 -32.046  43.689  1.00  0.00    -0.507 OA
ATOM     11  H   UNL     1      -6.656 -32.239  43.370  1.00  0.00     0.293 HD
ENDBRANCH   2  10
TORSDOF 2
ENDMDL
MODEL 8
REMARK VINA RESULT:    -4.600      2.209      3.525
REMARK INTER + INTRA:          -5.252
REMARK INTER:                  -5.009
REMARK INTRA:                  -0.243
REMARK UNBOUND:                -0.248
REMARK SMILES O=C([O-])c1ccccc1O
REMARK SMILES IDX 4 1 9 2 5 3 8 4 6 5 7 6 2 7 1 8 3 9 10 10
REMARK H PARENT 10 11
REMARK Flexibility Score: inf
ROOT
ATOM      1  C   UNL     1      -3.242 -35.453  54.084  1.00  0.00     0.039 A 
ATOM      2  C   UNL     1      -4.473 -35.635  54.767  1.00  0.00     0.124 A 
ATOM      3  C   UNL     1      -3.260 -35.233  52.695  1.00  0.00     0.014 A 
ATOM      4  C   UNL     1      -5.678 -35.531  54.059  1.00  0.00     0.047 A 
ATOM      5  C   UNL     1      -4.470 -35.152  52.002  1.00  0.00     0.001 A 
ATOM      6  C   UNL     1      -5.678 -35.292  52.685  1.00  0.00     0.004 A 
ENDROOT
BRANCH   1   7
ATOM      7  C   UNL     1      -1.935 -35.451  54.777  1.00  0.00     0.075 C 
ATOM      8  O   UNL     1      -1.731 -36.187  55.779  1.00  0.00    -0.545 OA
ATOM      9  O   UNL     1      -0.932 -34.578  54.369  1.00  0.00    -0.545 OA
ENDBRANCH   1   7
BRANCH   2  10
ATOM     10  O   UNL     1      -4.543 -35.952  56.125  1.00  0.00    -0.507 OA
ATOM     11  H   UNL     1      -4.272 -35.318  56.862  1.00  0.00     0.293 HD
ENDBRANCH   2  10
TORSDOF 2
ENDMDL
