MODEL 1
REMARK VINA RESULT:    -4.612      0.000      0.000
REMARK INTER + INTRA:          -4.612
REMARK INTER:                  -4.612
REMARK INTRA:                   0.000
REMARK UNBOUND:                 0.000
REMARK SMILES O=c1ccc2ccccc2o1
REMARK SMILES IDX 7 1 8 2 9 3 10 4 5 5 6 6 4 7 3 8 2 9 1 10 11 11
REMARK H PARENT
REMARK Flexibility Score: inf
ROOT
ATOM      1  C   UNL     1      10.756  16.265  10.972  1.00  0.00     0.001 A 
ATOM      2  C   UNL     1      11.693  16.414  12.000  1.00  0.00     0.004 A 
ATOM      3  C   UNL     1      13.012  16.777  11.702  1.00  0.00     0.048 A 
ATOM      4  C   UNL     1      13.396  16.992  10.374  1.00  0.00     0.138 A 
ATOM      5  C   UNL     1      12.450  16.840   9.336  1.00  0.00     0.018 A 
ATOM      6  C   UNL     1      11.131  16.476   9.641  1.00  0.00     0.012 A 
ATOM      7  C   UNL     1      12.864  17.060   8.020  1.00  0.00     0.019 A 
ATOM      8  C   UNL     1      14.188  17.420   7.770  1.00  0.00     0.094 A 
ATOM      9  C   UNL     1      15.070  17.551   8.847  1.00  0.00     0.336 A 
ATOM     10  O   UNL     1      16.269  17.875   8.642  1.00  0.00    -0.246 OA
ATOM     11  O   UNL     1      14.651  17.336  10.091  1.00  0.00    -0.423 OA
ENDROOT
TORSDOF 0
ENDMDL
MODEL 2
REMARK VINA RESULT:    -4.475      1.158      1.725
REMARK INTER + INTRA:          -4.475
REMARK INTER:                  -4.475
REMARK INTRA:                   0.000
REMARK UNBOUND:                 0.000
REMARK SMILES O=c1ccc2ccccc2o1
REMARK SMILES IDX 7 1 8 2 9 3 10 4 5 5 6 6 4 7 3 8 2 9 1 10 11 11
REMARK H PARENT
REMARK Flexibility Score: inf
ROOT
ATOM      1  C   UNL     1      11.508  16.979   8.993  1.00  0.00     0.001 A 
ATOM      2  C   UNL     1      11.877  17.043  10.341  1.00  0.00     0.004 A 
ATOM      3  C   UNL     1      13.228  17.115  10.698  1.00  0.00     0.048 A 
ATOM      4  C   UNL     1      14.215  17.123   9.706  1.00  0.00     0.138 A 
ATOM      5  C   UNL     1      13.842  17.058   8.345  1.00  0.00     0.018 A 
ATOM      6  C   UNL     1      12.487  16.986   7.994  1.00  0.00     0.012 A 
ATOM      7  C   UNL     1      14.851  17.067   7.377  1.00  0.00     0.019 A 
ATOM      8  C   UNL     1      16.184  17.139   7.778  1.00  0.00     0.094 A 
ATOM      9  C   UNL     1      16.479  17.201   9.144  1.00  0.00     0.336 A 
ATOM     10  O   UNL     1      17.676  17.266   9.527  1.00  0.00    -0.246 OA
ATOM     11  O   UNL     1      15.501  17.190  10.046  1.00  0.00    -0.423 OA
ENDROOT
TORSDOF 0
ENDMDL
MODEL 3
REMARK VINA RESULT:    -4.474      1.656      3.816
REMARK INTER + INTRA:          -4.474
REMARK INTER:                  -4.474
REMARK INTRA:                   0.000
REMARK UNBOUND:                 0.000
REMARK SMILES O=c1ccc2ccccc2o1
REMARK SMILES IDX 7 1 8 2 9 3 10 4 5 5 6 6 4 7 3 8 2 9 1 10 11 11
REMARK H PARENT
REMARK Flexibility Score: inf
ROOT
ATOM      1  C   UNL     1      15.939  17.008   7.813  1.00  0.00     0.001 A 
ATOM      2  C   UNL     1      16.357  17.014   9.148  1.00  0.00     0.004 A 
ATOM      3  C   UNL     1      15.413  17.013  10.181  1.00  0.00     0.048 A 
ATOM      4  C   UNL     1      14.047  17.006   9.881  1.00  0.00     0.138 A 
ATOM      5  C   UNL     1      13.624  17.001   8.533  1.00  0.00     0.018 A 
ATOM      6  C   UNL     1      14.575  17.002   7.503  1.00  0.00     0.012 A 
ATOM      7  C   UNL     1      12.252  16.995   8.265  1.00  0.00     0.019 A 
ATOM      8  C   UNL     1      11.347  16.994   9.326  1.00  0.00     0.094 A 
ATOM      9  C   UNL     1      11.838  17.000  10.635  1.00  0.00     0.336 A 
ATOM     10  O   UNL     1      11.037  17.000  11.607  1.00  0.00    -0.246 OA
ATOM     11  O   UNL     1      13.148  17.005  10.864  1.00  0.00    -0.423 OA
ENDROOT
TORSDOF 0
ENDMDL
MODEL 4
REMARK VINA RESULT:    -4.368      1.868      4.024
REMARK INTER + INTRA:          -4.368
REMARK INTER:                  -4.368
REMARK INTRA:                   0.000
REMARK UNBOUND:                 0.000
REMARK SMILES O=c1ccc2ccccc2o1
REMARK SMILES IDX 7 1 8 2 9 3 10 4 5 5 6 6 4 7 3 8 2 9 1 10 11 11
REMARK H PARENT
REMARK Flexibility Score: inf
ROOT
ATOM      1  C   UNL     1      17.668  17.370   9.133  1.00  0.00     0.001 A 
ATOM      2  C   UNL     1      17.299  17.196  10.471  1.00  0.00     0.004 A 
ATOM      3  C   UNL     1      15.951  17.057  10.818  1.00  0.00     0.048 A 
ATOM      4  C   UNL     1      14.966  17.091   9.825  1.00  0.00     0.138 A 
ATOM      5  C   UNL     1      15.337  17.267   8.473  1.00  0.00     0.018 A 
ATOM      6  C   UNL     1      16.690  17.407   8.133  1.00  0.00     0.012 A 
ATOM      7  C   UNL     1      14.331  17.298   7.504  1.00  0.00     0.019 A 
ATOM      8  C   UNL     1      13.000  17.156   7.895  1.00  0.00     0.094 A 
ATOM      9  C   UNL     1      12.706  16.985   9.252  1.00  0.00     0.336 A 
ATOM     10  O   UNL     1      11.511  16.854   9.624  1.00  0.00    -0.246 OA
ATOM     11  O   UNL     1      13.683  16.959  10.154  1.00  0.00    -0.423 OA
ENDROOT
TORSDOF 0
ENDMDL
MODEL 5
REMARK VINA RESULT:    -4.355      1.112      2.092
REMARK INTER + INTRA:          -4.355
REMARK INTER:                  -4.355
REMARK INTRA:                   0.000
REMARK UNBOUND:                 0.000
REMARK SMILES O=c1ccc2ccccc2o1
REMARK SMILES IDX 7 1 8 2 9 3 10 4 5 5 6 6 4 7 3 8 2 9 1 10 11 11
REMARK H PARENT
REMARK Flexibility Score: inf
ROOT
ATOM      1  C   UNL     1      11.525  16.603  12.014  1.00  0.00     0.001 A 
ATOM      2  C   UNL     1      10.800  16.242  10.874  1.00  0.00     0.004 A 
ATOM      3  C   UNL     1      11.401  16.295   9.611  1.00  0.00     0.048 A 
ATOM      4  C   UNL     1      12.730  16.711   9.485  1.00  0.00     0.138 A 
ATOM      5  C   UNL     1      13.463  17.076  10.636  1.00  0.00     0.018 A 
ATOM      6  C   UNL     1      12.856  17.021  11.899  1.00  0.00     0.012 A 
ATOM      7  C   UNL     1      14.790  17.488  10.479  1.00  0.00     0.019 A 
ATOM      8  C   UNL     1      15.348  17.526   9.202  1.00  0.00     0.094 A 
ATOM      9  C   UNL     1      14.562  17.150   8.107  1.00  0.00     0.336 A 
ATOM     10  O   UNL     1      15.047  17.178   6.946  1.00  0.00    -0.246 OA
ATOM     11  O   UNL     1      13.302  16.762   8.284  1.00  0.00    -0.423 OA
ENDROOT
TORSDOF 0
ENDMDL
MODEL 6
REMARK VINA RESULT:    -4.277      1.841      4.415
REMARK INTER + INTRA:          -4.277
REMARK INTER:                  -4.277
REMARK INTRA:                   0.000
REMARK UNBOUND:                 0.000
REMARK SMILES O=c1ccc2ccccc2o1
REMARK SMILES IDX 7 1 8 2 9 3 10 4 5 5 6 6 4 7 3 8 2 9 1 10 11 11
REMARK H PARENT
REMARK Flexibility Score: inf
ROOT
ATOM      1  C   UNL     1      17.204  17.544   9.197  1.00  0.00     0.001 A 
ATOM      2  C   UNL     1      16.815  17.296   7.876  1.00  0.00     0.004 A 
ATOM      3  C   UNL     1      15.465  17.099   7.566  1.00  0.00     0.048 A 
ATOM      4  C   UNL     1      14.499  17.150   8.576  1.00  0.00     0.138 A 
ATOM      5  C   UNL     1      14.892  17.400   9.910  1.00  0.00     0.018 A 
ATOM      6  C   UNL     1      16.246  17.596  10.215  1.00  0.00     0.012 A 
ATOM      7  C   UNL     1      13.904  17.445  10.898  1.00  0.00     0.019 A 
ATOM      8  C   UNL     1      12.571  17.242  10.543  1.00  0.00     0.094 A 
ATOM      9  C   UNL     1      12.256  16.999   9.202  1.00  0.00     0.336 A 
ATOM     10  O   UNL     1      11.058  16.814   8.861  1.00  0.00    -0.246 OA
ATOM     11  O   UNL     1      13.215  16.962   8.281  1.00  0.00    -0.423 OA
ENDROOT
TORSDOF 0
ENDMDL
MODEL 7
REMARK VINA RESULT:    -4.132      2.438      3.991
REMARK INTER + INTRA:          -4.132
REMARK INTER:                  -4.132
REMARK INTRA:                   0.000
REMARK UNBOUND:                 0.000
REMARK SMILES O=c1ccc2ccccc2o1
REMARK SMILES IDX 7 1 8 2 9 3 10 4 5 5 6 6 4 7 3 8 2 9 1 10 11 11
REMARK H PARENT
REMARK Flexibility Score: inf
ROOT
ATOM      1  C   UNL     1      17.794  17.495  11.213  1.00  0.00     0.001 A 
ATOM      2  C   UNL     1      16.658  17.554  12.027  1.00  0.00     0.004 A 
ATOM      3  C   UNL     1      15.381  17.480  11.459  1.00  0.00     0.048 A 
ATOM      4  C   UNL     1      15.237  17.346  10.075  1.00  0.00     0.138 A 
ATOM      5  C   UNL     1      16.384  17.287   9.252  1.00  0.00     0.018 A 
ATOM      6  C   UNL     1      17.661  17.363   9.827  1.00  0.00     0.012 A 
ATOM      7  C   UNL     1      16.208  17.154   7.872  1.00  0.00     0.019 A 
ATOM      8  C   UNL     1      14.917  17.084   7.350  1.00  0.00     0.094 A 
ATOM      9  C   UNL     1      13.828  17.150   8.224  1.00  0.00     0.336 A 
ATOM     10  O   UNL     1      12.655  17.088   7.773  1.00  0.00    -0.246 OA
ATOM     11  O   UNL     1      14.022  17.276   9.534  1.00  0.00    -0.423 OA
ENDROOT
TORSDOF 0
ENDMDL
MODEL 8
REMARK VINA RESULT:    -3.999      1.440      2.958
REMARK INTER + INTRA:          -3.999
REMARK INTER:                  -3.999
REMARK INTRA:                   0.000
REMARK UNBOUND:                 0.000
REMARK SMILES O=c1ccc2ccccc2o1
REMARK SMILES IDX 7 1 8 2 9 3 10 4 5 5 6 6 4 7 3 8 2 9 1 10 11 11
REMARK H PARENT
REMARK Flexibility Score: inf
ROOT
ATOM      1  C   UNL     1      11.971  16.959   9.096  1.00  0.00     0.001 A 
ATOM      2  C   UNL     1      12.637  17.068   7.871  1.00  0.00     0.004 A 
ATOM      3  C   UNL     1      14.028  17.224   7.838  1.00  0.00     0.048 A 
ATOM      4  C   UNL     1      14.756  17.271   9.031  1.00  0.00     0.138 A 
ATOM      5  C   UNL     1      14.083  17.162  10.269  1.00  0.00     0.018 A 
ATOM      6  C   UNL     1      12.690  17.006  10.296  1.00  0.00     0.012 A 
ATOM      7  C   UNL     1      14.837  17.214  11.445  1.00  0.00     0.019 A 
ATOM      8  C   UNL     1      16.221  17.371  11.364  1.00  0.00     0.094 A 
ATOM      9  C   UNL     1      16.819  17.473  10.104  1.00  0.00     0.336 A 
ATOM     10  O   UNL     1      18.066  17.615  10.010  1.00  0.00    -0.246 OA
ATOM     11  O   UNL     1      16.079  17.420   9.000  1.00  0.00    -0.423 OA
ENDROOT
TORSDOF 0
ENDMDL
MODEL 9
REMARK VINA RESULT:    -3.964      2.642      4.443
REMARK INTER + INTRA:          -3.964
REMARK INTER:                  -3.964
REMARK INTRA:                   0.000
REMARK UNBOUND:                 0.000
REMARK SMILES O=c1ccc2ccccc2o1
REMARK SMILES IDX 7 1 8 2 9 3 10 4 5 5 6 6 4 7 3 8 2 9 1 10 11 11
REMARK H PARENT
REMARK Flexibility Score: inf
ROOT
ATOM      1  C   UNL     1      14.249  17.045   8.373  1.00  0.00     0.001 A 
ATOM      2  C   UNL     1      15.317  17.069   7.470  1.00  0.00     0.004 A 
ATOM      3  C   UNL     1      16.631  17.189   7.937  1.00  0.00     0.048 A 
ATOM      4  C   UNL     1      16.880  17.286   9.310  1.00  0.00     0.138 A 
ATOM      5  C   UNL     1      15.801  17.263  10.222  1.00  0.00     0.018 A 
ATOM      6  C   UNL     1      14.487  17.142   9.748  1.00  0.00     0.012 A 
ATOM      7  C   UNL     1      16.081  17.362  11.588  1.00  0.00     0.019 A 
ATOM      8  C   UNL     1      17.405  17.481  12.009  1.00  0.00     0.094 A 
ATOM      9  C   UNL     1      18.423  17.498  11.049  1.00  0.00     0.336 A 
ATOM     10  O   UNL     1      19.624  17.604  11.408  1.00  0.00    -0.246 OA
ATOM     11  O   UNL     1      18.130  17.401   9.755  1.00  0.00    -0.423 OA
ENDROOT
TORSDOF 0
ENDMDL
