MODEL 1
REMARK VINA RESULT:    -5.726      0.000      0.000
REMARK INTER + INTRA:          -6.157
REMARK INTER:                  -6.061
REMARK INTRA:                  -0.096
REMARK UNBOUND:                -0.096
REMARK SMILES C=C(C)[C@H]1CC=C(C)C(=O)C1
REMARK SMILES IDX 8 1 7 2 6 3 5 4 4 5 11 6 9 7 10 8 2 9 1 10 3 11
REMARK H PARENT
REMARK Flexibility Score: inf
ROOT
ATOM      1  C   UNL     1      25.462  22.258  27.240  1.00  0.00     0.048 C 
ATOM      2  C   UNL     1      26.363  21.080  27.489  1.00  0.00    -0.012 C 
ATOM      3  C   UNL     1      26.672  20.249  26.480  1.00  0.00    -0.019 C 
ATOM      4  C   UNL     1      27.554  19.044  26.678  1.00  0.00     0.036 C 
ATOM      5  C   UNL     1      28.615  19.308  27.763  1.00  0.00     0.025 C 
ATOM      6  C   UNL     1      27.941  19.758  29.072  1.00  0.00     0.089 C 
ATOM      7  C   UNL     1      27.006  20.909  28.816  1.00  0.00     0.158 C 
ATOM      8  O   UNL     1      26.745  21.708  29.755  1.00  0.00    -0.295 OA
ENDROOT
BRANCH   5   9
ATOM      9  C   UNL     1      29.509  18.094  27.982  1.00  0.00    -0.077 C 
ATOM     10  C   UNL     1      29.473  17.396  29.130  1.00  0.00     0.008 C 
ATOM     11  C   UNL     1      30.460  17.651  26.899  1.00  0.00     0.039 C 
ENDBRANCH   5   9
TORSDOF 1
ENDMDL
MODEL 2
REMARK VINA RESULT:    -5.700     13.157     13.637
REMARK INTER + INTRA:          -6.130
REMARK INTER:                  -6.038
REMARK INTRA:                  -0.092
REMARK UNBOUND:                -0.096
REMARK SMILES C=C(C)[C@H]1CC=C(C)C(=O)C1
REMARK SMILES IDX 8 1 7 2 6 3 5 4 4 5 11 6 9 7 10 8 2 9 1 10 3 11
REMARK H PARENT
REMARK Flexibility Score: inf
ROOT
ATOM      1  C   UNL     1      30.088  17.375  14.950  1.00  0.00     0.048 C 
ATOM      2  C   UNL     1      31.325  18.114  15.382  1.00  0.00    -0.012 C 
ATOM      3  C   UNL     1      32.453  17.434  15.646  1.00  0.00    -0.019 C 
ATOM      4  C   UNL     1      33.714  18.122  16.099  1.00  0.00     0.036 C 
ATOM      5  C   UNL     1      33.831  19.528  15.479  1.00  0.00     0.025 C 
ATOM      6  C   UNL     1      32.571  20.356  15.789  1.00  0.00     0.089 C 
ATOM      7  C   UNL     1      31.331  19.598  15.397  1.00  0.00     0.158 C 
ATOM      8  O   UNL     1      30.283  20.240  15.116  1.00  0.00    -0.295 OA
ENDROOT
BRANCH   5   9
ATOM      9  C   UNL     1      35.097  20.240  15.937  1.00  0.00    -0.077 C 
ATOM     10  C   UNL     1      36.317  19.769  15.625  1.00  0.00     0.008 C 
ATOM     11  C   UNL     1      35.000  21.500  16.758  1.00  0.00     0.039 C 
ENDBRANCH   5   9
TORSDOF 1
ENDMDL
MODEL 3
REMARK VINA RESULT:    -5.624     11.831     13.054
REMARK INTER + INTRA:          -6.049
REMARK INTER:                  -5.955
REMARK INTRA:                  -0.093
REMARK UNBOUND:                -0.096
REMARK SMILES C=C(C)[C@H]1CC=C(C)C(=O)C1
REMARK SMILES IDX 8 1 7 2 6 3 5 4 4 5 11 6 9 7 10 8 2 9 1 10 3 11
REMARK H PARENT
REMARK Flexibility Score: inf
ROOT
ATOM      1  C   UNL     1      30.495  17.477  15.240  1.00  0.00     0.048 C 
ATOM      2  C   UNL     1      31.485  18.530  15.655  1.00  0.00    -0.012 C 
ATOM      3  C   UNL     1      31.068  19.785  15.891  1.00  0.00    -0.019 C 
ATOM      4  C   UNL     1      32.019  20.882  16.291  1.00  0.00     0.036 C 
ATOM      5  C   UNL     1      33.184  20.325  17.132  1.00  0.00     0.025 C 
ATOM      6  C   UNL     1      33.892  19.187  16.375  1.00  0.00     0.089 C 
ATOM      7  C   UNL     1      32.896  18.154  15.922  1.00  0.00     0.158 C 
ATOM      8  O   UNL     1      33.283  16.969  15.735  1.00  0.00    -0.295 OA
ENDROOT
BRANCH   5   9
ATOM      9  C   UNL     1      34.160  21.423  17.535  1.00  0.00    -0.077 C 
ATOM     10  C   UNL     1      35.041  21.933  16.657  1.00  0.00     0.008 C 
ATOM     11  C   UNL     1      34.152  21.961  18.943  1.00  0.00     0.039 C 
ENDBRANCH   5   9
TORSDOF 1
ENDMDL
MODEL 4
REMARK VINA RESULT:    -5.342      2.185      4.260
REMARK INTER + INTRA:          -5.750
REMARK INTER:                  -5.653
REMARK INTRA:                  -0.097
REMARK UNBOUND:                -0.096
REMARK SMILES C=C(C)[C@H]1CC=C(C)C(=O)C1
REMARK SMILES IDX 8 1 7 2 6 3 5 4 4 5 11 6 9 7 10 8 2 9 1 10 3 11
REMARK H PARENT
REMARK Flexibility Score: inf
ROOT
ATOM      1  C   UNL     1      30.860  18.136  26.161  1.00  0.00     0.048 C 
ATOM      2  C   UNL     1      29.570  18.634  26.751  1.00  0.00    -0.012 C 
ATOM      3  C   UNL     1      28.769  19.436  26.029  1.00  0.00    -0.019 C 
ATOM      4  C   UNL     1      27.475  19.978  26.578  1.00  0.00     0.036 C 
ATOM      5  C   UNL     1      26.827  18.979  27.556  1.00  0.00     0.025 C 
ATOM      6  C   UNL     1      27.820  18.600  28.670  1.00  0.00     0.089 C 
ATOM      7  C   UNL     1      29.126  18.142  28.080  1.00  0.00     0.158 C 
ATOM      8  O   UNL     1      29.860  17.362  28.745  1.00  0.00    -0.295 OA
ENDROOT
BRANCH   5   9
ATOM      9  C   UNL     1      25.522  19.519  28.127  1.00  0.00    -0.077 C 
ATOM     10  C   UNL     1      24.875  18.881  29.118  1.00  0.00     0.008 C 
ATOM     11  C   UNL     1      24.929  20.793  27.583  1.00  0.00     0.039 C 
ENDBRANCH   5   9
TORSDOF 1
ENDMDL
MODEL 5
REMARK VINA RESULT:    -5.249     12.116     13.800
REMARK INTER + INTRA:          -5.652
REMARK INTER:                  -5.559
REMARK INTRA:                  -0.093
REMARK UNBOUND:                -0.096
REMARK SMILES C=C(C)[C@H]1CC=C(C)C(=O)C1
REMARK SMILES IDX 8 1 7 2 6 3 5 4 4 5 11 6 9 7 10 8 2 9 1 10 3 11
REMARK H PARENT
REMARK Flexibility Score: inf
ROOT
ATOM      1  C   UNL     1      36.973  19.620  15.574  1.00  0.00     0.048 C 
ATOM      2  C   UNL     1      35.551  19.849  16.004  1.00  0.00    -0.012 C 
ATOM      3  C   UNL     1      35.181  21.050  16.482  1.00  0.00    -0.019 C 
ATOM      4  C   UNL     1      33.775  21.329  16.944  1.00  0.00     0.036 C 
ATOM      5  C   UNL     1      32.752  20.518  16.125  1.00  0.00     0.025 C 
ATOM      6  C   UNL     1      33.096  19.018  16.175  1.00  0.00     0.089 C 
ATOM      7  C   UNL     1      34.532  18.792  15.786  1.00  0.00     0.158 C 
ATOM      8  O   UNL     1      34.869  17.676  15.306  1.00  0.00    -0.295 OA
ENDROOT
BRANCH   5   9
ATOM      9  C   UNL     1      31.326  20.782  16.589  1.00  0.00    -0.077 C 
ATOM     10  C   UNL     1      30.887  20.351  17.784  1.00  0.00     0.008 C 
ATOM     11  C   UNL     1      30.372  21.541  15.702  1.00  0.00     0.039 C 
ENDBRANCH   5   9
TORSDOF 1
ENDMDL
MODEL 6
REMARK VINA RESULT:    -5.133      2.089      4.560
REMARK INTER + INTRA:          -5.529
REMARK INTER:                  -5.436
REMARK INTRA:                  -0.093
REMARK UNBOUND:                -0.096
REMARK SMILES C=C(C)[C@H]1CC=C(C)C(=O)C1
REMARK SMILES IDX 8 1 7 2 6 3 5 4 4 5 11 6 9 7 10 8 2 9 1 10 3 11
REMARK H PARENT
REMARK Flexibility Score: inf
ROOT
ATOM      1  C   UNL     1      30.864  17.471  26.384  1.00  0.00     0.048 C 
ATOM      2  C   UNL     1      29.741  18.332  26.893  1.00  0.00    -0.012 C 
ATOM      3  C   UNL     1      29.277  18.159  28.142  1.00  0.00    -0.019 C 
ATOM      4  C   UNL     1      28.143  18.981  28.695  1.00  0.00     0.036 C 
ATOM      5  C   UNL     1      28.153  20.405  28.106  1.00  0.00     0.025 C 
ATOM      6  C   UNL     1      28.136  20.347  26.568  1.00  0.00     0.089 C 
ATOM      7  C   UNL     1      29.233  19.451  26.060  1.00  0.00     0.158 C 
ATOM      8  O   UNL     1      29.691  19.638  24.901  1.00  0.00    -0.295 OA
ENDROOT
BRANCH   5   9
ATOM      9  C   UNL     1      27.005  21.246  28.649  1.00  0.00    -0.077 C 
ATOM     10  C   UNL     1      26.823  21.412  29.970  1.00  0.00     0.008 C 
ATOM     11  C   UNL     1      26.042  21.912  27.700  1.00  0.00     0.039 C 
ENDBRANCH   5   9
TORSDOF 1
ENDMDL
MODEL 7
REMARK VINA RESULT:    -5.091     10.295     11.712
REMARK INTER + INTRA:          -5.484
REMARK INTER:                  -5.393
REMARK INTRA:                  -0.092
REMARK UNBOUND:                -0.096
REMARK SMILES C=C(C)[C@H]1CC=C(C)C(=O)C1
REMARK SMILES IDX 8 1 7 2 6 3 5 4 4 5 11 6 9 7 10 8 2 9 1 10 3 11
REMARK H PARENT
REMARK Flexibility Score: inf
ROOT
ATOM      1  C   UNL     1      33.539  20.571  20.999  1.00  0.00     0.048 C 
ATOM      2  C   UNL     1      32.985  20.343  19.620  1.00  0.00    -0.012 C 
ATOM      3  C   UNL     1      31.955  19.499  19.443  1.00  0.00    -0.019 C 
ATOM      4  C   UNL     1      31.373  19.220  18.082  1.00  0.00     0.036 C 
ATOM      5  C   UNL     1      31.470  20.461  17.174  1.00  0.00     0.025 C 
ATOM      6  C   UNL     1      32.927  20.954  17.097  1.00  0.00     0.089 C 
ATOM      7  C   UNL     1      33.496  21.141  18.477  1.00  0.00     0.158 C 
ATOM      8  O   UNL     1      34.439  21.959  18.646  1.00  0.00    -0.295 OA
ENDROOT
BRANCH   5   9
ATOM      9  C   UNL     1      30.895  20.190  15.790  1.00  0.00    -0.077 C 
ATOM     10  C   UNL     1      30.270  21.153  15.092  1.00  0.00     0.008 C 
ATOM     11  C   UNL     1      31.021  18.820  15.174  1.00  0.00     0.039 C 
ENDBRANCH   5   9
TORSDOF 1
ENDMDL
MODEL 8
REMARK VINA RESULT:    -4.965      2.329      3.193
REMARK INTER + INTRA:          -5.351
REMARK INTER:                  -5.253
REMARK INTRA:                  -0.098
REMARK UNBOUND:                -0.096
REMARK SMILES C=C(C)[C@H]1CC=C(C)C(=O)C1
REMARK SMILES IDX 8 1 7 2 6 3 5 4 4 5 11 6 9 7 10 8 2 9 1 10 3 11
REMARK H PARENT
REMARK Flexibility Score: inf
ROOT
ATOM      1  C   UNL     1      25.973  18.776  28.866  1.00  0.00     0.048 C 
ATOM      2  C   UNL     1      27.061  18.729  27.829  1.00  0.00    -0.012 C 
ATOM      3  C   UNL     1      26.877  19.321  26.638  1.00  0.00    -0.019 C 
ATOM      4  C   UNL     1      27.926  19.289  25.557  1.00  0.00     0.036 C 
ATOM      5  C   UNL     1      29.343  19.281  26.162  1.00  0.00     0.025 C 
ATOM      6  C   UNL     1      29.493  18.115  27.156  1.00  0.00     0.089 C 
ATOM      7  C   UNL     1      28.380  18.136  28.168  1.00  0.00     0.158 C 
ATOM      8  O   UNL     1      28.567  17.610  29.298  1.00  0.00    -0.295 OA
ENDROOT
BRANCH   5   9
ATOM      9  C   UNL     1      30.415  19.237  25.081  1.00  0.00    -0.077 C 
ATOM     10  C   UNL     1      31.576  18.587  25.271  1.00  0.00     0.008 C 
ATOM     11  C   UNL     1      30.187  19.932  23.763  1.00  0.00     0.039 C 
ENDBRANCH   5   9
TORSDOF 1
ENDMDL
MODEL 9
REMARK VINA RESULT:    -4.828      9.908     11.402
REMARK INTER + INTRA:          -5.206
REMARK INTER:                  -5.113
REMARK INTRA:                  -0.093
REMARK UNBOUND:                -0.096
REMARK SMILES C=C(C)[C@H]1CC=C(C)C(=O)C1
REMARK SMILES IDX 8 1 7 2 6 3 5 4 4 5 11 6 9 7 10 8 2 9 1 10 3 11
REMARK H PARENT
REMARK Flexibility Score: inf
ROOT
ATOM      1  C   UNL     1      33.433  20.375  21.657  1.00  0.00     0.048 C 
ATOM      2  C   UNL     1      33.116  20.424  20.188  1.00  0.00    -0.012 C 
ATOM      3  C   UNL     1      33.894  21.139  19.358  1.00  0.00    -0.019 C 
ATOM      4  C   UNL     1      33.612  21.236  17.882  1.00  0.00     0.036 C 
ATOM      5  C   UNL     1      32.974  19.937  17.354  1.00  0.00     0.025 C 
ATOM      6  C   UNL     1      31.714  19.590  18.167  1.00  0.00     0.089 C 
ATOM      7  C   UNL     1      32.021  19.584  19.640  1.00  0.00     0.158 C 
ATOM      8  O   UNL     1      31.311  18.885  20.412  1.00  0.00    -0.295 OA
ENDROOT
BRANCH   5   9
ATOM      9  C   UNL     1      32.674  20.025  15.863  1.00  0.00    -0.077 C 
ATOM     10  C   UNL     1      31.656  20.768  15.397  1.00  0.00     0.008 C 
ATOM     11  C   UNL     1      33.525  19.268  14.875  1.00  0.00     0.039 C 
ENDBRANCH   5   9
TORSDOF 1
ENDMDL
