MODEL 1
REMARK VINA RESULT:    -4.835      0.000      0.000
REMARK INTER + INTRA:         -14.513
REMARK INTER:                 -11.052
REMARK INTRA:                  -3.461
REMARK UNBOUND:                -3.461
REMARK SMILES CCCCCCCCCCCCCCCCCCCCCCCC(=O)[O-]
REMARK SMILES IDX 13 1 14 2 15 3 16 4 17 5 18 6 19 7 20 8 21 9 22 10 23 11
REMARK SMILES IDX 24 12 25 13 26 14 12 15 11 16 10 17 9 18 8 19 7 20 6 21 5 22
REMARK SMILES IDX 4 23 3 24 2 25 1 26
REMARK H PARENT
REMARK Flexibility Score: inf
ROOT
ATOM      1  C   UNL     1      79.563  55.626  11.230  1.00  0.00     0.000 C 
ENDROOT
BRANCH   1   2
ATOM      2  C   UNL     1      79.126  56.789  10.322  1.00  0.00     0.000 C 
BRANCH   2   3
ATOM      3  C   UNL     1      77.751  56.615   9.647  1.00  0.00     0.000 C 
BRANCH   3   4
ATOM      4  C   UNL     1      77.755  56.758   8.113  1.00  0.00     0.000 C 
BRANCH   4   5
ATOM      5  C   UNL     1      78.339  55.553   7.346  1.00  0.00     0.000 C 
BRANCH   5   6
ATOM      6  C   UNL     1      78.168  54.189   8.039  1.00  0.00     0.000 C 
BRANCH   6   7
ATOM      7  C   UNL     1      79.149  53.125   7.517  1.00  0.00     0.000 C 
BRANCH   7   8
ATOM      8  C   UNL     1      79.555  52.104   8.595  1.00  0.00     0.000 C 
BRANCH   8   9
ATOM      9  C   UNL     1      81.063  51.799   8.678  1.00  0.00     0.000 C 
BRANCH   9  10
ATOM     10  C   UNL     1      81.400  50.714   9.714  1.00  0.00     0.006 C 
BRANCH  10  11
ATOM     11  C   UNL     1      81.841  51.312  11.058  1.00  0.00     0.053 C 
BRANCH  11  12
ATOM     12  C   UNL     1      83.270  51.757  11.029  1.00  0.00     0.041 C 
ATOM     13  O   UNL     1      83.617  52.814  11.618  1.00  0.00    -0.550 OA
ATOM     14  O   UNL     1      84.214  51.023  10.321  1.00  0.00    -0.550 OA
ENDBRANCH  11  12
ENDBRANCH  10  11
ENDBRANCH   9  10
ENDBRANCH   8   9
ENDBRANCH   7   8
ENDBRANCH   6   7
ENDBRANCH   5   6
ENDBRANCH   4   5
ENDBRANCH   3   4
ENDBRANCH   2   3
ENDBRANCH   1   2
BRANCH   1  15
ATOM     15  C   UNL     1      81.012  55.181  10.975  1.00  0.00     0.000 C 
BRANCH  15  16
ATOM     16  C   UNL     1      81.419  55.286   9.494  1.00  0.00     0.000 C 
BRANCH  16  17
ATOM     17  C   UNL     1      82.934  55.206   9.220  1.00  0.00     0.000 C 
BRANCH  17  18
ATOM     18  C   UNL     1      83.784  56.278   9.930  1.00  0.00    -0.000 C 
BRANCH  18  19
ATOM     19  C   UNL     1      84.947  56.845   9.091  1.00  0.00    -0.000 C 
BRANCH  19  20
ATOM     20  C   UNL     1      84.773  58.310   8.642  1.00  0.00    -0.000 C 
BRANCH  20  21
ATOM     21  C   UNL     1      85.258  59.359   9.657  1.00  0.00    -0.000 C 
BRANCH  21  22
ATOM     22  C   UNL     1      84.676  60.757   9.393  1.00  0.00    -0.000 C 
BRANCH  22  23
ATOM     23  C   UNL     1      83.456  61.073  10.276  1.00  0.00    -0.000 C 
BRANCH  23  24
ATOM     24  C   UNL     1      83.077  59.965  11.281  1.00  0.00    -0.000 C 
BRANCH  24  25
ATOM     25  C   UNL     1      81.791  59.192  10.941  1.00  0.00    -0.003 C 
ATOM     26  C   UNL     1      80.744  60.057  10.240  1.00  0.00     0.004 C 
ENDBRANCH  24  25
ENDBRANCH  23  24
ENDBRANCH  22  23
ENDBRANCH  21  22
ENDBRANCH  20  21
ENDBRANCH  19  20
ENDBRANCH  18  19
ENDBRANCH  17  18
ENDBRANCH  16  17
ENDBRANCH  15  16
ENDBRANCH   1  15
TORSDOF 22
ENDMDL
MODEL 2
REMARK VINA RESULT:    -4.815      3.040      4.751
REMARK INTER + INTRA:         -14.469
REMARK INTER:                 -12.129
REMARK INTRA:                  -2.340
REMARK UNBOUND:                -3.461
REMARK SMILES CCCCCCCCCCCCCCCCCCCCCCCC(=O)[O-]
REMARK SMILES IDX 13 1 14 2 15 3 16 4 17 5 18 6 19 7 20 8 21 9 22 10 23 11
REMARK SMILES IDX 24 12 25 13 26 14 12 15 11 16 10 17 9 18 8 19 7 20 6 21 5 22
REMARK SMILES IDX 4 23 3 24 2 25 1 26
REMARK H PARENT
REMARK Flexibility Score: inf
ROOT
ATOM      1  C   UNL     1      78.005  56.471  10.077  1.00  0.00     0.000 C 
ENDROOT
BRANCH   1   2
ATOM      2  C   UNL     1      77.828  56.936   8.620  1.00  0.00     0.000 C 
BRANCH   2   3
ATOM      3  C   UNL     1      77.812  55.810   7.568  1.00  0.00     0.000 C 
BRANCH   3   4
ATOM      4  C   UNL     1      78.411  54.470   8.038  1.00  0.00     0.000 C 
BRANCH   4   5
ATOM      5  C   UNL     1      79.898  54.260   7.684  1.00  0.00     0.000 C 
BRANCH   5   6
ATOM      6  C   UNL     1      80.668  53.313   8.623  1.00  0.00     0.000 C 
BRANCH   6   7
ATOM      7  C   UNL     1      80.899  53.914  10.021  1.00  0.00     0.000 C 
BRANCH   7   8
ATOM      8  C   UNL     1      82.345  54.398  10.234  1.00  0.00     0.000 C 
BRANCH   8   9
ATOM      9  C   UNL     1      82.558  55.916  10.088  1.00  0.00     0.000 C 
BRANCH   9  10
ATOM     10  C   UNL     1      84.031  56.296   9.863  1.00  0.00     0.006 C 
BRANCH  10  11
ATOM     11  C   UNL     1      84.501  55.980   8.436  1.00  0.00     0.053 C 
BRANCH  11  12
ATOM     12  C   UNL     1      84.864  57.221   7.679  1.00  0.00     0.041 C 
ATOM     13  O   UNL     1      85.213  57.148   6.472  1.00  0.00    -0.550 OA
ATOM     14  O   UNL     1      84.848  58.454   8.318  1.00  0.00    -0.550 OA
ENDBRANCH  11  12
ENDBRANCH  10  11
ENDBRANCH   9  10
ENDBRANCH   8   9
ENDBRANCH   7   8
ENDBRANCH   6   7
ENDBRANCH   5   6
ENDBRANCH   4   5
ENDBRANCH   3   4
ENDBRANCH   2   3
ENDBRANCH   1   2
BRANCH   1  15
ATOM     15  C   UNL     1      79.260  57.059  10.743  1.00  0.00     0.000 C 
BRANCH  15  16
ATOM     16  C   UNL     1      79.634  58.449  10.196  1.00  0.00     0.000 C 
BRANCH  16  17
ATOM     17  C   UNL     1      80.919  59.065  10.784  1.00  0.00     0.000 C 
BRANCH  17  18
ATOM     18  C   UNL     1      81.309  60.439  10.206  1.00  0.00    -0.000 C 
BRANCH  18  19
ATOM     19  C   UNL     1      82.787  60.832  10.408  1.00  0.00    -0.000 C 
BRANCH  19  20
ATOM     20  C   UNL     1      83.573  59.934  11.383  1.00  0.00    -0.000 C 
BRANCH  20  21
ATOM     21  C   UNL     1      84.804  60.599  12.025  1.00  0.00    -0.000 C 
BRANCH  21  22
ATOM     22  C   UNL     1      85.245  59.906  13.324  1.00  0.00    -0.000 C 
BRANCH  22  23
ATOM     23  C   UNL     1      84.755  60.636  14.587  1.00  0.00    -0.000 C 
BRANCH  23  24
ATOM     24  C   UNL     1      85.778  61.604  15.217  1.00  0.00    -0.000 C 
BRANCH  24  25
ATOM     25  C   UNL     1      85.196  62.576  16.257  1.00  0.00    -0.003 C 
ATOM     26  C   UNL     1      85.002  63.989  15.709  1.00  0.00     0.004 C 
ENDBRANCH  24  25
ENDBRANCH  23  24
ENDBRANCH  22  23
ENDBRANCH  21  22
ENDBRANCH  20  21
ENDBRANCH  19  20
ENDBRANCH  18  19
ENDBRANCH  17  18
ENDBRANCH  16  17
ENDBRANCH  15  16
ENDBRANCH   1  15
TORSDOF 22
ENDMDL
MODEL 3
REMARK VINA RESULT:    -4.774      1.548      3.379
REMARK INTER + INTRA:         -14.375
REMARK INTER:                 -11.018
REMARK INTRA:                  -3.357
REMARK UNBOUND:                -3.461
REMARK SMILES CCCCCCCCCCCCCCCCCCCCCCCC(=O)[O-]
REMARK SMILES IDX 13 1 14 2 15 3 16 4 17 5 18 6 19 7 20 8 21 9 22 10 23 11
REMARK SMILES IDX 24 12 25 13 26 14 12 15 11 16 10 17 9 18 8 19 7 20 6 21 5 22
REMARK SMILES IDX 4 23 3 24 2 25 1 26
REMARK H PARENT
REMARK Flexibility Score: inf
ROOT
ATOM      1  C   UNL     1      82.613  55.299  10.091  1.00  0.00     0.000 C 
ENDROOT
BRANCH   1   2
ATOM      2  C   UNL     1      81.310  56.061  10.392  1.00  0.00     0.000 C 
BRANCH   2   3
ATOM      3  C   UNL     1      80.280  55.291  11.242  1.00  0.00     0.000 C 
BRANCH   3   4
ATOM      4  C   UNL     1      78.950  56.030  11.481  1.00  0.00     0.000 C 
BRANCH   4   5
ATOM      5  C   UNL     1      78.628  57.142  10.461  1.00  0.00     0.000 C 
BRANCH   5   6
ATOM      6  C   UNL     1      77.499  56.814   9.467  1.00  0.00     0.000 C 
BRANCH   6   7
ATOM      7  C   UNL     1      78.024  56.400   8.081  1.00  0.00     0.000 C 
BRANCH   7   8
ATOM      8  C   UNL     1      78.051  54.874   7.880  1.00  0.00     0.000 C 
BRANCH   8   9
ATOM      9  C   UNL     1      79.454  54.253   7.750  1.00  0.00     0.000 C 
BRANCH   9  10
ATOM     10  C   UNL     1      79.469  52.741   8.034  1.00  0.00     0.006 C 
BRANCH  10  11
ATOM     11  C   UNL     1      80.700  52.317   8.849  1.00  0.00     0.053 C 
BRANCH  11  12
ATOM     12  C   UNL     1      80.650  50.866   9.219  1.00  0.00     0.041 C 
ATOM     13  O   UNL     1      79.941  50.065   8.555  1.00  0.00    -0.550 OA
ATOM     14  O   UNL     1      81.361  50.404  10.321  1.00  0.00    -0.550 OA
ENDBRANCH  11  12
ENDBRANCH  10  11
ENDBRANCH   9  10
ENDBRANCH   8   9
ENDBRANCH   7   8
ENDBRANCH   6   7
ENDBRANCH   5   6
ENDBRANCH   4   5
ENDBRANCH   3   4
ENDBRANCH   2   3
ENDBRANCH   1   2
BRANCH   1  15
ATOM     15  C   UNL     1      83.111  55.511   8.652  1.00  0.00     0.000 C 
BRANCH  15  16
ATOM     16  C   UNL     1      84.625  55.785   8.575  1.00  0.00     0.000 C 
BRANCH  16  17
ATOM     17  C   UNL     1      85.038  56.951   7.655  1.00  0.00     0.000 C 
BRANCH  17  18
ATOM     18  C   UNL     1      85.164  58.320   8.352  1.00  0.00    -0.000 C 
BRANCH  18  19
ATOM     19  C   UNL     1      85.595  58.258   9.831  1.00  0.00    -0.000 C 
BRANCH  19  20
ATOM     20  C   UNL     1      84.678  59.018  10.810  1.00  0.00    -0.000 C 
BRANCH  20  21
ATOM     21  C   UNL     1      83.252  59.276  10.293  1.00  0.00    -0.000 C 
BRANCH  21  22
ATOM     22  C   UNL     1      82.712  60.657  10.699  1.00  0.00    -0.000 C 
BRANCH  22  23
ATOM     23  C   UNL     1      83.208  61.786   9.778  1.00  0.00    -0.000 C 
BRANCH  23  24
ATOM     24  C   UNL     1      84.400  62.596  10.326  1.00  0.00    -0.000 C 
BRANCH  24  25
ATOM     25  C   UNL     1      85.427  63.037   9.269  1.00  0.00    -0.003 C 
ATOM     26  C   UNL     1      86.261  61.876   8.728  1.00  0.00     0.004 C 
ENDBRANCH  24  25
ENDBRANCH  23  24
ENDBRANCH  22  23
ENDBRANCH  21  22
ENDBRANCH  20  21
ENDBRANCH  19  20
ENDBRANCH  18  19
ENDBRANCH  17  18
ENDBRANCH  16  17
ENDBRANCH  15  16
ENDBRANCH   1  15
TORSDOF 22
ENDMDL
MODEL 4
REMARK VINA RESULT:    -4.753      6.000     11.283
REMARK INTER + INTRA:         -14.328
REMARK INTER:                 -10.832
REMARK INTRA:                  -3.496
REMARK UNBOUND:                -3.461
REMARK SMILES CCCCCCCCCCCCCCCCCCCCCCCC(=O)[O-]
REMARK SMILES IDX 13 1 14 2 15 3 16 4 17 5 18 6 19 7 20 8 21 9 22 10 23 11
REMARK SMILES IDX 24 12 25 13 26 14 12 15 11 16 10 17 9 18 8 19 7 20 6 21 5 22
REMARK SMILES IDX 4 23 3 24 2 25 1 26
REMARK H PARENT
REMARK Flexibility Score: inf
ROOT
ATOM      1  C   UNL     1      90.771  62.755   7.544  1.00  0.00     0.000 C 
ENDROOT
BRANCH   1   2
ATOM      2  C   UNL     1      91.835  63.227   8.552  1.00  0.00     0.000 C 
BRANCH   2   3
ATOM      3  C   UNL     1      91.354  64.282   9.568  1.00  0.00     0.000 C 
BRANCH   3   4
ATOM      4  C   UNL     1      91.528  65.745   9.119  1.00  0.00     0.000 C 
BRANCH   4   5
ATOM      5  C   UNL     1      90.219  66.554   9.006  1.00  0.00     0.000 C 
BRANCH   5   6
ATOM      6  C   UNL     1      89.563  66.548   7.614  1.00  0.00     0.000 C 
BRANCH   6   7
ATOM      7  C   UNL     1      88.047  66.286   7.667  1.00  0.00     0.000 C 
BRANCH   7   8
ATOM      8  C   UNL     1      87.691  64.794   7.536  1.00  0.00     0.000 C 
BRANCH   8   9
ATOM      9  C   UNL     1      87.245  64.107   8.840  1.00  0.00     0.000 C 
BRANCH   9  10
ATOM     10  C   UNL     1      86.620  62.722   8.604  1.00  0.00     0.006 C 
BRANCH  10  11
ATOM     11  C   UNL     1      85.095  62.793   8.445  1.00  0.00     0.053 C 
BRANCH  11  12
ATOM     12  C   UNL     1      84.396  62.836   9.769  1.00  0.00     0.041 C 
ATOM     13  O   UNL     1      84.993  62.462  10.813  1.00  0.00    -0.550 OA
ATOM     14  O   UNL     1      83.074  63.256   9.846  1.00  0.00    -0.550 OA
ENDBRANCH  11  12
ENDBRANCH  10  11
ENDBRANCH   9  10
ENDBRANCH   8   9
ENDBRANCH   7   8
ENDBRANCH   6   7
ENDBRANCH   5   6
ENDBRANCH   4   5
ENDBRANCH   3   4
ENDBRANCH   2   3
ENDBRANCH   1   2
BRANCH   1  15
ATOM     15  C   UNL     1      90.910  61.267   7.182  1.00  0.00     0.000 C 
BRANCH  15  16
ATOM     16  C   UNL     1      89.622  60.674   6.580  1.00  0.00     0.000 C 
BRANCH  16  17
ATOM     17  C   UNL     1      88.849  59.707   7.499  1.00  0.00     0.000 C 
BRANCH  17  18
ATOM     18  C   UNL     1      87.791  58.838   6.791  1.00  0.00    -0.000 C 
BRANCH  18  19
ATOM     19  C   UNL     1      88.038  57.318   6.875  1.00  0.00    -0.000 C 
BRANCH  19  20
ATOM     20  C   UNL     1      88.891  56.861   8.076  1.00  0.00    -0.000 C 
BRANCH  20  21
ATOM     21  C   UNL     1      88.085  56.426   9.312  1.00  0.00    -0.000 C 
BRANCH  21  22
ATOM     22  C   UNL     1      88.064  57.496  10.416  1.00  0.00    -0.000 C 
BRANCH  22  23
ATOM     23  C   UNL     1      86.639  57.941  10.789  1.00  0.00    -0.000 C 
BRANCH  23  24
ATOM     24  C   UNL     1      86.165  59.242  10.108  1.00  0.00    -0.000 C 
BRANCH  24  25
ATOM     25  C   UNL     1      84.838  59.126   9.338  1.00  0.00    -0.003 C 
ATOM     26  C   UNL     1      84.702  57.804   8.582  1.00  0.00     0.004 C 
ENDBRANCH  24  25
ENDBRANCH  23  24
ENDBRANCH  22  23
ENDBRANCH  21  22
ENDBRANCH  20  21
ENDBRANCH  19  20
ENDBRANCH  18  19
ENDBRANCH  17  18
ENDBRANCH  16  17
ENDBRANCH  15  16
ENDBRANCH   1  15
TORSDOF 22
ENDMDL
MODEL 5
REMARK VINA RESULT:    -4.731      3.564      6.647
REMARK INTER + INTRA:         -14.278
REMARK INTER:                 -10.977
REMARK INTRA:                  -3.301
REMARK UNBOUND:                -3.461
REMARK SMILES CCCCCCCCCCCCCCCCCCCCCCCC(=O)[O-]
REMARK SMILES IDX 13 1 14 2 15 3 16 4 17 5 18 6 19 7 20 8 21 9 22 10 23 11
REMARK SMILES IDX 24 12 25 13 26 14 12 15 11 16 10 17 9 18 8 19 7 20 6 21 5 22
REMARK SMILES IDX 4 23 3 24 2 25 1 26
REMARK H PARENT
REMARK Flexibility Score: inf
ROOT
ATOM      1  C   UNL     1      78.235  55.118   8.081  1.00  0.00     0.000 C 
ENDROOT
BRANCH   1   2
ATOM      2  C   UNL     1      78.250  55.744   9.487  1.00  0.00     0.000 C 
BRANCH   2   3
ATOM      3  C   UNL     1      78.223  57.285   9.520  1.00  0.00     0.000 C 
BRANCH   3   4
ATOM      4  C   UNL     1      79.349  57.939  10.344  1.00  0.00     0.000 C 
BRANCH   4   5
ATOM      5  C   UNL     1      79.631  59.418  10.007  1.00  0.00     0.000 C 
BRANCH   5   6
ATOM      6  C   UNL     1      80.991  59.953  10.490  1.00  0.00     0.000 C 
BRANCH   6   7
ATOM      7  C   UNL     1      82.012  58.834  10.763  1.00  0.00     0.000 C 
BRANCH   7   8
ATOM      8  C   UNL     1      83.446  59.219  10.356  1.00  0.00     0.000 C 
BRANCH   8   9
ATOM      9  C   UNL     1      84.394  59.553  11.523  1.00  0.00     0.000 C 
BRANCH   9  10
ATOM     10  C   UNL     1      85.112  60.901  11.346  1.00  0.00     0.006 C 
BRANCH  10  11
ATOM     11  C   UNL     1      85.107  61.374   9.885  1.00  0.00     0.053 C 
BRANCH  11  12
ATOM     12  C   UNL     1      84.682  62.805   9.763  1.00  0.00     0.041 C 
ATOM     13  O   UNL     1      85.545  63.716   9.665  1.00  0.00    -0.550 OA
ATOM     14  O   UNL     1      83.333  63.136   9.791  1.00  0.00    -0.550 OA
ENDBRANCH  11  12
ENDBRANCH  10  11
ENDBRANCH   9  10
ENDBRANCH   8   9
ENDBRANCH   7   8
ENDBRANCH   6   7
ENDBRANCH   5   6
ENDBRANCH   4   5
ENDBRANCH   3   4
ENDBRANCH   2   3
ENDBRANCH   1   2
BRANCH   1  15
ATOM     15  C   UNL     1      79.092  53.845   7.985  1.00  0.00     0.000 C 
BRANCH  15  16
ATOM     16  C   UNL     1      80.597  54.145   7.852  1.00  0.00     0.000 C 
BRANCH  16  17
ATOM     17  C   UNL     1      81.426  53.937   9.135  1.00  0.00     0.000 C 
BRANCH  17  18
ATOM     18  C   UNL     1      81.962  55.229   9.784  1.00  0.00    -0.000 C 
BRANCH  18  19
ATOM     19  C   UNL     1      83.408  55.597   9.396  1.00  0.00    -0.000 C 
BRANCH  19  20
ATOM     20  C   UNL     1      84.501  54.977  10.288  1.00  0.00    -0.000 C 
BRANCH  20  21
ATOM     21  C   UNL     1      85.524  55.980  10.849  1.00  0.00    -0.000 C 
BRANCH  21  22
ATOM     22  C   UNL     1      86.977  55.590  10.530  1.00  0.00    -0.000 C 
BRANCH  22  23
ATOM     23  C   UNL     1      87.862  56.804  10.199  1.00  0.00    -0.000 C 
BRANCH  23  24
ATOM     24  C   UNL     1      87.094  58.069   9.763  1.00  0.00    -0.000 C 
BRANCH  24  25
ATOM     25  C   UNL     1      87.018  58.290   8.242  1.00  0.00    -0.003 C 
ATOM     26  C   UNL     1      85.613  58.077   7.679  1.00  0.00     0.004 C 
ENDBRANCH  24  25
ENDBRANCH  23  24
ENDBRANCH  22  23
ENDBRANCH  21  22
ENDBRANCH  20  21
ENDBRANCH  19  20
ENDBRANCH  18  19
ENDBRANCH  17  18
ENDBRANCH  16  17
ENDBRANCH  15  16
ENDBRANCH   1  15
TORSDOF 22
ENDMDL
MODEL 6
REMARK VINA RESULT:    -4.725      5.407     10.416
REMARK INTER + INTRA:         -14.263
REMARK INTER:                 -11.042
REMARK INTRA:                  -3.221
REMARK UNBOUND:                -3.461
REMARK SMILES CCCCCCCCCCCCCCCCCCCCCCCC(=O)[O-]
REMARK SMILES IDX 13 1 14 2 15 3 16 4 17 5 18 6 19 7 20 8 21 9 22 10 23 11
REMARK SMILES IDX 24 12 25 13 26 14 12 15 11 16 10 17 9 18 8 19 7 20 6 21 5 22
REMARK SMILES IDX 4 23 3 24 2 25 1 26
REMARK H PARENT
REMARK Flexibility Score: inf
ROOT
ATOM      1  C   UNL     1      89.034  64.184   8.894  1.00  0.00     0.000 C 
ENDROOT
BRANCH   1   2
ATOM      2  C   UNL     1      90.242  64.706   9.693  1.00  0.00     0.000 C 
BRANCH   2   3
ATOM      3  C   UNL     1      91.588  64.031   9.365  1.00  0.00     0.000 C 
BRANCH   3   4
ATOM      4  C   UNL     1      91.838  63.769   7.867  1.00  0.00     0.000 C 
BRANCH   4   5
ATOM      5  C   UNL     1      92.276  62.331   7.520  1.00  0.00     0.000 C 
BRANCH   5   6
ATOM      6  C   UNL     1      91.811  61.817   6.145  1.00  0.00     0.000 C 
BRANCH   6   7
ATOM      7  C   UNL     1      90.319  61.442   6.119  1.00  0.00     0.000 C 
BRANCH   7   8
ATOM      8  C   UNL     1      89.851  60.753   7.414  1.00  0.00     0.000 C 
BRANCH   8   9
ATOM      9  C   UNL     1      88.332  60.790   7.666  1.00  0.00     0.000 C 
BRANCH   9  10
ATOM     10  C   UNL     1      87.672  59.405   7.559  1.00  0.00     0.006 C 
BRANCH  10  11
ATOM     11  C   UNL     1      87.566  58.706   8.922  1.00  0.00     0.053 C 
BRANCH  11  12
ATOM     12  C   UNL     1      88.576  57.609   9.066  1.00  0.00     0.041 C 
ATOM     13  O   UNL     1      89.127  57.116   8.047  1.00  0.00    -0.550 OA
ATOM     14  O   UNL     1      88.883  57.107  10.325  1.00  0.00    -0.550 OA
ENDBRANCH  11  12
ENDBRANCH  10  11
ENDBRANCH   9  10
ENDBRANCH   8   9
ENDBRANCH   7   8
ENDBRANCH   6   7
ENDBRANCH   5   6
ENDBRANCH   4   5
ENDBRANCH   3   4
ENDBRANCH   2   3
ENDBRANCH   1   2
BRANCH   1  15
ATOM     15  C   UNL     1      88.463  65.230   7.923  1.00  0.00     0.000 C 
BRANCH  15  16
ATOM     16  C   UNL     1      88.308  64.693   6.487  1.00  0.00     0.000 C 
BRANCH  16  17
ATOM     17  C   UNL     1      87.083  63.787   6.251  1.00  0.00     0.000 C 
BRANCH  17  18
ATOM     18  C   UNL     1      85.774  64.276   6.902  1.00  0.00    -0.000 C 
BRANCH  18  19
ATOM     19  C   UNL     1      85.013  63.207   7.711  1.00  0.00    -0.000 C 
BRANCH  19  20
ATOM     20  C   UNL     1      85.572  62.935   9.122  1.00  0.00    -0.000 C 
BRANCH  20  21
ATOM     21  C   UNL     1      84.510  62.617  10.188  1.00  0.00    -0.000 C 
BRANCH  21  22
ATOM     22  C   UNL     1      84.917  61.452  11.105  1.00  0.00    -0.000 C 
BRANCH  22  23
ATOM     23  C   UNL     1      84.725  60.076  10.444  1.00  0.00    -0.000 C 
BRANCH  23  24
ATOM     24  C   UNL     1      83.271  59.739  10.056  1.00  0.00    -0.000 C 
BRANCH  24  25
ATOM     25  C   UNL     1      82.224  60.028  11.145  1.00  0.00    -0.003 C 
ATOM     26  C   UNL     1      80.802  59.670  10.715  1.00  0.00     0.004 C 
ENDBRANCH  24  25
ENDBRANCH  23  24
ENDBRANCH  22  23
ENDBRANCH  21  22
ENDBRANCH  20  21
ENDBRANCH  19  20
ENDBRANCH  18  19
ENDBRANCH  17  18
ENDBRANCH  16  17
ENDBRANCH  15  16
ENDBRANCH   1  15
TORSDOF 22
ENDMDL
MODEL 7
REMARK VINA RESULT:    -4.716      5.907      9.446
REMARK INTER + INTRA:         -14.242
REMARK INTER:                 -10.198
REMARK INTRA:                  -4.043
REMARK UNBOUND:                -3.461
REMARK SMILES CCCCCCCCCCCCCCCCCCCCCCCC(=O)[O-]
REMARK SMILES IDX 13 1 14 2 15 3 16 4 17 5 18 6 19 7 20 8 21 9 22 10 23 11
REMARK SMILES IDX 24 12 25 13 26 14 12 15 11 16 10 17 9 18 8 19 7 20 6 21 5 22
REMARK SMILES IDX 4 23 3 24 2 25 1 26
REMARK H PARENT
REMARK Flexibility Score: inf
ROOT
ATOM      1  C   UNL     1      86.605  63.758   8.290  1.00  0.00     0.000 C 
ENDROOT
BRANCH   1   2
ATOM      2  C   UNL     1      85.378  63.209   7.539  1.00  0.00     0.000 C 
BRANCH   2   3
ATOM      3  C   UNL     1      84.147  62.914   8.419  1.00  0.00     0.000 C 
BRANCH   3   4
ATOM      4  C   UNL     1      84.385  63.042   9.936  1.00  0.00     0.000 C 
BRANCH   4   5
ATOM      5  C   UNL     1      84.579  61.706  10.683  1.00  0.00     0.000 C 
BRANCH   5   6
ATOM      6  C   UNL     1      83.407  60.714  10.567  1.00  0.00     0.000 C 
BRANCH   6   7
ATOM      7  C   UNL     1      83.826  59.360   9.968  1.00  0.00     0.000 C 
BRANCH   7   8
ATOM      8  C   UNL     1      85.277  59.354   9.454  1.00  0.00     0.000 C 
BRANCH   8   9
ATOM      9  C   UNL     1      85.437  59.114   7.941  1.00  0.00     0.000 C 
BRANCH   9  10
ATOM     10  C   UNL     1      86.739  59.704   7.374  1.00  0.00     0.006 C 
BRANCH  10  11
ATOM     11  C   UNL     1      87.886  59.665   8.394  1.00  0.00     0.053 C 
BRANCH  11  12
ATOM     12  C   UNL     1      88.606  58.352   8.373  1.00  0.00     0.041 C 
ATOM     13  O   UNL     1      88.968  57.844   7.280  1.00  0.00    -0.550 OA
ATOM     14  O   UNL     1      88.848  57.672   9.560  1.00  0.00    -0.550 OA
ENDBRANCH  11  12
ENDBRANCH  10  11
ENDBRANCH   9  10
ENDBRANCH   8   9
ENDBRANCH   7   8
ENDBRANCH   6   7
ENDBRANCH   5   6
ENDBRANCH   4   5
ENDBRANCH   3   4
ENDBRANCH   2   3
ENDBRANCH   1   2
BRANCH   1  15
ATOM     15  C   UNL     1      87.936  63.264   7.701  1.00  0.00     0.000 C 
BRANCH  15  16
ATOM     16  C   UNL     1      88.322  63.991   6.399  1.00  0.00     0.000 C 
BRANCH  16  17
ATOM     17  C   UNL     1      88.215  63.145   5.115  1.00  0.00     0.000 C 
BRANCH  17  18
ATOM     18  C   UNL     1      89.490  62.366   4.737  1.00  0.00    -0.000 C 
BRANCH  18  19
ATOM     19  C   UNL     1      89.532  60.908   5.239  1.00  0.00    -0.000 C 
BRANCH  19  20
ATOM     20  C   UNL     1      90.784  60.536   6.058  1.00  0.00    -0.000 C 
BRANCH  20  21
ATOM     21  C   UNL     1      91.036  61.421   7.291  1.00  0.00    -0.000 C 
BRANCH  21  22
ATOM     22  C   UNL     1      92.177  62.429   7.077  1.00  0.00    -0.000 C 
BRANCH  22  23
ATOM     23  C   UNL     1      91.803  63.856   7.515  1.00  0.00    -0.000 C 
BRANCH  23  24
ATOM     24  C   UNL     1      91.945  64.130   9.026  1.00  0.00    -0.000 C 
BRANCH  24  25
ATOM     25  C   UNL     1      91.386  65.485   9.496  1.00  0.00    -0.003 C 
ATOM     26  C   UNL     1      89.912  65.415   9.894  1.00  0.00     0.004 C 
ENDBRANCH  24  25
ENDBRANCH  23  24
ENDBRANCH  22  23
ENDBRANCH  21  22
ENDBRANCH  20  21
ENDBRANCH  19  20
ENDBRANCH  18  19
ENDBRANCH  17  18
ENDBRANCH  16  17
ENDBRANCH  15  16
ENDBRANCH   1  15
TORSDOF 22
ENDMDL
MODEL 8
REMARK VINA RESULT:    -4.711      6.246     11.691
REMARK INTER + INTRA:         -14.231
REMARK INTER:                 -10.429
REMARK INTRA:                  -3.802
REMARK UNBOUND:                -3.461
REMARK SMILES CCCCCCCCCCCCCCCCCCCCCCCC(=O)[O-]
REMARK SMILES IDX 13 1 14 2 15 3 16 4 17 5 18 6 19 7 20 8 21 9 22 10 23 11
REMARK SMILES IDX 24 12 25 13 26 14 12 15 11 16 10 17 9 18 8 19 7 20 6 21 5 22
REMARK SMILES IDX 4 23 3 24 2 25 1 26
REMARK H PARENT
REMARK Flexibility Score: inf
ROOT
ATOM      1  C   UNL     1      90.787  64.263   9.883  1.00  0.00     0.000 C 
ENDROOT
BRANCH   1   2
ATOM      2  C   UNL     1      92.010  64.928   9.225  1.00  0.00     0.000 C 
BRANCH   2   3
ATOM      3  C   UNL     1      91.849  66.428   8.906  1.00  0.00     0.000 C 
BRANCH   3   4
ATOM      4  C   UNL     1      92.010  66.799   7.419  1.00  0.00     0.000 C 
BRANCH   4   5
ATOM      5  C   UNL     1      90.921  66.233   6.484  1.00  0.00     0.000 C 
BRANCH   5   6
ATOM      6  C   UNL     1      91.367  65.060   5.592  1.00  0.00     0.000 C 
BRANCH   6   7
ATOM      7  C   UNL     1      90.667  63.737   5.948  1.00  0.00     0.000 C 
BRANCH   7   8
ATOM      8  C   UNL     1      91.651  62.638   6.389  1.00  0.00     0.000 C 
BRANCH   8   9
ATOM      9  C   UNL     1      91.033  61.498   7.222  1.00  0.00     0.000 C 
BRANCH   9  10
ATOM     10  C   UNL     1      89.688  61.008   6.661  1.00  0.00     0.006 C 
BRANCH  10  11
ATOM     11  C   UNL     1      88.639  60.805   7.765  1.00  0.00     0.053 C 
BRANCH  11  12
ATOM     12  C   UNL     1      88.437  59.355   8.083  1.00  0.00     0.041 C 
ATOM     13  O   UNL     1      89.041  58.471   7.421  1.00  0.00    -0.550 OA
ATOM     14  O   UNL     1      87.556  58.980   9.089  1.00  0.00    -0.550 OA
ENDBRANCH  11  12
ENDBRANCH  10  11
ENDBRANCH   9  10
ENDBRANCH   8   9
ENDBRANCH   7   8
ENDBRANCH   6   7
ENDBRANCH   5   6
ENDBRANCH   4   5
ENDBRANCH   3   4
ENDBRANCH   2   3
ENDBRANCH   1   2
BRANCH   1  15
ATOM     15  C   UNL     1      89.499  65.088   9.721  1.00  0.00     0.000 C 
BRANCH  15  16
ATOM     16  C   UNL     1      88.464  64.407   8.807  1.00  0.00     0.000 C 
BRANCH  16  17
ATOM     17  C   UNL     1      87.646  65.360   7.912  1.00  0.00     0.000 C 
BRANCH  17  18
ATOM     18  C   UNL     1      87.072  64.724   6.631  1.00  0.00    -0.000 C 
BRANCH  18  19
ATOM     19  C   UNL     1      86.192  63.480   6.863  1.00  0.00    -0.000 C 
BRANCH  19  20
ATOM     20  C   UNL     1      84.717  63.777   7.198  1.00  0.00    -0.000 C 
BRANCH  20  21
ATOM     21  C   UNL     1      84.178  63.054   8.445  1.00  0.00    -0.000 C 
BRANCH  21  22
ATOM     22  C   UNL     1      85.142  63.130   9.640  1.00  0.00    -0.000 C 
BRANCH  22  23
ATOM     23  C   UNL     1      84.836  62.079  10.722  1.00  0.00    -0.000 C 
BRANCH  23  24
ATOM     24  C   UNL     1      83.665  61.131  10.394  1.00  0.00    -0.000 C 
BRANCH  24  25
ATOM     25  C   UNL     1      83.944  59.640  10.652  1.00  0.00    -0.003 C 
ATOM     26  C   UNL     1      85.037  59.410  11.695  1.00  0.00     0.004 C 
ENDBRANCH  24  25
ENDBRANCH  23  24
ENDBRANCH  22  23
ENDBRANCH  21  22
ENDBRANCH  20  21
ENDBRANCH  19  20
ENDBRANCH  18  19
ENDBRANCH  17  18
ENDBRANCH  16  17
ENDBRANCH  15  16
ENDBRANCH   1  15
TORSDOF 22
ENDMDL
MODEL 9
REMARK VINA RESULT:    -4.656      2.815      7.852
REMARK INTER + INTRA:         -14.106
REMARK INTER:                 -10.697
REMARK INTRA:                  -3.409
REMARK UNBOUND:                -3.461
REMARK SMILES CCCCCCCCCCCCCCCCCCCCCCCC(=O)[O-]
REMARK SMILES IDX 13 1 14 2 15 3 16 4 17 5 18 6 19 7 20 8 21 9 22 10 23 11
REMARK SMILES IDX 24 12 25 13 26 14 12 15 11 16 10 17 9 18 8 19 7 20 6 21 5 22
REMARK SMILES IDX 4 23 3 24 2 25 1 26
REMARK H PARENT
REMARK Flexibility Score: inf
ROOT
ATOM      1  C   UNL     1      84.182  55.684   7.973  1.00  0.00     0.000 C 
ENDROOT
BRANCH   1   2
ATOM      2  C   UNL     1      85.469  55.001   7.477  1.00  0.00     0.000 C 
BRANCH   2   3
ATOM      3  C   UNL     1      86.676  55.939   7.280  1.00  0.00     0.000 C 
BRANCH   3   4
ATOM      4  C   UNL     1      87.940  55.550   8.072  1.00  0.00     0.000 C 
BRANCH   4   5
ATOM      5  C   UNL     1      87.676  54.822   9.406  1.00  0.00     0.000 C 
BRANCH   5   6
ATOM      6  C   UNL     1      87.209  55.723  10.564  1.00  0.00     0.000 C 
BRANCH   6   7
ATOM      7  C   UNL     1      87.911  57.092  10.578  1.00  0.00     0.000 C 
BRANCH   7   8
ATOM      8  C   UNL     1      86.924  58.273  10.537  1.00  0.00     0.000 C 
BRANCH   8   9
ATOM      9  C   UNL     1      85.441  57.897  10.715  1.00  0.00     0.000 C 
BRANCH   9  10
ATOM     10  C   UNL     1      84.501  58.726   9.824  1.00  0.00     0.006 C 
BRANCH  10  11
ATOM     11  C   UNL     1      83.067  58.765  10.372  1.00  0.00     0.053 C 
BRANCH  11  12
ATOM     12  C   UNL     1      82.771  60.056  11.070  1.00  0.00     0.041 C 
ATOM     13  O   UNL     1      82.192  60.054  12.188  1.00  0.00    -0.550 OA
ATOM     14  O   UNL     1      83.102  61.264  10.470  1.00  0.00    -0.550 OA
ENDBRANCH  11  12
ENDBRANCH  10  11
ENDBRANCH   9  10
ENDBRANCH   8   9
ENDBRANCH   7   8
ENDBRANCH   6   7
ENDBRANCH   5   6
ENDBRANCH   4   5
ENDBRANCH   3   4
ENDBRANCH   2   3
ENDBRANCH   1   2
BRANCH   1  15
ATOM     15  C   UNL     1      83.190  54.698   8.611  1.00  0.00     0.000 C 
BRANCH  15  16
ATOM     16  C   UNL     1      83.097  54.847  10.141  1.00  0.00     0.000 C 
BRANCH  16  17
ATOM     17  C   UNL     1      81.667  54.954  10.707  1.00  0.00     0.000 C 
BRANCH  17  18
ATOM     18  C   UNL     1      80.791  56.050  10.069  1.00  0.00    -0.000 C 
BRANCH  18  19
ATOM     19  C   UNL     1      79.500  56.382  10.844  1.00  0.00    -0.000 C 
BRANCH  19  20
ATOM     20  C   UNL     1      78.190  56.063  10.096  1.00  0.00    -0.000 C 
BRANCH  20  21
ATOM     21  C   UNL     1      78.007  56.811   8.764  1.00  0.00    -0.000 C 
BRANCH  21  22
ATOM     22  C   UNL     1      78.072  55.879   7.544  1.00  0.00    -0.000 C 
BRANCH  22  23
ATOM     23  C   UNL     1      78.104  54.390   7.931  1.00  0.00    -0.000 C 
BRANCH  23  24
ATOM     24  C   UNL     1      79.420  53.659   7.596  1.00  0.00    -0.000 C 
BRANCH  24  25
ATOM     25  C   UNL     1      79.809  52.539   8.577  1.00  0.00    -0.003 C 
ATOM     26  C   UNL     1      79.673  51.143   7.971  1.00  0.00     0.004 C 
ENDBRANCH  24  25
ENDBRANCH  23  24
ENDBRANCH  22  23
ENDBRANCH  21  22
ENDBRANCH  20  21
ENDBRANCH  19  20
ENDBRANCH  18  19
ENDBRANCH  17  18
ENDBRANCH  16  17
ENDBRANCH  15  16
ENDBRANCH   1  15
TORSDOF 22
ENDMDL
