MODEL 1
REMARK VINA RESULT:    -4.649      0.000      0.000
REMARK INTER + INTRA:         -10.326
REMARK INTER:                  -8.455
REMARK INTRA:                  -1.871
REMARK UNBOUND:                -1.871
REMARK SMILES CCCCCCCCCCCCCC[C@@H](C)C(=O)[O-]
REMARK SMILES IDX 9 1 10 2 11 3 12 4 13 5 14 6 15 7 16 8 17 9 18 10 19 11 8 12
REMARK SMILES IDX 7 13 6 14 5 15 4 16 3 17 2 18 1 19
REMARK H PARENT
REMARK Flexibility Score: inf
ROOT
ATOM      1  C   UNL     1      86.329  77.738  73.065  1.00  0.00     0.000 C 
ENDROOT
BRANCH   1   2
ATOM      2  C   UNL     1      85.447  76.644  73.686  1.00  0.00     0.000 C 
BRANCH   2   3
ATOM      3  C   UNL     1      85.941  75.221  73.371  1.00  0.00     0.000 C 
BRANCH   3   4
ATOM      4  C   UNL     1      85.411  74.125  74.313  1.00  0.00     0.000 C 
BRANCH   4   5
ATOM      5  C   UNL     1      86.527  73.246  74.897  1.00  0.00     0.001 C 
BRANCH   5   6
ATOM      6  C   UNL     1      87.835  74.042  75.038  1.00  0.00     0.009 C 
BRANCH   6   7
ATOM      7  C   UNL     1      89.032  73.348  74.353  1.00  0.00     0.032 C 
ATOM      8  C   UNL     1      89.085  73.630  72.845  1.00  0.00     0.014 C 
BRANCH   7   9
ATOM      9  C   UNL     1      90.318  73.787  74.998  1.00  0.00     0.044 C 
ATOM     10  O   UNL     1      91.269  72.974  75.149  1.00  0.00    -0.550 OA
ATOM     11  O   UNL     1      90.464  75.099  75.431  1.00  0.00    -0.550 OA
ENDBRANCH   7   9
ENDBRANCH   6   7
ENDBRANCH   5   6
ENDBRANCH   4   5
ENDBRANCH   3   4
ENDBRANCH   2   3
ENDBRANCH   1   2
BRANCH   1  12
ATOM     12  C   UNL     1      87.511  77.122  72.301  1.00  0.00     0.000 C 
BRANCH  12  13
ATOM     13  C   UNL     1      88.846  77.271  73.049  1.00  0.00    -0.000 C 
BRANCH  13  14
ATOM     14  C   UNL     1      90.054  76.852  72.193  1.00  0.00    -0.000 C 
BRANCH  14  15
ATOM     15  C   UNL     1      89.794  77.022  70.687  1.00  0.00    -0.000 C 
BRANCH  15  16
ATOM     16  C   UNL     1      90.822  76.269  69.823  1.00  0.00    -0.000 C 
BRANCH  16  17
ATOM     17  C   UNL     1      90.541  74.757  69.742  1.00  0.00    -0.000 C 
BRANCH  17  18
ATOM     18  C   UNL     1      89.122  74.385  69.276  1.00  0.00    -0.003 C 
ATOM     19  C   UNL     1      88.847  72.882  69.339  1.00  0.00     0.004 C 
ENDBRANCH  17  18
ENDBRANCH  16  17
ENDBRANCH  15  16
ENDBRANCH  14  15
ENDBRANCH  13  14
ENDBRANCH  12  13
ENDBRANCH   1  12
TORSDOF 14
ENDMDL
MODEL 2
REMARK VINA RESULT:    -4.383     12.231     14.253
REMARK INTER + INTRA:          -9.842
REMARK INTER:                  -8.890
REMARK INTRA:                  -0.951
REMARK UNBOUND:                -1.871
REMARK SMILES CCCCCCCCCCCCCC[C@@H](C)C(=O)[O-]
REMARK SMILES IDX 9 1 10 2 11 3 12 4 13 5 14 6 15 7 16 8 17 9 18 10 19 11 8 12
REMARK SMILES IDX 7 13 6 14 5 15 4 16 3 17 2 18 1 19
REMARK H PARENT
REMARK Flexibility Score: inf
ROOT
ATOM      1  C   UNL     1      93.814  84.983  79.301  1.00  0.00     0.000 C 
ENDROOT
BRANCH   1   2
ATOM      2  C   UNL     1      95.298  84.861  78.925  1.00  0.00     0.000 C 
BRANCH   2   3
ATOM      3  C   UNL     1      96.242  85.084  80.119  1.00  0.00     0.000 C 
BRANCH   3   4
ATOM      4  C   UNL     1      97.521  84.227  80.106  1.00  0.00     0.000 C 
BRANCH   4   5
ATOM      5  C   UNL     1      97.291  82.798  80.621  1.00  0.00     0.001 C 
BRANCH   5   6
ATOM      6  C   UNL     1      98.251  82.469  81.775  1.00  0.00     0.009 C 
BRANCH   6   7
ATOM      7  C   UNL     1      98.957  83.721  82.339  1.00  0.00     0.032 C 
ATOM      8  C   UNL     1      98.326  84.204  83.653  1.00  0.00     0.014 C 
BRANCH   7   9
ATOM      9  C   UNL     1     100.418  83.435  82.551  1.00  0.00     0.044 C 
ATOM     10  O   UNL     1     100.995  83.800  83.611  1.00  0.00    -0.550 OA
ATOM     11  O   UNL     1     101.142  82.763  81.575  1.00  0.00    -0.550 OA
ENDBRANCH   7   9
ENDBRANCH   6   7
ENDBRANCH   5   6
ENDBRANCH   4   5
ENDBRANCH   3   4
ENDBRANCH   2   3
ENDBRANCH   1   2
BRANCH   1  12
ATOM     12  C   UNL     1      93.191  83.598  79.534  1.00  0.00     0.000 C 
BRANCH  12  13
ATOM     13  C   UNL     1      92.633  83.427  80.956  1.00  0.00    -0.000 C 
BRANCH  13  14
ATOM     14  C   UNL     1      91.096  83.348  80.983  1.00  0.00    -0.000 C 
BRANCH  14  15
ATOM     15  C   UNL     1      90.466  83.678  79.619  1.00  0.00    -0.000 C 
BRANCH  15  16
ATOM     16  C   UNL     1      88.945  83.890  79.709  1.00  0.00    -0.000 C 
BRANCH  16  17
ATOM     17  C   UNL     1      88.148  82.583  79.549  1.00  0.00    -0.000 C 
BRANCH  17  18
ATOM     18  C   UNL     1      87.585  82.002  80.858  1.00  0.00    -0.003 C 
ATOM     19  C   UNL     1      87.278  80.507  80.767  1.00  0.00     0.004 C 
ENDBRANCH  17  18
ENDBRANCH  16  17
ENDBRANCH  15  16
ENDBRANCH  14  15
ENDBRANCH  13  14
ENDBRANCH  12  13
ENDBRANCH   1  12
TORSDOF 14
ENDMDL
MODEL 3
REMARK VINA RESULT:    -4.313     10.153     12.381
REMARK INTER + INTRA:          -9.714
REMARK INTER:                  -7.596
REMARK INTRA:                  -2.117
REMARK UNBOUND:                -1.871
REMARK SMILES CCCCCCCCCCCCCC[C@@H](C)C(=O)[O-]
REMARK SMILES IDX 9 1 10 2 11 3 12 4 13 5 14 6 15 7 16 8 17 9 18 10 19 11 8 12
REMARK SMILES IDX 7 13 6 14 5 15 4 16 3 17 2 18 1 19
REMARK H PARENT
REMARK Flexibility Score: inf
ROOT
ATOM      1  C   UNL     1      89.062  83.918  81.585  1.00  0.00     0.000 C 
ENDROOT
BRANCH   1   2
ATOM      2  C   UNL     1      90.326  83.391  80.888  1.00  0.00     0.000 C 
BRANCH   2   3
ATOM      3  C   UNL     1      90.389  83.760  79.396  1.00  0.00     0.000 C 
BRANCH   3   4
ATOM      4  C   UNL     1      91.436  84.830  79.034  1.00  0.00     0.000 C 
BRANCH   4   5
ATOM      5  C   UNL     1      92.859  84.263  78.923  1.00  0.00     0.001 C 
BRANCH   5   6
ATOM      6  C   UNL     1      93.760  84.820  80.037  1.00  0.00     0.009 C 
BRANCH   6   7
ATOM      7  C   UNL     1      94.608  83.726  80.721  1.00  0.00     0.032 C 
ATOM      8  C   UNL     1      94.053  82.317  80.471  1.00  0.00     0.014 C 
BRANCH   7   9
ATOM      9  C   UNL     1      96.031  83.805  80.241  1.00  0.00     0.044 C 
ATOM     10  O   UNL     1      96.435  84.811  79.598  1.00  0.00    -0.550 OA
ATOM     11  O   UNL     1      96.911  82.763  80.506  1.00  0.00    -0.550 OA
ENDBRANCH   7   9
ENDBRANCH   6   7
ENDBRANCH   5   6
ENDBRANCH   4   5
ENDBRANCH   3   4
ENDBRANCH   2   3
ENDBRANCH   1   2
BRANCH   1  12
ATOM     12  C   UNL     1      88.491  85.134  80.839  1.00  0.00     0.000 C 
BRANCH  12  13
ATOM     13  C   UNL     1      86.988  85.000  80.547  1.00  0.00    -0.000 C 
BRANCH  13  14
ATOM     14  C   UNL     1      86.673  85.029  79.041  1.00  0.00    -0.000 C 
BRANCH  14  15
ATOM     15  C   UNL     1      86.902  83.666  78.366  1.00  0.00    -0.000 C 
BRANCH  15  16
ATOM     16  C   UNL     1      86.337  82.497  79.193  1.00  0.00    -0.000 C 
BRANCH  16  17
ATOM     17  C   UNL     1      87.401  81.439  79.538  1.00  0.00    -0.000 C 
BRANCH  17  18
ATOM     18  C   UNL     1      87.177  80.703  80.870  1.00  0.00    -0.003 C 
ATOM     19  C   UNL     1      86.282  81.476  81.838  1.00  0.00     0.004 C 
ENDBRANCH  17  18
ENDBRANCH  16  17
ENDBRANCH  15  16
ENDBRANCH  14  15
ENDBRANCH  13  14
ENDBRANCH  12  13
ENDBRANCH   1  12
TORSDOF 14
ENDMDL
MODEL 4
REMARK VINA RESULT:    -4.251     15.083     17.331
REMARK INTER + INTRA:          -9.602
REMARK INTER:                  -7.243
REMARK INTRA:                  -2.360
REMARK UNBOUND:                -1.871
REMARK SMILES CCCCCCCCCCCCCC[C@@H](C)C(=O)[O-]
REMARK SMILES IDX 9 1 10 2 11 3 12 4 13 5 14 6 15 7 16 8 17 9 18 10 19 11 8 12
REMARK SMILES IDX 7 13 6 14 5 15 4 16 3 17 2 18 1 19
REMARK H PARENT
REMARK Flexibility Score: inf
ROOT
ATOM      1  C   UNL     1     101.029  84.605  82.770  1.00  0.00     0.000 C 
ENDROOT
BRANCH   1   2
ATOM      2  C   UNL     1     100.538  83.217  82.331  1.00  0.00     0.000 C 
BRANCH   2   3
ATOM      3  C   UNL     1      99.337  83.280  81.371  1.00  0.00     0.000 C 
BRANCH   3   4
ATOM      4  C   UNL     1      98.111  82.458  81.808  1.00  0.00     0.000 C 
BRANCH   4   5
ATOM      5  C   UNL     1      96.943  82.549  80.814  1.00  0.00     0.001 C 
BRANCH   5   6
ATOM      6  C   UNL     1      96.848  83.957  80.206  1.00  0.00     0.009 C 
BRANCH   6   7
ATOM      7  C   UNL     1      95.426  84.299  79.710  1.00  0.00     0.032 C 
ATOM      8  C   UNL     1      94.374  84.167  80.821  1.00  0.00     0.014 C 
BRANCH   7   9
ATOM      9  C   UNL     1      95.399  85.693  79.147  1.00  0.00     0.044 C 
ATOM     10  O   UNL     1      94.980  85.903  77.977  1.00  0.00    -0.550 OA
ATOM     11  O   UNL     1      95.838  86.761  79.919  1.00  0.00    -0.550 OA
ENDBRANCH   7   9
ENDBRANCH   6   7
ENDBRANCH   5   6
ENDBRANCH   4   5
ENDBRANCH   3   4
ENDBRANCH   2   3
ENDBRANCH   1   2
BRANCH   1  12
ATOM     12  C   UNL     1     101.432  84.601  84.253  1.00  0.00     0.000 C 
BRANCH  12  13
ATOM     13  C   UNL     1     100.660  83.558  85.076  1.00  0.00    -0.000 C 
BRANCH  13  14
ATOM     14  C   UNL     1     100.256  84.082  86.466  1.00  0.00    -0.000 C 
BRANCH  14  15
ATOM     15  C   UNL     1      98.793  84.553  86.515  1.00  0.00    -0.000 C 
BRANCH  15  16
ATOM     16  C   UNL     1      97.995  84.124  85.271  1.00  0.00    -0.000 C 
BRANCH  16  17
ATOM     17  C   UNL     1      96.740  84.985  85.039  1.00  0.00    -0.000 C 
BRANCH  17  18
ATOM     18  C   UNL     1      96.536  85.458  83.589  1.00  0.00    -0.003 C 
ATOM     19  C   UNL     1      97.725  86.250  83.044  1.00  0.00     0.004 C 
ENDBRANCH  17  18
ENDBRANCH  16  17
ENDBRANCH  15  16
ENDBRANCH  14  15
ENDBRANCH  13  14
ENDBRANCH  12  13
ENDBRANCH   1  12
TORSDOF 14
ENDMDL
MODEL 5
REMARK VINA RESULT:    -4.228     13.547     15.661
REMARK INTER + INTRA:          -9.559
REMARK INTER:                  -7.567
REMARK INTRA:                  -1.992
REMARK UNBOUND:                -1.871
REMARK SMILES CCCCCCCCCCCCCC[C@@H](C)C(=O)[O-]
REMARK SMILES IDX 9 1 10 2 11 3 12 4 13 5 14 6 15 7 16 8 17 9 18 10 19 11 8 12
REMARK SMILES IDX 7 13 6 14 5 15 4 16 3 17 2 18 1 19
REMARK H PARENT
REMARK Flexibility Score: inf
ROOT
ATOM      1  C   UNL     1      95.209  85.114  80.502  1.00  0.00     0.000 C 
ENDROOT
BRANCH   1   2
ATOM      2  C   UNL     1      96.652  85.482  80.123  1.00  0.00     0.000 C 
BRANCH   2   3
ATOM      3  C   UNL     1      97.567  84.253  79.977  1.00  0.00     0.000 C 
BRANCH   3   4
ATOM      4  C   UNL     1      97.057  82.975  80.667  1.00  0.00     0.000 C 
BRANCH   4   5
ATOM      5  C   UNL     1      98.131  82.286  81.522  1.00  0.00     0.001 C 
BRANCH   5   6
ATOM      6  C   UNL     1      99.430  83.108  81.538  1.00  0.00     0.009 C 
BRANCH   6   7
ATOM      7  C   UNL     1      99.817  83.584  82.956  1.00  0.00     0.032 C 
ATOM      8  C   UNL     1     101.270  84.073  83.030  1.00  0.00     0.014 C 
BRANCH   7   9
ATOM      9  C   UNL     1      98.888  84.679  83.401  1.00  0.00     0.044 C 
ATOM     10  O   UNL     1      98.001  84.454  84.268  1.00  0.00    -0.550 OA
ATOM     11  O   UNL     1      99.005  85.952  82.856  1.00  0.00    -0.550 OA
ENDBRANCH   7   9
ENDBRANCH   6   7
ENDBRANCH   5   6
ENDBRANCH   4   5
ENDBRANCH   3   4
ENDBRANCH   2   3
ENDBRANCH   1   2
BRANCH   1  12
ATOM     12  C   UNL     1      94.327  84.993  79.250  1.00  0.00     0.000 C 
BRANCH  12  13
ATOM     13  C   UNL     1      93.313  83.842  79.345  1.00  0.00    -0.000 C 
BRANCH  13  14
ATOM     14  C   UNL     1      93.250  83.224  80.754  1.00  0.00    -0.000 C 
BRANCH  14  15
ATOM     15  C   UNL     1      91.814  83.139  81.295  1.00  0.00    -0.000 C 
BRANCH  15  16
ATOM     16  C   UNL     1      91.622  83.952  82.588  1.00  0.00    -0.000 C 
BRANCH  16  17
ATOM     17  C   UNL     1      91.616  85.472  82.343  1.00  0.00    -0.000 C 
BRANCH  17  18
ATOM     18  C   UNL     1      92.784  86.238  82.989  1.00  0.00    -0.003 C 
ATOM     19  C   UNL     1      93.652  85.359  83.889  1.00  0.00     0.004 C 
ENDBRANCH  17  18
ENDBRANCH  16  17
ENDBRANCH  15  16
ENDBRANCH  14  15
ENDBRANCH  13  14
ENDBRANCH  12  13
ENDBRANCH   1  12
TORSDOF 14
ENDMDL
MODEL 6
REMARK VINA RESULT:    -4.196     12.025     14.085
REMARK INTER + INTRA:          -9.502
REMARK INTER:                  -8.427
REMARK INTRA:                  -1.075
REMARK UNBOUND:                -1.871
REMARK SMILES CCCCCCCCCCCCCC[C@@H](C)C(=O)[O-]
REMARK SMILES IDX 9 1 10 2 11 3 12 4 13 5 14 6 15 7 16 8 17 9 18 10 19 11 8 12
REMARK SMILES IDX 7 13 6 14 5 15 4 16 3 17 2 18 1 19
REMARK H PARENT
REMARK Flexibility Score: inf
ROOT
ATOM      1  C   UNL     1      93.424  83.339  80.204  1.00  0.00     0.000 C 
ENDROOT
BRANCH   1   2
ATOM      2  C   UNL     1      94.844  83.800  80.566  1.00  0.00     0.000 C 
BRANCH   2   3
ATOM      3  C   UNL     1      95.059  85.309  80.355  1.00  0.00     0.000 C 
BRANCH   3   4
ATOM      4  C   UNL     1      96.483  85.709  79.928  1.00  0.00     0.000 C 
BRANCH   4   5
ATOM      5  C   UNL     1      97.507  84.581  80.124  1.00  0.00     0.001 C 
BRANCH   5   6
ATOM      6  C   UNL     1      98.364  84.831  81.376  1.00  0.00     0.009 C 
BRANCH   6   7
ATOM      7  C   UNL     1      98.585  83.551  82.212  1.00  0.00     0.032 C 
ATOM      8  C   UNL     1      98.098  82.289  81.486  1.00  0.00     0.014 C 
BRANCH   7   9
ATOM      9  C   UNL     1     100.043  83.409  82.556  1.00  0.00     0.044 C 
ATOM     10  O   UNL     1     100.483  83.827  83.661  1.00  0.00    -0.550 OA
ATOM     11  O   UNL     1     100.914  82.812  81.654  1.00  0.00    -0.550 OA
ENDBRANCH   7   9
ENDBRANCH   6   7
ENDBRANCH   5   6
ENDBRANCH   4   5
ENDBRANCH   3   4
ENDBRANCH   2   3
ENDBRANCH   1   2
BRANCH   1  12
ATOM     12  C   UNL     1      92.843  84.192  79.066  1.00  0.00     0.000 C 
BRANCH  12  13
ATOM     13  C   UNL     1      91.313  84.089  78.967  1.00  0.00    -0.000 C 
BRANCH  13  14
ATOM     14  C   UNL     1      90.591  85.046  79.933  1.00  0.00    -0.000 C 
BRANCH  14  15
ATOM     15  C   UNL     1      89.260  84.471  80.444  1.00  0.00    -0.000 C 
BRANCH  15  16
ATOM     16  C   UNL     1      89.262  82.933  80.493  1.00  0.00    -0.000 C 
BRANCH  16  17
ATOM     17  C   UNL     1      88.065  82.310  79.753  1.00  0.00    -0.000 C 
BRANCH  17  18
ATOM     18  C   UNL     1      87.110  81.489  80.639  1.00  0.00    -0.003 C 
ATOM     19  C   UNL     1      86.808  80.103  80.070  1.00  0.00     0.004 C 
ENDBRANCH  17  18
ENDBRANCH  16  17
ENDBRANCH  15  16
ENDBRANCH  14  15
ENDBRANCH  13  14
ENDBRANCH  12  13
ENDBRANCH   1  12
TORSDOF 14
ENDMDL
MODEL 7
REMARK VINA RESULT:    -4.183     13.235     15.272
REMARK INTER + INTRA:          -9.478
REMARK INTER:                  -7.868
REMARK INTRA:                  -1.611
REMARK UNBOUND:                -1.871
REMARK SMILES CCCCCCCCCCCCCC[C@@H](C)C(=O)[O-]
REMARK SMILES IDX 9 1 10 2 11 3 12 4 13 5 14 6 15 7 16 8 17 9 18 10 19 11 8 12
REMARK SMILES IDX 7 13 6 14 5 15 4 16 3 17 2 18 1 19
REMARK H PARENT
REMARK Flexibility Score: inf
ROOT
ATOM      1  C   UNL     1      94.610  82.895  80.442  1.00  0.00     0.000 C 
ENDROOT
BRANCH   1   2
ATOM      2  C   UNL     1      95.498  84.148  80.496  1.00  0.00     0.000 C 
BRANCH   2   3
ATOM      3  C   UNL     1      96.978  83.849  80.198  1.00  0.00     0.000 C 
BRANCH   3   4
ATOM      4  C   UNL     1      97.520  82.554  80.830  1.00  0.00     0.000 C 
BRANCH   4   5
ATOM      5  C   UNL     1      98.757  82.790  81.710  1.00  0.00     0.001 C 
BRANCH   5   6
ATOM      6  C   UNL     1      98.475  83.861  82.777  1.00  0.00     0.009 C 
BRANCH   6   7
ATOM      7  C   UNL     1      99.658  84.834  82.972  1.00  0.00     0.032 C 
ATOM      8  C   UNL     1      99.396  85.855  84.088  1.00  0.00     0.014 C 
BRANCH   7   9
ATOM      9  C   UNL     1     100.914  84.062  83.273  1.00  0.00     0.044 C 
ATOM     10  O   UNL     1     101.897  84.106  82.485  1.00  0.00    -0.550 OA
ATOM     11  O   UNL     1     100.995  83.294  84.427  1.00  0.00    -0.550 OA
ENDBRANCH   7   9
ENDBRANCH   6   7
ENDBRANCH   5   6
ENDBRANCH   4   5
ENDBRANCH   3   4
ENDBRANCH   2   3
ENDBRANCH   1   2
BRANCH   1  12
ATOM     12  C   UNL     1      93.437  83.096  79.469  1.00  0.00     0.000 C 
BRANCH  12  13
ATOM     13  C   UNL     1      93.167  84.577  79.161  1.00  0.00    -0.000 C 
BRANCH  13  14
ATOM     14  C   UNL     1      91.705  84.980  79.425  1.00  0.00    -0.000 C 
BRANCH  14  15
ATOM     15  C   UNL     1      90.727  83.811  79.218  1.00  0.00    -0.000 C 
BRANCH  15  16
ATOM     16  C   UNL     1      90.009  83.407  80.518  1.00  0.00    -0.000 C 
BRANCH  16  17
ATOM     17  C   UNL     1      90.380  84.306  81.711  1.00  0.00    -0.000 C 
BRANCH  17  18
ATOM     18  C   UNL     1      91.288  83.646  82.763  1.00  0.00    -0.003 C 
ATOM     19  C   UNL     1      92.544  84.464  83.067  1.00  0.00     0.004 C 
ENDBRANCH  17  18
ENDBRANCH  16  17
ENDBRANCH  15  16
ENDBRANCH  14  15
ENDBRANCH  13  14
ENDBRANCH  12  13
ENDBRANCH   1  12
TORSDOF 14
ENDMDL
MODEL 8
REMARK VINA RESULT:    -4.176     13.948     15.866
REMARK INTER + INTRA:          -9.464
REMARK INTER:                  -8.172
REMARK INTRA:                  -1.292
REMARK UNBOUND:                -1.871
REMARK SMILES CCCCCCCCCCCCCC[C@@H](C)C(=O)[O-]
REMARK SMILES IDX 9 1 10 2 11 3 12 4 13 5 14 6 15 7 16 8 17 9 18 10 19 11 8 12
REMARK SMILES IDX 7 13 6 14 5 15 4 16 3 17 2 18 1 19
REMARK H PARENT
REMARK Flexibility Score: inf
ROOT
ATOM      1  C   UNL     1      96.594  85.183  81.106  1.00  0.00     0.000 C 
ENDROOT
BRANCH   1   2
ATOM      2  C   UNL     1      97.428  84.344  80.125  1.00  0.00     0.000 C 
BRANCH   2   3
ATOM      3  C   UNL     1      97.496  82.857  80.513  1.00  0.00     0.000 C 
BRANCH   3   4
ATOM      4  C   UNL     1      98.240  82.561  81.828  1.00  0.00     0.000 C 
BRANCH   4   5
ATOM      5  C   UNL     1      99.750  82.824  81.733  1.00  0.00     0.001 C 
BRANCH   5   6
ATOM      6  C   UNL     1     100.315  83.273  83.091  1.00  0.00     0.009 C 
BRANCH   6   7
ATOM      7  C   UNL     1     101.077  84.614  83.006  1.00  0.00     0.032 C 
ATOM      8  C   UNL     1     100.254  85.709  82.313  1.00  0.00     0.014 C 
BRANCH   7   9
ATOM      9  C   UNL     1     101.472  85.069  84.384  1.00  0.00     0.044 C 
ATOM     10  O   UNL     1     101.400  84.279  85.364  1.00  0.00    -0.550 OA
ATOM     11  O   UNL     1     101.920  86.368  84.584  1.00  0.00    -0.550 OA
ENDBRANCH   7   9
ENDBRANCH   6   7
ENDBRANCH   5   6
ENDBRANCH   4   5
ENDBRANCH   3   4
ENDBRANCH   2   3
ENDBRANCH   1   2
BRANCH   1  12
ATOM     12  C   UNL     1      95.500  85.968  80.364  1.00  0.00     0.000 C 
BRANCH  12  13
ATOM     13  C   UNL     1      95.054  85.281  79.063  1.00  0.00    -0.000 C 
BRANCH  13  14
ATOM     14  C   UNL     1      93.547  84.971  79.045  1.00  0.00    -0.000 C 
BRANCH  14  15
ATOM     15  C   UNL     1      93.245  83.503  79.389  1.00  0.00    -0.000 C 
BRANCH  15  16
ATOM     16  C   UNL     1      93.147  83.262  80.906  1.00  0.00    -0.000 C 
BRANCH  16  17
ATOM     17  C   UNL     1      91.712  83.408  81.444  1.00  0.00    -0.000 C 
BRANCH  17  18
ATOM     18  C   UNL     1      90.652  83.750  80.381  1.00  0.00    -0.003 C 
ATOM     19  C   UNL     1      89.314  83.052  80.623  1.00  0.00     0.004 C 
ENDBRANCH  17  18
ENDBRANCH  16  17
ENDBRANCH  15  16
ENDBRANCH  14  15
ENDBRANCH  13  14
ENDBRANCH  12  13
ENDBRANCH   1  12
TORSDOF 14
ENDMDL
MODEL 9
REMARK VINA RESULT:    -4.166     10.922     12.810
REMARK INTER + INTRA:          -9.446
REMARK INTER:                  -8.258
REMARK INTRA:                  -1.188
REMARK UNBOUND:                -1.871
REMARK SMILES CCCCCCCCCCCCCC[C@@H](C)C(=O)[O-]
REMARK SMILES IDX 9 1 10 2 11 3 12 4 13 5 14 6 15 7 16 8 17 9 18 10 19 11 8 12
REMARK SMILES IDX 7 13 6 14 5 15 4 16 3 17 2 18 1 19
REMARK H PARENT
REMARK Flexibility Score: inf
ROOT
ATOM      1  C   UNL     1      92.876  83.004  80.781  1.00  0.00     0.000 C 
ENDROOT
BRANCH   1   2
ATOM      2  C   UNL     1      91.619  83.503  81.511  1.00  0.00     0.000 C 
BRANCH   2   3
ATOM      3  C   UNL     1      90.780  84.478  80.666  1.00  0.00     0.000 C 
BRANCH   3   4
ATOM      4  C   UNL     1      89.258  84.261  80.743  1.00  0.00     0.000 C 
BRANCH   4   5
ATOM      5  C   UNL     1      88.868  82.777  80.825  1.00  0.00     0.001 C 
BRANCH   5   6
ATOM      6  C   UNL     1      88.396  82.257  79.458  1.00  0.00     0.009 C 
BRANCH   6   7
ATOM      7  C   UNL     1      87.146  81.356  79.562  1.00  0.00     0.032 C 
ATOM      8  C   UNL     1      87.139  80.514  80.845  1.00  0.00     0.014 C 
BRANCH   7   9
ATOM      9  C   UNL     1      85.900  82.198  79.499  1.00  0.00     0.044 C 
ATOM     10  O   UNL     1      85.427  82.560  78.388  1.00  0.00    -0.550 OA
ATOM     11  O   UNL     1      85.263  82.581  80.672  1.00  0.00    -0.550 OA
ENDBRANCH   7   9
ENDBRANCH   6   7
ENDBRANCH   5   6
ENDBRANCH   4   5
ENDBRANCH   3   4
ENDBRANCH   2   3
ENDBRANCH   1   2
BRANCH   1  12
ATOM     12  C   UNL     1      93.053  83.726  79.437  1.00  0.00     0.000 C 
BRANCH  12  13
ATOM     13  C   UNL     1      94.380  84.496  79.345  1.00  0.00    -0.000 C 
BRANCH  13  14
ATOM     14  C   UNL     1      94.713  85.257  80.641  1.00  0.00    -0.000 C 
BRANCH  14  15
ATOM     15  C   UNL     1      95.929  84.666  81.374  1.00  0.00    -0.000 C 
BRANCH  15  16
ATOM     16  C   UNL     1      96.882  83.918  80.425  1.00  0.00    -0.000 C 
BRANCH  16  17
ATOM     17  C   UNL     1      97.153  82.469  80.869  1.00  0.00    -0.000 C 
BRANCH  17  18
ATOM     18  C   UNL     1      98.383  82.287  81.776  1.00  0.00    -0.003 C 
ATOM     19  C   UNL     1      99.414  83.405  81.618  1.00  0.00     0.004 C 
ENDBRANCH  17  18
ENDBRANCH  16  17
ENDBRANCH  15  16
ENDBRANCH  14  15
ENDBRANCH  13  14
ENDBRANCH  12  13
ENDBRANCH   1  12
TORSDOF 14
ENDMDL
