MODEL 1
REMARK VINA RESULT:    -6.384      0.000      0.000
REMARK INTER + INTRA:         -13.210
REMARK INTER:                 -11.049
REMARK INTRA:                  -2.162
REMARK UNBOUND:                -2.162
REMARK SMILES OC[C@@H]1O[C@@H](O[C@H]2[C@@H](O)[C@@H](O)[C@H](O[C@@H]3[C@@H](O)[C@@H](O)[C@@H](O)O[C@H]3CO)O[C@H]2CO)[C@H](O)[C@H](O)[C@@H]1O
REMARK SMILES IDX 7 1 26 2 25 3 12 4 10 5 8 6 6 7 5 8 3 9 33 10 4 11 31 12
REMARK SMILES IDX 29 13 2 14 1 15 34 17 32 19 30 21 27 23 28 24 9 26 11 28
REMARK SMILES IDX 13 30 14 31 22 32 15 33 21 34 17 35 19 36 23 37 24 38 16 40
REMARK SMILES IDX 18 42 20 44
REMARK H PARENT 1 16 34 18 32 20 30 22 28 25 9 27 11 29 24 39 16 41 18 43
REMARK H PARENT 20 45
REMARK Flexibility Score: inf
ROOT
ATOM      1  C   UNL     1     -12.388  45.618  34.673  1.00  0.00     0.184 C 
ATOM      2  C   UNL     1     -12.529  44.972  33.222  1.00  0.00     0.178 C 
ATOM      3  O   UNL     1     -12.738  45.927  32.129  1.00  0.00    -0.341 OA
ATOM      4  C   UNL     1     -12.370  47.320  32.396  1.00  0.00     0.282 C 
ATOM      5  C   UNL     1     -11.092  47.396  33.275  1.00  0.00     0.202 C 
ATOM      6  C   UNL     1     -11.198  46.609  34.629  1.00  0.00     0.180 C 
ENDROOT
BRANCH   1   7
ATOM      7  O   UNL     1     -12.335  44.654  35.776  1.00  0.00    -0.341 OA
BRANCH   7   8
ATOM      8  C   UNL     1     -13.542  44.664  36.665  1.00  0.00     0.282 C 
ATOM      9  C   UNL     1     -13.438  43.229  38.754  1.00  0.00     0.178 C 
ATOM     10  C   UNL     1     -14.713  42.426  38.388  1.00  0.00     0.177 C 
ATOM     11  O   UNL     1     -13.229  44.527  38.076  1.00  0.00    -0.341 OA
ATOM     12  C   UNL     1     -15.518  43.170  37.317  1.00  0.00     0.179 C 
ATOM     13  C   UNL     1     -14.558  43.639  36.170  1.00  0.00     0.202 C 
BRANCH   9  14
ATOM     14  C   UNL     1     -13.281  43.503  40.282  1.00  0.00     0.191 C 
BRANCH  14  15
ATOM     15  O   UNL     1     -11.902  43.856  40.547  1.00  0.00    -0.394 OA
ATOM     16  H   UNL     1     -11.936  44.401  41.401  1.00  0.00     0.210 HD
ENDBRANCH  14  15
ENDBRANCH   9  14
BRANCH  10  17
ATOM     17  O   UNL     1     -15.546  41.868  39.482  1.00  0.00    -0.387 OA
ATOM     18  H   UNL     1     -15.772  42.608  40.177  1.00  0.00     0.211 HD
ENDBRANCH  10  17
BRANCH  12  19
ATOM     19  O   UNL     1     -16.131  44.290  37.835  1.00  0.00    -0.387 OA
ATOM     20  H   UNL     1     -16.794  44.604  37.258  1.00  0.00     0.211 HD
ENDBRANCH  12  19
BRANCH  13  21
ATOM     21  O   UNL     1     -15.284  44.069  35.025  1.00  0.00    -0.385 OA
ATOM     22  H   UNL     1     -15.738  44.916  35.189  1.00  0.00     0.211 HD
ENDBRANCH  13  21
ENDBRANCH   7   8
ENDBRANCH   1   7
BRANCH   2  23
ATOM     23  C   UNL     1     -11.301  44.069  32.807  1.00  0.00     0.191 C 
BRANCH  23  24
ATOM     24  O   UNL     1     -10.907  43.243  33.833  1.00  0.00    -0.394 OA
ATOM     25  H   UNL     1     -10.117  42.773  33.494  1.00  0.00     0.210 HD
ENDBRANCH  23  24
ENDBRANCH   2  23
BRANCH   6  26
ATOM     26  O   UNL     1     -10.047  45.921  34.999  1.00  0.00    -0.387 OA
ATOM     27  H   UNL     1      -9.677  46.567  35.676  1.00  0.00     0.211 HD
ENDBRANCH   6  26
BRANCH   5  28
ATOM     28  O   UNL     1      -9.963  46.938  32.589  1.00  0.00    -0.385 OA
ATOM     29  H   UNL     1      -9.281  46.680  33.257  1.00  0.00     0.211 HD
ENDBRANCH   5  28
BRANCH   4  30
ATOM     30  O   UNL     1     -13.415  48.162  32.856  1.00  0.00    -0.341 OA
BRANCH  30  31
ATOM     31  C   UNL     1     -14.161  48.681  31.779  1.00  0.00     0.184 C 
ATOM     32  C   UNL     1     -15.599  48.060  31.809  1.00  0.00     0.178 C 
ATOM     33  C   UNL     1     -14.529  50.276  31.745  1.00  0.00     0.180 C 
ATOM     34  O   UNL     1     -16.421  48.436  30.721  1.00  0.00    -0.342 OA
ATOM     35  C   UNL     1     -15.201  50.530  30.335  1.00  0.00     0.201 C 
ATOM     36  C   UNL     1     -15.899  49.295  29.727  1.00  0.00     0.279 C 
BRANCH  32  37
ATOM     37  C   UNL     1     -16.014  46.744  32.459  1.00  0.00     0.191 C 
BRANCH  37  38
ATOM     38  O   UNL     1     -15.662  46.866  33.839  1.00  0.00    -0.394 OA
ATOM     39  H   UNL     1     -16.022  46.030  34.289  1.00  0.00     0.210 HD
ENDBRANCH  37  38
ENDBRANCH  32  37
BRANCH  33  40
ATOM     40  O   UNL     1     -13.682  51.262  32.367  1.00  0.00    -0.387 OA
ATOM     41  H   UNL     1     -12.976  51.548  31.648  1.00  0.00     0.211 HD
ENDBRANCH  33  40
BRANCH  35  42
ATOM     42  O   UNL     1     -14.401  51.194  29.390  1.00  0.00    -0.385 OA
ATOM     43  H   UNL     1     -13.452  51.086  29.669  1.00  0.00     0.211 HD
ENDBRANCH  35  42
BRANCH  36  44
ATOM     44  O   UNL     1     -15.071  48.527  28.834  1.00  0.00    -0.366 OA
ATOM     45  H   UNL     1     -14.260  49.134  28.716  1.00  0.00     0.213 HD
ENDBRANCH  36  44
ENDBRANCH  30  31
ENDBRANCH   4  30
TORSDOF 18
ENDMDL
MODEL 2
REMARK VINA RESULT:    -6.213      2.876      7.967
REMARK INTER + INTRA:         -12.915
REMARK INTER:                 -10.282
REMARK INTRA:                  -2.634
REMARK UNBOUND:                -2.162
REMARK SMILES OC[C@@H]1O[C@@H](O[C@H]2[C@@H](O)[C@@H](O)[C@H](O[C@@H]3[C@@H](O)[C@@H](O)[C@@H](O)O[C@H]3CO)O[C@H]2CO)[C@H](O)[C@H](O)[C@@H]1O
REMARK SMILES IDX 7 1 26 2 25 3 12 4 10 5 8 6 6 7 5 8 3 9 33 10 4 11 31 12
REMARK SMILES IDX 29 13 2 14 1 15 34 17 32 19 30 21 27 23 28 24 9 26 11 28
REMARK SMILES IDX 13 30 14 31 22 32 15 33 21 34 17 35 19 36 23 37 24 38 16 40
REMARK SMILES IDX 18 42 20 44
REMARK H PARENT 1 16 34 18 32 20 30 22 28 25 9 27 11 29 24 39 16 41 18 43
REMARK H PARENT 20 45
REMARK Flexibility Score: inf
ROOT
ATOM      1  C   UNL     1     -12.325  45.908  32.604  1.00  0.00     0.184 C 
ATOM      2  C   UNL     1     -13.837  46.205  33.012  1.00  0.00     0.178 C 
ATOM      3  O   UNL     1     -14.146  46.038  34.436  1.00  0.00    -0.341 OA
ATOM      4  C   UNL     1     -13.008  46.053  35.360  1.00  0.00     0.282 C 
ATOM      5  C   UNL     1     -11.937  47.078  34.900  1.00  0.00     0.202 C 
ATOM      6  C   UNL     1     -11.423  46.855  33.434  1.00  0.00     0.180 C 
ENDROOT
BRANCH   1   7
ATOM      7  O   UNL     1     -12.059  45.925  31.163  1.00  0.00    -0.341 OA
BRANCH   7   8
ATOM      8  C   UNL     1     -12.558  44.717  30.427  1.00  0.00     0.282 C 
ATOM      9  C   UNL     1     -10.962  43.641  28.775  1.00  0.00     0.178 C 
ATOM     10  C   UNL     1     -11.946  43.776  27.584  1.00  0.00     0.177 C 
ATOM     11  O   UNL     1     -11.525  43.739  30.140  1.00  0.00    -0.341 OA
ATOM     12  C   UNL     1     -13.367  44.029  28.097  1.00  0.00     0.179 C 
ATOM     13  C   UNL     1     -13.338  45.151  29.190  1.00  0.00     0.202 C 
BRANCH   9  14
ATOM     14  C   UNL     1     -10.109  42.335  28.746  1.00  0.00     0.191 C 
BRANCH  14  15
ATOM     15  O   UNL     1     -11.005  41.203  28.631  1.00  0.00    -0.394 OA
ATOM     16  H   UNL     1     -10.420  40.394  28.804  1.00  0.00     0.210 HD
ENDBRANCH  14  15
ENDBRANCH   9  14
BRANCH  10  17
ATOM     17  O   UNL     1     -11.875  42.783  26.482  1.00  0.00    -0.387 OA
ATOM     18  H   UNL     1     -12.050  43.245  25.568  1.00  0.00     0.211 HD
ENDBRANCH  10  17
BRANCH  12  19
ATOM     19  O   UNL     1     -13.905  42.898  28.670  1.00  0.00    -0.387 OA
ATOM     20  H   UNL     1     -14.754  43.072  29.020  1.00  0.00     0.211 HD
ENDBRANCH  12  19
BRANCH  13  21
ATOM     21  O   UNL     1     -14.646  45.627  29.484  1.00  0.00    -0.385 OA
ATOM     22  H   UNL     1     -14.618  46.492  29.931  1.00  0.00     0.211 HD
ENDBRANCH  13  21
ENDBRANCH   7   8
ENDBRANCH   1   7
BRANCH   2  23
ATOM     23  C   UNL     1     -14.333  47.648  32.605  1.00  0.00     0.191 C 
BRANCH  23  24
ATOM     24  O   UNL     1     -14.034  47.939  31.295  1.00  0.00    -0.394 OA
ATOM     25  H   UNL     1     -14.507  47.261  30.769  1.00  0.00     0.210 HD
ENDBRANCH  23  24
ENDBRANCH   2  23
BRANCH   6  26
ATOM     26  O   UNL     1     -11.224  48.019  32.699  1.00  0.00    -0.387 OA
ATOM     27  H   UNL     1     -10.378  48.348  33.132  1.00  0.00     0.211 HD
ENDBRANCH   6  26
BRANCH   5  28
ATOM     28  O   UNL     1     -12.398  48.393  35.008  1.00  0.00    -0.385 OA
ATOM     29  H   UNL     1     -13.314  48.431  34.635  1.00  0.00     0.211 HD
ENDBRANCH   5  28
BRANCH   4  30
ATOM     30  O   UNL     1     -12.464  44.787  35.695  1.00  0.00    -0.341 OA
BRANCH  30  31
ATOM     31  C   UNL     1     -13.289  44.104  36.610  1.00  0.00     0.184 C 
ATOM     32  C   UNL     1     -13.889  42.837  35.908  1.00  0.00     0.178 C 
ATOM     33  C   UNL     1     -12.628  43.418  37.940  1.00  0.00     0.180 C 
ATOM     34  O   UNL     1     -14.810  42.112  36.699  1.00  0.00    -0.342 OA
ATOM     35  C   UNL     1     -13.846  42.907  38.811  1.00  0.00     0.201 C 
ATOM     36  C   UNL     1     -15.116  42.574  37.999  1.00  0.00     0.279 C 
BRANCH  32  37
ATOM     37  C   UNL     1     -14.071  42.622  34.409  1.00  0.00     0.191 C 
BRANCH  37  38
ATOM     38  O   UNL     1     -15.337  43.202  34.085  1.00  0.00    -0.394 OA
ATOM     39  H   UNL     1     -15.204  44.206  34.152  1.00  0.00     0.210 HD
ENDBRANCH  37  38
ENDBRANCH  32  37
BRANCH  33  40
ATOM     40  O   UNL     1     -11.433  43.946  38.550  1.00  0.00    -0.387 OA
ATOM     41  H   UNL     1     -10.751  43.153  38.610  1.00  0.00     0.211 HD
ENDBRANCH  33  40
BRANCH  35  42
ATOM     42  O   UNL     1     -14.143  43.673  39.951  1.00  0.00    -0.385 OA
ATOM     43  H   UNL     1     -14.510  44.544  39.642  1.00  0.00     0.211 HD
ENDBRANCH  35  42
BRANCH  36  44
ATOM     44  O   UNL     1     -16.057  43.658  37.900  1.00  0.00    -0.366 OA
ATOM     45  H   UNL     1     -15.451  44.477  37.959  1.00  0.00     0.213 HD
ENDBRANCH  36  44
ENDBRANCH  30  31
ENDBRANCH   4  30
TORSDOF 18
ENDMDL
MODEL 3
REMARK VINA RESULT:    -6.205      3.989      5.878
REMARK INTER + INTRA:         -12.901
REMARK INTER:                 -10.797
REMARK INTRA:                  -2.104
REMARK UNBOUND:                -2.162
REMARK SMILES OC[C@@H]1O[C@@H](O[C@H]2[C@@H](O)[C@@H](O)[C@H](O[C@@H]3[C@@H](O)[C@@H](O)[C@@H](O)O[C@H]3CO)O[C@H]2CO)[C@H](O)[C@H](O)[C@@H]1O
REMARK SMILES IDX 7 1 26 2 25 3 12 4 10 5 8 6 6 7 5 8 3 9 33 10 4 11 31 12
REMARK SMILES IDX 29 13 2 14 1 15 34 17 32 19 30 21 27 23 28 24 9 26 11 28
REMARK SMILES IDX 13 30 14 31 22 32 15 33 21 34 17 35 19 36 23 37 24 38 16 40
REMARK SMILES IDX 18 42 20 44
REMARK H PARENT 1 16 34 18 32 20 30 22 28 25 9 27 11 29 24 39 16 41 18 43
REMARK H PARENT 20 45
REMARK Flexibility Score: inf
ROOT
ATOM      1  C   UNL     1     -12.266  44.076  35.602  1.00  0.00     0.184 C 
ATOM      2  C   UNL     1     -11.616  42.642  35.855  1.00  0.00     0.178 C 
ATOM      3  O   UNL     1     -11.467  41.804  34.661  1.00  0.00    -0.341 OA
ATOM      4  C   UNL     1     -11.509  42.491  33.367  1.00  0.00     0.282 C 
ATOM      5  C   UNL     1     -10.807  43.873  33.452  1.00  0.00     0.202 C 
ATOM      6  C   UNL     1     -11.380  44.815  34.570  1.00  0.00     0.180 C 
ENDROOT
BRANCH   1   7
ATOM      7  O   UNL     1     -12.555  44.846  36.816  1.00  0.00    -0.341 OA
BRANCH   7   8
ATOM      8  C   UNL     1     -13.895  44.562  37.425  1.00  0.00     0.282 C 
ATOM      9  C   UNL     1     -14.011  42.666  39.106  1.00  0.00     0.178 C 
ATOM     10  C   UNL     1     -15.107  41.901  38.318  1.00  0.00     0.177 C 
ATOM     11  O   UNL     1     -13.826  44.101  38.800  1.00  0.00    -0.341 OA
ATOM     12  C   UNL     1     -15.784  42.835  37.310  1.00  0.00     0.179 C 
ATOM     13  C   UNL     1     -14.690  43.630  36.516  1.00  0.00     0.202 C 
BRANCH   9  14
ATOM     14  C   UNL     1     -14.160  42.564  40.656  1.00  0.00     0.191 C 
BRANCH  14  15
ATOM     15  O   UNL     1     -14.155  41.165  41.028  1.00  0.00    -0.394 OA
ATOM     16  H   UNL     1     -14.853  40.738  40.430  1.00  0.00     0.210 HD
ENDBRANCH  14  15
ENDBRANCH   9  14
BRANCH  10  17
ATOM     17  O   UNL     1     -16.057  41.041  39.067  1.00  0.00    -0.387 OA
ATOM     18  H   UNL     1     -16.905  41.581  39.329  1.00  0.00     0.211 HD
ENDBRANCH  10  17
BRANCH  12  19
ATOM     19  O   UNL     1     -16.596  43.753  37.938  1.00  0.00    -0.387 OA
ATOM     20  H   UNL     1     -17.162  43.333  38.551  1.00  0.00     0.211 HD
ENDBRANCH  12  19
BRANCH  13  21
ATOM     21  O   UNL     1     -15.243  44.283  35.380  1.00  0.00    -0.385 OA
ATOM     22  H   UNL     1     -15.052  43.793  34.559  1.00  0.00     0.211 HD
ENDBRANCH  13  21
ENDBRANCH   7   8
ENDBRANCH   1   7
BRANCH   2  23
ATOM     23  C   UNL     1     -10.198  42.701  36.549  1.00  0.00     0.191 C 
BRANCH  23  24
ATOM     24  O   UNL     1     -10.203  43.529  37.646  1.00  0.00    -0.394 OA
ATOM     25  H   UNL     1     -10.681  44.335  37.357  1.00  0.00     0.210 HD
ENDBRANCH  23  24
ENDBRANCH   2  23
BRANCH   6  26
ATOM     26  O   UNL     1     -10.424  45.549  35.265  1.00  0.00    -0.387 OA
ATOM     27  H   UNL     1     -10.991  45.882  36.027  1.00  0.00     0.211 HD
ENDBRANCH   6  26
BRANCH   5  28
ATOM     28  O   UNL     1      -9.430  43.743  33.652  1.00  0.00    -0.385 OA
ATOM     29  H   UNL     1      -9.156  44.395  34.344  1.00  0.00     0.211 HD
ENDBRANCH   5  28
BRANCH   4  30
ATOM     30  O   UNL     1     -12.777  42.546  32.734  1.00  0.00    -0.341 OA
BRANCH  30  31
ATOM     31  C   UNL     1     -13.583  41.453  33.112  1.00  0.00     0.184 C 
ATOM     32  C   UNL     1     -15.057  41.726  32.657  1.00  0.00     0.178 C 
ATOM     33  C   UNL     1     -13.330  39.988  32.429  1.00  0.00     0.180 C 
ATOM     34  O   UNL     1     -15.985  40.737  33.060  1.00  0.00    -0.342 OA
ATOM     35  C   UNL     1     -14.275  38.984  33.206  1.00  0.00     0.201 C 
ATOM     36  C   UNL     1     -15.532  39.635  33.819  1.00  0.00     0.279 C 
BRANCH  32  37
ATOM     37  C   UNL     1     -15.695  43.084  32.386  1.00  0.00     0.191 C 
BRANCH  37  38
ATOM     38  O   UNL     1     -16.897  43.110  33.159  1.00  0.00    -0.394 OA
ATOM     39  H   UNL     1     -16.810  43.911  33.776  1.00  0.00     0.210 HD
ENDBRANCH  37  38
ENDBRANCH  32  37
BRANCH  33  40
ATOM     40  O   UNL     1     -12.028  39.588  31.956  1.00  0.00    -0.387 OA
ATOM     41  H   UNL     1     -11.572  40.448  31.569  1.00  0.00     0.211 HD
ENDBRANCH  33  40
BRANCH  35  42
ATOM     42  O   UNL     1     -13.635  38.127  34.117  1.00  0.00    -0.385 OA
ATOM     43  H   UNL     1     -13.753  37.195  33.790  1.00  0.00     0.211 HD
ENDBRANCH  35  42
BRANCH  36  44
ATOM     44  O   UNL     1     -15.377  40.045  35.191  1.00  0.00    -0.366 OA
ATOM     45  H   UNL     1     -15.964  39.373  35.685  1.00  0.00     0.213 HD
ENDBRANCH  36  44
ENDBRANCH  30  31
ENDBRANCH   4  30
TORSDOF 18
ENDMDL
MODEL 4
REMARK VINA RESULT:    -6.164      1.964      8.621
REMARK INTER + INTRA:         -12.830
REMARK INTER:                 -10.525
REMARK INTRA:                  -2.304
REMARK UNBOUND:                -2.162
REMARK SMILES OC[C@@H]1O[C@@H](O[C@H]2[C@@H](O)[C@@H](O)[C@H](O[C@@H]3[C@@H](O)[C@@H](O)[C@@H](O)O[C@H]3CO)O[C@H]2CO)[C@H](O)[C@H](O)[C@@H]1O
REMARK SMILES IDX 7 1 26 2 25 3 12 4 10 5 8 6 6 7 5 8 3 9 33 10 4 11 31 12
REMARK SMILES IDX 29 13 2 14 1 15 34 17 32 19 30 21 27 23 28 24 9 26 11 28
REMARK SMILES IDX 13 30 14 31 22 32 15 33 21 34 17 35 19 36 23 37 24 38 16 40
REMARK SMILES IDX 18 42 20 44
REMARK H PARENT 1 16 34 18 32 20 30 22 28 25 9 27 11 29 24 39 16 41 18 43
REMARK H PARENT 20 45
REMARK Flexibility Score: inf
ROOT
ATOM      1  C   UNL     1     -14.509  47.133  31.942  1.00  0.00     0.184 C 
ATOM      2  C   UNL     1     -13.846  45.716  31.630  1.00  0.00     0.178 C 
ATOM      3  O   UNL     1     -14.112  44.669  32.621  1.00  0.00    -0.341 OA
ATOM      4  C   UNL     1     -15.256  44.883  33.512  1.00  0.00     0.282 C 
ATOM      5  C   UNL     1     -16.426  45.564  32.753  1.00  0.00     0.202 C 
ATOM      6  C   UNL     1     -16.038  46.917  32.057  1.00  0.00     0.180 C 
ENDROOT
BRANCH   1   7
ATOM      7  O   UNL     1     -14.115  48.213  31.034  1.00  0.00    -0.341 OA
BRANCH   7   8
ATOM      8  C   UNL     1     -14.711  49.549  31.364  1.00  0.00     0.282 C 
ATOM      9  C   UNL     1     -14.337  51.416  29.689  1.00  0.00     0.178 C 
ATOM     10  C   UNL     1     -13.678  52.355  30.733  1.00  0.00     0.177 C 
ATOM     11  O   UNL     1     -15.155  50.294  30.200  1.00  0.00    -0.341 OA
ATOM     12  C   UNL     1     -14.002  51.880  32.153  1.00  0.00     0.179 C 
ATOM     13  C   UNL     1     -13.757  50.335  32.257  1.00  0.00     0.202 C 
BRANCH   9  14
ATOM     14  C   UNL     1     -15.220  52.159  28.639  1.00  0.00     0.191 C 
BRANCH  14  15
ATOM     15  O   UNL     1     -16.101  53.069  29.340  1.00  0.00    -0.394 OA
ATOM     16  H   UNL     1     -16.899  53.179  28.726  1.00  0.00     0.210 HD
ENDBRANCH  14  15
ENDBRANCH   9  14
BRANCH  10  17
ATOM     17  O   UNL     1     -13.800  53.823  30.551  1.00  0.00    -0.387 OA
ATOM     18  H   UNL     1     -13.522  54.092  29.586  1.00  0.00     0.211 HD
ENDBRANCH  10  17
BRANCH  12  19
ATOM     19  O   UNL     1     -15.320  52.119  32.476  1.00  0.00    -0.387 OA
ATOM     20  H   UNL     1     -15.885  51.878  31.772  1.00  0.00     0.211 HD
ENDBRANCH  12  19
BRANCH  13  21
ATOM     21  O   UNL     1     -13.758  49.897  33.610  1.00  0.00    -0.385 OA
ATOM     22  H   UNL     1     -12.863  49.930  33.996  1.00  0.00     0.211 HD
ENDBRANCH  13  21
ENDBRANCH   7   8
ENDBRANCH   1   7
BRANCH   2  23
ATOM     23  C   UNL     1     -14.250  45.123  30.223  1.00  0.00     0.191 C 
BRANCH  23  24
ATOM     24  O   UNL     1     -14.172  46.071  29.230  1.00  0.00    -0.394 OA
ATOM     25  H   UNL     1     -15.029  46.015  28.756  1.00  0.00     0.210 HD
ENDBRANCH  23  24
ENDBRANCH   2  23
BRANCH   6  26
ATOM     26  O   UNL     1     -16.599  47.112  30.799  1.00  0.00    -0.387 OA
ATOM     27  H   UNL     1     -17.482  46.648  30.936  1.00  0.00     0.211 HD
ENDBRANCH   6  26
BRANCH   5  28
ATOM     28  O   UNL     1     -16.980  44.718  31.787  1.00  0.00    -0.385 OA
ATOM     29  H   UNL     1     -17.494  44.014  32.253  1.00  0.00     0.211 HD
ENDBRANCH   5  28
BRANCH   4  30
ATOM     30  O   UNL     1     -14.968  45.493  34.758  1.00  0.00    -0.341 OA
BRANCH  30  31
ATOM     31  C   UNL     1     -14.274  44.611  35.610  1.00  0.00     0.184 C 
ATOM     32  C   UNL     1     -12.836  45.178  35.870  1.00  0.00     0.178 C 
ATOM     33  C   UNL     1     -14.790  44.396  37.148  1.00  0.00     0.180 C 
ATOM     34  O   UNL     1     -12.006  44.332  36.643  1.00  0.00    -0.342 OA
ATOM     35  C   UNL     1     -13.903  43.227  37.739  1.00  0.00     0.201 C 
ATOM     36  C   UNL     1     -12.510  43.090  37.088  1.00  0.00     0.279 C 
BRANCH  32  37
ATOM     37  C   UNL     1     -12.062  46.150  34.987  1.00  0.00     0.191 C 
BRANCH  37  38
ATOM     38  O   UNL     1     -12.781  47.384  35.047  1.00  0.00    -0.394 OA
ATOM     39  H   UNL     1     -12.599  47.851  34.164  1.00  0.00     0.210 HD
ENDBRANCH  37  38
ENDBRANCH  32  37
BRANCH  33  40
ATOM     40  O   UNL     1     -16.177  44.549  37.509  1.00  0.00    -0.387 OA
ATOM     41  H   UNL     1     -16.212  45.269  38.269  1.00  0.00     0.211 HD
ENDBRANCH  33  40
BRANCH  35  42
ATOM     42  O   UNL     1     -14.542  41.983  37.868  1.00  0.00    -0.385 OA
ATOM     43  H   UNL     1     -15.340  42.112  38.449  1.00  0.00     0.211 HD
ENDBRANCH  35  42
BRANCH  36  44
ATOM     44  O   UNL     1     -12.456  42.147  36.001  1.00  0.00    -0.366 OA
ATOM     45  H   UNL     1     -12.539  42.753  35.185  1.00  0.00     0.213 HD
ENDBRANCH  36  44
ENDBRANCH  30  31
ENDBRANCH   4  30
TORSDOF 18
ENDMDL
MODEL 5
REMARK VINA RESULT:    -6.160      6.874     10.688
REMARK INTER + INTRA:         -12.824
REMARK INTER:                 -10.606
REMARK INTRA:                  -2.218
REMARK UNBOUND:                -2.162
REMARK SMILES OC[C@@H]1O[C@@H](O[C@H]2[C@@H](O)[C@@H](O)[C@H](O[C@@H]3[C@@H](O)[C@@H](O)[C@@H](O)O[C@H]3CO)O[C@H]2CO)[C@H](O)[C@H](O)[C@@H]1O
REMARK SMILES IDX 7 1 26 2 25 3 12 4 10 5 8 6 6 7 5 8 3 9 33 10 4 11 31 12
REMARK SMILES IDX 29 13 2 14 1 15 34 17 32 19 30 21 27 23 28 24 9 26 11 28
REMARK SMILES IDX 13 30 14 31 22 32 15 33 21 34 17 35 19 36 23 37 24 38 16 40
REMARK SMILES IDX 18 42 20 44
REMARK H PARENT 1 16 34 18 32 20 30 22 28 25 9 27 11 29 24 39 16 41 18 43
REMARK H PARENT 20 45
REMARK Flexibility Score: inf
ROOT
ATOM      1  C   UNL     1      -6.555  44.082  30.800  1.00  0.00     0.184 C 
ATOM      2  C   UNL     1      -6.699  44.875  32.175  1.00  0.00     0.178 C 
ATOM      3  O   UNL     1      -6.803  46.333  32.049  1.00  0.00    -0.341 OA
ATOM      4  C   UNL     1      -7.193  46.851  30.735  1.00  0.00     0.282 C 
ATOM      5  C   UNL     1      -8.244  45.926  30.066  1.00  0.00     0.202 C 
ATOM      6  C   UNL     1      -7.786  44.430  29.928  1.00  0.00     0.180 C 
ENDROOT
BRANCH   1   7
ATOM      7  O   UNL     1      -6.296  42.646  30.939  1.00  0.00    -0.341 OA
BRANCH   7   8
ATOM      8  C   UNL     1      -5.305  42.097  29.958  1.00  0.00     0.282 C 
ATOM      9  C   UNL     1      -6.191  40.478  28.218  1.00  0.00     0.178 C 
ATOM     10  C   UNL     1      -5.203  39.351  28.618  1.00  0.00     0.177 C 
ATOM     11  O   UNL     1      -5.860  41.857  28.638  1.00  0.00    -0.341 OA
ATOM     12  C   UNL     1      -4.045  39.929  29.438  1.00  0.00     0.179 C 
ATOM     13  C   UNL     1      -4.611  40.875  30.551  1.00  0.00     0.202 C 
BRANCH   9  14
ATOM     14  C   UNL     1      -6.486  40.545  26.687  1.00  0.00     0.191 C 
BRANCH  14  15
ATOM     15  O   UNL     1      -7.482  39.546  26.366  1.00  0.00    -0.394 OA
ATOM     16  H   UNL     1      -8.362  40.050  26.368  1.00  0.00     0.210 HD
ENDBRANCH  14  15
ENDBRANCH   9  14
BRANCH  10  17
ATOM     17  O   UNL     1      -4.776  38.374  27.585  1.00  0.00    -0.387 OA
ATOM     18  H   UNL     1      -3.765  38.157  27.689  1.00  0.00     0.211 HD
ENDBRANCH  10  17
BRANCH  12  19
ATOM     19  O   UNL     1      -3.191  40.670  28.651  1.00  0.00    -0.387 OA
ATOM     20  H   UNL     1      -2.404  40.198  28.477  1.00  0.00     0.211 HD
ENDBRANCH  12  19
BRANCH  13  21
ATOM     21  O   UNL     1      -3.616  41.201  31.514  1.00  0.00    -0.385 OA
ATOM     22  H   UNL     1      -3.761  40.724  32.352  1.00  0.00     0.211 HD
ENDBRANCH  13  21
ENDBRANCH   7   8
ENDBRANCH   1   7
BRANCH   2  23
ATOM     23  C   UNL     1      -7.926  44.407  33.053  1.00  0.00     0.191 C 
BRANCH  23  24
ATOM     24  O   UNL     1      -8.022  43.036  33.103  1.00  0.00    -0.394 OA
ATOM     25  H   UNL     1      -7.503  42.715  32.336  1.00  0.00     0.210 HD
ENDBRANCH  23  24
ENDBRANCH   2  23
BRANCH   6  26
ATOM     26  O   UNL     1      -8.778  43.488  30.182  1.00  0.00    -0.387 OA
ATOM     27  H   UNL     1      -9.041  43.770  31.112  1.00  0.00     0.211 HD
ENDBRANCH   6  26
BRANCH   5  28
ATOM     28  O   UNL     1      -9.464  45.950  30.746  1.00  0.00    -0.385 OA
ATOM     29  H   UNL     1     -10.054  45.264  30.346  1.00  0.00     0.211 HD
ENDBRANCH   5  28
BRANCH   4  30
ATOM     30  O   UNL     1      -6.129  47.209  29.868  1.00  0.00    -0.341 OA
BRANCH  30  31
ATOM     31  C   UNL     1      -5.476  48.374  30.316  1.00  0.00     0.184 C 
ATOM     32  C   UNL     1      -3.988  48.025  30.660  1.00  0.00     0.178 C 
ATOM     33  C   UNL     1      -5.255  49.625  29.284  1.00  0.00     0.180 C 
ATOM     34  O   UNL     1      -3.248  49.098  31.208  1.00  0.00    -0.342 OA
ATOM     35  C   UNL     1      -4.666  50.804  30.159  1.00  0.00     0.201 C 
ATOM     36  C   UNL     1      -3.884  50.344  31.408  1.00  0.00     0.279 C 
BRANCH  32  37
ATOM     37  C   UNL     1      -3.430  46.653  31.021  1.00  0.00     0.191 C 
BRANCH  37  38
ATOM     38  O   UNL     1      -3.683  45.820  29.887  1.00  0.00    -0.394 OA
ATOM     39  H   UNL     1      -3.237  44.932  30.094  1.00  0.00     0.210 HD
ENDBRANCH  37  38
ENDBRANCH  32  37
BRANCH  33  40
ATOM     40  O   UNL     1      -6.163  49.875  28.192  1.00  0.00    -0.387 OA
ATOM     41  H   UNL     1      -5.582  49.905  27.320  1.00  0.00     0.211 HD
ENDBRANCH  33  40
BRANCH  35  42
ATOM     42  O   UNL     1      -5.560  51.846  30.459  1.00  0.00    -0.385 OA
ATOM     43  H   UNL     1      -6.478  51.463  30.468  1.00  0.00     0.211 HD
ENDBRANCH  35  42
BRANCH  36  44
ATOM     44  O   UNL     1      -4.674  50.277  32.609  1.00  0.00    -0.366 OA
ATOM     45  H   UNL     1      -5.617  50.151  32.242  1.00  0.00     0.213 HD
ENDBRANCH  36  44
ENDBRANCH  30  31
ENDBRANCH   4  30
TORSDOF 18
ENDMDL
MODEL 6
REMARK VINA RESULT:    -6.098      1.499      2.446
REMARK INTER + INTRA:         -12.716
REMARK INTER:                 -10.263
REMARK INTRA:                  -2.452
REMARK UNBOUND:                -2.162
REMARK SMILES OC[C@@H]1O[C@@H](O[C@H]2[C@@H](O)[C@@H](O)[C@H](O[C@@H]3[C@@H](O)[C@@H](O)[C@@H](O)O[C@H]3CO)O[C@H]2CO)[C@H](O)[C@H](O)[C@@H]1O
REMARK SMILES IDX 7 1 26 2 25 3 12 4 10 5 8 6 6 7 5 8 3 9 33 10 4 11 31 12
REMARK SMILES IDX 29 13 2 14 1 15 34 17 32 19 30 21 27 23 28 24 9 26 11 28
REMARK SMILES IDX 13 30 14 31 22 32 15 33 21 34 17 35 19 36 23 37 24 38 16 40
REMARK SMILES IDX 18 42 20 44
REMARK H PARENT 1 16 34 18 32 20 30 22 28 25 9 27 11 29 24 39 16 41 18 43
REMARK H PARENT 20 45
REMARK Flexibility Score: inf
ROOT
ATOM      1  C   UNL     1     -11.489  44.214  35.001  1.00  0.00     0.184 C 
ATOM      2  C   UNL     1     -11.354  43.794  33.469  1.00  0.00     0.178 C 
ATOM      3  O   UNL     1     -11.923  44.743  32.508  1.00  0.00    -0.341 OA
ATOM      4  C   UNL     1     -12.145  46.110  32.987  1.00  0.00     0.282 C 
ATOM      5  C   UNL     1     -11.008  46.549  33.948  1.00  0.00     0.202 C 
ATOM      6  C   UNL     1     -10.795  45.588  35.172  1.00  0.00     0.180 C 
ENDROOT
BRANCH   1   7
ATOM      7  O   UNL     1     -11.059  43.194  35.962  1.00  0.00    -0.341 OA
BRANCH   7   8
ATOM      8  C   UNL     1     -12.097  42.822  36.978  1.00  0.00     0.282 C 
ATOM      9  C   UNL     1     -14.518  42.915  36.228  1.00  0.00     0.178 C 
ATOM     10  C   UNL     1     -14.933  43.901  37.351  1.00  0.00     0.177 C 
ATOM     11  O   UNL     1     -13.259  42.161  36.411  1.00  0.00    -0.341 OA
ATOM     12  C   UNL     1     -13.877  43.913  38.461  1.00  0.00     0.179 C 
ATOM     13  C   UNL     1     -12.450  44.040  37.826  1.00  0.00     0.202 C 
BRANCH   9  14
ATOM     14  C   UNL     1     -15.613  41.859  35.877  1.00  0.00     0.191 C 
BRANCH  14  15
ATOM     15  O   UNL     1     -15.849  41.037  37.045  1.00  0.00    -0.394 OA
ATOM     16  H   UNL     1     -16.012  41.697  37.796  1.00  0.00     0.210 HD
ENDBRANCH  14  15
ENDBRANCH   9  14
BRANCH  10  17
ATOM     17  O   UNL     1     -16.329  43.866  37.854  1.00  0.00    -0.387 OA
ATOM     18  H   UNL     1     -16.369  43.391  38.778  1.00  0.00     0.211 HD
ENDBRANCH  10  17
BRANCH  12  19
ATOM     19  O   UNL     1     -13.907  42.750  39.198  1.00  0.00    -0.387 OA
ATOM     20  H   UNL     1     -14.650  42.231  38.972  1.00  0.00     0.211 HD
ENDBRANCH  12  19
BRANCH  13  21
ATOM     21  O   UNL     1     -11.468  44.349  38.807  1.00  0.00    -0.385 OA
ATOM     22  H   UNL     1     -11.592  43.818  39.615  1.00  0.00     0.211 HD
ENDBRANCH  13  21
ENDBRANCH   7   8
ENDBRANCH   1   7
BRANCH   2  23
ATOM     23  C   UNL     1      -9.866  43.523  33.014  1.00  0.00     0.191 C 
BRANCH  23  24
ATOM     24  O   UNL     1      -9.176  42.782  33.943  1.00  0.00    -0.394 OA
ATOM     25  H   UNL     1      -9.696  42.861  34.770  1.00  0.00     0.210 HD
ENDBRANCH  23  24
ENDBRANCH   2  23
BRANCH   6  26
ATOM     26  O   UNL     1      -9.466  45.363  35.517  1.00  0.00    -0.387 OA
ATOM     27  H   UNL     1      -9.600  44.758  36.310  1.00  0.00     0.211 HD
ENDBRANCH   6  26
BRANCH   5  28
ATOM     28  O   UNL     1      -9.787  46.684  33.280  1.00  0.00    -0.385 OA
ATOM     29  H   UNL     1      -9.764  46.025  32.543  1.00  0.00     0.211 HD
ENDBRANCH   5  28
BRANCH   4  30
ATOM     30  O   UNL     1     -13.441  46.390  33.490  1.00  0.00    -0.341 OA
BRANCH  30  31
ATOM     31  C   UNL     1     -14.125  47.299  32.659  1.00  0.00     0.184 C 
ATOM     32  C   UNL     1     -15.630  46.875  32.569  1.00  0.00     0.178 C 
ATOM     33  C   UNL     1     -14.284  48.860  33.125  1.00  0.00     0.180 C 
ATOM     34  O   UNL     1     -16.407  47.662  31.687  1.00  0.00    -0.342 OA
ATOM     35  C   UNL     1     -14.932  49.612  31.893  1.00  0.00     0.201 C 
ATOM     36  C   UNL     1     -15.789  48.714  30.976  1.00  0.00     0.279 C 
BRANCH  32  37
ATOM     37  C   UNL     1     -16.205  45.484  32.811  1.00  0.00     0.191 C 
BRANCH  37  38
ATOM     38  O   UNL     1     -16.025  45.227  34.205  1.00  0.00    -0.394 OA
ATOM     39  H   UNL     1     -16.024  46.137  34.655  1.00  0.00     0.210 HD
ENDBRANCH  37  38
ENDBRANCH  32  37
BRANCH  33  40
ATOM     40  O   UNL     1     -13.311  49.499  33.975  1.00  0.00    -0.387 OA
ATOM     41  H   UNL     1     -12.445  48.911  33.934  1.00  0.00     0.211 HD
ENDBRANCH  33  40
BRANCH  35  42
ATOM     42  O   UNL     1     -14.062  50.432  31.155  1.00  0.00    -0.385 OA
ATOM     43  H   UNL     1     -13.392  50.808  31.787  1.00  0.00     0.211 HD
ENDBRANCH  35  42
BRANCH  36  44
ATOM     44  O   UNL     1     -15.076  48.163  29.853  1.00  0.00    -0.366 OA
ATOM     45  H   UNL     1     -14.428  48.916  29.618  1.00  0.00     0.213 HD
ENDBRANCH  36  44
ENDBRANCH  30  31
ENDBRANCH   4  30
TORSDOF 18
ENDMDL
MODEL 7
REMARK VINA RESULT:    -6.096      2.536      4.119
REMARK INTER + INTRA:         -12.712
REMARK INTER:                 -10.336
REMARK INTRA:                  -2.376
REMARK UNBOUND:                -2.162
REMARK SMILES OC[C@@H]1O[C@@H](O[C@H]2[C@@H](O)[C@@H](O)[C@H](O[C@@H]3[C@@H](O)[C@@H](O)[C@@H](O)O[C@H]3CO)O[C@H]2CO)[C@H](O)[C@H](O)[C@@H]1O
REMARK SMILES IDX 7 1 26 2 25 3 12 4 10 5 8 6 6 7 5 8 3 9 33 10 4 11 31 12
REMARK SMILES IDX 29 13 2 14 1 15 34 17 32 19 30 21 27 23 28 24 9 26 11 28
REMARK SMILES IDX 13 30 14 31 22 32 15 33 21 34 17 35 19 36 23 37 24 38 16 40
REMARK SMILES IDX 18 42 20 44
REMARK H PARENT 1 16 34 18 32 20 30 22 28 25 9 27 11 29 24 39 16 41 18 43
REMARK H PARENT 20 45
REMARK Flexibility Score: inf
ROOT
ATOM      1  C   UNL     1     -14.131  42.357  33.465  1.00  0.00     0.184 C 
ATOM      2  C   UNL     1     -15.599  42.779  33.010  1.00  0.00     0.178 C 
ATOM      3  O   UNL     1     -15.677  43.495  31.732  1.00  0.00    -0.341 OA
ATOM      4  C   UNL     1     -14.525  43.365  30.836  1.00  0.00     0.282 C 
ATOM      5  C   UNL     1     -13.934  41.931  30.902  1.00  0.00     0.202 C 
ATOM      6  C   UNL     1     -13.533  41.468  32.347  1.00  0.00     0.180 C 
ENDROOT
BRANCH   1   7
ATOM      7  O   UNL     1     -14.042  41.782  34.811  1.00  0.00    -0.341 OA
BRANCH   7   8
ATOM      8  C   UNL     1     -14.730  42.586  35.874  1.00  0.00     0.282 C 
ATOM      9  C   UNL     1     -13.388  43.111  37.961  1.00  0.00     0.178 C 
ATOM     10  C   UNL     1     -14.427  42.463  38.913  1.00  0.00     0.177 C 
ATOM     11  O   UNL     1     -13.841  43.474  36.601  1.00  0.00    -0.341 OA
ATOM     12  C   UNL     1     -15.770  42.295  38.196  1.00  0.00     0.179 C 
ATOM     13  C   UNL     1     -15.534  41.661  36.782  1.00  0.00     0.202 C 
BRANCH   9  14
ATOM     14  C   UNL     1     -12.700  44.383  38.548  1.00  0.00     0.191 C 
BRANCH  14  15
ATOM     15  O   UNL     1     -11.824  43.976  39.626  1.00  0.00    -0.394 OA
ATOM     16  H   UNL     1     -12.446  43.777  40.401  1.00  0.00     0.210 HD
ENDBRANCH  14  15
ENDBRANCH   9  14
BRANCH  10  17
ATOM     17  O   UNL     1     -14.549  42.982  40.298  1.00  0.00    -0.387 OA
ATOM     18  H   UNL     1     -13.630  42.939  40.782  1.00  0.00     0.211 HD
ENDBRANCH  10  17
BRANCH  12  19
ATOM     19  O   UNL     1     -16.399  43.507  38.013  1.00  0.00    -0.387 OA
ATOM     20  H   UNL     1     -16.023  44.164  38.561  1.00  0.00     0.211 HD
ENDBRANCH  12  19
BRANCH  13  21
ATOM     21  O   UNL     1     -16.754  41.217  36.200  1.00  0.00    -0.385 OA
ATOM     22  H   UNL     1     -16.844  40.248  36.258  1.00  0.00     0.211 HD
ENDBRANCH  13  21
ENDBRANCH   7   8
ENDBRANCH   1   7
BRANCH   2  23
ATOM     23  C   UNL     1     -16.607  41.567  32.914  1.00  0.00     0.191 C 
BRANCH  23  24
ATOM     24  O   UNL     1     -17.764  41.810  33.617  1.00  0.00    -0.394 OA
ATOM     25  H   UNL     1     -18.471  41.360  33.109  1.00  0.00     0.210 HD
ENDBRANCH  23  24
ENDBRANCH   2  23
BRANCH   6  26
ATOM     26  O   UNL     1     -13.832  40.141  32.642  1.00  0.00    -0.387 OA
ATOM     27  H   UNL     1     -14.823  40.150  32.465  1.00  0.00     0.211 HD
ENDBRANCH   6  26
BRANCH   5  28
ATOM     28  O   UNL     1     -14.810  40.983  30.365  1.00  0.00    -0.385 OA
ATOM     29  H   UNL     1     -14.389  40.595  29.559  1.00  0.00     0.211 HD
ENDBRANCH   5  28
BRANCH   4  30
ATOM     30  O   UNL     1     -13.540  44.380  30.938  1.00  0.00    -0.341 OA
BRANCH  30  31
ATOM     31  C   UNL     1     -14.115  45.611  31.314  1.00  0.00     0.184 C 
ATOM     32  C   UNL     1     -13.211  46.284  32.403  1.00  0.00     0.178 C 
ATOM     33  C   UNL     1     -14.215  46.825  30.221  1.00  0.00     0.180 C 
ATOM     34  O   UNL     1     -13.730  47.490  32.929  1.00  0.00    -0.342 OA
ATOM     35  C   UNL     1     -15.060  47.964  30.922  1.00  0.00     0.201 C 
ATOM     36  C   UNL     1     -14.977  47.965  32.463  1.00  0.00     0.279 C 
BRANCH  32  37
ATOM     37  C   UNL     1     -12.229  45.585  33.336  1.00  0.00     0.191 C 
BRANCH  37  38
ATOM     38  O   UNL     1     -12.900  45.475  34.594  1.00  0.00    -0.394 OA
ATOM     39  H   UNL     1     -12.764  44.514  34.894  1.00  0.00     0.210 HD
ENDBRANCH  37  38
ENDBRANCH  32  37
BRANCH  33  40
ATOM     40  O   UNL     1     -14.324  46.563  28.807  1.00  0.00    -0.387 OA
ATOM     41  H   UNL     1     -15.312  46.782  28.537  1.00  0.00     0.211 HD
ENDBRANCH  33  40
BRANCH  35  42
ATOM     42  O   UNL     1     -16.383  48.105  30.471  1.00  0.00    -0.385 OA
ATOM     43  H   UNL     1     -16.978  47.675  31.142  1.00  0.00     0.211 HD
ENDBRANCH  35  42
BRANCH  36  44
ATOM     44  O   UNL     1     -16.030  47.230  33.113  1.00  0.00    -0.366 OA
ATOM     45  H   UNL     1     -16.820  47.384  32.486  1.00  0.00     0.213 HD
ENDBRANCH  36  44
ENDBRANCH  30  31
ENDBRANCH   4  30
TORSDOF 18
ENDMDL
MODEL 8
REMARK VINA RESULT:    -6.093      5.637      9.360
REMARK INTER + INTRA:         -12.706
REMARK INTER:                 -10.442
REMARK INTRA:                  -2.264
REMARK UNBOUND:                -2.162
REMARK SMILES OC[C@@H]1O[C@@H](O[C@H]2[C@@H](O)[C@@H](O)[C@H](O[C@@H]3[C@@H](O)[C@@H](O)[C@@H](O)O[C@H]3CO)O[C@H]2CO)[C@H](O)[C@H](O)[C@@H]1O
REMARK SMILES IDX 7 1 26 2 25 3 12 4 10 5 8 6 6 7 5 8 3 9 33 10 4 11 31 12
REMARK SMILES IDX 29 13 2 14 1 15 34 17 32 19 30 21 27 23 28 24 9 26 11 28
REMARK SMILES IDX 13 30 14 31 22 32 15 33 21 34 17 35 19 36 23 37 24 38 16 40
REMARK SMILES IDX 18 42 20 44
REMARK H PARENT 1 16 34 18 32 20 30 22 28 25 9 27 11 29 24 39 16 41 18 43
REMARK H PARENT 20 45
REMARK Flexibility Score: inf
ROOT
ATOM      1  C   UNL     1      -7.759  45.518  31.594  1.00  0.00     0.184 C 
ATOM      2  C   UNL     1      -6.321  45.673  30.922  1.00  0.00     0.178 C 
ATOM      3  O   UNL     1      -6.062  44.781  29.787  1.00  0.00    -0.341 OA
ATOM      4  C   UNL     1      -7.234  44.190  29.136  1.00  0.00     0.282 C 
ATOM      5  C   UNL     1      -8.410  45.202  29.090  1.00  0.00     0.202 C 
ATOM      6  C   UNL     1      -8.819  45.774  30.494  1.00  0.00     0.180 C 
ENDROOT
BRANCH   1   7
ATOM      7  O   UNL     1      -7.955  46.298  32.819  1.00  0.00    -0.341 OA
BRANCH   7   8
ATOM      8  C   UNL     1      -7.396  45.660  34.056  1.00  0.00     0.282 C 
ATOM      9  C   UNL     1      -8.875  45.664  36.116  1.00  0.00     0.178 C 
ATOM     10  C   UNL     1      -7.823  46.393  36.993  1.00  0.00     0.177 C 
ATOM     11  O   UNL     1      -8.397  45.007  34.880  1.00  0.00    -0.341 OA
ATOM     12  C   UNL     1      -6.439  46.305  36.342  1.00  0.00     0.179 C 
ATOM     13  C   UNL     1      -6.549  46.671  34.822  1.00  0.00     0.202 C 
BRANCH   9  14
ATOM     14  C   UNL     1      -9.706  44.592  36.888  1.00  0.00     0.191 C 
BRANCH  14  15
ATOM     15  O   UNL     1      -8.826  43.505  37.257  1.00  0.00    -0.394 OA
ATOM     16  H   UNL     1      -7.933  43.743  36.839  1.00  0.00     0.210 HD
ENDBRANCH  14  15
ENDBRANCH   9  14
BRANCH  10  17
ATOM     17  O   UNL     1      -7.814  46.143  38.456  1.00  0.00    -0.387 OA
ATOM     18  H   UNL     1      -8.419  45.330  38.687  1.00  0.00     0.211 HD
ENDBRANCH  10  17
BRANCH  12  19
ATOM     19  O   UNL     1      -5.921  45.031  36.431  1.00  0.00    -0.387 OA
ATOM     20  H   UNL     1      -6.253  44.588  37.183  1.00  0.00     0.211 HD
ENDBRANCH  12  19
BRANCH  13  21
ATOM     21  O   UNL     1      -5.267  46.889  34.245  1.00  0.00    -0.385 OA
ATOM     22  H   UNL     1      -5.074  47.841  34.156  1.00  0.00     0.211 HD
ENDBRANCH  13  21
ENDBRANCH   7   8
ENDBRANCH   1   7
BRANCH   2  23
ATOM     23  C   UNL     1      -6.005  47.140  30.429  1.00  0.00     0.191 C 
BRANCH  23  24
ATOM     24  O   UNL     1      -5.496  47.149  29.151  1.00  0.00    -0.394 OA
ATOM     25  H   UNL     1      -4.530  47.028  29.261  1.00  0.00     0.210 HD
ENDBRANCH  23  24
ENDBRANCH   2  23
BRANCH   6  26
ATOM     26  O   UNL     1      -9.136  47.128  30.505  1.00  0.00    -0.387 OA
ATOM     27  H   UNL     1      -8.708  47.393  31.376  1.00  0.00     0.211 HD
ENDBRANCH   6  26
BRANCH   5  28
ATOM     28  O   UNL     1      -8.136  46.278  28.241  1.00  0.00    -0.385 OA
ATOM     29  H   UNL     1      -8.006  45.924  27.327  1.00  0.00     0.211 HD
ENDBRANCH   5  28
BRANCH   4  30
ATOM     30  O   UNL     1      -7.620  42.906  29.598  1.00  0.00    -0.341 OA
BRANCH  30  31
ATOM     31  C   UNL     1      -6.647  41.937  29.280  1.00  0.00     0.184 C 
ATOM     32  C   UNL     1      -5.994  41.415  30.606  1.00  0.00     0.178 C 
ATOM     33  C   UNL     1      -7.107  40.521  28.601  1.00  0.00     0.180 C 
ATOM     34  O   UNL     1      -4.934  40.499  30.414  1.00  0.00    -0.342 OA
ATOM     35  C   UNL     1      -5.766  39.771  28.224  1.00  0.00     0.201 C 
ATOM     36  C   UNL     1      -4.553  40.151  29.099  1.00  0.00     0.279 C 
BRANCH  32  37
ATOM     37  C   UNL     1      -5.936  42.142  31.945  1.00  0.00     0.191 C 
BRANCH  37  38
ATOM     38  O   UNL     1      -7.284  42.189  32.420  1.00  0.00    -0.394 OA
ATOM     39  H   UNL     1      -7.794  41.508  31.866  1.00  0.00     0.210 HD
ENDBRANCH  37  38
ENDBRANCH  32  37
BRANCH  33  40
ATOM     40  O   UNL     1      -8.284  40.425  27.775  1.00  0.00    -0.387 OA
ATOM     41  H   UNL     1      -8.515  39.406  27.698  1.00  0.00     0.211 HD
ENDBRANCH  33  40
BRANCH  35  42
ATOM     42  O   UNL     1      -5.438  39.758  26.858  1.00  0.00    -0.385 OA
ATOM     43  H   UNL     1      -6.039  40.404  26.397  1.00  0.00     0.211 HD
ENDBRANCH  35  42
BRANCH  36  44
ATOM     44  O   UNL     1      -3.737  41.205  28.555  1.00  0.00    -0.366 OA
ATOM     45  H   UNL     1      -4.152  41.346  27.634  1.00  0.00     0.213 HD
ENDBRANCH  36  44
ENDBRANCH  30  31
ENDBRANCH   4  30
TORSDOF 18
ENDMDL
MODEL 9
REMARK VINA RESULT:    -6.028      2.871      7.184
REMARK INTER + INTRA:         -12.595
REMARK INTER:                  -9.870
REMARK INTRA:                  -2.725
REMARK UNBOUND:                -2.162
REMARK SMILES OC[C@@H]1O[C@@H](O[C@H]2[C@@H](O)[C@@H](O)[C@H](O[C@@H]3[C@@H](O)[C@@H](O)[C@@H](O)O[C@H]3CO)O[C@H]2CO)[C@H](O)[C@H](O)[C@@H]1O
REMARK SMILES IDX 7 1 26 2 25 3 12 4 10 5 8 6 6 7 5 8 3 9 33 10 4 11 31 12
REMARK SMILES IDX 29 13 2 14 1 15 34 17 32 19 30 21 27 23 28 24 9 26 11 28
REMARK SMILES IDX 13 30 14 31 22 32 15 33 21 34 17 35 19 36 23 37 24 38 16 40
REMARK SMILES IDX 18 42 20 44
REMARK H PARENT 1 16 34 18 32 20 30 22 28 25 9 27 11 29 24 39 16 41 18 43
REMARK H PARENT 20 45
REMARK Flexibility Score: inf
ROOT
ATOM      1  C   UNL     1     -13.398  45.214  33.217  1.00  0.00     0.184 C 
ATOM      2  C   UNL     1     -13.567  46.286  34.384  1.00  0.00     0.178 C 
ATOM      3  O   UNL     1     -12.674  46.106  35.534  1.00  0.00    -0.341 OA
ATOM      4  C   UNL     1     -11.482  45.283  35.316  1.00  0.00     0.282 C 
ATOM      5  C   UNL     1     -10.901  45.519  33.896  1.00  0.00     0.202 C 
ATOM      6  C   UNL     1     -11.928  45.277  32.734  1.00  0.00     0.180 C 
ENDROOT
BRANCH   1   7
ATOM      7  O   UNL     1     -14.394  45.305  32.145  1.00  0.00    -0.341 OA
BRANCH   7   8
ATOM      8  C   UNL     1     -15.213  44.063  31.954  1.00  0.00     0.282 C 
ATOM      9  C   UNL     1     -14.105  42.136  30.734  1.00  0.00     0.178 C 
ATOM     10  C   UNL     1     -15.207  42.060  29.645  1.00  0.00     0.177 C 
ATOM     11  O   UNL     1     -14.436  42.838  31.993  1.00  0.00    -0.341 OA
ATOM     12  C   UNL     1     -16.466  42.797  30.114  1.00  0.00     0.179 C 
ATOM     13  C   UNL     1     -16.068  44.196  30.697  1.00  0.00     0.202 C 
BRANCH   9  14
ATOM     14  C   UNL     1     -13.527  40.746  31.147  1.00  0.00     0.191 C 
BRANCH  14  15
ATOM     15  O   UNL     1     -14.583  39.976  31.770  1.00  0.00    -0.394 OA
ATOM     16  H   UNL     1     -15.297  39.893  31.055  1.00  0.00     0.210 HD
ENDBRANCH  14  15
ENDBRANCH   9  14
BRANCH  10  17
ATOM     17  O   UNL     1     -15.484  40.753  28.999  1.00  0.00    -0.387 OA
ATOM     18  H   UNL     1     -15.641  40.880  27.979  1.00  0.00     0.211 HD
ENDBRANCH  10  17
BRANCH  12  19
ATOM     19  O   UNL     1     -17.119  42.099  31.105  1.00  0.00    -0.387 OA
ATOM     20  H   UNL     1     -16.998  41.179  31.001  1.00  0.00     0.211 HD
ENDBRANCH  12  19
BRANCH  13  21
ATOM     21  O   UNL     1     -17.206  45.031  30.872  1.00  0.00    -0.385 OA
ATOM     22  H   UNL     1     -18.006  44.508  31.063  1.00  0.00     0.211 HD
ENDBRANCH  13  21
ENDBRANCH   7   8
ENDBRANCH   1   7
BRANCH   2  23
ATOM     23  C   UNL     1     -13.393  47.781  33.904  1.00  0.00     0.191 C 
BRANCH  23  24
ATOM     24  O   UNL     1     -12.670  48.525  34.806  1.00  0.00    -0.394 OA
ATOM     25  H   UNL     1     -12.727  48.029  35.650  1.00  0.00     0.210 HD
ENDBRANCH  23  24
ENDBRANCH   2  23
BRANCH   6  26
ATOM     26  O   UNL     1     -11.855  46.190  31.687  1.00  0.00    -0.387 OA
ATOM     27  H   UNL     1     -10.956  45.941  31.310  1.00  0.00     0.211 HD
ENDBRANCH   6  26
BRANCH   5  28
ATOM     28  O   UNL     1     -10.377  46.807  33.756  1.00  0.00    -0.385 OA
ATOM     29  H   UNL     1      -9.683  46.783  33.052  1.00  0.00     0.211 HD
ENDBRANCH   5  28
BRANCH   4  30
ATOM     30  O   UNL     1     -11.605  43.910  35.648  1.00  0.00    -0.341 OA
BRANCH  30  31
ATOM     31  C   UNL     1     -12.654  43.700  36.565  1.00  0.00     0.184 C 
ATOM     32  C   UNL     1     -13.349  42.334  36.241  1.00  0.00     0.178 C 
ATOM     33  C   UNL     1     -12.312  43.489  38.152  1.00  0.00     0.180 C 
ATOM     34  O   UNL     1     -14.481  42.050  37.040  1.00  0.00    -0.342 OA
ATOM     35  C   UNL     1     -13.710  43.463  38.892  1.00  0.00     0.201 C 
ATOM     36  C   UNL     1     -14.888  42.987  38.016  1.00  0.00     0.279 C 
BRANCH  32  37
ATOM     37  C   UNL     1     -13.349  41.601  34.904  1.00  0.00     0.191 C 
BRANCH  37  38
ATOM     38  O   UNL     1     -14.722  41.493  34.521  1.00  0.00    -0.394 OA
ATOM     39  H   UNL     1     -15.212  42.205  35.053  1.00  0.00     0.210 HD
ENDBRANCH  37  38
ENDBRANCH  32  37
BRANCH  33  40
ATOM     40  O   UNL     1     -11.145  44.078  38.760  1.00  0.00    -0.387 OA
ATOM     41  H   UNL     1     -11.289  44.027  39.796  1.00  0.00     0.211 HD
ENDBRANCH  33  40
BRANCH  35  42
ATOM     42  O   UNL     1     -14.036  44.621  39.618  1.00  0.00    -0.385 OA
ATOM     43  H   UNL     1     -13.381  44.705  40.363  1.00  0.00     0.211 HD
ENDBRANCH  35  42
BRANCH  36  44
ATOM     44  O   UNL     1     -15.613  44.050  37.370  1.00  0.00    -0.366 OA
ATOM     45  H   UNL     1     -15.854  44.655  38.155  1.00  0.00     0.213 HD
ENDBRANCH  36  44
ENDBRANCH  30  31
ENDBRANCH   4  30
TORSDOF 18
ENDMDL
