MODEL 1
REMARK VINA RESULT:    -4.900      0.000      0.000
REMARK INTER + INTRA:          -5.675
REMARK INTER:                  -5.473
REMARK INTRA:                  -0.202
REMARK UNBOUND:                -0.202
REMARK SMILES O=C([O-])c1ccccc1C(=O)[O-]
REMARK SMILES IDX 4 1 9 2 5 3 8 4 6 5 7 6 2 7 1 8 3 9 10 10 11 11 12 12
REMARK H PARENT
REMARK Flexibility Score: inf
ROOT
ATOM      1  C   UNL     1      35.902  18.916  10.279  1.00  0.00     0.006 A 
ATOM      2  C   UNL     1      35.419  19.095  11.605  1.00  0.00     0.006 A 
ATOM      3  C   UNL     1      35.293  19.627   9.228  1.00  0.00     0.010 A 
ATOM      4  C   UNL     1      34.389  20.024  11.839  1.00  0.00     0.010 A 
ATOM      5  C   UNL     1      34.259  20.528   9.480  1.00  0.00     0.001 A 
ATOM      6  C   UNL     1      33.815  20.735  10.784  1.00  0.00     0.001 A 
ENDROOT
BRANCH   1   7
ATOM      7  C   UNL     1      37.072  18.065   9.961  1.00  0.00     0.072 C 
ATOM      8  O   UNL     1      38.217  18.578   9.843  1.00  0.00    -0.545 OA
ATOM      9  O   UNL     1      36.936  16.686   9.852  1.00  0.00    -0.545 OA
ENDBRANCH   1   7
BRANCH   2  10
ATOM     10  C   UNL     1      35.901  18.292  12.754  1.00  0.00     0.072 C 
ATOM     11  O   UNL     1      35.237  17.310  13.177  1.00  0.00    -0.545 OA
ATOM     12  O   UNL     1      37.066  18.658  13.419  1.00  0.00    -0.545 OA
ENDBRANCH   2  10
TORSDOF 2
ENDMDL
MODEL 2
REMARK VINA RESULT:    -4.869      0.151      2.998
REMARK INTER + INTRA:          -5.640
REMARK INTER:                  -5.425
REMARK INTRA:                  -0.215
REMARK UNBOUND:                -0.202
REMARK SMILES O=C([O-])c1ccccc1C(=O)[O-]
REMARK SMILES IDX 4 1 9 2 5 3 8 4 6 5 7 6 2 7 1 8 3 9 10 10 11 11 12 12
REMARK H PARENT
REMARK Flexibility Score: inf
ROOT
ATOM      1  C   UNL     1      35.373  19.043  11.599  1.00  0.00     0.006 A 
ATOM      2  C   UNL     1      35.893  18.871  10.286  1.00  0.00     0.006 A 
ATOM      3  C   UNL     1      34.379  20.015  11.820  1.00  0.00     0.010 A 
ATOM      4  C   UNL     1      35.355  19.632   9.232  1.00  0.00     0.010 A 
ATOM      5  C   UNL     1      33.875  20.773  10.763  1.00  0.00     0.001 A 
ATOM      6  C   UNL     1      34.354  20.575   9.470  1.00  0.00     0.001 A 
ENDROOT
BRANCH   1   7
ATOM      7  C   UNL     1      35.781  18.191  12.739  1.00  0.00     0.072 C 
ATOM      8  O   UNL     1      35.112  17.165  13.036  1.00  0.00    -0.545 OA
ATOM      9  O   UNL     1      36.939  18.471  13.455  1.00  0.00    -0.545 OA
ENDBRANCH   1   7
BRANCH   2  10
ATOM     10  C   UNL     1      37.032  17.974   9.981  1.00  0.00     0.072 C 
ATOM     11  O   UNL     1      36.842  16.757   9.720  1.00  0.00    -0.545 OA
ATOM     12  O   UNL     1      38.335  18.456  10.045  1.00  0.00    -0.545 OA
ENDBRANCH   2  10
TORSDOF 2
ENDMDL
MODEL 3
REMARK VINA RESULT:    -4.862      2.744      5.028
REMARK INTER + INTRA:          -5.632
REMARK INTER:                  -5.448
REMARK INTRA:                  -0.185
REMARK UNBOUND:                -0.202
REMARK SMILES O=C([O-])c1ccccc1C(=O)[O-]
REMARK SMILES IDX 4 1 9 2 5 3 8 4 6 5 7 6 2 7 1 8 3 9 10 10 11 11 12 12
REMARK H PARENT
REMARK Flexibility Score: inf
ROOT
ATOM      1  C   UNL     1      39.015  18.135  11.309  1.00  0.00     0.006 A 
ATOM      2  C   UNL     1      38.916  18.485   9.934  1.00  0.00     0.006 A 
ATOM      3  C   UNL     1      40.286  18.088  11.913  1.00  0.00     0.010 A 
ATOM      4  C   UNL     1      40.083  18.837   9.231  1.00  0.00     0.010 A 
ATOM      5  C   UNL     1      41.432  18.421  11.191  1.00  0.00     0.001 A 
ATOM      6  C   UNL     1      41.330  18.806   9.856  1.00  0.00     0.001 A 
ENDROOT
BRANCH   1   7
ATOM      7  C   UNL     1      37.829  17.885  12.159  1.00  0.00     0.072 C 
ATOM      8  O   UNL     1      37.404  18.782  12.935  1.00  0.00    -0.545 OA
ATOM      9  O   UNL     1      37.131  16.687  12.066  1.00  0.00    -0.545 OA
ENDBRANCH   1   7
BRANCH   2  10
ATOM     10  C   UNL     1      37.643  18.427   9.177  1.00  0.00     0.072 C 
ATOM     11  O   UNL     1      37.236  17.344   8.681  1.00  0.00    -0.545 OA
ATOM     12  O   UNL     1      36.915  19.590   8.950  1.00  0.00    -0.545 OA
ENDBRANCH   2  10
TORSDOF 2
ENDMDL
MODEL 4
REMARK VINA RESULT:    -4.839      2.420      4.155
REMARK INTER + INTRA:          -5.607
REMARK INTER:                  -5.482
REMARK INTRA:                  -0.125
REMARK UNBOUND:                -0.202
REMARK SMILES O=C([O-])c1ccccc1C(=O)[O-]
REMARK SMILES IDX 4 1 9 2 5 3 8 4 6 5 7 6 2 7 1 8 3 9 10 10 11 11 12 12
REMARK H PARENT
REMARK Flexibility Score: inf
ROOT
ATOM      1  C   UNL     1      38.490  18.454  10.049  1.00  0.00     0.006 A 
ATOM      2  C   UNL     1      38.586  18.191  11.443  1.00  0.00     0.006 A 
ATOM      3  C   UNL     1      39.670  18.638   9.304  1.00  0.00     0.010 A 
ATOM      4  C   UNL     1      39.859  18.057  12.028  1.00  0.00     0.010 A 
ATOM      5  C   UNL     1      40.921  18.522   9.909  1.00  0.00     0.001 A 
ATOM      6  C   UNL     1      41.016  18.221  11.266  1.00  0.00     0.001 A 
ENDROOT
BRANCH   1   7
ATOM      7  C   UNL     1      37.198  18.473   9.325  1.00  0.00     0.072 C 
ATOM      8  O   UNL     1      36.601  17.394   9.063  1.00  0.00    -0.545 OA
ATOM      9  O   UNL     1      36.595  19.677   8.983  1.00  0.00    -0.545 OA
ENDBRANCH   1   7
BRANCH   2  10
ATOM     10  C   UNL     1      37.404  18.119  12.334  1.00  0.00     0.072 C 
ATOM     11  O   UNL     1      37.165  19.036  13.162  1.00  0.00    -0.545 OA
ATOM     12  O   UNL     1      36.579  17.000  12.308  1.00  0.00    -0.545 OA
ENDBRANCH   2  10
TORSDOF 2
ENDMDL
MODEL 5
REMARK VINA RESULT:    -4.685      1.580      3.093
REMARK INTER + INTRA:          -5.435
REMARK INTER:                  -5.227
REMARK INTRA:                  -0.207
REMARK UNBOUND:                -0.202
REMARK SMILES O=C([O-])c1ccccc1C(=O)[O-]
REMARK SMILES IDX 4 1 9 2 5 3 8 4 6 5 7 6 2 7 1 8 3 9 10 10 11 11 12 12
REMARK H PARENT
REMARK Flexibility Score: inf
ROOT
ATOM      1  C   UNL     1      35.740  18.786  10.372  1.00  0.00     0.006 A 
ATOM      2  C   UNL     1      36.991  18.109  10.383  1.00  0.00     0.006 A 
ATOM      3  C   UNL     1      35.266  19.330   9.164  1.00  0.00     0.010 A 
ATOM      4  C   UNL     1      37.691  17.945   9.173  1.00  0.00     0.010 A 
ATOM      5  C   UNL     1      35.987  19.174   7.980  1.00  0.00     0.001 A 
ATOM      6  C   UNL     1      37.191  18.473   7.982  1.00  0.00     0.001 A 
ENDROOT
BRANCH   1   7
ATOM      7  C   UNL     1      34.872  18.884  11.569  1.00  0.00     0.072 C 
ATOM      8  O   UNL     1      34.697  19.995  12.136  1.00  0.00    -0.545 OA
ATOM      9  O   UNL     1      34.189  17.769  12.042  1.00  0.00    -0.545 OA
ENDBRANCH   1   7
BRANCH   2  10
ATOM     10  C   UNL     1      37.635  17.625  11.627  1.00  0.00     0.072 C 
ATOM     11  O   UNL     1      37.530  16.421  11.980  1.00  0.00    -0.545 OA
ATOM     12  O   UNL     1      38.310  18.516  12.453  1.00  0.00    -0.545 OA
ENDBRANCH   2  10
TORSDOF 2
ENDMDL
MODEL 6
REMARK VINA RESULT:    -4.673      1.524      3.312
REMARK INTER + INTRA:          -5.421
REMARK INTER:                  -5.197
REMARK INTRA:                  -0.224
REMARK UNBOUND:                -0.202
REMARK SMILES O=C([O-])c1ccccc1C(=O)[O-]
REMARK SMILES IDX 4 1 9 2 5 3 8 4 6 5 7 6 2 7 1 8 3 9 10 10 11 11 12 12
REMARK H PARENT
REMARK Flexibility Score: inf
ROOT
ATOM      1  C   UNL     1      36.662  18.344  10.783  1.00  0.00     0.006 A 
ATOM      2  C   UNL     1      37.219  18.539   9.489  1.00  0.00     0.006 A 
ATOM      3  C   UNL     1      35.382  18.858  11.063  1.00  0.00     0.010 A 
ATOM      4  C   UNL     1      36.450  19.185   8.503  1.00  0.00     0.010 A 
ATOM      5  C   UNL     1      34.646  19.514  10.076  1.00  0.00     0.001 A 
ATOM      6  C   UNL     1      35.173  19.667   8.796  1.00  0.00     0.001 A 
ENDROOT
BRANCH   1   7
ATOM      7  C   UNL     1      37.343  17.556  11.837  1.00  0.00     0.072 C 
ATOM      8  O   UNL     1      37.959  18.141  12.768  1.00  0.00    -0.545 OA
ATOM      9  O   UNL     1      37.257  16.169  11.852  1.00  0.00    -0.545 OA
ENDBRANCH   1   7
BRANCH   2  10
ATOM     10  C   UNL     1      38.608  18.157   9.143  1.00  0.00     0.072 C 
ATOM     11  O   UNL     1      38.849  17.075   8.545  1.00  0.00    -0.545 OA
ATOM     12  O   UNL     1      39.671  18.963   9.535  1.00  0.00    -0.545 OA
ENDBRANCH   2  10
TORSDOF 2
ENDMDL
MODEL 7
REMARK VINA RESULT:    -4.672      1.564      2.795
REMARK INTER + INTRA:          -5.420
REMARK INTER:                  -5.216
REMARK INTRA:                  -0.204
REMARK UNBOUND:                -0.202
REMARK SMILES O=C([O-])c1ccccc1C(=O)[O-]
REMARK SMILES IDX 4 1 9 2 5 3 8 4 6 5 7 6 2 7 1 8 3 9 10 10 11 11 12 12
REMARK H PARENT
REMARK Flexibility Score: inf
ROOT
ATOM      1  C   UNL     1      36.946  18.142  10.335  1.00  0.00     0.006 A 
ATOM      2  C   UNL     1      35.692  18.811  10.368  1.00  0.00     0.006 A 
ATOM      3  C   UNL     1      37.620  18.012   9.106  1.00  0.00     0.010 A 
ATOM      4  C   UNL     1      35.188  19.381   9.184  1.00  0.00     0.010 A 
ATOM      5  C   UNL     1      37.092  18.566   7.940  1.00  0.00     0.001 A 
ATOM      6  C   UNL     1      35.884  19.259   7.981  1.00  0.00     0.001 A 
ENDROOT
BRANCH   1   7
ATOM      7  C   UNL     1      37.616  17.635  11.554  1.00  0.00     0.072 C 
ATOM      8  O   UNL     1      37.499  16.425  11.885  1.00  0.00    -0.545 OA
ATOM      9  O   UNL     1      38.432  18.466  12.313  1.00  0.00    -0.545 OA
ENDBRANCH   1   7
BRANCH   2  10
ATOM     10  C   UNL     1      34.845  18.878  11.582  1.00  0.00     0.072 C 
ATOM     11  O   UNL     1      34.751  19.945  12.244  1.00  0.00    -0.545 OA
ATOM     12  O   UNL     1      34.196  17.737  12.042  1.00  0.00    -0.545 OA
ENDBRANCH   2  10
TORSDOF 2
ENDMDL
MODEL 8
REMARK VINA RESULT:    -4.601      1.323      1.897
REMARK INTER + INTRA:          -5.341
REMARK INTER:                  -5.125
REMARK INTRA:                  -0.216
REMARK UNBOUND:                -0.202
REMARK SMILES O=C([O-])c1ccccc1C(=O)[O-]
REMARK SMILES IDX 4 1 9 2 5 3 8 4 6 5 7 6 2 7 1 8 3 9 10 10 11 11 12 12
REMARK H PARENT
REMARK Flexibility Score: inf
ROOT
ATOM      1  C   UNL     1      36.880  18.594   9.629  1.00  0.00     0.006 A 
ATOM      2  C   UNL     1      36.371  18.426  10.946  1.00  0.00     0.006 A 
ATOM      3  C   UNL     1      36.106  19.289   8.680  1.00  0.00     0.010 A 
ATOM      4  C   UNL     1      35.138  19.013  11.284  1.00  0.00     0.010 A 
ATOM      5  C   UNL     1      34.875  19.845   9.031  1.00  0.00     0.001 A 
ATOM      6  C   UNL     1      34.398  19.717  10.333  1.00  0.00     0.001 A 
ENDROOT
BRANCH   1   7
ATOM      7  C   UNL     1      38.227  18.131   9.225  1.00  0.00     0.072 C 
ATOM      8  O   UNL     1      38.361  17.064   8.569  1.00  0.00    -0.545 OA
ATOM      9  O   UNL     1      39.353  18.896   9.506  1.00  0.00    -0.545 OA
ENDBRANCH   1   7
BRANCH   2  10
ATOM     10  C   UNL     1      37.046  17.596  11.971  1.00  0.00     0.072 C 
ATOM     11  O   UNL     1      37.716  18.130  12.894  1.00  0.00    -0.545 OA
ATOM     12  O   UNL     1      37.001  16.209  11.884  1.00  0.00    -0.545 OA
ENDBRANCH   2  10
TORSDOF 2
ENDMDL
MODEL 9
REMARK VINA RESULT:    -4.547      6.974      8.422
REMARK INTER + INTRA:          -5.281
REMARK INTER:                  -5.058
REMARK INTRA:                  -0.223
REMARK UNBOUND:                -0.202
REMARK SMILES O=C([O-])c1ccccc1C(=O)[O-]
REMARK SMILES IDX 4 1 9 2 5 3 8 4 6 5 7 6 2 7 1 8 3 9 10 10 11 11 12 12
REMARK H PARENT
REMARK Flexibility Score: inf
ROOT
ATOM      1  C   UNL     1      31.515  14.674  14.884  1.00  0.00     0.006 A 
ATOM      2  C   UNL     1      31.872  13.299  14.945  1.00  0.00     0.006 A 
ATOM      3  C   UNL     1      32.526  15.649  14.972  1.00  0.00     0.010 A 
ATOM      4  C   UNL     1      33.233  12.948  15.027  1.00  0.00     0.010 A 
ATOM      5  C   UNL     1      33.867  15.279  15.074  1.00  0.00     0.001 A 
ATOM      6  C   UNL     1      34.221  13.932  15.090  1.00  0.00     0.001 A 
ENDROOT
BRANCH   1   7
ATOM      7  C   UNL     1      30.124  15.130  14.658  1.00  0.00     0.072 C 
ATOM      8  O   UNL     1      29.718  15.375  13.491  1.00  0.00    -0.545 OA
ATOM      9  O   UNL     1      29.231  15.231  15.718  1.00  0.00    -0.545 OA
ENDBRANCH   1   7
BRANCH   2  10
ATOM     10  C   UNL     1      30.872  12.207  14.998  1.00  0.00     0.072 C 
ATOM     11  O   UNL     1      30.451  11.666  13.942  1.00  0.00    -0.545 OA
ATOM     12  O   UNL     1      30.337  11.812  16.219  1.00  0.00    -0.545 OA
ENDBRANCH   2  10
TORSDOF 2
ENDMDL
