MODEL 1
REMARK VINA RESULT:    -3.927      0.000      0.000
REMARK INTER + INTRA:          -7.021
REMARK INTER:                  -6.223
REMARK INTRA:                  -0.798
REMARK UNBOUND:                -0.798
REMARK SMILES CCCCCCCCCCCC(=O)[O-]
REMARK SMILES IDX 7 1 8 2 9 3 10 4 11 5 12 6 13 7 14 8 6 9 5 10 4 11 3 12 2 13
REMARK SMILES IDX 1 14
REMARK H PARENT
REMARK Flexibility Score: inf
ROOT
ATOM      1  C   UNL     1       3.252  29.255  54.271  1.00  0.00     0.000 C 
ENDROOT
BRANCH   1   2
ATOM      2  C   UNL     1       4.236  28.748  53.205  1.00  0.00     0.000 C 
BRANCH   2   3
ATOM      3  C   UNL     1       4.258  29.627  51.942  1.00  0.00     0.000 C 
BRANCH   3   4
ATOM      4  C   UNL     1       4.452  28.862  50.617  1.00  0.00     0.006 C 
BRANCH   4   5
ATOM      5  C   UNL     1       4.932  27.412  50.782  1.00  0.00     0.053 C 
BRANCH   5   6
ATOM      6  C   UNL     1       4.329  26.503  49.756  1.00  0.00     0.041 C 
ATOM      7  O   UNL     1       3.843  26.978  48.695  1.00  0.00    -0.550 OA
ATOM      8  O   UNL     1       4.332  25.129  49.956  1.00  0.00    -0.550 OA
ENDBRANCH   5   6
ENDBRANCH   4   5
ENDBRANCH   3   4
ENDBRANCH   2   3
ENDBRANCH   1   2
BRANCH   1   9
ATOM      9  C   UNL     1       2.423  28.100  54.846  1.00  0.00     0.000 C 
BRANCH   9  10
ATOM     10  C   UNL     1       1.795  28.493  56.192  1.00  0.00    -0.000 C 
BRANCH  10  11
ATOM     11  C   UNL     1       2.843  28.719  57.293  1.00  0.00    -0.000 C 
BRANCH  11  12
ATOM     12  C   UNL     1       3.712  27.475  57.548  1.00  0.00    -0.000 C 
BRANCH  12  13
ATOM     13  C   UNL     1       5.199  27.822  57.723  1.00  0.00    -0.003 C 
ATOM     14  C   UNL     1       5.573  29.164  57.094  1.00  0.00     0.004 C 
ENDBRANCH  12  13
ENDBRANCH  11  12
ENDBRANCH  10  11
ENDBRANCH   9  10
ENDBRANCH   1   9
TORSDOF 10
ENDMDL
MODEL 2
REMARK VINA RESULT:    -3.904      1.697      3.473
REMARK INTER + INTRA:          -6.983
REMARK INTER:                  -6.340
REMARK INTRA:                  -0.643
REMARK UNBOUND:                -0.798
REMARK SMILES CCCCCCCCCCCC(=O)[O-]
REMARK SMILES IDX 7 1 8 2 9 3 10 4 11 5 12 6 13 7 14 8 6 9 5 10 4 11 3 12 2 13
REMARK SMILES IDX 1 14
REMARK H PARENT
REMARK Flexibility Score: inf
ROOT
ATOM      1  C   UNL     1       4.586  27.949  56.014  1.00  0.00     0.000 C 
ENDROOT
BRANCH   1   2
ATOM      2  C   UNL     1       5.639  29.067  55.992  1.00  0.00     0.000 C 
BRANCH   2   3
ATOM      3  C   UNL     1       5.660  29.846  54.664  1.00  0.00     0.000 C 
BRANCH   3   4
ATOM      4  C   UNL     1       4.732  29.287  53.566  1.00  0.00     0.006 C 
BRANCH   4   5
ATOM      5  C   UNL     1       5.112  29.703  52.136  1.00  0.00     0.053 C 
BRANCH   5   6
ATOM      6  C   UNL     1       4.576  28.747  51.115  1.00  0.00     0.041 C 
ATOM      7  O   UNL     1       4.745  27.507  51.255  1.00  0.00    -0.550 OA
ATOM      8  O   UNL     1       3.860  29.224  50.024  1.00  0.00    -0.550 OA
ENDBRANCH   5   6
ENDBRANCH   4   5
ENDBRANCH   3   4
ENDBRANCH   2   3
ENDBRANCH   1   2
BRANCH   1   9
ATOM      9  C   UNL     1       4.346  27.449  57.444  1.00  0.00     0.000 C 
BRANCH   9  10
ATOM     10  C   UNL     1       2.924  27.789  57.913  1.00  0.00    -0.000 C 
BRANCH  10  11
ATOM     11  C   UNL     1       2.120  28.565  56.857  1.00  0.00    -0.000 C 
BRANCH  11  12
ATOM     12  C   UNL     1       0.903  29.290  57.456  1.00  0.00    -0.000 C 
BRANCH  12  13
ATOM     13  C   UNL     1      -0.273  29.380  56.470  1.00  0.00    -0.003 C 
ATOM     14  C   UNL     1       0.120  28.996  55.043  1.00  0.00     0.004 C 
ENDBRANCH  12  13
ENDBRANCH  11  12
ENDBRANCH  10  11
ENDBRANCH   9  10
ENDBRANCH   1   9
TORSDOF 10
ENDMDL
MODEL 3
REMARK VINA RESULT:    -3.812      3.448      6.513
REMARK INTER + INTRA:          -6.838
REMARK INTER:                  -6.250
REMARK INTRA:                  -0.588
REMARK UNBOUND:                -0.798
REMARK SMILES CCCCCCCCCCCC(=O)[O-]
REMARK SMILES IDX 7 1 8 2 9 3 10 4 11 5 12 6 13 7 14 8 6 9 5 10 4 11 3 12 2 13
REMARK SMILES IDX 1 14
REMARK H PARENT
REMARK Flexibility Score: inf
ROOT
ATOM      1  C   UNL     1       4.603  29.184  54.456  1.00  0.00     0.000 C 
ENDROOT
BRANCH   1   2
ATOM      2  C   UNL     1       3.907  28.045  55.218  1.00  0.00     0.000 C 
BRANCH   2   3
ATOM      3  C   UNL     1       3.627  28.393  56.691  1.00  0.00     0.000 C 
BRANCH   3   4
ATOM      4  C   UNL     1       2.138  28.578  57.047  1.00  0.00     0.006 C 
BRANCH   4   5
ATOM      5  C   UNL     1       1.169  28.350  55.877  1.00  0.00     0.053 C 
BRANCH   5   6
ATOM      6  C   UNL     1       0.152  29.445  55.772  1.00  0.00     0.041 C 
ATOM      7  O   UNL     1      -0.667  29.643  56.708  1.00  0.00    -0.550 OA
ATOM      8  O   UNL     1       0.130  30.269  54.654  1.00  0.00    -0.550 OA
ENDBRANCH   5   6
ENDBRANCH   4   5
ENDBRANCH   3   4
ENDBRANCH   2   3
ENDBRANCH   1   2
BRANCH   1   9
ATOM      9  C   UNL     1       3.646  29.837  53.451  1.00  0.00     0.000 C 
BRANCH   9  10
ATOM     10  C   UNL     1       4.230  29.794  52.031  1.00  0.00    -0.000 C 
BRANCH  10  11
ATOM     11  C   UNL     1       4.777  28.408  51.654  1.00  0.00    -0.000 C 
BRANCH  11  12
ATOM     12  C   UNL     1       4.562  28.070  50.169  1.00  0.00    -0.000 C 
BRANCH  12  13
ATOM     13  C   UNL     1       5.235  26.750  49.762  1.00  0.00    -0.003 C 
ATOM     14  C   UNL     1       4.275  25.561  49.793  1.00  0.00     0.004 C 
ENDBRANCH  12  13
ENDBRANCH  11  12
ENDBRANCH  10  11
ENDBRANCH   9  10
ENDBRANCH   1   9
TORSDOF 10
ENDMDL
MODEL 4
REMARK VINA RESULT:    -3.811      1.091      2.122
REMARK INTER + INTRA:          -6.837
REMARK INTER:                  -6.070
REMARK INTRA:                  -0.767
REMARK UNBOUND:                -0.798
REMARK SMILES CCCCCCCCCCCC(=O)[O-]
REMARK SMILES IDX 7 1 8 2 9 3 10 4 11 5 12 6 13 7 14 8 6 9 5 10 4 11 3 12 2 13
REMARK SMILES IDX 1 14
REMARK H PARENT
REMARK Flexibility Score: inf
ROOT
ATOM      1  C   UNL     1       3.510  29.413  53.782  1.00  0.00     0.000 C 
ENDROOT
BRANCH   1   2
ATOM      2  C   UNL     1       5.017  29.416  53.482  1.00  0.00     0.000 C 
BRANCH   2   3
ATOM      3  C   UNL     1       5.344  29.910  52.061  1.00  0.00     0.000 C 
BRANCH   3   4
ATOM      4  C   UNL     1       4.655  29.128  50.924  1.00  0.00     0.006 C 
BRANCH   4   5
ATOM      5  C   UNL     1       5.105  27.665  50.791  1.00  0.00     0.053 C 
BRANCH   5   6
ATOM      6  C   UNL     1       4.246  26.901  49.830  1.00  0.00     0.041 C 
ATOM      7  O   UNL     1       3.610  27.507  48.927  1.00  0.00    -0.550 OA
ATOM      8  O   UNL     1       4.174  25.517  49.912  1.00  0.00    -0.550 OA
ENDBRANCH   5   6
ENDBRANCH   4   5
ENDBRANCH   3   4
ENDBRANCH   2   3
ENDBRANCH   1   2
BRANCH   1   9
ATOM      9  C   UNL     1       3.111  28.164  54.578  1.00  0.00     0.000 C 
BRANCH   9  10
ATOM     10  C   UNL     1       4.045  27.958  55.780  1.00  0.00    -0.000 C 
BRANCH  10  11
ATOM     11  C   UNL     1       3.522  28.629  57.060  1.00  0.00    -0.000 C 
BRANCH  11  12
ATOM     12  C   UNL     1       2.115  28.144  57.449  1.00  0.00    -0.000 C 
BRANCH  12  13
ATOM     13  C   UNL     1       1.089  29.288  57.490  1.00  0.00    -0.003 C 
ATOM     14  C   UNL     1       0.100  29.239  56.325  1.00  0.00     0.004 C 
ENDBRANCH  12  13
ENDBRANCH  11  12
ENDBRANCH  10  11
ENDBRANCH   9  10
ENDBRANCH   1   9
TORSDOF 10
ENDMDL
MODEL 5
REMARK VINA RESULT:    -3.809      3.702      7.075
REMARK INTER + INTRA:          -6.834
REMARK INTER:                  -6.450
REMARK INTRA:                  -0.384
REMARK UNBOUND:                -0.798
REMARK SMILES CCCCCCCCCCCC(=O)[O-]
REMARK SMILES IDX 7 1 8 2 9 3 10 4 11 5 12 6 13 7 14 8 6 9 5 10 4 11 3 12 2 13
REMARK SMILES IDX 1 14
REMARK H PARENT
REMARK Flexibility Score: inf
ROOT
ATOM      1  C   UNL     1       4.387  28.959  52.101  1.00  0.00     0.000 C 
ENDROOT
BRANCH   1   2
ATOM      2  C   UNL     1       4.232  28.538  53.571  1.00  0.00     0.000 C 
BRANCH   2   3
ATOM      3  C   UNL     1       3.026  29.202  54.261  1.00  0.00     0.000 C 
BRANCH   3   4
ATOM      4  C   UNL     1       2.042  28.225  54.936  1.00  0.00     0.006 C 
BRANCH   4   5
ATOM      5  C   UNL     1       1.581  28.650  56.338  1.00  0.00     0.053 C 
BRANCH   5   6
ATOM      6  C   UNL     1       0.216  29.265  56.316  1.00  0.00     0.041 C 
ATOM      7  O   UNL     1      -0.418  29.365  55.232  1.00  0.00    -0.550 OA
ATOM      8  O   UNL     1      -0.371  29.699  57.498  1.00  0.00    -0.550 OA
ENDBRANCH   5   6
ENDBRANCH   4   5
ENDBRANCH   3   4
ENDBRANCH   2   3
ENDBRANCH   1   2
BRANCH   1   9
ATOM      9  C   UNL     1       4.747  27.756  51.220  1.00  0.00     0.000 C 
BRANCH   9  10
ATOM     10  C   UNL     1       4.356  28.011  49.757  1.00  0.00    -0.000 C 
BRANCH  10  11
ATOM     11  C   UNL     1       4.036  26.715  48.994  1.00  0.00    -0.000 C 
BRANCH  11  12
ATOM     12  C   UNL     1       4.434  25.453  49.778  1.00  0.00    -0.000 C 
BRANCH  12  13
ATOM     13  C   UNL     1       5.674  24.761  49.191  1.00  0.00    -0.003 C 
ATOM     14  C   UNL     1       5.597  23.236  49.273  1.00  0.00     0.004 C 
ENDBRANCH  12  13
ENDBRANCH  11  12
ENDBRANCH  10  11
ENDBRANCH   9  10
ENDBRANCH   1   9
TORSDOF 10
ENDMDL
MODEL 6
REMARK VINA RESULT:    -3.782      3.388      6.872
REMARK INTER + INTRA:          -6.791
REMARK INTER:                  -6.322
REMARK INTRA:                  -0.469
REMARK UNBOUND:                -0.798
REMARK SMILES CCCCCCCCCCCC(=O)[O-]
REMARK SMILES IDX 7 1 8 2 9 3 10 4 11 5 12 6 13 7 14 8 6 9 5 10 4 11 3 12 2 13
REMARK SMILES IDX 1 14
REMARK H PARENT
REMARK Flexibility Score: inf
ROOT
ATOM      1  C   UNL     1       5.314  29.117  52.111  1.00  0.00     0.000 C 
ENDROOT
BRANCH   1   2
ATOM      2  C   UNL     1       4.197  28.635  53.048  1.00  0.00     0.000 C 
BRANCH   2   3
ATOM      3  C   UNL     1       4.480  28.947  54.529  1.00  0.00     0.000 C 
BRANCH   3   4
ATOM      4  C   UNL     1       4.019  27.862  55.524  1.00  0.00     0.006 C 
BRANCH   4   5
ATOM      5  C   UNL     1       3.375  28.406  56.809  1.00  0.00     0.053 C 
BRANCH   5   6
ATOM      6  C   UNL     1       1.903  28.627  56.646  1.00  0.00     0.041 C 
ATOM      7  O   UNL     1       1.276  29.354  57.461  1.00  0.00    -0.550 OA
ATOM      8  O   UNL     1       1.229  28.056  55.574  1.00  0.00    -0.550 OA
ENDBRANCH   5   6
ENDBRANCH   4   5
ENDBRANCH   3   4
ENDBRANCH   2   3
ENDBRANCH   1   2
BRANCH   1   9
ATOM      9  C   UNL     1       5.494  28.155  50.930  1.00  0.00     0.000 C 
BRANCH   9  10
ATOM     10  C   UNL     1       4.208  28.063  50.096  1.00  0.00    -0.000 C 
BRANCH  10  11
ATOM     11  C   UNL     1       4.255  26.935  49.053  1.00  0.00    -0.000 C 
BRANCH  11  12
ATOM     12  C   UNL     1       4.413  25.545  49.692  1.00  0.00    -0.000 C 
BRANCH  12  13
ATOM     13  C   UNL     1       5.694  24.829  49.235  1.00  0.00    -0.003 C 
ATOM     14  C   UNL     1       5.579  23.306  49.302  1.00  0.00     0.004 C 
ENDBRANCH  12  13
ENDBRANCH  11  12
ENDBRANCH  10  11
ENDBRANCH   9  10
ENDBRANCH   1   9
TORSDOF 10
ENDMDL
MODEL 7
REMARK VINA RESULT:    -3.779      3.031      4.081
REMARK INTER + INTRA:          -6.786
REMARK INTER:                  -5.749
REMARK INTRA:                  -1.038
REMARK UNBOUND:                -0.798
REMARK SMILES CCCCCCCCCCCC(=O)[O-]
REMARK SMILES IDX 7 1 8 2 9 3 10 4 11 5 12 6 13 7 14 8 6 9 5 10 4 11 3 12 2 13
REMARK SMILES IDX 1 14
REMARK H PARENT
REMARK Flexibility Score: inf
ROOT
ATOM      1  C   UNL     1       5.214  29.297  54.928  1.00  0.00     0.000 C 
ENDROOT
BRANCH   1   2
ATOM      2  C   UNL     1       4.163  28.523  54.117  1.00  0.00     0.000 C 
BRANCH   2   3
ATOM      3  C   UNL     1       4.322  28.709  52.597  1.00  0.00     0.000 C 
BRANCH   3   4
ATOM      4  C   UNL     1       5.663  29.329  52.153  1.00  0.00     0.006 C 
BRANCH   4   5
ATOM      5  C   UNL     1       5.528  30.604  51.306  1.00  0.00     0.053 C 
BRANCH   5   6
ATOM      6  C   UNL     1       5.109  31.781  52.132  1.00  0.00     0.041 C 
ATOM      7  O   UNL     1       5.906  32.290  52.964  1.00  0.00    -0.550 OA
ATOM      8  O   UNL     1       3.848  32.337  51.959  1.00  0.00    -0.550 OA
ENDBRANCH   5   6
ENDBRANCH   4   5
ENDBRANCH   3   4
ENDBRANCH   2   3
ENDBRANCH   1   2
BRANCH   1   9
ATOM      9  C   UNL     1       5.065  29.016  56.429  1.00  0.00     0.000 C 
BRANCH   9  10
ATOM     10  C   UNL     1       4.382  27.662  56.668  1.00  0.00    -0.000 C 
BRANCH  10  11
ATOM     11  C   UNL     1       3.202  27.757  57.648  1.00  0.00    -0.000 C 
BRANCH  11  12
ATOM     12  C   UNL     1       2.220  28.884  57.284  1.00  0.00    -0.000 C 
BRANCH  12  13
ATOM     13  C   UNL     1       0.849  28.349  56.841  1.00  0.00    -0.003 C 
ATOM     14  C   UNL     1       0.742  28.176  55.325  1.00  0.00     0.004 C 
ENDBRANCH  12  13
ENDBRANCH  11  12
ENDBRANCH  10  11
ENDBRANCH   9  10
ENDBRANCH   1   9
TORSDOF 10
ENDMDL
MODEL 8
REMARK VINA RESULT:    -3.675      1.500      2.661
REMARK INTER + INTRA:          -6.621
REMARK INTER:                  -6.112
REMARK INTRA:                  -0.509
REMARK UNBOUND:                -0.798
REMARK SMILES CCCCCCCCCCCC(=O)[O-]
REMARK SMILES IDX 7 1 8 2 9 3 10 4 11 5 12 6 13 7 14 8 6 9 5 10 4 11 3 12 2 13
REMARK SMILES IDX 1 14
REMARK H PARENT
REMARK Flexibility Score: inf
ROOT
ATOM      1  C   UNL     1       4.361  28.774  53.515  1.00  0.00     0.000 C 
ENDROOT
BRANCH   1   2
ATOM      2  C   UNL     1       5.334  29.719  52.792  1.00  0.00     0.000 C 
BRANCH   2   3
ATOM      3  C   UNL     1       6.005  29.068  51.570  1.00  0.00     0.000 C 
BRANCH   3   4
ATOM      4  C   UNL     1       5.244  27.868  50.969  1.00  0.00     0.006 C 
BRANCH   4   5
ATOM      5  C   UNL     1       5.964  27.173  49.803  1.00  0.00     0.053 C 
BRANCH   5   6
ATOM      6  C   UNL     1       5.117  26.106  49.180  1.00  0.00     0.041 C 
ATOM      7  O   UNL     1       4.050  26.409  48.585  1.00  0.00    -0.550 OA
ATOM      8  O   UNL     1       5.525  24.779  49.229  1.00  0.00    -0.550 OA
ENDBRANCH   5   6
ENDBRANCH   4   5
ENDBRANCH   3   4
ENDBRANCH   2   3
ENDBRANCH   1   2
BRANCH   1   9
ATOM      9  C   UNL     1       4.522  28.881  55.037  1.00  0.00     0.000 C 
BRANCH   9  10
ATOM     10  C   UNL     1       3.274  28.352  55.759  1.00  0.00    -0.000 C 
BRANCH  10  11
ATOM     11  C   UNL     1       2.065  28.202  54.821  1.00  0.00    -0.000 C 
BRANCH  11  12
ATOM     12  C   UNL     1       0.723  28.343  55.561  1.00  0.00    -0.000 C 
BRANCH  12  13
ATOM     13  C   UNL     1       0.890  28.900  56.983  1.00  0.00    -0.003 C 
ATOM     14  C   UNL     1      -0.360  29.620  57.489  1.00  0.00     0.004 C 
ENDBRANCH  12  13
ENDBRANCH  11  12
ENDBRANCH  10  11
ENDBRANCH   9  10
ENDBRANCH   1   9
TORSDOF 10
ENDMDL
MODEL 9
REMARK VINA RESULT:    -3.585      1.293      2.080
REMARK INTER + INTRA:          -6.479
REMARK INTER:                  -6.060
REMARK INTRA:                  -0.419
REMARK UNBOUND:                -0.798
REMARK SMILES CCCCCCCCCCCC(=O)[O-]
REMARK SMILES IDX 7 1 8 2 9 3 10 4 11 5 12 6 13 7 14 8 6 9 5 10 4 11 3 12 2 13
REMARK SMILES IDX 1 14
REMARK H PARENT
REMARK Flexibility Score: inf
ROOT
ATOM      1  C   UNL     1       4.243  28.499  53.333  1.00  0.00     0.000 C 
ENDROOT
BRANCH   1   2
ATOM      2  C   UNL     1       4.740  29.389  52.184  1.00  0.00     0.000 C 
BRANCH   2   3
ATOM      3  C   UNL     1       4.286  28.891  50.800  1.00  0.00     0.000 C 
BRANCH   3   4
ATOM      4  C   UNL     1       4.923  27.562  50.344  1.00  0.00     0.006 C 
BRANCH   4   5
ATOM      5  C   UNL     1       5.896  27.692  49.163  1.00  0.00     0.053 C 
BRANCH   5   6
ATOM      6  C   UNL     1       5.179  27.718  47.848  1.00  0.00     0.041 C 
ATOM      7  O   UNL     1       5.725  28.234  46.837  1.00  0.00    -0.550 OA
ATOM      8  O   UNL     1       3.920  27.144  47.732  1.00  0.00    -0.550 OA
ENDBRANCH   5   6
ENDBRANCH   4   5
ENDBRANCH   3   4
ENDBRANCH   2   3
ENDBRANCH   1   2
BRANCH   1   9
ATOM      9  C   UNL     1       3.115  29.186  54.113  1.00  0.00     0.000 C 
BRANCH   9  10
ATOM     10  C   UNL     1       2.319  28.166  54.939  1.00  0.00    -0.000 C 
BRANCH  10  11
ATOM     11  C   UNL     1       1.481  28.823  56.048  1.00  0.00    -0.000 C 
BRANCH  11  12
ATOM     12  C   UNL     1       2.012  28.506  57.457  1.00  0.00    -0.000 C 
BRANCH  12  13
ATOM     13  C   UNL     1       3.438  27.934  57.433  1.00  0.00    -0.003 C 
ATOM     14  C   UNL     1       3.694  26.933  58.561  1.00  0.00     0.004 C 
ENDBRANCH  12  13
ENDBRANCH  11  12
ENDBRANCH  10  11
ENDBRANCH   9  10
ENDBRANCH   1   9
TORSDOF 10
ENDMDL
