MODEL 1
REMARK VINA RESULT:    -3.968      0.000      0.000
REMARK INTER + INTRA:          -5.499
REMARK INTER:                  -5.128
REMARK INTRA:                  -0.371
REMARK UNBOUND:                -0.371
REMARK SMILES CCO[C@@H]1O[C@@H](CO)[C@@H](O)[C@@H](O)[C@H]1O
REMARK SMILES IDX 4 1 13 2 11 3 9 4 6 5 5 6 3 7 2 8 1 9 14 10 12 12 7 14 8 15
REMARK SMILES IDX 10 17
REMARK H PARENT 14 11 12 13 8 16 10 18
REMARK Flexibility Score: inf
ROOT
ATOM      1  C   UNL     1       8.013  34.952  33.627  1.00  0.00     0.281 C 
ATOM      2  C   UNL     1       9.435  34.368  33.729  1.00  0.00     0.202 C 
ATOM      3  C   UNL     1       9.406  32.978  34.399  1.00  0.00     0.179 C 
ATOM      4  C   UNL     1       8.319  32.072  33.783  1.00  0.00     0.177 C 
ATOM      5  C   UNL     1       6.978  32.843  33.698  1.00  0.00     0.178 C 
ATOM      6  O   UNL     1       7.130  34.051  32.968  1.00  0.00    -0.341 OA
ENDROOT
BRANCH   1   7
ATOM      7  O   UNL     1       7.540  35.298  34.920  1.00  0.00    -0.350 OA
BRANCH   7   8
ATOM      8  C   UNL     1       6.652  36.394  34.840  1.00  0.00     0.160 C 
ATOM      9  C   UNL     1       7.240  37.444  33.912  1.00  0.00     0.035 C 
ENDBRANCH   7   8
ENDBRANCH   1   7
BRANCH   2  10
ATOM     10  O   UNL     1       9.997  34.292  32.443  1.00  0.00    -0.385 OA
ATOM     11  H   UNL     1       9.249  34.148  31.806  1.00  0.00     0.211 HD
ENDBRANCH   2  10
BRANCH   3  12
ATOM     12  O   UNL     1      10.670  32.371  34.305  1.00  0.00    -0.387 OA
ATOM     13  H   UNL     1      10.735  31.985  33.393  1.00  0.00     0.211 HD
ENDBRANCH   3  12
BRANCH   5  14
ATOM     14  C   UNL     1       5.888  31.990  33.034  1.00  0.00     0.191 C 
BRANCH  14  15
ATOM     15  O   UNL     1       5.764  32.325  31.678  1.00  0.00    -0.394 OA
ATOM     16  H   UNL     1       5.016  32.974  31.612  1.00  0.00     0.210 HD
ENDBRANCH  14  15
ENDBRANCH   5  14
BRANCH   4  17
ATOM     17  O   UNL     1       8.725  31.559  32.535  1.00  0.00    -0.387 OA
ATOM     18  H   UNL     1       9.609  31.124  32.647  1.00  0.00     0.211 HD
ENDBRANCH   4  17
TORSDOF 7
ENDMDL
MODEL 2
REMARK VINA RESULT:    -3.803      1.786      3.942
REMARK INTER + INTRA:          -5.286
REMARK INTER:                  -4.901
REMARK INTRA:                  -0.386
REMARK UNBOUND:                -0.371
REMARK SMILES CCO[C@@H]1O[C@@H](CO)[C@@H](O)[C@@H](O)[C@H]1O
REMARK SMILES IDX 4 1 13 2 11 3 9 4 6 5 5 6 3 7 2 8 1 9 14 10 12 12 7 14 8 15
REMARK SMILES IDX 10 17
REMARK H PARENT 14 11 12 13 8 16 10 18
REMARK Flexibility Score: inf
ROOT
ATOM      1  C   UNL     1       7.366  32.088  34.596  1.00  0.00     0.281 C 
ATOM      2  C   UNL     1       8.012  31.614  33.279  1.00  0.00     0.202 C 
ATOM      3  C   UNL     1       8.095  32.775  32.266  1.00  0.00     0.179 C 
ATOM      4  C   UNL     1       8.674  34.052  32.910  1.00  0.00     0.177 C 
ATOM      5  C   UNL     1       7.955  34.337  34.252  1.00  0.00     0.178 C 
ATOM      6  O   UNL     1       8.045  33.222  35.125  1.00  0.00    -0.341 OA
ENDROOT
BRANCH   1   7
ATOM      7  O   UNL     1       5.987  32.351  34.389  1.00  0.00    -0.350 OA
BRANCH   7   8
ATOM      8  C   UNL     1       5.314  31.166  34.015  1.00  0.00     0.160 C 
ATOM      9  C   UNL     1       3.889  31.510  33.613  1.00  0.00     0.035 C 
ENDBRANCH   7   8
ENDBRANCH   1   7
BRANCH   2  10
ATOM     10  O   UNL     1       9.289  31.094  33.552  1.00  0.00    -0.385 OA
ATOM     11  H   UNL     1       9.688  30.831  32.682  1.00  0.00     0.211 HD
ENDBRANCH   2  10
BRANCH   3  12
ATOM     12  O   UNL     1       8.862  32.389  31.153  1.00  0.00    -0.387 OA
ATOM     13  H   UNL     1       8.386  31.629  30.727  1.00  0.00     0.211 HD
ENDBRANCH   3  12
BRANCH   5  14
ATOM     14  C   UNL     1       8.548  35.569  34.949  1.00  0.00     0.191 C 
BRANCH  14  15
ATOM     15  O   UNL     1       8.918  36.535  34.002  1.00  0.00    -0.394 OA
ATOM     16  H   UNL     1       9.033  37.389  34.495  1.00  0.00     0.210 HD
ENDBRANCH  14  15
ENDBRANCH   5  14
BRANCH   4  17
ATOM     17  O   UNL     1      10.073  33.963  33.057  1.00  0.00    -0.387 OA
ATOM     18  H   UNL     1      10.350  33.032  32.864  1.00  0.00     0.211 HD
ENDBRANCH   4  17
TORSDOF 7
ENDMDL
MODEL 3
REMARK VINA RESULT:    -3.569      1.633      4.398
REMARK INTER + INTRA:          -4.984
REMARK INTER:                  -4.760
REMARK INTRA:                  -0.224
REMARK UNBOUND:                -0.371
REMARK SMILES CCO[C@@H]1O[C@@H](CO)[C@@H](O)[C@@H](O)[C@H]1O
REMARK SMILES IDX 4 1 13 2 11 3 9 4 6 5 5 6 3 7 2 8 1 9 14 10 12 12 7 14 8 15
REMARK SMILES IDX 10 17
REMARK H PARENT 14 11 12 13 8 16 10 18
REMARK Flexibility Score: inf
ROOT
ATOM      1  C   UNL     1       7.325  31.480  33.709  1.00  0.00     0.281 C 
ATOM      2  C   UNL     1       6.809  32.764  33.030  1.00  0.00     0.202 C 
ATOM      3  C   UNL     1       7.397  34.016  33.714  1.00  0.00     0.179 C 
ATOM      4  C   UNL     1       8.923  33.893  33.911  1.00  0.00     0.177 C 
ATOM      5  C   UNL     1       9.263  32.519  34.540  1.00  0.00     0.178 C 
ATOM      6  O   UNL     1       8.747  31.456  33.754  1.00  0.00    -0.341 OA
ENDROOT
BRANCH   1   7
ATOM      7  O   UNL     1       6.758  31.359  35.004  1.00  0.00    -0.350 OA
BRANCH   7   8
ATOM      8  C   UNL     1       5.429  30.887  34.914  1.00  0.00     0.160 C 
ATOM      9  C   UNL     1       5.446  29.438  34.454  1.00  0.00     0.035 C 
ENDBRANCH   7   8
ENDBRANCH   1   7
BRANCH   2  10
ATOM     10  O   UNL     1       7.146  32.733  31.666  1.00  0.00    -0.385 OA
ATOM     11  H   UNL     1       7.225  31.778  31.407  1.00  0.00     0.211 HD
ENDBRANCH   2  10
BRANCH   3  12
ATOM     12  O   UNL     1       7.085  35.165  32.968  1.00  0.00    -0.387 OA
ATOM     13  H   UNL     1       6.734  34.852  32.093  1.00  0.00     0.211 HD
ENDBRANCH   3  12
BRANCH   5  14
ATOM     14  C   UNL     1      10.780  32.339  34.696  1.00  0.00     0.191 C 
BRANCH  14  15
ATOM     15  O   UNL     1      11.107  30.976  34.735  1.00  0.00    -0.394 OA
ATOM     16  H   UNL     1      12.052  30.918  35.034  1.00  0.00     0.210 HD
ENDBRANCH  14  15
ENDBRANCH   5  14
BRANCH   4  17
ATOM     17  O   UNL     1       9.615  34.118  32.704  1.00  0.00    -0.387 OA
ATOM     18  H   UNL     1      10.576  34.243  32.913  1.00  0.00     0.211 HD
ENDBRANCH   4  17
TORSDOF 7
ENDMDL
MODEL 4
REMARK VINA RESULT:    -3.339      9.610     11.561
REMARK INTER + INTRA:          -4.686
REMARK INTER:                  -4.341
REMARK INTRA:                  -0.346
REMARK UNBOUND:                -0.371
REMARK SMILES CCO[C@@H]1O[C@@H](CO)[C@@H](O)[C@@H](O)[C@H]1O
REMARK SMILES IDX 4 1 13 2 11 3 9 4 6 5 5 6 3 7 2 8 1 9 14 10 12 12 7 14 8 15
REMARK SMILES IDX 10 17
REMARK H PARENT 14 11 12 13 8 16 10 18
REMARK Flexibility Score: inf
ROOT
ATOM      1  C   UNL     1      17.514  36.975  32.100  1.00  0.00     0.281 C 
ATOM      2  C   UNL     1      18.181  38.087  32.933  1.00  0.00     0.202 C 
ATOM      3  C   UNL     1      19.266  37.497  33.859  1.00  0.00     0.179 C 
ATOM      4  C   UNL     1      20.202  36.535  33.097  1.00  0.00     0.177 C 
ATOM      5  C   UNL     1      19.363  35.534  32.264  1.00  0.00     0.178 C 
ATOM      6  O   UNL     1      18.481  36.215  31.385  1.00  0.00    -0.341 OA
ENDROOT
BRANCH   1   7
ATOM      7  O   UNL     1      16.719  36.154  32.941  1.00  0.00    -0.350 OA
BRANCH   7   8
ATOM      8  C   UNL     1      15.383  36.616  32.955  1.00  0.00     0.160 C 
ATOM      9  C   UNL     1      14.465  35.470  33.346  1.00  0.00     0.035 C 
ENDBRANCH   7   8
ENDBRANCH   1   7
BRANCH   2  10
ATOM     10  O   UNL     1      18.730  39.048  32.067  1.00  0.00    -0.385 OA
ATOM     11  H   UNL     1      18.547  38.743  31.140  1.00  0.00     0.211 HD
ENDBRANCH   2  10
BRANCH   3  12
ATOM     12  O   UNL     1      20.002  38.532  34.460  1.00  0.00    -0.387 OA
ATOM     13  H   UNL     1      20.644  38.102  35.083  1.00  0.00     0.211 HD
ENDBRANCH   3  12
BRANCH   5  14
ATOM     14  C   UNL     1      20.264  34.599  31.446  1.00  0.00     0.191 C 
BRANCH  14  15
ATOM     15  O   UNL     1      21.535  34.508  32.033  1.00  0.00    -0.394 OA
ATOM     16  H   UNL     1      21.583  35.223  32.720  1.00  0.00     0.210 HD
ENDBRANCH  14  15
ENDBRANCH   5  14
BRANCH   4  17
ATOM     17  O   UNL     1      21.133  37.242  32.310  1.00  0.00    -0.387 OA
ATOM     18  H   UNL     1      22.031  36.851  32.459  1.00  0.00     0.211 HD
ENDBRANCH   4  17
TORSDOF 7
ENDMDL
MODEL 5
REMARK VINA RESULT:    -3.327      8.430     10.550
REMARK INTER + INTRA:          -4.671
REMARK INTER:                  -4.293
REMARK INTRA:                  -0.378
REMARK UNBOUND:                -0.371
REMARK SMILES CCO[C@@H]1O[C@@H](CO)[C@@H](O)[C@@H](O)[C@H]1O
REMARK SMILES IDX 4 1 13 2 11 3 9 4 6 5 5 6 3 7 2 8 1 9 14 10 12 12 7 14 8 15
REMARK SMILES IDX 10 17
REMARK H PARENT 14 11 12 13 8 16 10 18
REMARK Flexibility Score: inf
ROOT
ATOM      1  C   UNL     1      18.497  36.902  32.896  1.00  0.00     0.281 C 
ATOM      2  C   UNL     1      18.135  37.781  31.682  1.00  0.00     0.202 C 
ATOM      3  C   UNL     1      16.797  37.328  31.061  1.00  0.00     0.179 C 
ATOM      4  C   UNL     1      15.707  37.137  32.137  1.00  0.00     0.177 C 
ATOM      5  C   UNL     1      16.265  36.289  33.307  1.00  0.00     0.178 C 
ATOM      6  O   UNL     1      17.439  36.876  33.847  1.00  0.00    -0.341 OA
ENDROOT
BRANCH   1   7
ATOM      7  O   UNL     1      18.842  35.597  32.459  1.00  0.00    -0.350 OA
BRANCH   7   8
ATOM      8  C   UNL     1      20.218  35.534  32.143  1.00  0.00     0.160 C 
ATOM      9  C   UNL     1      20.494  34.250  31.377  1.00  0.00     0.035 C 
ENDBRANCH   7   8
ENDBRANCH   1   7
BRANCH   2  10
ATOM     10  O   UNL     1      18.071  39.125  32.088  1.00  0.00    -0.385 OA
ATOM     11  H   UNL     1      18.292  39.148  33.055  1.00  0.00     0.211 HD
ENDBRANCH   2  10
BRANCH   3  12
ATOM     12  O   UNL     1      16.379  38.254  30.090  1.00  0.00    -0.387 OA
ATOM     13  H   UNL     1      16.922  39.074  30.223  1.00  0.00     0.211 HD
ENDBRANCH   3  12
BRANCH   5  14
ATOM     14  C   UNL     1      15.224  36.128  34.423  1.00  0.00     0.191 C 
BRANCH  14  15
ATOM     15  O   UNL     1      13.936  36.024  33.878  1.00  0.00    -0.394 OA
ATOM     16  H   UNL     1      13.804  36.822  33.305  1.00  0.00     0.210 HD
ENDBRANCH  14  15
ENDBRANCH   5  14
BRANCH   4  17
ATOM     17  O   UNL     1      15.190  38.374  32.569  1.00  0.00    -0.387 OA
ATOM     18  H   UNL     1      14.717  38.799  31.808  1.00  0.00     0.211 HD
ENDBRANCH   4  17
TORSDOF 7
ENDMDL
MODEL 6
REMARK VINA RESULT:    -3.290      2.373      3.391
REMARK INTER + INTRA:          -4.623
REMARK INTER:                  -4.222
REMARK INTRA:                  -0.402
REMARK UNBOUND:                -0.371
REMARK SMILES CCO[C@@H]1O[C@@H](CO)[C@@H](O)[C@@H](O)[C@H]1O
REMARK SMILES IDX 4 1 13 2 11 3 9 4 6 5 5 6 3 7 2 8 1 9 14 10 12 12 7 14 8 15
REMARK SMILES IDX 10 17
REMARK H PARENT 14 11 12 13 8 16 10 18
REMARK Flexibility Score: inf
ROOT
ATOM      1  C   UNL     1      10.753  35.319  32.997  1.00  0.00     0.281 C 
ATOM      2  C   UNL     1      12.256  35.239  33.326  1.00  0.00     0.202 C 
ATOM      3  C   UNL     1      12.471  34.753  34.775  1.00  0.00     0.179 C 
ATOM      4  C   UNL     1      11.618  33.506  35.089  1.00  0.00     0.177 C 
ATOM      5  C   UNL     1      10.156  33.740  34.633  1.00  0.00     0.178 C 
ATOM      6  O   UNL     1      10.101  34.081  33.256  1.00  0.00    -0.341 OA
ENDROOT
BRANCH   1   7
ATOM      7  O   UNL     1      10.158  36.386  33.719  1.00  0.00    -0.350 OA
BRANCH   7   8
ATOM      8  C   UNL     1       9.309  37.136  32.874  1.00  0.00     0.160 C 
ATOM      9  C   UNL     1       7.887  37.066  33.408  1.00  0.00     0.035 C 
ENDBRANCH   7   8
ENDBRANCH   1   7
BRANCH   2  10
ATOM     10  O   UNL     1      12.885  34.377  32.410  1.00  0.00    -0.385 OA
ATOM     11  H   UNL     1      12.196  33.736  32.094  1.00  0.00     0.211 HD
ENDBRANCH   2  10
BRANCH   3  12
ATOM     12  O   UNL     1      13.834  34.491  34.998  1.00  0.00    -0.387 OA
ATOM     13  H   UNL     1      13.890  33.581  35.391  1.00  0.00     0.211 HD
ENDBRANCH   3  12
BRANCH   5  14
ATOM     14  C   UNL     1       9.292  32.495  34.877  1.00  0.00     0.191 C 
BRANCH  14  15
ATOM     15  O   UNL     1       9.486  31.558  33.852  1.00  0.00    -0.394 OA
ATOM     16  H   UNL     1      10.433  31.266  33.908  1.00  0.00     0.210 HD
ENDBRANCH  14  15
ENDBRANCH   5  14
BRANCH   4  17
ATOM     17  O   UNL     1      12.179  32.345  34.523  1.00  0.00    -0.387 OA
ATOM     18  H   UNL     1      11.442  31.742  34.247  1.00  0.00     0.211 HD
ENDBRANCH   4  17
TORSDOF 7
ENDMDL
MODEL 7
REMARK VINA RESULT:    -3.283      1.527      3.250
REMARK INTER + INTRA:          -4.614
REMARK INTER:                  -4.239
REMARK INTRA:                  -0.374
REMARK UNBOUND:                -0.371
REMARK SMILES CCO[C@@H]1O[C@@H](CO)[C@@H](O)[C@@H](O)[C@H]1O
REMARK SMILES IDX 4 1 13 2 11 3 9 4 6 5 5 6 3 7 2 8 1 9 14 10 12 12 7 14 8 15
REMARK SMILES IDX 10 17
REMARK H PARENT 14 11 12 13 8 16 10 18
REMARK Flexibility Score: inf
ROOT
ATOM      1  C   UNL     1       8.046  34.880  34.373  1.00  0.00     0.281 C 
ATOM      2  C   UNL     1       6.951  34.204  33.524  1.00  0.00     0.202 C 
ATOM      3  C   UNL     1       7.559  33.105  32.628  1.00  0.00     0.179 C 
ATOM      4  C   UNL     1       8.499  32.176  33.426  1.00  0.00     0.177 C 
ATOM      5  C   UNL     1       9.484  33.023  34.270  1.00  0.00     0.178 C 
ATOM      6  O   UNL     1       8.785  33.920  35.120  1.00  0.00    -0.341 OA
ENDROOT
BRANCH   1   7
ATOM      7  O   UNL     1       8.889  35.660  33.540  1.00  0.00    -0.350 OA
BRANCH   7   8
ATOM      8  C   UNL     1       8.272  36.894  33.236  1.00  0.00     0.160 C 
ATOM      9  C   UNL     1       9.346  37.930  32.948  1.00  0.00     0.035 C 
ENDBRANCH   7   8
ENDBRANCH   1   7
BRANCH   2  10
ATOM     10  O   UNL     1       5.968  33.672  34.375  1.00  0.00    -0.385 OA
ATOM     11  H   UNL     1       6.442  33.175  35.092  1.00  0.00     0.211 HD
ENDBRANCH   2  10
BRANCH   3  12
ATOM     12  O   UNL     1       6.536  32.364  32.013  1.00  0.00    -0.387 OA
ATOM     13  H   UNL     1       6.370  31.572  32.588  1.00  0.00     0.211 HD
ENDBRANCH   3  12
BRANCH   5  14
ATOM     14  C   UNL     1      10.395  32.131  35.123  1.00  0.00     0.191 C 
BRANCH  14  15
ATOM     15  O   UNL     1      10.753  30.977  34.411  1.00  0.00    -0.394 OA
ATOM     16  H   UNL     1      10.073  30.287  34.625  1.00  0.00     0.210 HD
ENDBRANCH  14  15
ENDBRANCH   5  14
BRANCH   4  17
ATOM     17  O   UNL     1       7.770  31.260  34.210  1.00  0.00    -0.387 OA
ATOM     18  H   UNL     1       7.997  31.411  35.163  1.00  0.00     0.211 HD
ENDBRANCH   4  17
TORSDOF 7
ENDMDL
MODEL 8
REMARK VINA RESULT:    -3.066      3.956      5.635
REMARK INTER + INTRA:          -4.333
REMARK INTER:                  -3.953
REMARK INTRA:                  -0.380
REMARK UNBOUND:                -0.371
REMARK SMILES CCO[C@@H]1O[C@@H](CO)[C@@H](O)[C@@H](O)[C@H]1O
REMARK SMILES IDX 4 1 13 2 11 3 9 4 6 5 5 6 3 7 2 8 1 9 14 10 12 12 7 14 8 15
REMARK SMILES IDX 10 17
REMARK H PARENT 14 11 12 13 8 16 10 18
REMARK Flexibility Score: inf
ROOT
ATOM      1  C   UNL     1      13.786  35.605  33.862  1.00  0.00     0.281 C 
ATOM      2  C   UNL     1      13.665  34.070  33.937  1.00  0.00     0.202 C 
ATOM      3  C   UNL     1      12.452  33.662  34.798  1.00  0.00     0.179 C 
ATOM      4  C   UNL     1      11.183  34.446  34.401  1.00  0.00     0.177 C 
ATOM      5  C   UNL     1      11.505  35.958  34.310  1.00  0.00     0.178 C 
ATOM      6  O   UNL     1      12.574  36.197  33.407  1.00  0.00    -0.341 OA
ENDROOT
BRANCH   1   7
ATOM      7  O   UNL     1      14.179  36.120  35.125  1.00  0.00    -0.350 OA
BRANCH   7   8
ATOM      8  C   UNL     1      15.076  37.198  34.957  1.00  0.00     0.160 C 
ATOM      9  C   UNL     1      16.296  36.715  34.188  1.00  0.00     0.035 C 
ENDBRANCH   7   8
ENDBRANCH   1   7
BRANCH   2  10
ATOM     10  O   UNL     1      13.554  33.552  32.635  1.00  0.00    -0.385 OA
ATOM     11  H   UNL     1      14.468  33.298  32.343  1.00  0.00     0.211 HD
ENDBRANCH   2  10
BRANCH   3  12
ATOM     12  O   UNL     1      12.232  32.277  34.694  1.00  0.00    -0.387 OA
ATOM     13  H   UNL     1      11.319  32.105  35.045  1.00  0.00     0.211 HD
ENDBRANCH   3  12
BRANCH   5  14
ATOM     14  C   UNL     1      10.278  36.762  33.860  1.00  0.00     0.191 C 
BRANCH  14  15
ATOM     15  O   UNL     1      10.003  36.515  32.507  1.00  0.00    -0.394 OA
ATOM     16  H   UNL     1       9.127  36.049  32.475  1.00  0.00     0.210 HD
ENDBRANCH  14  15
ENDBRANCH   5  14
BRANCH   4  17
ATOM     17  O   UNL     1      10.620  33.943  33.211  1.00  0.00    -0.387 OA
ATOM     18  H   UNL     1       9.885  33.322  33.450  1.00  0.00     0.211 HD
ENDBRANCH   4  17
TORSDOF 7
ENDMDL
MODEL 9
REMARK VINA RESULT:    -2.246      2.085      2.700
REMARK INTER + INTRA:          -3.274
REMARK INTER:                  -2.862
REMARK INTRA:                  -0.412
REMARK UNBOUND:                -0.371
REMARK SMILES CCO[C@@H]1O[C@@H](CO)[C@@H](O)[C@@H](O)[C@H]1O
REMARK SMILES IDX 4 1 13 2 11 3 9 4 6 5 5 6 3 7 2 8 1 9 14 10 12 12 7 14 8 15
REMARK SMILES IDX 10 17
REMARK H PARENT 14 11 12 13 8 16 10 18
REMARK Flexibility Score: inf
ROOT
ATOM      1  C   UNL     1       9.975  36.340  33.040  1.00  0.00     0.281 C 
ATOM      2  C   UNL     1      11.187  35.393  32.936  1.00  0.00     0.202 C 
ATOM      3  C   UNL     1      11.244  34.447  34.153  1.00  0.00     0.179 C 
ATOM      4  C   UNL     1       9.872  33.799  34.436  1.00  0.00     0.177 C 
ATOM      5  C   UNL     1       8.768  34.886  34.438  1.00  0.00     0.178 C 
ATOM      6  O   UNL     1       8.766  35.611  33.218  1.00  0.00    -0.341 OA
ENDROOT
BRANCH   1   7
ATOM      7  O   UNL     1      10.183  37.275  34.086  1.00  0.00    -0.350 OA
BRANCH   7   8
ATOM      8  C   UNL     1      10.540  38.535  33.553  1.00  0.00     0.160 C 
ATOM      9  C   UNL     1       9.342  39.125  32.827  1.00  0.00     0.035 C 
ENDBRANCH   7   8
ENDBRANCH   1   7
BRANCH   2  10
ATOM     10  O   UNL     1      11.102  34.664  31.737  1.00  0.00    -0.385 OA
ATOM     11  H   UNL     1      11.055  35.323  30.997  1.00  0.00     0.211 HD
ENDBRANCH   2  10
BRANCH   3  12
ATOM     12  O   UNL     1      12.226  33.461  33.952  1.00  0.00    -0.387 OA
ATOM     13  H   UNL     1      11.972  32.967  33.129  1.00  0.00     0.211 HD
ENDBRANCH   3  12
BRANCH   5  14
ATOM     14  C   UNL     1       7.380  34.268  34.657  1.00  0.00     0.191 C 
BRANCH  14  15
ATOM     15  O   UNL     1       6.868  33.776  33.448  1.00  0.00    -0.394 OA
ATOM     16  H   UNL     1       7.282  32.885  33.304  1.00  0.00     0.210 HD
ENDBRANCH  14  15
ENDBRANCH   5  14
BRANCH   4  17
ATOM     17  O   UNL     1       9.600  32.757  33.527  1.00  0.00    -0.387 OA
ATOM     18  H   UNL     1       9.569  33.138  32.613  1.00  0.00     0.211 HD
ENDBRANCH   4  17
TORSDOF 7
ENDMDL
