MODEL 1
REMARK VINA RESULT:    -3.519      0.000      0.000
REMARK INTER + INTRA:         -10.841
REMARK INTER:                  -8.869
REMARK INTRA:                  -1.972
REMARK UNBOUND:                -1.972
REMARK SMILES CCCCCCCCCCCCCCCCCCCCCCCCCCCC(=O)[O-]
REMARK SMILES IDX 15 1 16 2 17 3 18 4 19 5 20 6 21 7 22 8 23 9 24 10 25 11
REMARK SMILES IDX 26 12 27 13 28 14 29 15 30 16 14 17 13 18 12 19 11 20 10 21
REMARK SMILES IDX 9 22 8 23 7 24 6 25 5 26 4 27 3 28 2 29 1 30
REMARK H PARENT
REMARK Flexibility Score: inf
ROOT
ATOM      1  C   UNL     1      -8.863  -8.448   0.424  1.00  0.00     0.000 C 
ENDROOT
BRANCH   1   2
ATOM      2  C   UNL     1      -8.544  -9.013   1.822  1.00  0.00     0.000 C 
BRANCH   2   3
ATOM      3  C   UNL     1      -7.343  -9.972   1.884  1.00  0.00     0.000 C 
BRANCH   3   4
ATOM      4  C   UNL     1      -6.159  -9.517   1.012  1.00  0.00     0.000 C 
BRANCH   4   5
ATOM      5  C   UNL     1      -4.875 -10.306   1.311  1.00  0.00     0.000 C 
BRANCH   5   6
ATOM      6  C   UNL     1      -5.111 -11.821   1.412  1.00  0.00     0.000 C 
BRANCH   6   7
ATOM      7  C   UNL     1      -5.573 -12.391   0.063  1.00  0.00     0.000 C 
BRANCH   7   8
ATOM      8  C   UNL     1      -6.154 -13.811   0.183  1.00  0.00     0.000 C 
BRANCH   8   9
ATOM      9  C   UNL     1      -5.459 -14.709   1.225  1.00  0.00     0.000 C 
BRANCH   9  10
ATOM     10  C   UNL     1      -6.041 -16.130   1.365  1.00  0.00     0.000 C 
BRANCH  10  11
ATOM     11  C   UNL     1      -5.128 -17.269   0.873  1.00  0.00     0.000 C 
BRANCH  11  12
ATOM     12  C   UNL     1      -5.850 -18.437   0.171  1.00  0.00     0.006 C 
BRANCH  12  13
ATOM     13  C   UNL     1      -5.976 -19.706   1.033  1.00  0.00     0.053 C 
BRANCH  13  14
ATOM     14  C   UNL     1      -7.178 -20.529   0.683  1.00  0.00     0.041 C 
ATOM     15  O   UNL     1      -7.836 -21.110   1.586  1.00  0.00    -0.550 OA
ATOM     16  O   UNL     1      -7.590 -20.627  -0.641  1.00  0.00    -0.550 OA
ENDBRANCH  13  14
ENDBRANCH  12  13
ENDBRANCH  11  12
ENDBRANCH  10  11
ENDBRANCH   9  10
ENDBRANCH   8   9
ENDBRANCH   7   8
ENDBRANCH   6   7
ENDBRANCH   5   6
ENDBRANCH   4   5
ENDBRANCH   3   4
ENDBRANCH   2   3
ENDBRANCH   1   2
BRANCH   1  17
ATOM     17  C   UNL     1      -9.152  -6.935   0.435  1.00  0.00     0.000 C 
BRANCH  17  18
ATOM     18  C   UNL     1      -8.799  -6.263   1.778  1.00  0.00     0.000 C 
BRANCH  18  19
ATOM     19  C   UNL     1      -7.310  -6.373   2.167  1.00  0.00     0.000 C 
BRANCH  19  20
ATOM     20  C   UNL     1      -6.361  -5.397   1.447  1.00  0.00     0.000 C 
BRANCH  20  21
ATOM     21  C   UNL     1      -5.800  -5.903   0.105  1.00  0.00     0.000 C 
BRANCH  21  22
ATOM     22  C   UNL     1      -5.386  -4.758  -0.834  1.00  0.00    -0.000 C 
BRANCH  22  23
ATOM     23  C   UNL     1      -4.880  -3.518  -0.075  1.00  0.00    -0.000 C 
BRANCH  23  24
ATOM     24  C   UNL     1      -5.206  -2.165  -0.743  1.00  0.00    -0.000 C 
BRANCH  24  25
ATOM     25  C   UNL     1      -5.373  -0.975   0.220  1.00  0.00    -0.000 C 
BRANCH  25  26
ATOM     26  C   UNL     1      -4.982  -1.316   1.667  1.00  0.00    -0.000 C 
BRANCH  26  27
ATOM     27  C   UNL     1      -6.103  -1.005   2.676  1.00  0.00    -0.000 C 
BRANCH  27  28
ATOM     28  C   UNL     1      -7.521  -1.418   2.231  1.00  0.00    -0.000 C 
BRANCH  28  29
ATOM     29  C   UNL     1      -8.126  -2.602   3.005  1.00  0.00    -0.003 C 
ATOM     30  C   UNL     1      -9.638  -2.722   2.818  1.00  0.00     0.004 C 
ENDBRANCH  28  29
ENDBRANCH  27  28
ENDBRANCH  26  27
ENDBRANCH  25  26
ENDBRANCH  24  25
ENDBRANCH  23  24
ENDBRANCH  22  23
ENDBRANCH  21  22
ENDBRANCH  20  21
ENDBRANCH  19  20
ENDBRANCH  18  19
ENDBRANCH  17  18
ENDBRANCH   1  17
TORSDOF 26
ENDMDL
MODEL 2
REMARK VINA RESULT:    -2.581     20.631     22.308
REMARK INTER + INTRA:          -8.477
REMARK INTER:                  -6.603
REMARK INTRA:                  -1.874
REMARK UNBOUND:                -1.972
REMARK SMILES CCCCCCCCCCCCCCCCCCCCCCCCCCCC(=O)[O-]
REMARK SMILES IDX 15 1 16 2 17 3 18 4 19 5 20 6 21 7 22 8 23 9 24 10 25 11
REMARK SMILES IDX 26 12 27 13 28 14 29 15 30 16 14 17 13 18 12 19 11 20 10 21
REMARK SMILES IDX 9 22 8 23 7 24 6 25 5 26 4 27 3 28 2 29 1 30
REMARK H PARENT
REMARK Flexibility Score: inf
ROOT
ATOM      1  C   UNL     1     -23.111  -9.113 -16.957  1.00  0.00     0.000 C 
ENDROOT
BRANCH   1   2
ATOM      2  C   UNL     1     -23.643 -10.345 -16.200  1.00  0.00     0.000 C 
BRANCH   2   3
ATOM      3  C   UNL     1     -22.637 -11.497 -16.028  1.00  0.00     0.000 C 
BRANCH   3   4
ATOM      4  C   UNL     1     -23.222 -12.872 -16.395  1.00  0.00     0.000 C 
BRANCH   4   5
ATOM      5  C   UNL     1     -22.206 -13.764 -17.125  1.00  0.00     0.000 C 
BRANCH   5   6
ATOM      6  C   UNL     1     -22.460 -15.264 -16.909  1.00  0.00     0.000 C 
BRANCH   6   7
ATOM      7  C   UNL     1     -21.156 -16.062 -17.048  1.00  0.00     0.000 C 
BRANCH   7   8
ATOM      8  C   UNL     1     -19.903 -15.210 -16.782  1.00  0.00     0.000 C 
BRANCH   8   9
ATOM      9  C   UNL     1     -18.619 -16.016 -16.502  1.00  0.00     0.000 C 
BRANCH   9  10
ATOM     10  C   UNL     1     -18.774 -17.548 -16.576  1.00  0.00     0.000 C 
BRANCH  10  11
ATOM     11  C   UNL     1     -18.254 -18.325 -15.352  1.00  0.00     0.000 C 
BRANCH  11  12
ATOM     12  C   UNL     1     -18.292 -19.861 -15.480  1.00  0.00     0.006 C 
BRANCH  12  13
ATOM     13  C   UNL     1     -19.594 -20.406 -16.094  1.00  0.00     0.053 C 
BRANCH  13  14
ATOM     14  C   UNL     1     -20.786 -20.195 -15.211  1.00  0.00     0.041 C 
ATOM     15  O   UNL     1     -21.810 -19.611 -15.654  1.00  0.00    -0.550 OA
ATOM     16  O   UNL     1     -20.778 -20.676 -13.907  1.00  0.00    -0.550 OA
ENDBRANCH  13  14
ENDBRANCH  12  13
ENDBRANCH  11  12
ENDBRANCH  10  11
ENDBRANCH   9  10
ENDBRANCH   8   9
ENDBRANCH   7   8
ENDBRANCH   6   7
ENDBRANCH   5   6
ENDBRANCH   4   5
ENDBRANCH   3   4
ENDBRANCH   2   3
ENDBRANCH   1   2
BRANCH   1  17
ATOM     17  C   UNL     1     -23.734  -7.791 -16.474  1.00  0.00     0.000 C 
BRANCH  17  18
ATOM     18  C   UNL     1     -23.045  -6.546 -17.069  1.00  0.00     0.000 C 
BRANCH  18  19
ATOM     19  C   UNL     1     -23.261  -5.254 -16.254  1.00  0.00     0.000 C 
BRANCH  19  20
ATOM     20  C   UNL     1     -22.697  -3.968 -16.886  1.00  0.00     0.000 C 
BRANCH  20  21
ATOM     21  C   UNL     1     -21.170  -3.956 -17.089  1.00  0.00     0.000 C 
BRANCH  21  22
ATOM     22  C   UNL     1     -20.403  -4.462 -15.856  1.00  0.00    -0.000 C 
BRANCH  22  23
ATOM     23  C   UNL     1     -19.891  -3.318 -14.962  1.00  0.00    -0.000 C 
BRANCH  23  24
ATOM     24  C   UNL     1     -20.855  -2.889 -13.834  1.00  0.00    -0.000 C 
BRANCH  24  25
ATOM     25  C   UNL     1     -20.669  -3.621 -12.492  1.00  0.00    -0.000 C 
BRANCH  25  26
ATOM     26  C   UNL     1     -20.283  -5.100 -12.664  1.00  0.00    -0.000 C 
BRANCH  26  27
ATOM     27  C   UNL     1     -21.461  -5.972 -13.136  1.00  0.00    -0.000 C 
BRANCH  27  28
ATOM     28  C   UNL     1     -21.064  -7.292 -13.830  1.00  0.00    -0.000 C 
BRANCH  28  29
ATOM     29  C   UNL     1     -20.269  -8.274 -12.952  1.00  0.00    -0.003 C 
ATOM     30  C   UNL     1     -19.569  -9.363 -13.764  1.00  0.00     0.004 C 
ENDBRANCH  28  29
ENDBRANCH  27  28
ENDBRANCH  26  27
ENDBRANCH  25  26
ENDBRANCH  24  25
ENDBRANCH  23  24
ENDBRANCH  22  23
ENDBRANCH  21  22
ENDBRANCH  20  21
ENDBRANCH  19  20
ENDBRANCH  18  19
ENDBRANCH  17  18
ENDBRANCH   1  17
TORSDOF 26
ENDMDL
MODEL 3
REMARK VINA RESULT:    -2.374     20.745     22.511
REMARK INTER + INTRA:          -7.953
REMARK INTER:                  -6.452
REMARK INTRA:                  -1.501
REMARK UNBOUND:                -1.972
REMARK SMILES CCCCCCCCCCCCCCCCCCCCCCCCCCCC(=O)[O-]
REMARK SMILES IDX 15 1 16 2 17 3 18 4 19 5 20 6 21 7 22 8 23 9 24 10 25 11
REMARK SMILES IDX 26 12 27 13 28 14 29 15 30 16 14 17 13 18 12 19 11 20 10 21
REMARK SMILES IDX 9 22 8 23 7 24 6 25 5 26 4 27 3 28 2 29 1 30
REMARK H PARENT
REMARK Flexibility Score: inf
ROOT
ATOM      1  C   UNL     1     -19.882  -8.658 -13.717  1.00  0.00     0.000 C 
ENDROOT
BRANCH   1   2
ATOM      2  C   UNL     1     -20.963  -9.730 -13.956  1.00  0.00     0.000 C 
BRANCH   2   3
ATOM      3  C   UNL     1     -21.755  -9.583 -15.267  1.00  0.00     0.000 C 
BRANCH   3   4
ATOM      4  C   UNL     1     -22.908 -10.595 -15.394  1.00  0.00     0.000 C 
BRANCH   4   5
ATOM      5  C   UNL     1     -22.952 -11.260 -16.778  1.00  0.00     0.000 C 
BRANCH   5   6
ATOM      6  C   UNL     1     -23.293 -12.757 -16.715  1.00  0.00     0.000 C 
BRANCH   6   7
ATOM      7  C   UNL     1     -22.082 -13.609 -17.122  1.00  0.00     0.000 C 
BRANCH   7   8
ATOM      8  C   UNL     1     -22.353 -15.120 -17.013  1.00  0.00     0.000 C 
BRANCH   8   9
ATOM      9  C   UNL     1     -21.090 -16.004 -17.007  1.00  0.00     0.000 C 
BRANCH   9  10
ATOM     10  C   UNL     1     -19.807 -15.317 -16.498  1.00  0.00     0.000 C 
BRANCH  10  11
ATOM     11  C   UNL     1     -18.686 -16.269 -16.039  1.00  0.00     0.000 C 
BRANCH  11  12
ATOM     12  C   UNL     1     -19.009 -17.772 -16.152  1.00  0.00     0.006 C 
BRANCH  12  13
ATOM     13  C   UNL     1     -18.095 -18.676 -15.305  1.00  0.00     0.053 C 
BRANCH  13  14
ATOM     14  C   UNL     1     -18.110 -20.104 -15.757  1.00  0.00     0.041 C 
ATOM     15  O   UNL     1     -19.181 -20.633 -16.157  1.00  0.00    -0.550 OA
ATOM     16  O   UNL     1     -16.931 -20.841 -15.769  1.00  0.00    -0.550 OA
ENDBRANCH  13  14
ENDBRANCH  12  13
ENDBRANCH  11  12
ENDBRANCH  10  11
ENDBRANCH   9  10
ENDBRANCH   8   9
ENDBRANCH   7   8
ENDBRANCH   6   7
ENDBRANCH   5   6
ENDBRANCH   4   5
ENDBRANCH   3   4
ENDBRANCH   2   3
ENDBRANCH   1   2
BRANCH   1  17
ATOM     17  C   UNL     1     -20.467  -7.274 -13.379  1.00  0.00     0.000 C 
BRANCH  17  18
ATOM     18  C   UNL     1     -20.010  -6.171 -14.356  1.00  0.00     0.000 C 
BRANCH  18  19
ATOM     19  C   UNL     1     -19.587  -6.693 -15.745  1.00  0.00     0.000 C 
BRANCH  19  20
ATOM     20  C   UNL     1     -19.953  -5.787 -16.934  1.00  0.00     0.000 C 
BRANCH  20  21
ATOM     21  C   UNL     1     -20.838  -4.576 -16.585  1.00  0.00     0.000 C 
BRANCH  21  22
ATOM     22  C   UNL     1     -22.336  -4.857 -16.787  1.00  0.00    -0.000 C 
BRANCH  22  23
ATOM     23  C   UNL     1     -22.642  -6.356 -16.959  1.00  0.00    -0.000 C 
BRANCH  23  24
ATOM     24  C   UNL     1     -23.825  -6.882 -16.117  1.00  0.00    -0.000 C 
BRANCH  24  25
ATOM     25  C   UNL     1     -25.049  -5.951 -16.043  1.00  0.00    -0.000 C 
BRANCH  25  26
ATOM     26  C   UNL     1     -24.685  -4.510 -15.652  1.00  0.00    -0.000 C 
BRANCH  26  27
ATOM     27  C   UNL     1     -24.992  -4.197 -14.176  1.00  0.00    -0.000 C 
BRANCH  27  28
ATOM     28  C   UNL     1     -24.437  -2.853 -13.660  1.00  0.00    -0.000 C 
BRANCH  28  29
ATOM     29  C   UNL     1     -22.944  -2.867 -13.286  1.00  0.00    -0.003 C 
ATOM     30  C   UNL     1     -22.527  -4.143 -12.556  1.00  0.00     0.004 C 
ENDBRANCH  28  29
ENDBRANCH  27  28
ENDBRANCH  26  27
ENDBRANCH  25  26
ENDBRANCH  24  25
ENDBRANCH  23  24
ENDBRANCH  22  23
ENDBRANCH  21  22
ENDBRANCH  20  21
ENDBRANCH  19  20
ENDBRANCH  18  19
ENDBRANCH  17  18
ENDBRANCH   1  17
TORSDOF 26
ENDMDL
MODEL 4
REMARK VINA RESULT:    -2.243      1.607      3.372
REMARK INTER + INTRA:          -7.624
REMARK INTER:                  -6.147
REMARK INTRA:                  -1.477
REMARK UNBOUND:                -1.972
REMARK SMILES CCCCCCCCCCCCCCCCCCCCCCCCCCCC(=O)[O-]
REMARK SMILES IDX 15 1 16 2 17 3 18 4 19 5 20 6 21 7 22 8 23 9 24 10 25 11
REMARK SMILES IDX 26 12 27 13 28 14 29 15 30 16 14 17 13 18 12 19 11 20 10 21
REMARK SMILES IDX 9 22 8 23 7 24 6 25 5 26 4 27 3 28 2 29 1 30
REMARK H PARENT
REMARK Flexibility Score: inf
ROOT
ATOM      1  C   UNL     1      -6.961  -7.304   1.326  1.00  0.00     0.000 C 
ENDROOT
BRANCH   1   2
ATOM      2  C   UNL     1      -6.902  -8.295   0.148  1.00  0.00     0.000 C 
BRANCH   2   3
ATOM      3  C   UNL     1      -6.064  -9.562   0.396  1.00  0.00     0.000 C 
BRANCH   3   4
ATOM      4  C   UNL     1      -6.433 -10.724  -0.542  1.00  0.00     0.000 C 
BRANCH   4   5
ATOM      5  C   UNL     1      -6.138 -12.096   0.083  1.00  0.00     0.000 C 
BRANCH   5   6
ATOM      6  C   UNL     1      -5.887 -12.024   1.597  1.00  0.00     0.000 C 
BRANCH   6   7
ATOM      7  C   UNL     1      -6.611 -13.167   2.324  1.00  0.00     0.000 C 
BRANCH   7   8
ATOM      8  C   UNL     1      -5.775 -14.457   2.389  1.00  0.00     0.000 C 
BRANCH   8   9
ATOM      9  C   UNL     1      -5.184 -14.914   1.041  1.00  0.00     0.000 C 
BRANCH   9  10
ATOM     10  C   UNL     1      -5.443 -16.389   0.674  1.00  0.00     0.000 C 
BRANCH  10  11
ATOM     11  C   UNL     1      -6.583 -17.074   1.453  1.00  0.00     0.000 C 
BRANCH  11  12
ATOM     12  C   UNL     1      -6.450 -18.601   1.610  1.00  0.00     0.006 C 
BRANCH  12  13
ATOM     13  C   UNL     1      -5.682 -19.285   0.464  1.00  0.00     0.053 C 
BRANCH  13  14
ATOM     14  C   UNL     1      -6.589 -19.937  -0.535  1.00  0.00     0.041 C 
ATOM     15  O   UNL     1      -7.666 -20.473  -0.161  1.00  0.00    -0.550 OA
ATOM     16  O   UNL     1      -6.260 -19.922  -1.885  1.00  0.00    -0.550 OA
ENDBRANCH  13  14
ENDBRANCH  12  13
ENDBRANCH  11  12
ENDBRANCH  10  11
ENDBRANCH   9  10
ENDBRANCH   8   9
ENDBRANCH   7   8
ENDBRANCH   6   7
ENDBRANCH   5   6
ENDBRANCH   4   5
ENDBRANCH   3   4
ENDBRANCH   2   3
ENDBRANCH   1   2
BRANCH   1  17
ATOM     17  C   UNL     1      -6.229  -7.813   2.582  1.00  0.00     0.000 C 
BRANCH  17  18
ATOM     18  C   UNL     1      -4.892  -7.087   2.836  1.00  0.00     0.000 C 
BRANCH  18  19
ATOM     19  C   UNL     1      -5.017  -5.553   2.945  1.00  0.00     0.000 C 
BRANCH  19  20
ATOM     20  C   UNL     1      -4.919  -4.783   1.614  1.00  0.00     0.000 C 
BRANCH  20  21
ATOM     21  C   UNL     1      -5.225  -3.277   1.708  1.00  0.00     0.000 C 
BRANCH  21  22
ATOM     22  C   UNL     1      -5.791  -2.870   3.078  1.00  0.00    -0.000 C 
BRANCH  22  23
ATOM     23  C   UNL     1      -7.329  -2.910   3.122  1.00  0.00    -0.000 C 
BRANCH  23  24
ATOM     24  C   UNL     1      -8.027  -2.723   1.758  1.00  0.00    -0.000 C 
BRANCH  24  25
ATOM     25  C   UNL     1      -9.567  -2.711   1.799  1.00  0.00    -0.000 C 
BRANCH  25  26
ATOM     26  C   UNL     1     -10.153  -3.857   2.641  1.00  0.00    -0.000 C 
BRANCH  26  27
ATOM     27  C   UNL     1     -10.109  -5.213   1.913  1.00  0.00    -0.000 C 
BRANCH  27  28
ATOM     28  C   UNL     1     -11.062  -5.343   0.707  1.00  0.00    -0.000 C 
BRANCH  28  29
ATOM     29  C   UNL     1     -11.065  -6.723   0.027  1.00  0.00    -0.003 C 
ATOM     30  C   UNL     1     -10.187  -7.743   0.751  1.00  0.00     0.004 C 
ENDBRANCH  28  29
ENDBRANCH  27  28
ENDBRANCH  26  27
ENDBRANCH  25  26
ENDBRANCH  24  25
ENDBRANCH  23  24
ENDBRANCH  22  23
ENDBRANCH  21  22
ENDBRANCH  20  21
ENDBRANCH  19  20
ENDBRANCH  18  19
ENDBRANCH  17  18
ENDBRANCH   1  17
TORSDOF 26
ENDMDL
MODEL 5
REMARK VINA RESULT:    -2.228     20.740     22.418
REMARK INTER + INTRA:          -7.585
REMARK INTER:                  -5.494
REMARK INTRA:                  -2.091
REMARK UNBOUND:                -1.972
REMARK SMILES CCCCCCCCCCCCCCCCCCCCCCCCCCCC(=O)[O-]
REMARK SMILES IDX 15 1 16 2 17 3 18 4 19 5 20 6 21 7 22 8 23 9 24 10 25 11
REMARK SMILES IDX 26 12 27 13 28 14 29 15 30 16 14 17 13 18 12 19 11 20 10 21
REMARK SMILES IDX 9 22 8 23 7 24 6 25 5 26 4 27 3 28 2 29 1 30
REMARK H PARENT
REMARK Flexibility Score: inf
ROOT
ATOM      1  C   UNL     1     -22.722  -8.948 -17.074  1.00  0.00     0.000 C 
ENDROOT
BRANCH   1   2
ATOM      2  C   UNL     1     -23.667 -10.138 -16.820  1.00  0.00     0.000 C 
BRANCH   2   3
ATOM      3  C   UNL     1     -23.002 -11.387 -16.215  1.00  0.00     0.000 C 
BRANCH   3   4
ATOM      4  C   UNL     1     -23.237 -12.660 -17.048  1.00  0.00     0.000 C 
BRANCH   4   5
ATOM      5  C   UNL     1     -21.985 -13.548 -17.124  1.00  0.00     0.000 C 
BRANCH   5   6
ATOM      6  C   UNL     1     -22.199 -14.941 -16.514  1.00  0.00     0.000 C 
BRANCH   6   7
ATOM      7  C   UNL     1     -21.052 -15.887 -16.900  1.00  0.00     0.000 C 
BRANCH   7   8
ATOM      8  C   UNL     1     -19.674 -15.203 -16.859  1.00  0.00     0.000 C 
BRANCH   8   9
ATOM      9  C   UNL     1     -18.491 -16.148 -16.572  1.00  0.00     0.000 C 
BRANCH   9  10
ATOM     10  C   UNL     1     -18.876 -17.604 -16.241  1.00  0.00     0.000 C 
BRANCH  10  11
ATOM     11  C   UNL     1     -17.976 -18.306 -15.207  1.00  0.00     0.000 C 
BRANCH  11  12
ATOM     12  C   UNL     1     -17.704 -19.800 -15.475  1.00  0.00     0.006 C 
BRANCH  12  13
ATOM     13  C   UNL     1     -18.946 -20.699 -15.335  1.00  0.00     0.053 C 
BRANCH  13  14
ATOM     14  C   UNL     1     -19.864 -20.254 -14.238  1.00  0.00     0.041 C 
ATOM     15  O   UNL     1     -21.041 -19.892 -14.502  1.00  0.00    -0.550 OA
ATOM     16  O   UNL     1     -19.429 -20.271 -12.918  1.00  0.00    -0.550 OA
ENDBRANCH  13  14
ENDBRANCH  12  13
ENDBRANCH  11  12
ENDBRANCH  10  11
ENDBRANCH   9  10
ENDBRANCH   8   9
ENDBRANCH   7   8
ENDBRANCH   6   7
ENDBRANCH   5   6
ENDBRANCH   4   5
ENDBRANCH   3   4
ENDBRANCH   2   3
ENDBRANCH   1   2
BRANCH   1  17
ATOM     17  C   UNL     1     -22.777  -7.884 -15.962  1.00  0.00     0.000 C 
BRANCH  17  18
ATOM     18  C   UNL     1     -22.006  -6.596 -16.320  1.00  0.00     0.000 C 
BRANCH  18  19
ATOM     19  C   UNL     1     -22.899  -5.347 -16.472  1.00  0.00     0.000 C 
BRANCH  19  20
ATOM     20  C   UNL     1     -24.410  -5.584 -16.290  1.00  0.00     0.000 C 
BRANCH  20  21
ATOM     21  C   UNL     1     -25.061  -4.789 -15.143  1.00  0.00     0.000 C 
BRANCH  21  22
ATOM     22  C   UNL     1     -24.714  -3.292 -15.186  1.00  0.00    -0.000 C 
BRANCH  22  23
ATOM     23  C   UNL     1     -24.675  -2.649 -13.788  1.00  0.00    -0.000 C 
BRANCH  23  24
ATOM     24  C   UNL     1     -24.795  -3.639 -12.610  1.00  0.00    -0.000 C 
BRANCH  24  25
ATOM     25  C   UNL     1     -23.479  -3.953 -11.874  1.00  0.00    -0.000 C 
BRANCH  25  26
ATOM     26  C   UNL     1     -22.540  -2.739 -11.780  1.00  0.00    -0.000 C 
BRANCH  26  27
ATOM     27  C   UNL     1     -21.152  -3.012 -12.385  1.00  0.00    -0.000 C 
BRANCH  27  28
ATOM     28  C   UNL     1     -21.125  -4.048 -13.528  1.00  0.00    -0.000 C 
BRANCH  28  29
ATOM     29  C   UNL     1     -19.726  -4.569 -13.901  1.00  0.00    -0.003 C 
ATOM     30  C   UNL     1     -19.145  -3.878 -15.134  1.00  0.00     0.004 C 
ENDBRANCH  28  29
ENDBRANCH  27  28
ENDBRANCH  26  27
ENDBRANCH  25  26
ENDBRANCH  24  25
ENDBRANCH  23  24
ENDBRANCH  22  23
ENDBRANCH  21  22
ENDBRANCH  20  21
ENDBRANCH  19  20
ENDBRANCH  18  19
ENDBRANCH  17  18
ENDBRANCH   1  17
TORSDOF 26
ENDMDL
MODEL 6
REMARK VINA RESULT:    -2.064     20.995     22.639
REMARK INTER + INTRA:          -7.172
REMARK INTER:                  -5.224
REMARK INTRA:                  -1.948
REMARK UNBOUND:                -1.972
REMARK SMILES CCCCCCCCCCCCCCCCCCCCCCCCCCCC(=O)[O-]
REMARK SMILES IDX 15 1 16 2 17 3 18 4 19 5 20 6 21 7 22 8 23 9 24 10 25 11
REMARK SMILES IDX 26 12 27 13 28 14 29 15 30 16 14 17 13 18 12 19 11 20 10 21
REMARK SMILES IDX 9 22 8 23 7 24 6 25 5 26 4 27 3 28 2 29 1 30
REMARK H PARENT
REMARK Flexibility Score: inf
ROOT
ATOM      1  C   UNL     1     -23.161  -9.049 -16.001  1.00  0.00     0.000 C 
ENDROOT
BRANCH   1   2
ATOM      2  C   UNL     1     -24.580  -9.607 -16.219  1.00  0.00     0.000 C 
BRANCH   2   3
ATOM      3  C   UNL     1     -24.663 -11.132 -16.416  1.00  0.00     0.000 C 
BRANCH   3   4
ATOM      4  C   UNL     1     -23.363 -11.862 -16.036  1.00  0.00     0.000 C 
BRANCH   4   5
ATOM      5  C   UNL     1     -22.904 -12.845 -17.125  1.00  0.00     0.000 C 
BRANCH   5   6
ATOM      6  C   UNL     1     -22.246 -14.110 -16.554  1.00  0.00     0.000 C 
BRANCH   6   7
ATOM      7  C   UNL     1     -22.955 -15.372 -17.066  1.00  0.00     0.000 C 
BRANCH   7   8
ATOM      8  C   UNL     1     -22.044 -16.612 -17.063  1.00  0.00     0.000 C 
BRANCH   8   9
ATOM      9  C   UNL     1     -22.766 -17.945 -16.789  1.00  0.00     0.000 C 
BRANCH   9  10
ATOM     10  C   UNL     1     -22.344 -18.669 -15.495  1.00  0.00     0.000 C 
BRANCH  10  11
ATOM     11  C   UNL     1     -22.282 -20.206 -15.588  1.00  0.00     0.000 C 
BRANCH  11  12
ATOM     12  C   UNL     1     -21.195 -20.875 -14.724  1.00  0.00     0.006 C 
BRANCH  12  13
ATOM     13  C   UNL     1     -20.045 -19.934 -14.322  1.00  0.00     0.053 C 
BRANCH  13  14
ATOM     14  C   UNL     1     -18.913 -19.948 -15.304  1.00  0.00     0.041 C 
ATOM     15  O   UNL     1     -18.917 -20.758 -16.267  1.00  0.00    -0.550 OA
ATOM     16  O   UNL     1     -17.869 -19.039 -15.172  1.00  0.00    -0.550 OA
ENDBRANCH  13  14
ENDBRANCH  12  13
ENDBRANCH  11  12
ENDBRANCH  10  11
ENDBRANCH   9  10
ENDBRANCH   8   9
ENDBRANCH   7   8
ENDBRANCH   6   7
ENDBRANCH   5   6
ENDBRANCH   4   5
ENDBRANCH   3   4
ENDBRANCH   2   3
ENDBRANCH   1   2
BRANCH   1  17
ATOM     17  C   UNL     1     -22.886  -7.764 -16.803  1.00  0.00     0.000 C 
BRANCH  17  18
ATOM     18  C   UNL     1     -22.859  -6.497 -15.924  1.00  0.00     0.000 C 
BRANCH  18  19
ATOM     19  C   UNL     1     -21.830  -5.439 -16.371  1.00  0.00     0.000 C 
BRANCH  19  20
ATOM     20  C   UNL     1     -20.386  -5.672 -15.891  1.00  0.00     0.000 C 
BRANCH  20  21
ATOM     21  C   UNL     1     -20.226  -6.750 -14.803  1.00  0.00     0.000 C 
BRANCH  21  22
ATOM     22  C   UNL     1     -19.862  -6.160 -13.431  1.00  0.00    -0.000 C 
BRANCH  22  23
ATOM     23  C   UNL     1     -20.955  -5.229 -12.874  1.00  0.00    -0.000 C 
BRANCH  23  24
ATOM     24  C   UNL     1     -20.433  -4.003 -12.094  1.00  0.00    -0.000 C 
BRANCH  24  25
ATOM     25  C   UNL     1     -21.385  -2.793 -12.051  1.00  0.00    -0.000 C 
BRANCH  25  26
ATOM     26  C   UNL     1     -22.478  -2.851 -13.131  1.00  0.00    -0.000 C 
BRANCH  26  27
ATOM     27  C   UNL     1     -21.959  -2.453 -14.525  1.00  0.00    -0.000 C 
BRANCH  27  28
ATOM     28  C   UNL     1     -23.050  -2.070 -15.547  1.00  0.00    -0.000 C 
BRANCH  28  29
ATOM     29  C   UNL     1     -22.522  -1.544 -16.893  1.00  0.00    -0.003 C 
ATOM     30  C   UNL     1     -21.048  -1.875 -17.124  1.00  0.00     0.004 C 
ENDBRANCH  28  29
ENDBRANCH  27  28
ENDBRANCH  26  27
ENDBRANCH  25  26
ENDBRANCH  24  25
ENDBRANCH  23  24
ENDBRANCH  22  23
ENDBRANCH  21  22
ENDBRANCH  20  21
ENDBRANCH  19  20
ENDBRANCH  18  19
ENDBRANCH  17  18
ENDBRANCH   1  17
TORSDOF 26
ENDMDL
MODEL 7
REMARK VINA RESULT:    -1.894      1.940      3.994
REMARK INTER + INTRA:          -6.744
REMARK INTER:                  -6.263
REMARK INTRA:                  -0.482
REMARK UNBOUND:                -1.972
REMARK SMILES CCCCCCCCCCCCCCCCCCCCCCCCCCCC(=O)[O-]
REMARK SMILES IDX 15 1 16 2 17 3 18 4 19 5 20 6 21 7 22 8 23 9 24 10 25 11
REMARK SMILES IDX 26 12 27 13 28 14 29 15 30 16 14 17 13 18 12 19 11 20 10 21
REMARK SMILES IDX 9 22 8 23 7 24 6 25 5 26 4 27 3 28 2 29 1 30
REMARK H PARENT
REMARK Flexibility Score: inf
ROOT
ATOM      1  C   UNL     1      -6.712  -8.076   1.211  1.00  0.00     0.000 C 
ENDROOT
BRANCH   1   2
ATOM      2  C   UNL     1      -6.476  -9.118   0.101  1.00  0.00     0.000 C 
BRANCH   2   3
ATOM      3  C   UNL     1      -5.875 -10.455   0.571  1.00  0.00     0.000 C 
BRANCH   3   4
ATOM      4  C   UNL     1      -6.116 -11.607  -0.420  1.00  0.00     0.000 C 
BRANCH   4   5
ATOM      5  C   UNL     1      -5.773 -12.978   0.184  1.00  0.00     0.000 C 
BRANCH   5   6
ATOM      6  C   UNL     1      -5.324 -12.892   1.651  1.00  0.00     0.000 C 
BRANCH   6   7
ATOM      7  C   UNL     1      -6.327 -13.605   2.570  1.00  0.00     0.000 C 
BRANCH   7   8
ATOM      8  C   UNL     1      -6.163 -15.135   2.560  1.00  0.00     0.000 C 
BRANCH   8   9
ATOM      9  C   UNL     1      -5.207 -15.676   1.479  1.00  0.00     0.000 C 
BRANCH   9  10
ATOM     10  C   UNL     1      -5.775 -16.814   0.607  1.00  0.00     0.000 C 
BRANCH  10  11
ATOM     11  C   UNL     1      -5.055 -18.170   0.740  1.00  0.00     0.000 C 
BRANCH  11  12
ATOM     12  C   UNL     1      -5.716 -19.343  -0.011  1.00  0.00     0.006 C 
BRANCH  12  13
ATOM     13  C   UNL     1      -5.663 -20.682   0.747  1.00  0.00     0.053 C 
BRANCH  13  14
ATOM     14  C   UNL     1      -6.179 -20.576   2.150  1.00  0.00     0.041 C 
ATOM     15  O   UNL     1      -5.440 -20.881   3.124  1.00  0.00    -0.550 OA
ATOM     16  O   UNL     1      -7.466 -20.108   2.383  1.00  0.00    -0.550 OA
ENDBRANCH  13  14
ENDBRANCH  12  13
ENDBRANCH  11  12
ENDBRANCH  10  11
ENDBRANCH   9  10
ENDBRANCH   8   9
ENDBRANCH   7   8
ENDBRANCH   6   7
ENDBRANCH   5   6
ENDBRANCH   4   5
ENDBRANCH   3   4
ENDBRANCH   2   3
ENDBRANCH   1   2
BRANCH   1  17
ATOM     17  C   UNL     1      -6.027  -8.443   2.540  1.00  0.00     0.000 C 
BRANCH  17  18
ATOM     18  C   UNL     1      -4.900  -7.464   2.929  1.00  0.00     0.000 C 
BRANCH  18  19
ATOM     19  C   UNL     1      -5.358  -5.999   3.076  1.00  0.00     0.000 C 
BRANCH  19  20
ATOM     20  C   UNL     1      -5.285  -5.148   1.795  1.00  0.00     0.000 C 
BRANCH  20  21
ATOM     21  C   UNL     1      -6.123  -3.856   1.820  1.00  0.00     0.000 C 
BRANCH  21  22
ATOM     22  C   UNL     1      -7.372  -3.976   2.707  1.00  0.00    -0.000 C 
BRANCH  22  23
ATOM     23  C   UNL     1      -8.447  -4.897   2.101  1.00  0.00    -0.000 C 
BRANCH  23  24
ATOM     24  C   UNL     1      -9.232  -5.746   3.125  1.00  0.00    -0.000 C 
BRANCH  24  25
ATOM     25  C   UNL     1      -9.863  -7.036   2.567  1.00  0.00    -0.000 C 
BRANCH  25  26
ATOM     26  C   UNL     1      -9.741  -7.151   1.039  1.00  0.00    -0.000 C 
BRANCH  26  27
ATOM     27  C   UNL     1     -10.014  -5.819   0.317  1.00  0.00    -0.000 C 
BRANCH  27  28
ATOM     28  C   UNL     1     -11.502  -5.501   0.064  1.00  0.00    -0.000 C 
BRANCH  28  29
ATOM     29  C   UNL     1     -12.453  -6.704   0.184  1.00  0.00    -0.003 C 
ATOM     30  C   UNL     1     -13.347  -6.632   1.421  1.00  0.00     0.004 C 
ENDBRANCH  28  29
ENDBRANCH  27  28
ENDBRANCH  26  27
ENDBRANCH  25  26
ENDBRANCH  24  25
ENDBRANCH  23  24
ENDBRANCH  22  23
ENDBRANCH  21  22
ENDBRANCH  20  21
ENDBRANCH  19  20
ENDBRANCH  18  19
ENDBRANCH  17  18
ENDBRANCH   1  17
TORSDOF 26
ENDMDL
