MODEL 1
REMARK VINA RESULT:    -4.643      0.000      0.000
REMARK INTER + INTRA:          -5.300
REMARK INTER:                  -5.050
REMARK INTRA:                  -0.250
REMARK UNBOUND:                -0.250
REMARK SMILES O=C([O-])c1ccccc1O
REMARK SMILES IDX 4 1 9 2 5 3 8 4 6 5 7 6 2 7 1 8 3 9 10 10
REMARK H PARENT 10 11
REMARK Flexibility Score: inf
ROOT
ATOM      1  C   UNL     1      17.440 -10.557   1.047  1.00  0.00     0.039 A 
ATOM      2  C   UNL     1      16.108 -10.219   0.697  1.00  0.00     0.124 A 
ATOM      3  C   UNL     1      17.784 -11.915   1.184  1.00  0.00     0.014 A 
ATOM      4  C   UNL     1      15.181 -11.236   0.435  1.00  0.00     0.047 A 
ATOM      5  C   UNL     1      16.842 -12.917   0.940  1.00  0.00     0.001 A 
ATOM      6  C   UNL     1      15.545 -12.578   0.556  1.00  0.00     0.004 A 
ENDROOT
BRANCH   1   7
ATOM      7  C   UNL     1      18.494  -9.536   1.236  1.00  0.00     0.075 C 
ATOM      8  O   UNL     1      18.591  -8.570   0.433  1.00  0.00    -0.545 OA
ATOM      9  O   UNL     1      19.345  -9.587   2.333  1.00  0.00    -0.545 OA
ENDBRANCH   1   7
BRANCH   2  10
ATOM     10  O   UNL     1      15.658  -8.899   0.635  1.00  0.00    -0.507 OA
ATOM     11  H   UNL     1      14.683  -8.647   0.545  1.00  0.00     0.293 HD
ENDBRANCH   2  10
TORSDOF 2
ENDMDL
MODEL 2
REMARK VINA RESULT:    -4.627     14.667     15.872
REMARK INTER + INTRA:          -5.283
REMARK INTER:                  -5.046
REMARK INTRA:                  -0.237
REMARK UNBOUND:                -0.250
REMARK SMILES O=C([O-])c1ccccc1O
REMARK SMILES IDX 4 1 9 2 5 3 8 4 6 5 7 6 2 7 1 8 3 9 10 10
REMARK H PARENT 10 11
REMARK Flexibility Score: inf
ROOT
ATOM      1  C   UNL     1       1.550  -9.197  -0.277  1.00  0.00     0.039 A 
ATOM      2  C   UNL     1       2.473  -8.428  -1.031  1.00  0.00     0.124 A 
ATOM      3  C   UNL     1       1.495  -9.017   1.119  1.00  0.00     0.014 A 
ATOM      4  C   UNL     1       3.262  -7.466  -0.388  1.00  0.00     0.047 A 
ATOM      5  C   UNL     1       2.305  -8.069   1.748  1.00  0.00     0.001 A 
ATOM      6  C   UNL     1       3.180  -7.287   0.994  1.00  0.00     0.004 A 
ENDROOT
BRANCH   1   7
ATOM      7  C   UNL     1       0.614 -10.155  -0.905  1.00  0.00     0.075 C 
ATOM      8  O   UNL     1      -0.125  -9.786  -1.857  1.00  0.00    -0.545 OA
ATOM      9  O   UNL     1       0.583 -11.485  -0.506  1.00  0.00    -0.545 OA
ENDBRANCH   1   7
BRANCH   2  10
ATOM     10  O   UNL     1       2.661  -8.612  -2.402  1.00  0.00    -0.507 OA
ATOM     11  H   UNL     1       2.365  -9.442  -2.898  1.00  0.00     0.293 HD
ENDBRANCH   2  10
TORSDOF 2
ENDMDL
MODEL 3
REMARK VINA RESULT:    -4.480     18.488     19.701
REMARK INTER + INTRA:          -5.123
REMARK INTER:                  -4.880
REMARK INTRA:                  -0.243
REMARK UNBOUND:                -0.250
REMARK SMILES O=C([O-])c1ccccc1O
REMARK SMILES IDX 4 1 9 2 5 3 8 4 6 5 7 6 2 7 1 8 3 9 10 10
REMARK H PARENT 10 11
REMARK Flexibility Score: inf
ROOT
ATOM      1  C   UNL     1       3.929   0.481   9.757  1.00  0.00     0.039 A 
ATOM      2  C   UNL     1       4.337   1.307   8.679  1.00  0.00     0.124 A 
ATOM      3  C   UNL     1       3.123   1.034  10.770  1.00  0.00     0.014 A 
ATOM      4  C   UNL     1       3.881   2.629   8.607  1.00  0.00     0.047 A 
ATOM      5  C   UNL     1       2.695   2.362  10.696  1.00  0.00     0.001 A 
ATOM      6  C   UNL     1       3.066   3.155   9.610  1.00  0.00     0.004 A 
ENDROOT
BRANCH   1   7
ATOM      7  C   UNL     1       4.288  -0.951   9.840  1.00  0.00     0.075 C 
ATOM      8  O   UNL     1       5.495  -1.307   9.766  1.00  0.00    -0.545 OA
ATOM      9  O   UNL     1       3.315  -1.917  10.068  1.00  0.00    -0.545 OA
ENDBRANCH   1   7
BRANCH   2  10
ATOM     10  O   UNL     1       5.214   0.868   7.685  1.00  0.00    -0.507 OA
ATOM     11  H   UNL     1       5.794   0.044   7.779  1.00  0.00     0.293 HD
ENDBRANCH   2  10
TORSDOF 2
ENDMDL
MODEL 4
REMARK VINA RESULT:    -4.472     14.905     15.896
REMARK INTER + INTRA:          -5.114
REMARK INTER:                  -4.936
REMARK INTRA:                  -0.178
REMARK UNBOUND:                -0.250
REMARK SMILES O=C([O-])c1ccccc1O
REMARK SMILES IDX 4 1 9 2 5 3 8 4 6 5 7 6 2 7 1 8 3 9 10 10
REMARK H PARENT 10 11
REMARK Flexibility Score: inf
ROOT
ATOM      1  C   UNL     1       1.715  -9.150  -0.540  1.00  0.00     0.039 A 
ATOM      2  C   UNL     1       1.371  -9.139   0.836  1.00  0.00     0.124 A 
ATOM      3  C   UNL     1       2.668  -8.227  -1.010  1.00  0.00     0.014 A 
ATOM      4  C   UNL     1       2.027  -8.260   1.707  1.00  0.00     0.047 A 
ATOM      5  C   UNL     1       3.297  -7.343  -0.132  1.00  0.00     0.001 A 
ATOM      6  C   UNL     1       2.985  -7.365   1.227  1.00  0.00     0.004 A 
ENDROOT
BRANCH   1   7
ATOM      7  C   UNL     1       1.136 -10.121  -1.494  1.00  0.00     0.075 C 
ATOM      8  O   UNL     1      -0.073 -10.029  -1.837  1.00  0.00    -0.545 OA
ATOM      9  O   UNL     1       1.928 -11.103  -2.077  1.00  0.00    -0.545 OA
ENDBRANCH   1   7
BRANCH   2  10
ATOM     10  O   UNL     1       0.367  -9.951   1.368  1.00  0.00    -0.507 OA
ATOM     11  H   UNL     1      -0.577  -9.630   1.538  1.00  0.00     0.293 HD
ENDBRANCH   2  10
TORSDOF 2
ENDMDL
MODEL 5
REMARK VINA RESULT:    -4.458     10.836     12.743
REMARK INTER + INTRA:          -5.099
REMARK INTER:                  -4.852
REMARK INTRA:                  -0.248
REMARK UNBOUND:                -0.250
REMARK SMILES O=C([O-])c1ccccc1O
REMARK SMILES IDX 4 1 9 2 5 3 8 4 6 5 7 6 2 7 1 8 3 9 10 10
REMARK H PARENT 10 11
REMARK Flexibility Score: inf
ROOT
ATOM      1  C   UNL     1       5.218  -6.974   0.862  1.00  0.00     0.039 A 
ATOM      2  C   UNL     1       6.289  -7.564   1.580  1.00  0.00     0.124 A 
ATOM      3  C   UNL     1       5.444  -5.769   0.171  1.00  0.00     0.014 A 
ATOM      4  C   UNL     1       7.559  -6.976   1.538  1.00  0.00     0.047 A 
ATOM      5  C   UNL     1       6.712  -5.183   0.156  1.00  0.00     0.001 A 
ATOM      6  C   UNL     1       7.771  -5.791   0.831  1.00  0.00     0.004 A 
ENDROOT
BRANCH   1   7
ATOM      7  C   UNL     1       3.879  -7.597   0.779  1.00  0.00     0.075 C 
ATOM      8  O   UNL     1       3.293  -7.980   1.827  1.00  0.00    -0.545 OA
ATOM      9  O   UNL     1       3.219  -7.708  -0.439  1.00  0.00    -0.545 OA
ENDBRANCH   1   7
BRANCH   2  10
ATOM     10  O   UNL     1       6.127  -8.704   2.371  1.00  0.00    -0.507 OA
ATOM     11  H   UNL     1       5.415  -8.789   3.085  1.00  0.00     0.293 HD
ENDBRANCH   2  10
TORSDOF 2
ENDMDL
MODEL 6
REMARK VINA RESULT:    -4.419     19.408     20.547
REMARK INTER + INTRA:          -5.057
REMARK INTER:                  -4.811
REMARK INTRA:                  -0.245
REMARK UNBOUND:                -0.250
REMARK SMILES O=C([O-])c1ccccc1O
REMARK SMILES IDX 4 1 9 2 5 3 8 4 6 5 7 6 2 7 1 8 3 9 10 10
REMARK H PARENT 10 11
REMARK Flexibility Score: inf
ROOT
ATOM      1  C   UNL     1       3.492   1.602   9.304  1.00  0.00     0.039 A 
ATOM      2  C   UNL     1       3.589   3.009   9.154  1.00  0.00     0.124 A 
ATOM      3  C   UNL     1       2.292   1.052   9.793  1.00  0.00     0.014 A 
ATOM      4  C   UNL     1       2.478   3.814   9.431  1.00  0.00     0.047 A 
ATOM      5  C   UNL     1       1.199   1.871  10.085  1.00  0.00     0.001 A 
ATOM      6  C   UNL     1       1.289   3.250   9.895  1.00  0.00     0.004 A 
ENDROOT
BRANCH   1   7
ATOM      7  C   UNL     1       4.592   0.686   8.932  1.00  0.00     0.075 C 
ATOM      8  O   UNL     1       5.169   0.809   7.819  1.00  0.00    -0.545 OA
ATOM      9  O   UNL     1       5.051  -0.275   9.825  1.00  0.00    -0.545 OA
ENDBRANCH   1   7
BRANCH   2  10
ATOM     10  O   UNL     1       4.772   3.644   8.770  1.00  0.00    -0.507 OA
ATOM     11  H   UNL     1       5.066   4.541   9.135  1.00  0.00     0.293 HD
ENDBRANCH   2  10
TORSDOF 2
ENDMDL
MODEL 7
REMARK VINA RESULT:    -4.399     14.007     14.990
REMARK INTER + INTRA:          -5.035
REMARK INTER:                  -4.799
REMARK INTRA:                  -0.236
REMARK UNBOUND:                -0.250
REMARK SMILES O=C([O-])c1ccccc1O
REMARK SMILES IDX 4 1 9 2 5 3 8 4 6 5 7 6 2 7 1 8 3 9 10 10
REMARK H PARENT 10 11
REMARK Flexibility Score: inf
ROOT
ATOM      1  C   UNL     1       2.638  -8.322  -0.068  1.00  0.00     0.039 A 
ATOM      2  C   UNL     1       1.615  -9.080   0.557  1.00  0.00     0.124 A 
ATOM      3  C   UNL     1       3.057  -8.683  -1.363  1.00  0.00     0.014 A 
ATOM      4  C   UNL     1       1.001 -10.126  -0.143  1.00  0.00     0.047 A 
ATOM      5  C   UNL     1       2.449  -9.742  -2.040  1.00  0.00     0.001 A 
ATOM      6  C   UNL     1       1.415 -10.457  -1.435  1.00  0.00     0.004 A 
ENDROOT
BRANCH   1   7
ATOM      7  C   UNL     1       3.256  -7.142   0.574  1.00  0.00     0.075 C 
ATOM      8  O   UNL     1       2.610  -6.473   1.424  1.00  0.00    -0.545 OA
ATOM      9  O   UNL     1       4.574  -6.794   0.304  1.00  0.00    -0.545 OA
ENDBRANCH   1   7
BRANCH   2  10
ATOM     10  O   UNL     1       1.208  -8.853   1.873  1.00  0.00    -0.507 OA
ATOM     11  H   UNL     1       0.279  -8.542   2.122  1.00  0.00     0.293 HD
ENDBRANCH   2  10
TORSDOF 2
ENDMDL
MODEL 8
REMARK VINA RESULT:    -4.297      1.792      3.648
REMARK INTER + INTRA:          -4.924
REMARK INTER:                  -4.678
REMARK INTRA:                  -0.246
REMARK UNBOUND:                -0.250
REMARK SMILES O=C([O-])c1ccccc1O
REMARK SMILES IDX 4 1 9 2 5 3 8 4 6 5 7 6 2 7 1 8 3 9 10 10
REMARK H PARENT 10 11
REMARK Flexibility Score: inf
ROOT
ATOM      1  C   UNL     1      15.432 -11.105  -0.298  1.00  0.00     0.039 A 
ATOM      2  C   UNL     1      16.026 -10.112   0.522  1.00  0.00     0.124 A 
ATOM      3  C   UNL     1      16.001 -12.393  -0.327  1.00  0.00     0.014 A 
ATOM      4  C   UNL     1      17.120 -10.443   1.331  1.00  0.00     0.047 A 
ATOM      5  C   UNL     1      17.106 -12.702   0.470  1.00  0.00     0.001 A 
ATOM      6  C   UNL     1      17.659 -11.731   1.305  1.00  0.00     0.004 A 
ENDROOT
BRANCH   1   7
ATOM      7  C   UNL     1      14.214 -10.851  -1.097  1.00  0.00     0.075 C 
ATOM      8  O   UNL     1      13.330 -10.060  -0.670  1.00  0.00    -0.545 OA
ATOM      9  O   UNL     1      14.055 -11.422  -2.354  1.00  0.00    -0.545 OA
ENDBRANCH   1   7
BRANCH   2  10
ATOM     10  O   UNL     1      15.586  -8.786   0.535  1.00  0.00    -0.507 OA
ATOM     11  H   UNL     1      15.717  -8.149  -0.239  1.00  0.00     0.293 HD
ENDBRANCH   2  10
TORSDOF 2
ENDMDL
MODEL 9
REMARK VINA RESULT:    -4.188      2.614      3.317
REMARK INTER + INTRA:          -4.805
REMARK INTER:                  -4.552
REMARK INTRA:                  -0.253
REMARK UNBOUND:                -0.250
REMARK SMILES O=C([O-])c1ccccc1O
REMARK SMILES IDX 4 1 9 2 5 3 8 4 6 5 7 6 2 7 1 8 3 9 10 10
REMARK H PARENT 10 11
REMARK Flexibility Score: inf
ROOT
ATOM      1  C   UNL     1      15.629 -10.925  -1.009  1.00  0.00     0.039 A 
ATOM      2  C   UNL     1      14.446 -10.389  -1.577  1.00  0.00     0.124 A 
ATOM      3  C   UNL     1      16.309 -11.951  -1.693  1.00  0.00     0.014 A 
ATOM      4  C   UNL     1      14.012 -10.842  -2.830  1.00  0.00     0.047 A 
ATOM      5  C   UNL     1      15.852 -12.406  -2.931  1.00  0.00     0.001 A 
ATOM      6  C   UNL     1      14.710 -11.845  -3.504  1.00  0.00     0.004 A 
ENDROOT
BRANCH   1   7
ATOM      7  C   UNL     1      16.199 -10.421   0.260  1.00  0.00     0.075 C 
ATOM      8  O   UNL     1      16.789 -11.209   1.046  1.00  0.00    -0.545 OA
ATOM      9  O   UNL     1      16.155  -9.067   0.572  1.00  0.00    -0.545 OA
ENDBRANCH   1   7
BRANCH   2  10
ATOM     10  O   UNL     1      13.658  -9.441  -0.921  1.00  0.00    -0.507 OA
ATOM     11  H   UNL     1      12.650  -9.497  -0.867  1.00  0.00     0.293 HD
ENDBRANCH   2  10
TORSDOF 2
ENDMDL
