MODEL 1
REMARK VINA RESULT:    -7.049      0.000      0.000
REMARK INTER + INTRA:          -9.163
REMARK INTER:                  -8.697
REMARK INTRA:                  -0.466
REMARK UNBOUND:                -0.466
REMARK SMILES CC(C)=CCC[C@H](C)c1ccc(C)cc1
REMARK SMILES IDX 6 1 7 2 8 3 9 4 13 5 12 6 11 7 14 8 10 9 15 10 5 11 4 12
REMARK SMILES IDX 2 13 1 14 3 15
REMARK H PARENT
REMARK Flexibility Score: inf
ROOT
ATOM      1  C   UNL     1      16.983  -3.833  24.408  1.00  0.00     0.012 C 
ENDROOT
BRANCH   1   2
ATOM      2  C   UNL     1      15.888  -4.602  23.633  1.00  0.00     0.016 C 
ATOM      3  C   UNL     1      16.177  -6.111  23.565  1.00  0.00     0.013 C 
BRANCH   2   4
ATOM      4  C   UNL     1      15.731  -4.033  22.234  1.00  0.00    -0.045 A 
ATOM      5  C   UNL     1      15.327  -2.404  18.254  1.00  0.00     0.044 C 
ATOM      6  C   UNL     1      15.454  -2.995  19.627  1.00  0.00    -0.051 A 
ATOM      7  C   UNL     1      14.447  -2.786  20.581  1.00  0.00     0.004 A 
ATOM      8  C   UNL     1      16.609  -3.702  19.988  1.00  0.00     0.004 A 
ATOM      9  C   UNL     1      14.582  -3.306  21.872  1.00  0.00     0.004 A 
ATOM     10  C   UNL     1      16.744  -4.222  21.278  1.00  0.00     0.004 A 
ENDBRANCH   2   4
ENDBRANCH   1   2
BRANCH   1  11
ATOM     11  C   UNL     1      16.712  -3.779  25.919  1.00  0.00     0.028 C 
BRANCH  11  12
ATOM     12  C   UNL     1      16.481  -2.358  26.368  1.00  0.00    -0.028 C 
ATOM     13  C   UNL     1      16.280  -1.985  27.651  1.00  0.00    -0.080 C 
ATOM     14  C   UNL     1      16.212  -2.991  28.777  1.00  0.00     0.039 C 
ATOM     15  C   UNL     1      16.102  -0.520  27.955  1.00  0.00     0.039 C 
ENDBRANCH  11  12
ENDBRANCH   1  11
TORSDOF 4
ENDMDL
MODEL 2
REMARK VINA RESULT:    -6.804     14.018     16.096
REMARK INTER + INTRA:          -8.861
REMARK INTER:                  -8.268
REMARK INTRA:                  -0.593
REMARK UNBOUND:                -0.466
REMARK SMILES CC(C)=CCC[C@H](C)c1ccc(C)cc1
REMARK SMILES IDX 6 1 7 2 8 3 9 4 13 5 12 6 11 7 14 8 10 9 15 10 5 11 4 12
REMARK SMILES IDX 2 13 1 14 3 15
REMARK H PARENT
REMARK Flexibility Score: inf
ROOT
ATOM      1  C   UNL     1       8.010   9.523  19.622  1.00  0.00     0.012 C 
ENDROOT
BRANCH   1   2
ATOM      2  C   UNL     1       6.608   8.884  19.758  1.00  0.00     0.016 C 
ATOM      3  C   UNL     1       5.559   9.596  18.888  1.00  0.00     0.013 C 
BRANCH   2   4
ATOM      4  C   UNL     1       6.169   8.876  21.211  1.00  0.00    -0.045 A 
ATOM      5  C   UNL     1       4.943   8.817  25.353  1.00  0.00     0.044 C 
ATOM      6  C   UNL     1       5.376   8.867  23.918  1.00  0.00    -0.051 A 
ATOM      7  C   UNL     1       4.453   9.189  22.912  1.00  0.00     0.004 A 
ATOM      8  C   UNL     1       6.689   8.524  23.563  1.00  0.00     0.004 A 
ATOM      9  C   UNL     1       4.847   9.200  21.571  1.00  0.00     0.004 A 
ATOM     10  C   UNL     1       7.084   8.535  22.222  1.00  0.00     0.004 A 
ENDBRANCH   2   4
ENDBRANCH   1   2
BRANCH   1  11
ATOM     11  C   UNL     1       9.089   8.505  19.227  1.00  0.00     0.028 C 
BRANCH  11  12
ATOM     12  C   UNL     1      10.411   9.193  18.995  1.00  0.00    -0.028 C 
ATOM     13  C   UNL     1      11.307   9.477  19.966  1.00  0.00    -0.080 C 
ATOM     14  C   UNL     1      11.034   9.174  21.421  1.00  0.00     0.039 C 
ATOM     15  C   UNL     1      12.606  10.134  19.576  1.00  0.00     0.039 C 
ENDBRANCH  11  12
ENDBRANCH   1  11
TORSDOF 4
ENDMDL
MODEL 3
REMARK VINA RESULT:    -6.734     14.215     15.681
REMARK INTER + INTRA:          -8.774
REMARK INTER:                  -7.775
REMARK INTRA:                  -0.999
REMARK UNBOUND:                -0.466
REMARK SMILES CC(C)=CCC[C@H](C)c1ccc(C)cc1
REMARK SMILES IDX 6 1 7 2 8 3 9 4 13 5 12 6 11 7 14 8 10 9 15 10 5 11 4 12
REMARK SMILES IDX 2 13 1 14 3 15
REMARK H PARENT
REMARK Flexibility Score: inf
ROOT
ATOM      1  C   UNL     1       4.333   7.448  21.403  1.00  0.00     0.012 C 
ENDROOT
BRANCH   1   2
ATOM      2  C   UNL     1       4.969   8.848  21.565  1.00  0.00     0.016 C 
ATOM      3  C   UNL     1       4.096   9.956  20.954  1.00  0.00     0.013 C 
BRANCH   2   4
ATOM      4  C   UNL     1       6.356   8.873  20.950  1.00  0.00    -0.045 A 
ATOM      5  C   UNL     1      10.291   8.920  19.166  1.00  0.00     0.044 C 
ATOM      6  C   UNL     1       8.926   8.934  19.788  1.00  0.00    -0.051 A 
ATOM      7  C   UNL     1       8.781   8.801  21.177  1.00  0.00     0.004 A 
ATOM      8  C   UNL     1       7.782   9.010  18.981  1.00  0.00     0.004 A 
ATOM      9  C   UNL     1       7.508   8.777  21.753  1.00  0.00     0.004 A 
ATOM     10  C   UNL     1       6.508   8.986  19.557  1.00  0.00     0.004 A 
ENDBRANCH   2   4
ENDBRANCH   1   2
BRANCH   1  11
ATOM     11  C   UNL     1       4.496   6.575  22.656  1.00  0.00     0.028 C 
BRANCH  11  12
ATOM     12  C   UNL     1       4.016   7.309  23.883  1.00  0.00    -0.028 C 
ATOM     13  C   UNL     1       4.796   7.622  24.941  1.00  0.00    -0.080 C 
ATOM     14  C   UNL     1       6.246   7.204  25.019  1.00  0.00     0.039 C 
ATOM     15  C   UNL     1       4.185   8.395  26.081  1.00  0.00     0.039 C 
ENDBRANCH  11  12
ENDBRANCH   1  11
TORSDOF 4
ENDMDL
MODEL 4
REMARK VINA RESULT:    -6.705     14.303     15.690
REMARK INTER + INTRA:          -8.739
REMARK INTER:                  -7.931
REMARK INTRA:                  -0.808
REMARK UNBOUND:                -0.466
REMARK SMILES CC(C)=CCC[C@H](C)c1ccc(C)cc1
REMARK SMILES IDX 6 1 7 2 8 3 9 4 13 5 12 6 11 7 14 8 10 9 15 10 5 11 4 12
REMARK SMILES IDX 2 13 1 14 3 15
REMARK H PARENT
REMARK Flexibility Score: inf
ROOT
ATOM      1  C   UNL     1       5.792   9.139  23.552  1.00  0.00     0.012 C 
ENDROOT
BRANCH   1   2
ATOM      2  C   UNL     1       4.946   8.099  24.322  1.00  0.00     0.016 C 
ATOM      3  C   UNL     1       5.752   7.403  25.432  1.00  0.00     0.013 C 
BRANCH   2   4
ATOM      4  C   UNL     1       4.372   7.070  23.365  1.00  0.00    -0.045 A 
ATOM      5  C   UNL     1       2.702   4.163  20.641  1.00  0.00     0.044 C 
ATOM      6  C   UNL     1       3.305   5.176  21.568  1.00  0.00    -0.051 A 
ATOM      7  C   UNL     1       4.188   4.771  22.579  1.00  0.00     0.004 A 
ATOM      8  C   UNL     1       2.938   6.526  21.475  1.00  0.00     0.004 A 
ATOM      9  C   UNL     1       4.723   5.710  23.466  1.00  0.00     0.004 A 
ATOM     10  C   UNL     1       3.472   7.466  22.361  1.00  0.00     0.004 A 
ENDBRANCH   2   4
ENDBRANCH   1   2
BRANCH   1  11
ATOM     11  C   UNL     1       7.078   8.539  22.965  1.00  0.00     0.028 C 
BRANCH  11  12
ATOM     12  C   UNL     1       7.126   8.740  21.470  1.00  0.00    -0.028 C 
ATOM     13  C   UNL     1       8.263   8.878  20.754  1.00  0.00    -0.080 C 
ATOM     14  C   UNL     1       9.625   8.900  21.408  1.00  0.00     0.039 C 
ATOM     15  C   UNL     1       8.156   9.033  19.258  1.00  0.00     0.039 C 
ENDBRANCH  11  12
ENDBRANCH   1  11
TORSDOF 4
ENDMDL
MODEL 5
REMARK VINA RESULT:    -6.690     14.508     16.337
REMARK INTER + INTRA:          -8.720
REMARK INTER:                  -7.637
REMARK INTRA:                  -1.083
REMARK UNBOUND:                -0.466
REMARK SMILES CC(C)=CCC[C@H](C)c1ccc(C)cc1
REMARK SMILES IDX 6 1 7 2 8 3 9 4 13 5 12 6 11 7 14 8 10 9 15 10 5 11 4 12
REMARK SMILES IDX 2 13 1 14 3 15
REMARK H PARENT
REMARK Flexibility Score: inf
ROOT
ATOM      1  C   UNL     1       5.967   7.271  24.446  1.00  0.00     0.012 C 
ENDROOT
BRANCH   1   2
ATOM      2  C   UNL     1       6.332   8.671  23.903  1.00  0.00     0.016 C 
ATOM      3  C   UNL     1       5.931   9.794  24.874  1.00  0.00     0.013 C 
BRANCH   2   4
ATOM      4  C   UNL     1       5.690   8.896  22.546  1.00  0.00    -0.045 A 
ATOM      5  C   UNL     1       3.823   9.526  18.701  1.00  0.00     0.044 C 
ATOM      6  C   UNL     1       4.485   9.334  20.033  1.00  0.00    -0.051 A 
ATOM      7  C   UNL     1       5.729   8.693  20.118  1.00  0.00     0.004 A 
ATOM      8  C   UNL     1       3.834   9.732  21.210  1.00  0.00     0.004 A 
ATOM      9  C   UNL     1       6.330   8.482  21.362  1.00  0.00     0.004 A 
ATOM     10  C   UNL     1       4.433   9.520  22.455  1.00  0.00     0.004 A 
ENDBRANCH   2   4
ENDBRANCH   1   2
BRANCH   1  11
ATOM     11  C   UNL     1       4.560   6.821  24.026  1.00  0.00     0.028 C 
BRANCH  11  12
ATOM     12  C   UNL     1       4.606   5.457  23.384  1.00  0.00    -0.028 C 
ATOM     13  C   UNL     1       3.984   5.133  22.230  1.00  0.00    -0.080 C 
ATOM     14  C   UNL     1       3.116   6.120  21.484  1.00  0.00     0.039 C 
ATOM     15  C   UNL     1       4.153   3.737  21.688  1.00  0.00     0.039 C 
ENDBRANCH  11  12
ENDBRANCH   1  11
TORSDOF 4
ENDMDL
MODEL 6
REMARK VINA RESULT:    -6.680     14.002     15.295
REMARK INTER + INTRA:          -8.707
REMARK INTER:                  -7.901
REMARK INTRA:                  -0.806
REMARK UNBOUND:                -0.466
REMARK SMILES CC(C)=CCC[C@H](C)c1ccc(C)cc1
REMARK SMILES IDX 6 1 7 2 8 3 9 4 13 5 12 6 11 7 14 8 10 9 15 10 5 11 4 12
REMARK SMILES IDX 2 13 1 14 3 15
REMARK H PARENT
REMARK Flexibility Score: inf
ROOT
ATOM      1  C   UNL     1       5.967   7.427  23.496  1.00  0.00     0.012 C 
ENDROOT
BRANCH   1   2
ATOM      2  C   UNL     1       5.992   8.796  22.778  1.00  0.00     0.016 C 
ATOM      3  C   UNL     1       4.647   9.126  22.110  1.00  0.00     0.013 C 
BRANCH   2   4
ATOM      4  C   UNL     1       7.112   8.835  21.753  1.00  0.00    -0.045 A 
ATOM      5  C   UNL     1      10.320   8.971  18.863  1.00  0.00     0.044 C 
ATOM      6  C   UNL     1       9.206   8.894  19.865  1.00  0.00    -0.051 A 
ATOM      7  C   UNL     1       7.870   8.929  19.439  1.00  0.00     0.004 A 
ATOM      8  C   UNL     1       9.491   8.855  21.237  1.00  0.00     0.004 A 
ATOM      9  C   UNL     1       6.832   8.893  20.375  1.00  0.00     0.004 A 
ATOM     10  C   UNL     1       8.453   8.820  22.173  1.00  0.00     0.004 A 
ENDBRANCH   2   4
ENDBRANCH   1   2
BRANCH   1  11
ATOM     11  C   UNL     1       4.545   6.871  23.662  1.00  0.00     0.028 C 
BRANCH  11  12
ATOM     12  C   UNL     1       4.510   5.396  23.350  1.00  0.00    -0.028 C 
ATOM     13  C   UNL     1       4.051   4.868  22.195  1.00  0.00    -0.080 C 
ATOM     14  C   UNL     1       3.463   5.728  21.100  1.00  0.00     0.039 C 
ATOM     15  C   UNL     1       4.116   3.374  22.010  1.00  0.00     0.039 C 
ENDBRANCH  11  12
ENDBRANCH   1  11
TORSDOF 4
ENDMDL
MODEL 7
REMARK VINA RESULT:    -6.670      1.044      6.545
REMARK INTER + INTRA:          -8.696
REMARK INTER:                  -8.079
REMARK INTRA:                  -0.617
REMARK UNBOUND:                -0.466
REMARK SMILES CC(C)=CCC[C@H](C)c1ccc(C)cc1
REMARK SMILES IDX 6 1 7 2 8 3 9 4 13 5 12 6 11 7 14 8 10 9 15 10 5 11 4 12
REMARK SMILES IDX 2 13 1 14 3 15
REMARK H PARENT
REMARK Flexibility Score: inf
ROOT
ATOM      1  C   UNL     1      16.819  -3.889  23.553  1.00  0.00     0.012 C 
ENDROOT
BRANCH   1   2
ATOM      2  C   UNL     1      17.127  -4.767  24.788  1.00  0.00     0.016 C 
ATOM      3  C   UNL     1      16.409  -6.125  24.729  1.00  0.00     0.013 C 
BRANCH   2   4
ATOM      4  C   UNL     1      16.759  -4.032  26.064  1.00  0.00    -0.045 A 
ATOM      5  C   UNL     1      15.740  -1.911  29.687  1.00  0.00     0.044 C 
ATOM      6  C   UNL     1      16.064  -2.648  28.422  1.00  0.00    -0.051 A 
ATOM      7  C   UNL     1      16.110  -4.050  28.413  1.00  0.00     0.004 A 
ATOM      8  C   UNL     1      16.392  -1.941  27.257  1.00  0.00     0.004 A 
ATOM      9  C   UNL     1      16.447  -4.736  27.243  1.00  0.00     0.004 A 
ATOM     10  C   UNL     1      16.731  -2.627  26.086  1.00  0.00     0.004 A 
ENDBRANCH   2   4
ENDBRANCH   1   2
BRANCH   1  11
ATOM     11  C   UNL     1      15.733  -4.495  22.652  1.00  0.00     0.028 C 
BRANCH  11  12
ATOM     12  C   UNL     1      14.947  -3.409  21.961  1.00  0.00    -0.028 C 
ATOM     13  C   UNL     1      15.192  -2.966  20.708  1.00  0.00    -0.080 C 
ATOM     14  C   UNL     1      16.344  -3.494  19.883  1.00  0.00     0.039 C 
ATOM     15  C   UNL     1      14.295  -1.901  20.133  1.00  0.00     0.039 C 
ENDBRANCH  11  12
ENDBRANCH   1  11
TORSDOF 4
ENDMDL
MODEL 8
REMARK VINA RESULT:    -6.668     13.595     16.021
REMARK INTER + INTRA:          -8.694
REMARK INTER:                  -8.055
REMARK INTRA:                  -0.638
REMARK UNBOUND:                -0.466
REMARK SMILES CC(C)=CCC[C@H](C)c1ccc(C)cc1
REMARK SMILES IDX 6 1 7 2 8 3 9 4 13 5 12 6 11 7 14 8 10 9 15 10 5 11 4 12
REMARK SMILES IDX 2 13 1 14 3 15
REMARK H PARENT
REMARK Flexibility Score: inf
ROOT
ATOM      1  C   UNL     1       4.475   4.821  22.798  1.00  0.00     0.012 C 
ENDROOT
BRANCH   1   2
ATOM      2  C   UNL     1       3.736   6.169  22.638  1.00  0.00     0.016 C 
ATOM      3  C   UNL     1       3.465   6.511  21.164  1.00  0.00     0.013 C 
BRANCH   2   4
ATOM      4  C   UNL     1       4.523   7.286  23.301  1.00  0.00    -0.045 A 
ATOM      5  C   UNL     1       6.799  10.445  25.171  1.00  0.00     0.044 C 
ATOM      6  C   UNL     1       5.991   9.369  24.508  1.00  0.00    -0.051 A 
ATOM      7  C   UNL     1       4.878   8.819  25.160  1.00  0.00     0.004 A 
ATOM      8  C   UNL     1       6.383   8.857  23.264  1.00  0.00     0.004 A 
ATOM      9  C   UNL     1       4.146   7.792  24.559  1.00  0.00     0.004 A 
ATOM     10  C   UNL     1       5.652   7.828  22.662  1.00  0.00     0.004 A 
ENDBRANCH   2   4
ENDBRANCH   1   2
BRANCH   1  11
ATOM     11  C   UNL     1       3.627   3.623  22.344  1.00  0.00     0.028 C 
BRANCH  11  12
ATOM     12  C   UNL     1       4.362   2.815  21.304  1.00  0.00    -0.028 C 
ATOM     13  C   UNL     1       4.036   2.778  19.994  1.00  0.00    -0.080 C 
ATOM     14  C   UNL     1       2.841   3.521  19.444  1.00  0.00     0.039 C 
ATOM     15  C   UNL     1       4.889   1.954  19.063  1.00  0.00     0.039 C 
ENDBRANCH  11  12
ENDBRANCH   1  11
TORSDOF 4
ENDMDL
MODEL 9
REMARK VINA RESULT:    -6.607     14.368     16.660
REMARK INTER + INTRA:          -8.618
REMARK INTER:                  -7.628
REMARK INTRA:                  -0.990
REMARK UNBOUND:                -0.466
REMARK SMILES CC(C)=CCC[C@H](C)c1ccc(C)cc1
REMARK SMILES IDX 6 1 7 2 8 3 9 4 13 5 12 6 11 7 14 8 10 9 15 10 5 11 4 12
REMARK SMILES IDX 2 13 1 14 3 15
REMARK H PARENT
REMARK Flexibility Score: inf
ROOT
ATOM      1  C   UNL     1       5.232   8.403  19.391  1.00  0.00     0.012 C 
ENDROOT
BRANCH   1   2
ATOM      2  C   UNL     1       4.068   8.587  20.393  1.00  0.00     0.016 C 
ATOM      3  C   UNL     1       3.453   9.993  20.315  1.00  0.00     0.013 C 
BRANCH   2   4
ATOM      4  C   UNL     1       4.537   8.295  21.807  1.00  0.00    -0.045 A 
ATOM      5  C   UNL     1       5.839   7.433  25.835  1.00  0.00     0.044 C 
ATOM      6  C   UNL     1       5.415   7.729  24.427  1.00  0.00    -0.051 A 
ATOM      7  C   UNL     1       5.394   9.051  23.958  1.00  0.00     0.004 A 
ATOM      8  C   UNL     1       4.972   6.695  23.590  1.00  0.00     0.004 A 
ATOM      9  C   UNL     1       4.965   9.331  22.658  1.00  0.00     0.004 A 
ATOM     10  C   UNL     1       4.542   6.974  22.289  1.00  0.00     0.004 A 
ENDBRANCH   2   4
ENDBRANCH   1   2
BRANCH   1  11
ATOM     11  C   UNL     1       6.090   9.668  19.242  1.00  0.00     0.028 C 
BRANCH  11  12
ATOM     12  C   UNL     1       7.503   9.311  18.852  1.00  0.00    -0.028 C 
ATOM     13  C   UNL     1       8.464   8.934  19.723  1.00  0.00    -0.080 C 
ATOM     14  C   UNL     1       8.220   8.886  21.214  1.00  0.00     0.039 C 
ATOM     15  C   UNL     1       9.822   8.568  19.182  1.00  0.00     0.039 C 
ENDBRANCH  11  12
ENDBRANCH   1  11
TORSDOF 4
ENDMDL
