MODEL 1
REMARK VINA RESULT:    -0.949      0.000      0.000
REMARK INTER + INTRA:          -1.801
REMARK INTER:                  -1.393
REMARK INTRA:                  -0.409
REMARK UNBOUND:                -0.409
REMARK SMILES O=C([O-])CCCCCCCC(=O)[O-]
REMARK SMILES IDX 7 1 6 2 5 3 4 4 2 5 1 6 3 7 8 8 9 9 10 10 11 11 12 12 13 13
REMARK H PARENT
REMARK Flexibility Score: inf
ROOT
ATOM      1  C   UNL     1      19.017  22.758  47.361  1.00  0.00     0.000 C 
ENDROOT
BRANCH   1   2
ATOM      2  C   UNL     1      20.253  22.252  48.114  1.00  0.00     0.000 C 
BRANCH   2   3
ATOM      3  C   UNL     1      21.537  22.878  47.548  1.00  0.00     0.006 C 
BRANCH   3   4
ATOM      4  C   UNL     1      22.126  22.054  46.395  1.00  0.00     0.053 C 
BRANCH   4   5
ATOM      5  C   UNL     1      22.987  22.889  45.497  1.00  0.00     0.041 C 
ATOM      6  O   UNL     1      22.477  23.504  44.525  1.00  0.00    -0.550 OA
ATOM      7  O   UNL     1      24.347  23.014  45.755  1.00  0.00    -0.550 OA
ENDBRANCH   4   5
ENDBRANCH   3   4
ENDBRANCH   2   3
ENDBRANCH   1   2
BRANCH   1   8
ATOM      8  C   UNL     1      18.420  23.992  48.049  1.00  0.00     0.000 C 
BRANCH   8   9
ATOM      9  C   UNL     1      18.067  25.077  47.021  1.00  0.00     0.006 C 
BRANCH   9  10
ATOM     10  C   UNL     1      17.341  24.504  45.797  1.00  0.00     0.053 C 
BRANCH  10  11
ATOM     11  C   UNL     1      18.093  24.770  44.529  1.00  0.00     0.041 C 
ATOM     12  O   UNL     1      17.480  24.845  43.431  1.00  0.00    -0.550 OA
ATOM     13  O   UNL     1      19.468  24.970  44.564  1.00  0.00    -0.550 OA
ENDBRANCH  10  11
ENDBRANCH   9  10
ENDBRANCH   8   9
ENDBRANCH   1   8
TORSDOF 8
ENDMDL
MODEL 2
REMARK VINA RESULT:    -0.441      1.026      1.611
REMARK INTER + INTRA:          -1.057
REMARK INTER:                  -0.555
REMARK INTRA:                  -0.502
REMARK UNBOUND:                -0.409
REMARK SMILES O=C([O-])CCCCCCCC(=O)[O-]
REMARK SMILES IDX 7 1 6 2 5 3 4 4 2 5 1 6 3 7 8 8 9 9 10 10 11 11 12 12 13 13
REMARK H PARENT
REMARK Flexibility Score: inf
ROOT
ATOM      1  C   UNL     1      20.575  22.705  48.125  1.00  0.00     0.000 C 
ENDROOT
BRANCH   1   2
ATOM      2  C   UNL     1      20.956  21.843  46.915  1.00  0.00     0.000 C 
BRANCH   2   3
ATOM      3  C   UNL     1      22.036  22.531  46.067  1.00  0.00     0.006 C 
BRANCH   3   4
ATOM      4  C   UNL     1      23.272  22.908  46.894  1.00  0.00     0.053 C 
BRANCH   4   5
ATOM      5  C   UNL     1      24.484  23.092  46.032  1.00  0.00     0.041 C 
ATOM      6  O   UNL     1      24.356  23.324  44.802  1.00  0.00    -0.550 OA
ATOM      7  O   UNL     1      25.753  23.040  46.595  1.00  0.00    -0.550 OA
ENDBRANCH   4   5
ENDBRANCH   3   4
ENDBRANCH   2   3
ENDBRANCH   1   2
BRANCH   1   8
ATOM      8  C   UNL     1      19.076  23.023  48.125  1.00  0.00     0.000 C 
BRANCH   8   9
ATOM      9  C   UNL     1      18.810  24.429  47.568  1.00  0.00     0.006 C 
BRANCH   9  10
ATOM     10  C   UNL     1      17.694  24.436  46.515  1.00  0.00     0.053 C 
BRANCH  10  11
ATOM     11  C   UNL     1      18.241  24.543  45.125  1.00  0.00     0.041 C 
ATOM     12  O   UNL     1      19.482  24.661  44.939  1.00  0.00    -0.550 OA
ATOM     13  O   UNL     1      17.385  24.477  44.032  1.00  0.00    -0.550 OA
ENDBRANCH  10  11
ENDBRANCH   9  10
ENDBRANCH   8   9
ENDBRANCH   1   8
TORSDOF 8
ENDMDL
MODEL 3
REMARK VINA RESULT:     1.981      1.362      5.484
REMARK INTER + INTRA:           2.499
REMARK INTER:                   2.767
REMARK INTRA:                  -0.268
REMARK UNBOUND:                -0.409
REMARK SMILES O=C([O-])CCCCCCCC(=O)[O-]
REMARK SMILES IDX 7 1 6 2 5 3 4 4 2 5 1 6 3 7 8 8 9 9 10 10 11 11 12 12 13 13
REMARK H PARENT
REMARK Flexibility Score: inf
ROOT
ATOM      1  C   UNL     1      20.876  22.185  46.376  1.00  0.00     0.000 C 
ENDROOT
BRANCH   1   2
ATOM      2  C   UNL     1      19.395  22.580  46.343  1.00  0.00     0.000 C 
BRANCH   2   3
ATOM      3  C   UNL     1      19.141  23.834  47.194  1.00  0.00     0.006 C 
BRANCH   3   4
ATOM      4  C   UNL     1      18.017  24.707  46.620  1.00  0.00     0.053 C 
BRANCH   4   5
ATOM      5  C   UNL     1      18.078  24.783  45.125  1.00  0.00     0.041 C 
ATOM      6  O   UNL     1      19.149  25.111  44.551  1.00  0.00    -0.550 OA
ATOM      7  O   UNL     1      16.961  24.458  44.365  1.00  0.00    -0.550 OA
ENDBRANCH   4   5
ENDBRANCH   3   4
ENDBRANCH   2   3
ENDBRANCH   1   2
BRANCH   1   8
ATOM      8  C   UNL     1      21.528  22.601  47.700  1.00  0.00     0.000 C 
BRANCH   8   9
ATOM      9  C   UNL     1      22.981  23.045  47.482  1.00  0.00     0.006 C 
BRANCH   9  10
ATOM     10  C   UNL     1      23.384  23.014  46.001  1.00  0.00     0.053 C 
BRANCH  10  11
ATOM     11  C   UNL     1      24.864  22.866  45.830  1.00  0.00     0.041 C 
ATOM     12  O   UNL     1      25.621  23.865  45.959  1.00  0.00    -0.550 OA
ATOM     13  O   UNL     1      25.413  21.618  45.563  1.00  0.00    -0.550 OA
ENDBRANCH  10  11
ENDBRANCH   9  10
ENDBRANCH   8   9
ENDBRANCH   1   8
TORSDOF 8
ENDMDL
