MODEL 1
REMARK VINA RESULT:    -3.360      0.000      0.000
REMARK INTER + INTRA:          -4.267
REMARK INTER:                  -4.048
REMARK INTRA:                  -0.219
REMARK UNBOUND:                -0.219
REMARK SMILES OCC(O)CO
REMARK SMILES IDX 3 1 5 2 6 3 2 5 1 6 4 8
REMARK H PARENT 6 4 1 7 4 9
REMARK Flexibility Score: inf
ROOT
ATOM      1  C   UNL     1     192.330 198.056 166.012  1.00  0.00     0.165 C 
ENDROOT
BRANCH   1   2
ATOM      2  C   UNL     1     191.527 198.571 167.219  1.00  0.00     0.190 C 
BRANCH   2   3
ATOM      3  O   UNL     1     192.389 198.910 168.271  1.00  0.00    -0.394 OA
ATOM      4  H   UNL     1     192.456 198.110 168.855  1.00  0.00     0.210 HD
ENDBRANCH   2   3
ENDBRANCH   1   2
BRANCH   1   5
ATOM      5  C   UNL     1     192.715 199.209 165.069  1.00  0.00     0.190 C 
BRANCH   5   6
ATOM      6  O   UNL     1     192.469 200.446 165.682  1.00  0.00    -0.394 OA
ATOM      7  H   UNL     1     193.247 201.027 165.470  1.00  0.00     0.210 HD
ENDBRANCH   5   6
ENDBRANCH   1   5
BRANCH   1   8
ATOM      8  O   UNL     1     191.610 197.067 165.317  1.00  0.00    -0.388 OA
ATOM      9  H   UNL     1     190.806 196.848 165.857  1.00  0.00     0.211 HD
ENDBRANCH   1   8
TORSDOF 5
ENDMDL
MODEL 2
REMARK VINA RESULT:    -3.246     17.833     18.745
REMARK INTER + INTRA:          -4.129
REMARK INTER:                  -4.127
REMARK INTRA:                  -0.002
REMARK UNBOUND:                -0.219
REMARK SMILES OCC(O)CO
REMARK SMILES IDX 3 1 5 2 6 3 2 5 1 6 4 8
REMARK H PARENT 6 4 1 7 4 9
REMARK Flexibility Score: inf
ROOT
ATOM      1  C   UNL     1     184.288 199.734 183.390  1.00  0.00     0.165 C 
ENDROOT
BRANCH   1   2
ATOM      2  C   UNL     1     184.303 198.771 182.190  1.00  0.00     0.190 C 
BRANCH   2   3
ATOM      3  O   UNL     1     185.057 197.628 182.489  1.00  0.00    -0.394 OA
ATOM      4  H   UNL     1     185.802 197.598 181.832  1.00  0.00     0.210 HD
ENDBRANCH   2   3
ENDBRANCH   1   2
BRANCH   1   5
ATOM      5  C   UNL     1     183.712 201.105 182.994  1.00  0.00     0.190 C 
BRANCH   5   6
ATOM      6  O   UNL     1     182.317 201.110 183.136  1.00  0.00    -0.394 OA
ATOM      7  H   UNL     1     181.940 200.908 182.239  1.00  0.00     0.210 HD
ENDBRANCH   5   6
ENDBRANCH   1   5
BRANCH   1   8
ATOM      8  O   UNL     1     185.578 199.877 183.932  1.00  0.00    -0.388 OA
ATOM      9  H   UNL     1     185.553 200.638 184.570  1.00  0.00     0.211 HD
ENDBRANCH   1   8
TORSDOF 5
ENDMDL
MODEL 3
REMARK VINA RESULT:    -3.233     17.021     18.469
REMARK INTER + INTRA:          -4.114
REMARK INTER:                  -3.896
REMARK INTRA:                  -0.217
REMARK UNBOUND:                -0.219
REMARK SMILES OCC(O)CO
REMARK SMILES IDX 3 1 5 2 6 3 2 5 1 6 4 8
REMARK H PARENT 6 4 1 7 4 9
REMARK Flexibility Score: inf
ROOT
ATOM      1  C   UNL     1     184.506 199.235 183.109  1.00  0.00     0.165 C 
ENDROOT
BRANCH   1   2
ATOM      2  C   UNL     1     185.282 199.877 181.946  1.00  0.00     0.190 C 
BRANCH   2   3
ATOM      3  O   UNL     1     186.639 199.533 182.013  1.00  0.00    -0.394 OA
ATOM      4  H   UNL     1     186.825 198.949 181.232  1.00  0.00     0.210 HD
ENDBRANCH   2   3
ENDBRANCH   1   2
BRANCH   1   5
ATOM      5  C   UNL     1     184.760 199.986 184.427  1.00  0.00     0.190 C 
BRANCH   5   6
ATOM      6  O   UNL     1     186.114 199.908 184.783  1.00  0.00    -0.394 OA
ATOM      7  H   UNL     1     186.418 200.839 184.947  1.00  0.00     0.210 HD
ENDBRANCH   5   6
ENDBRANCH   1   5
BRANCH   1   8
ATOM      8  O   UNL     1     184.841 197.875 183.242  1.00  0.00    -0.388 OA
ATOM      9  H   UNL     1     184.137 197.445 183.795  1.00  0.00     0.211 HD
ENDBRANCH   1   8
TORSDOF 5
ENDMDL
MODEL 4
REMARK VINA RESULT:    -3.233     17.335     18.875
REMARK INTER + INTRA:          -4.113
REMARK INTER:                  -3.894
REMARK INTRA:                  -0.219
REMARK UNBOUND:                -0.219
REMARK SMILES OCC(O)CO
REMARK SMILES IDX 3 1 5 2 6 3 2 5 1 6 4 8
REMARK H PARENT 6 4 1 7 4 9
REMARK Flexibility Score: inf
ROOT
ATOM      1  C   UNL     1     183.762 201.122 183.179  1.00  0.00     0.165 C 
ENDROOT
BRANCH   1   2
ATOM      2  C   UNL     1     184.294 200.413 181.921  1.00  0.00     0.190 C 
BRANCH   2   3
ATOM      3  O   UNL     1     185.545 200.933 181.559  1.00  0.00    -0.394 OA
ATOM      4  H   UNL     1     185.371 201.769 181.052  1.00  0.00     0.210 HD
ENDBRANCH   2   3
ENDBRANCH   1   2
BRANCH   1   5
ATOM      5  C   UNL     1     184.323 200.478 184.458  1.00  0.00     0.190 C 
BRANCH   5   6
ATOM      6  O   UNL     1     185.522 199.804 184.183  1.00  0.00    -0.394 OA
ATOM      7  H   UNL     1     185.311 198.833 184.199  1.00  0.00     0.210 HD
ENDBRANCH   5   6
ENDBRANCH   1   5
BRANCH   1   8
ATOM      8  O   UNL     1     182.355 201.116 183.198  1.00  0.00    -0.388 OA
ATOM      9  H   UNL     1     182.067 200.456 183.881  1.00  0.00     0.211 HD
ENDBRANCH   1   8
TORSDOF 5
ENDMDL
MODEL 5
REMARK VINA RESULT:    -3.230     15.422     16.281
REMARK INTER + INTRA:          -4.109
REMARK INTER:                  -3.924
REMARK INTRA:                  -0.185
REMARK UNBOUND:                -0.219
REMARK SMILES OCC(O)CO
REMARK SMILES IDX 3 1 5 2 6 3 2 5 1 6 4 8
REMARK H PARENT 6 4 1 7 4 9
REMARK Flexibility Score: inf
ROOT
ATOM      1  C   UNL     1     190.191 199.312 181.980  1.00  0.00     0.165 C 
ENDROOT
BRANCH   1   2
ATOM      2  C   UNL     1     190.362 199.564 183.488  1.00  0.00     0.190 C 
BRANCH   2   3
ATOM      3  O   UNL     1     189.135 199.917 184.068  1.00  0.00    -0.394 OA
ATOM      4  H   UNL     1     188.560 199.108 184.035  1.00  0.00     0.210 HD
ENDBRANCH   2   3
ENDBRANCH   1   2
BRANCH   1   5
ATOM      5  C   UNL     1     190.098 200.637 181.203  1.00  0.00     0.190 C 
BRANCH   5   6
ATOM      6  O   UNL     1     188.773 201.093 181.168  1.00  0.00    -0.394 OA
ATOM      7  H   UNL     1     188.428 201.033 182.098  1.00  0.00     0.210 HD
ENDBRANCH   5   6
ENDBRANCH   1   5
BRANCH   1   8
ATOM      8  O   UNL     1     189.060 198.512 181.732  1.00  0.00    -0.388 OA
ATOM      9  H   UNL     1     189.235 197.617 182.125  1.00  0.00     0.211 HD
ENDBRANCH   1   8
TORSDOF 5
ENDMDL
MODEL 6
REMARK VINA RESULT:    -3.179      0.697      2.887
REMARK INTER + INTRA:          -4.048
REMARK INTER:                  -4.031
REMARK INTRA:                  -0.017
REMARK UNBOUND:                -0.219
REMARK SMILES OCC(O)CO
REMARK SMILES IDX 3 1 5 2 6 3 2 5 1 6 4 8
REMARK H PARENT 6 4 1 7 4 9
REMARK Flexibility Score: inf
ROOT
ATOM      1  C   UNL     1     192.622 198.871 166.327  1.00  0.00     0.165 C 
ENDROOT
BRANCH   1   2
ATOM      2  C   UNL     1     192.329 198.024 165.077  1.00  0.00     0.190 C 
BRANCH   2   3
ATOM      3  O   UNL     1     191.530 196.921 165.409  1.00  0.00    -0.394 OA
ATOM      4  H   UNL     1     191.456 196.909 166.399  1.00  0.00     0.210 HD
ENDBRANCH   2   3
ENDBRANCH   1   2
BRANCH   1   5
ATOM      5  C   UNL     1     191.591 198.598 167.436  1.00  0.00     0.190 C 
BRANCH   5   6
ATOM      6  O   UNL     1     192.164 198.807 168.699  1.00  0.00    -0.394 OA
ATOM      7  H   UNL     1     192.911 199.449 168.569  1.00  0.00     0.210 HD
ENDBRANCH   5   6
ENDBRANCH   1   5
BRANCH   1   8
ATOM      8  O   UNL     1     192.653 200.241 166.006  1.00  0.00    -0.388 OA
ATOM      9  H   UNL     1     193.413 200.385 165.382  1.00  0.00     0.211 HD
ENDBRANCH   1   8
TORSDOF 5
ENDMDL
MODEL 7
REMARK VINA RESULT:    -3.167     17.061     17.855
REMARK INTER + INTRA:          -4.034
REMARK INTER:                  -3.864
REMARK INTRA:                  -0.170
REMARK UNBOUND:                -0.219
REMARK SMILES OCC(O)CO
REMARK SMILES IDX 3 1 5 2 6 3 2 5 1 6 4 8
REMARK H PARENT 6 4 1 7 4 9
REMARK Flexibility Score: inf
ROOT
ATOM      1  C   UNL     1     184.682 199.797 182.263  1.00  0.00     0.165 C 
ENDROOT
BRANCH   1   2
ATOM      2  C   UNL     1     184.727 200.002 183.787  1.00  0.00     0.190 C 
BRANCH   2   3
ATOM      3  O   UNL     1     186.012 199.734 184.279  1.00  0.00    -0.394 OA
ATOM      4  H   UNL     1     186.592 199.570 183.490  1.00  0.00     0.210 HD
ENDBRANCH   2   3
ENDBRANCH   1   2
BRANCH   1   5
ATOM      5  C   UNL     1     184.677 198.301 181.905  1.00  0.00     0.190 C 
BRANCH   5   6
ATOM      6  O   UNL     1     185.987 197.838 181.715  1.00  0.00    -0.394 OA
ATOM      7  H   UNL     1     186.550 198.640 181.550  1.00  0.00     0.210 HD
ENDBRANCH   5   6
ENDBRANCH   1   5
BRANCH   1   8
ATOM      8  O   UNL     1     185.759 200.452 181.638  1.00  0.00    -0.388 OA
ATOM      9  H   UNL     1     185.616 201.430 181.744  1.00  0.00     0.211 HD
ENDBRANCH   1   8
TORSDOF 5
ENDMDL
MODEL 8
REMARK VINA RESULT:    -3.076     18.058     19.049
REMARK INTER + INTRA:          -3.925
REMARK INTER:                  -3.921
REMARK INTRA:                  -0.004
REMARK UNBOUND:                -0.219
REMARK SMILES OCC(O)CO
REMARK SMILES IDX 3 1 5 2 6 3 2 5 1 6 4 8
REMARK H PARENT 6 4 1 7 4 9
REMARK Flexibility Score: inf
ROOT
ATOM      1  C   UNL     1     184.329 199.870 183.035  1.00  0.00     0.165 C 
ENDROOT
BRANCH   1   2
ATOM      2  C   UNL     1     183.552 201.125 182.599  1.00  0.00     0.190 C 
BRANCH   2   3
ATOM      3  O   UNL     1     182.264 201.119 183.151  1.00  0.00    -0.394 OA
ATOM      4  H   UNL     1     181.659 201.514 182.470  1.00  0.00     0.210 HD
ENDBRANCH   2   3
ENDBRANCH   1   2
BRANCH   1   5
ATOM      5  C   UNL     1     184.621 199.895 184.545  1.00  0.00     0.190 C 
BRANCH   5   6
ATOM      6  O   UNL     1     186.003 199.922 184.777  1.00  0.00    -0.394 OA
ATOM      7  H   UNL     1     186.133 199.731 185.743  1.00  0.00     0.210 HD
ENDBRANCH   5   6
ENDBRANCH   1   5
BRANCH   1   8
ATOM      8  O   UNL     1     185.523 199.742 182.302  1.00  0.00    -0.388 OA
ATOM      9  H   UNL     1     185.553 198.819 181.937  1.00  0.00     0.211 HD
ENDBRANCH   1   8
TORSDOF 5
ENDMDL
MODEL 9
REMARK VINA RESULT:    -2.961     18.004     18.505
REMARK INTER + INTRA:          -3.785
REMARK INTER:                  -3.783
REMARK INTRA:                  -0.003
REMARK UNBOUND:                -0.219
REMARK SMILES OCC(O)CO
REMARK SMILES IDX 3 1 5 2 6 3 2 5 1 6 4 8
REMARK H PARENT 6 4 1 7 4 9
REMARK Flexibility Score: inf
ROOT
ATOM      1  C   UNL     1     183.137 200.196 182.489  1.00  0.00     0.165 C 
ENDROOT
BRANCH   1   2
ATOM      2  C   UNL     1     184.542 200.819 182.429  1.00  0.00     0.190 C 
BRANCH   2   3
ATOM      3  O   UNL     1     185.409 200.157 183.311  1.00  0.00    -0.394 OA
ATOM      4  H   UNL     1     185.759 199.364 182.827  1.00  0.00     0.210 HD
ENDBRANCH   2   3
ENDBRANCH   1   2
BRANCH   1   5
ATOM      5  C   UNL     1     182.705 199.668 181.110  1.00  0.00     0.190 C 
BRANCH   5   6
ATOM      6  O   UNL     1     181.318 199.796 180.948  1.00  0.00    -0.394 OA
ATOM      7  H   UNL     1     181.070 199.229 180.171  1.00  0.00     0.210 HD
ENDBRANCH   5   6
ENDBRANCH   1   5
BRANCH   1   8
ATOM      8  O   UNL     1     182.200 201.123 182.980  1.00  0.00    -0.388 OA
ATOM      9  H   UNL     1     181.786 200.729 183.792  1.00  0.00     0.211 HD
ENDBRANCH   1   8
TORSDOF 5
ENDMDL
