MODEL 1
REMARK VINA RESULT:    -5.495      0.000      0.000
REMARK INTER + INTRA:          -6.774
REMARK INTER:                  -6.619
REMARK INTRA:                  -0.155
REMARK UNBOUND:                -0.155
REMARK SMILES O=c1c(O)c(-c2ccc(O)c(O)c2)oc2cc(O)cc(O)c12
REMARK SMILES IDX 5 1 3 2 2 3 1 4 22 5 20 6 19 7 17 8 16 9 15 10 14 11 6 12
REMARK SMILES IDX 7 13 8 14 9 15 13 16 11 17 10 18 12 20 4 22 21 24 18 26
REMARK H PARENT 10 19 12 21 4 23 21 25 18 27
REMARK Flexibility Score: inf
ROOT
ATOM      1  C   UNL     1       6.075   3.591  19.339  1.00  0.00     0.180 A 
ATOM      2  C   UNL     1       6.372   4.664  18.480  1.00  0.00     0.208 A 
ATOM      3  C   UNL     1       7.373   5.575  18.852  1.00  0.00     0.238 A 
ATOM      4  O   UNL     1       7.672   6.503  18.054  1.00  0.00    -0.285 OA
ATOM      5  C   UNL     1       8.051   5.415  20.083  1.00  0.00     0.111 A 
ATOM      6  C   UNL     1       9.054   6.301  20.578  1.00  0.00     0.134 A 
ATOM      7  C   UNL     1       9.752   5.972  21.747  1.00  0.00     0.093 A 
ATOM      8  C   UNL     1       9.437   4.821  22.474  1.00  0.00     0.123 A 
ATOM      9  C   UNL     1       8.419   3.980  22.030  1.00  0.00     0.094 A 
ATOM     10  C   UNL     1       7.730   4.263  20.848  1.00  0.00     0.146 A 
ATOM     11  O   UNL     1       6.774   3.430  20.456  1.00  0.00    -0.452 OA
ENDROOT
BRANCH   1  12
ATOM     12  C   UNL     1       5.016   2.603  19.029  1.00  0.00     0.025 A 
ATOM     13  C   UNL     1       5.115   1.752  17.913  1.00  0.00     0.016 A 
ATOM     14  C   UNL     1       4.092   0.843  17.627  1.00  0.00     0.051 A 
ATOM     15  C   UNL     1       2.954   0.781  18.439  1.00  0.00     0.157 A 
ATOM     16  C   UNL     1       3.863   2.550  19.829  1.00  0.00     0.062 A 
ATOM     17  C   UNL     1       2.837   1.638  19.541  1.00  0.00     0.158 A 
BRANCH  15  18
ATOM     18  O   UNL     1       1.933  -0.125  18.157  1.00  0.00    -0.504 OA
ATOM     19  H   UNL     1       1.041  -0.083  18.636  1.00  0.00     0.293 HD
ENDBRANCH  15  18
BRANCH  17  20
ATOM     20  O   UNL     1       1.700   1.579  20.344  1.00  0.00    -0.504 OA
ATOM     21  H   UNL     1       1.482   2.311  21.011  1.00  0.00     0.293 HD
ENDBRANCH  17  20
ENDBRANCH   1  12
BRANCH   2  22
ATOM     22  O   UNL     1       5.704   4.792  17.260  1.00  0.00    -0.502 OA
ATOM     23  H   UNL     1       4.795   5.233  17.181  1.00  0.00     0.293 HD
ENDBRANCH   2  22
BRANCH   6  24
ATOM     24  O   UNL     1       9.382   7.522  19.979  1.00  0.00    -0.507 OA
ATOM     25  H   UNL     1       8.718   8.246  19.752  1.00  0.00     0.293 HD
ENDBRANCH   6  24
BRANCH   8  26
ATOM     26  O   UNL     1      10.125   4.509  23.644  1.00  0.00    -0.508 OA
ATOM     27  H   UNL     1      10.996   3.992  23.625  1.00  0.00     0.293 HD
ENDBRANCH   8  26
TORSDOF 6
ENDMDL
MODEL 2
REMARK VINA RESULT:    -4.909      2.864      3.626
REMARK INTER + INTRA:          -6.068
REMARK INTER:                  -5.878
REMARK INTRA:                  -0.190
REMARK UNBOUND:                -0.155
REMARK SMILES O=c1c(O)c(-c2ccc(O)c(O)c2)oc2cc(O)cc(O)c12
REMARK SMILES IDX 5 1 3 2 2 3 1 4 22 5 20 6 19 7 17 8 16 9 15 10 14 11 6 12
REMARK SMILES IDX 7 13 8 14 9 15 13 16 11 17 10 18 12 20 4 22 21 24 18 26
REMARK H PARENT 10 19 12 21 4 23 21 25 18 27
REMARK Flexibility Score: inf
ROOT
ATOM      1  C   UNL     1       5.463   2.488  18.399  1.00  0.00     0.180 A 
ATOM      2  C   UNL     1       6.672   1.780  18.279  1.00  0.00     0.208 A 
ATOM      3  C   UNL     1       7.833   2.477  17.910  1.00  0.00     0.238 A 
ATOM      4  O   UNL     1       8.924   1.849  17.857  1.00  0.00    -0.285 OA
ATOM      5  C   UNL     1       7.769   3.866  17.647  1.00  0.00     0.111 A 
ATOM      6  C   UNL     1       8.876   4.664  17.228  1.00  0.00     0.134 A 
ATOM      7  C   UNL     1       8.727   6.053  17.124  1.00  0.00     0.093 A 
ATOM      8  C   UNL     1       7.494   6.665  17.363  1.00  0.00     0.123 A 
ATOM      9  C   UNL     1       6.393   5.887  17.716  1.00  0.00     0.094 A 
ATOM     10  C   UNL     1       6.520   4.504  17.863  1.00  0.00     0.146 A 
ATOM     11  O   UNL     1       5.448   3.802  18.210  1.00  0.00    -0.452 OA
ENDROOT
BRANCH   1  12
ATOM     12  C   UNL     1       4.191   1.820  18.760  1.00  0.00     0.025 A 
ATOM     13  C   UNL     1       3.605   0.858  17.918  1.00  0.00     0.016 A 
ATOM     14  C   UNL     1       2.392   0.258  18.268  1.00  0.00     0.051 A 
ATOM     15  C   UNL     1       1.742   0.619  19.454  1.00  0.00     0.157 A 
ATOM     16  C   UNL     1       3.524   2.193  19.938  1.00  0.00     0.062 A 
ATOM     17  C   UNL     1       2.307   1.591  20.290  1.00  0.00     0.158 A 
BRANCH  15  18
ATOM     18  O   UNL     1       0.534   0.022  19.807  1.00  0.00    -0.504 OA
ATOM     19  H   UNL     1       0.095   0.203  20.703  1.00  0.00     0.293 HD
ENDBRANCH  15  18
BRANCH  17  20
ATOM     20  O   UNL     1       1.655   1.954  21.466  1.00  0.00    -0.504 OA
ATOM     21  H   UNL     1       1.506   2.926  21.713  1.00  0.00     0.293 HD
ENDBRANCH  17  20
ENDBRANCH   1  12
BRANCH   2  22
ATOM     22  O   UNL     1       6.717   0.413  18.563  1.00  0.00    -0.502 OA
ATOM     23  H   UNL     1       7.405  -0.205  18.150  1.00  0.00     0.293 HD
ENDBRANCH   2  22
BRANCH   6  24
ATOM     24  O   UNL     1      10.125   4.143  16.875  1.00  0.00    -0.507 OA
ATOM     25  H   UNL     1      10.316   3.634  16.026  1.00  0.00     0.293 HD
ENDBRANCH   6  24
BRANCH   8  26
ATOM     26  O   UNL     1       7.350   8.045  17.243  1.00  0.00    -0.508 OA
ATOM     27  H   UNL     1       8.129   8.675  17.399  1.00  0.00     0.293 HD
ENDBRANCH   8  26
TORSDOF 6
ENDMDL
