MODEL 1
REMARK VINA RESULT:    -4.079      0.000      0.000
REMARK INTER + INTRA:          -5.669
REMARK INTER:                  -5.510
REMARK INTRA:                  -0.159
REMARK UNBOUND:                -0.159
REMARK SMILES CCCCCCCC=O
REMARK SMILES IDX 5 1 4 2 3 3 2 4 1 5 6 6 7 7 8 8 9 9
REMARK H PARENT
REMARK Flexibility Score: inf
ROOT
ATOM      1  C   UNL     1      25.882  56.732  -9.047  1.00  0.00     0.000 C 
ENDROOT
BRANCH   1   2
ATOM      2  C   UNL     1      25.291  58.156  -9.048  1.00  0.00     0.000 C 
BRANCH   2   3
ATOM      3  C   UNL     1      26.279  59.272  -9.432  1.00  0.00    -0.000 C 
BRANCH   3   4
ATOM      4  C   UNL     1      27.384  58.787 -10.381  1.00  0.00    -0.003 C 
ATOM      5  C   UNL     1      28.281  59.943 -10.816  1.00  0.00     0.004 C 
ENDBRANCH   3   4
ENDBRANCH   2   3
ENDBRANCH   1   2
BRANCH   1   6
ATOM      6  C   UNL     1      25.112  55.698  -8.200  1.00  0.00     0.008 C 
BRANCH   6   7
ATOM      7  C   UNL     1      23.647  55.495  -8.619  1.00  0.00     0.072 C 
BRANCH   7   8
ATOM      8  C   UNL     1      22.850  54.751  -7.586  1.00  0.00     0.224 C 
ATOM      9  O   UNL     1      23.195  54.781  -6.416  1.00  0.00    -0.303 OA
ENDBRANCH   7   8
ENDBRANCH   6   7
ENDBRANCH   1   6
TORSDOF 6
ENDMDL
MODEL 2
REMARK VINA RESULT:    -3.896      3.271      6.048
REMARK INTER + INTRA:          -5.422
REMARK INTER:                  -5.305
REMARK INTRA:                  -0.117
REMARK UNBOUND:                -0.159
REMARK SMILES CCCCCCCC=O
REMARK SMILES IDX 5 1 4 2 3 3 2 4 1 5 6 6 7 7 8 8 9 9
REMARK H PARENT
REMARK Flexibility Score: inf
ROOT
ATOM      1  C   UNL     1      26.610  58.110  -9.994  1.00  0.00     0.000 C 
ENDROOT
BRANCH   1   2
ATOM      2  C   UNL     1      25.480  57.890  -8.970  1.00  0.00     0.000 C 
BRANCH   2   3
ATOM      3  C   UNL     1      25.399  56.469  -8.382  1.00  0.00    -0.000 C 
BRANCH   3   4
ATOM      4  C   UNL     1      24.226  55.656  -8.949  1.00  0.00    -0.003 C 
ATOM      5  C   UNL     1      23.318  55.150  -7.833  1.00  0.00     0.004 C 
ENDBRANCH   3   4
ENDBRANCH   2   3
ENDBRANCH   1   2
BRANCH   1   6
ATOM      6  C   UNL     1      27.233  59.521  -9.995  1.00  0.00     0.008 C 
BRANCH   6   7
ATOM      7  C   UNL     1      28.770  59.540  -9.939  1.00  0.00     0.072 C 
BRANCH   7   8
ATOM      8  C   UNL     1      29.394  59.707 -11.294  1.00  0.00     0.224 C 
ATOM      9  O   UNL     1      29.870  58.739 -11.866  1.00  0.00    -0.303 OA
ENDBRANCH   7   8
ENDBRANCH   6   7
ENDBRANCH   1   6
TORSDOF 6
ENDMDL
MODEL 3
REMARK VINA RESULT:    -3.667     16.429     17.915
REMARK INTER + INTRA:          -5.112
REMARK INTER:                  -4.766
REMARK INTRA:                  -0.346
REMARK UNBOUND:                -0.159
REMARK SMILES CCCCCCCC=O
REMARK SMILES IDX 5 1 4 2 3 3 2 4 1 5 6 6 7 7 8 8 9 9
REMARK H PARENT
REMARK Flexibility Score: inf
ROOT
ATOM      1  C   UNL     1      19.141  44.899  -0.103  1.00  0.00     0.000 C 
ENDROOT
BRANCH   1   2
ATOM      2  C   UNL     1      17.864  45.604  -0.599  1.00  0.00     0.000 C 
BRANCH   2   3
ATOM      3  C   UNL     1      16.586  44.747  -0.553  1.00  0.00    -0.000 C 
BRANCH   3   4
ATOM      4  C   UNL     1      15.432  45.438   0.188  1.00  0.00    -0.003 C 
ATOM      5  C   UNL     1      15.111  44.720   1.496  1.00  0.00     0.004 C 
ENDBRANCH   3   4
ENDBRANCH   2   3
ENDBRANCH   1   2
BRANCH   1   6
ATOM      6  C   UNL     1      19.048  44.279   1.307  1.00  0.00     0.008 C 
BRANCH   6   7
ATOM      7  C   UNL     1      19.531  42.822   1.396  1.00  0.00     0.072 C 
BRANCH   7   8
ATOM      8  C   UNL     1      20.985  42.675   1.050  1.00  0.00     0.224 C 
ATOM      9  O   UNL     1      21.310  42.084   0.032  1.00  0.00    -0.303 OA
ENDBRANCH   7   8
ENDBRANCH   6   7
ENDBRANCH   1   6
TORSDOF 6
ENDMDL
MODEL 4
REMARK VINA RESULT:    -3.665      2.914      5.874
REMARK INTER + INTRA:          -5.110
REMARK INTER:                  -4.968
REMARK INTRA:                  -0.143
REMARK UNBOUND:                -0.159
REMARK SMILES CCCCCCCC=O
REMARK SMILES IDX 5 1 4 2 3 3 2 4 1 5 6 6 7 7 8 8 9 9
REMARK H PARENT
REMARK Flexibility Score: inf
ROOT
ATOM      1  C   UNL     1      24.976  57.106  -8.337  1.00  0.00     0.000 C 
ENDROOT
BRANCH   1   2
ATOM      2  C   UNL     1      24.968  55.638  -7.866  1.00  0.00     0.000 C 
BRANCH   2   3
ATOM      3  C   UNL     1      23.851  54.766  -8.467  1.00  0.00    -0.000 C 
BRANCH   3   4
ATOM      4  C   UNL     1      22.579  54.751  -7.607  1.00  0.00    -0.003 C 
ATOM      5  C   UNL     1      22.905  54.442  -6.149  1.00  0.00     0.004 C 
ENDBRANCH   3   4
ENDBRANCH   2   3
ENDBRANCH   1   2
BRANCH   1   6
ATOM      6  C   UNL     1      25.997  57.438  -9.444  1.00  0.00     0.008 C 
BRANCH   6   7
ATOM      7  C   UNL     1      26.357  58.928  -9.553  1.00  0.00     0.072 C 
BRANCH   7   8
ATOM      8  C   UNL     1      27.616  59.161 -10.338  1.00  0.00     0.224 C 
ATOM      9  O   UNL     1      27.824  60.253 -10.842  1.00  0.00    -0.303 OA
ENDBRANCH   7   8
ENDBRANCH   6   7
ENDBRANCH   1   6
TORSDOF 6
ENDMDL
MODEL 5
REMARK VINA RESULT:    -3.577     16.571     17.779
REMARK INTER + INTRA:          -4.992
REMARK INTER:                  -4.677
REMARK INTRA:                  -0.315
REMARK UNBOUND:                -0.159
REMARK SMILES CCCCCCCC=O
REMARK SMILES IDX 5 1 4 2 3 3 2 4 1 5 6 6 7 7 8 8 9 9
REMARK H PARENT
REMARK Flexibility Score: inf
ROOT
ATOM      1  C   UNL     1      17.771  45.392  -0.360  1.00  0.00     0.000 C 
ENDROOT
BRANCH   1   2
ATOM      2  C   UNL     1      19.214  44.882  -0.174  1.00  0.00     0.000 C 
BRANCH   2   3
ATOM      3  C   UNL     1      19.578  44.463   1.261  1.00  0.00    -0.000 C 
BRANCH   3   4
ATOM      4  C   UNL     1      19.836  42.955   1.393  1.00  0.00    -0.003 C 
ATOM      5  C   UNL     1      20.849  42.478   0.356  1.00  0.00     0.004 C 
ENDBRANCH   3   4
ENDBRANCH   2   3
ENDBRANCH   1   2
BRANCH   1   6
ATOM      6  C   UNL     1      16.665  44.343  -0.119  1.00  0.00     0.008 C 
BRANCH   6   7
ATOM      7  C   UNL     1      15.902  44.514   1.205  1.00  0.00     0.072 C 
BRANCH   7   8
ATOM      8  C   UNL     1      14.691  45.390   1.063  1.00  0.00     0.224 C 
ATOM      9  O   UNL     1      14.311  45.726  -0.048  1.00  0.00    -0.303 OA
ENDBRANCH   7   8
ENDBRANCH   6   7
ENDBRANCH   1   6
TORSDOF 6
ENDMDL
MODEL 6
REMARK VINA RESULT:    -3.526     16.629     17.882
REMARK INTER + INTRA:          -4.922
REMARK INTER:                  -4.364
REMARK INTRA:                  -0.558
REMARK UNBOUND:                -0.159
REMARK SMILES CCCCCCCC=O
REMARK SMILES IDX 5 1 4 2 3 3 2 4 1 5 6 6 7 7 8 8 9 9
REMARK H PARENT
REMARK Flexibility Score: inf
ROOT
ATOM      1  C   UNL     1      18.026  45.341  -0.428  1.00  0.00     0.000 C 
ENDROOT
BRANCH   1   2
ATOM      2  C   UNL     1      19.444  44.912   0.000  1.00  0.00     0.000 C 
BRANCH   2   3
ATOM      3  C   UNL     1      19.553  44.360   1.433  1.00  0.00    -0.000 C 
BRANCH   3   4
ATOM      4  C   UNL     1      19.898  42.864   1.469  1.00  0.00    -0.003 C 
ATOM      5  C   UNL     1      20.830  42.487   0.321  1.00  0.00     0.004 C 
ENDBRANCH   3   4
ENDBRANCH   2   3
ENDBRANCH   1   2
BRANCH   1   6
ATOM      6  C   UNL     1      16.872  44.586   0.263  1.00  0.00     0.008 C 
BRANCH   6   7
ATOM      7  C   UNL     1      16.201  43.512  -0.608  1.00  0.00     0.072 C 
BRANCH   7   8
ATOM      8  C   UNL     1      16.799  42.149  -0.407  1.00  0.00     0.224 C 
ATOM      9  O   UNL     1      17.682  41.758  -1.155  1.00  0.00    -0.303 OA
ENDBRANCH   7   8
ENDBRANCH   6   7
ENDBRANCH   1   6
TORSDOF 6
ENDMDL
MODEL 7
REMARK VINA RESULT:    -3.482     16.167     18.037
REMARK INTER + INTRA:          -4.863
REMARK INTER:                  -4.380
REMARK INTRA:                  -0.483
REMARK UNBOUND:                -0.159
REMARK SMILES CCCCCCCC=O
REMARK SMILES IDX 5 1 4 2 3 3 2 4 1 5 6 6 7 7 8 8 9 9
REMARK H PARENT
REMARK Flexibility Score: inf
ROOT
ATOM      1  C   UNL     1      16.081  43.113   0.956  1.00  0.00     0.000 C 
ENDROOT
BRANCH   1   2
ATOM      2  C   UNL     1      17.508  42.584   1.203  1.00  0.00     0.000 C 
BRANCH   2   3
ATOM      3  C   UNL     1      18.532  43.649   1.636  1.00  0.00    -0.000 C 
BRANCH   3   4
ATOM      4  C   UNL     1      19.589  43.930   0.559  1.00  0.00    -0.003 C 
ATOM      5  C   UNL     1      19.216  45.155  -0.271  1.00  0.00     0.004 C 
ENDBRANCH   3   4
ENDBRANCH   2   3
ENDBRANCH   1   2
BRANCH   1   6
ATOM      6  C   UNL     1      15.840  44.580   1.371  1.00  0.00     0.008 C 
BRANCH   6   7
ATOM      7  C   UNL     1      14.999  45.394   0.375  1.00  0.00     0.072 C 
BRANCH   7   8
ATOM      8  C   UNL     1      15.426  45.181  -1.049  1.00  0.00     0.224 C 
ATOM      9  O   UNL     1      16.070  46.044  -1.625  1.00  0.00    -0.303 OA
ENDBRANCH   7   8
ENDBRANCH   6   7
ENDBRANCH   1   6
TORSDOF 6
ENDMDL
MODEL 8
REMARK VINA RESULT:    -3.474     16.589     18.213
REMARK INTER + INTRA:          -4.852
REMARK INTER:                  -4.412
REMARK INTRA:                  -0.441
REMARK UNBOUND:                -0.159
REMARK SMILES CCCCCCCC=O
REMARK SMILES IDX 5 1 4 2 3 3 2 4 1 5 6 6 7 7 8 8 9 9
REMARK H PARENT
REMARK Flexibility Score: inf
ROOT
ATOM      1  C   UNL     1      17.523  42.740   0.799  1.00  0.00     0.000 C 
ENDROOT
BRANCH   1   2
ATOM      2  C   UNL     1      16.072  43.149   1.121  1.00  0.00     0.000 C 
BRANCH   2   3
ATOM      3  C   UNL     1      15.870  44.641   1.439  1.00  0.00    -0.000 C 
BRANCH   3   4
ATOM      4  C   UNL     1      15.012  45.362   0.390  1.00  0.00    -0.003 C 
ATOM      5  C   UNL     1      15.782  45.553  -0.914  1.00  0.00     0.004 C 
ENDBRANCH   3   4
ENDBRANCH   2   3
ENDBRANCH   1   2
BRANCH   1   6
ATOM      6  C   UNL     1      18.565  43.099   1.878  1.00  0.00     0.008 C 
BRANCH   6   7
ATOM      7  C   UNL     1      19.536  44.223   1.479  1.00  0.00     0.072 C 
BRANCH   7   8
ATOM      8  C   UNL     1      19.499  44.520   0.008  1.00  0.00     0.224 C 
ATOM      9  O   UNL     1      19.254  45.652  -0.377  1.00  0.00    -0.303 OA
ENDBRANCH   7   8
ENDBRANCH   6   7
ENDBRANCH   1   6
TORSDOF 6
ENDMDL
MODEL 9
REMARK VINA RESULT:    -3.471     17.035     18.274
REMARK INTER + INTRA:          -4.848
REMARK INTER:                  -4.458
REMARK INTRA:                  -0.390
REMARK UNBOUND:                -0.159
REMARK SMILES CCCCCCCC=O
REMARK SMILES IDX 5 1 4 2 3 3 2 4 1 5 6 6 7 7 8 8 9 9
REMARK H PARENT
REMARK Flexibility Score: inf
ROOT
ATOM      1  C   UNL     1      16.022  43.079   1.124  1.00  0.00     0.000 C 
ENDROOT
BRANCH   1   2
ATOM      2  C   UNL     1      17.501  42.643   1.127  1.00  0.00     0.000 C 
BRANCH   2   3
ATOM      3  C   UNL     1      18.468  43.621   1.818  1.00  0.00    -0.000 C 
BRANCH   3   4
ATOM      4  C   UNL     1      19.684  43.969   0.948  1.00  0.00    -0.003 C 
ATOM      5  C   UNL     1      20.583  42.752   0.748  1.00  0.00     0.004 C 
ENDBRANCH   3   4
ENDBRANCH   2   3
ENDBRANCH   1   2
BRANCH   1   6
ATOM      6  C   UNL     1      15.773  44.566   1.450  1.00  0.00     0.008 C 
BRANCH   6   7
ATOM      7  C   UNL     1      15.149  45.374   0.300  1.00  0.00     0.072 C 
BRANCH   7   8
ATOM      8  C   UNL     1      16.044  45.451  -0.902  1.00  0.00     0.224 C 
ATOM      9  O   UNL     1      17.220  45.752  -0.766  1.00  0.00    -0.303 OA
ENDBRANCH   7   8
ENDBRANCH   6   7
ENDBRANCH   1   6
TORSDOF 6
ENDMDL
