MODEL 1
REMARK VINA RESULT:    -7.000      0.000      0.000
REMARK INTER + INTRA:         -13.624
REMARK INTER:                 -12.728
REMARK INTRA:                  -0.896
REMARK UNBOUND:                -0.896
REMARK SMILES CCCCCCCCCCCCCCCC(=O)[O-]
REMARK SMILES IDX 9 1 10 2 11 3 12 4 13 5 14 6 15 7 16 8 17 9 18 10 8 11 7 12
REMARK SMILES IDX 6 13 5 14 4 15 3 16 2 17 1 18
REMARK H PARENT
REMARK Flexibility Score: inf
ROOT
ATOM      1  C   UNL     1     -22.583 -22.163  31.482  1.00  0.00     0.000 C 
ENDROOT
BRANCH   1   2
ATOM      2  C   UNL     1     -21.263 -21.593  32.038  1.00  0.00     0.000 C 
BRANCH   2   3
ATOM      3  C   UNL     1     -20.980 -20.140  31.600  1.00  0.00     0.000 C 
BRANCH   3   4
ATOM      4  C   UNL     1     -21.866 -19.703  30.419  1.00  0.00     0.000 C 
BRANCH   4   5
ATOM      5  C   UNL     1     -21.052 -19.359  29.163  1.00  0.00     0.000 C 
BRANCH   5   6
ATOM      6  C   UNL     1     -20.547 -17.905  29.164  1.00  0.00     0.006 C 
BRANCH   6   7
ATOM      7  C   UNL     1     -19.035 -17.819  29.405  1.00  0.00     0.053 C 
BRANCH   7   8
ATOM      8  C   UNL     1     -18.713 -17.002  30.620  1.00  0.00     0.041 C 
ATOM      9  O   UNL     1     -18.926 -17.466  31.771  1.00  0.00    -0.550 OA
ATOM     10  O   UNL     1     -18.215 -15.714  30.479  1.00  0.00    -0.550 OA
ENDBRANCH   7   8
ENDBRANCH   6   7
ENDBRANCH   5   6
ENDBRANCH   4   5
ENDBRANCH   3   4
ENDBRANCH   2   3
ENDBRANCH   1   2
BRANCH   1  11
ATOM     11  C   UNL     1     -22.468 -23.560  30.850  1.00  0.00     0.000 C 
BRANCH  11  12
ATOM     12  C   UNL     1     -22.231 -23.509  29.333  1.00  0.00    -0.000 C 
BRANCH  12  13
ATOM     13  C   UNL     1     -22.934 -24.677  28.630  1.00  0.00    -0.000 C 
BRANCH  13  14
ATOM     14  C   UNL     1     -23.801 -25.470  29.614  1.00  0.00    -0.000 C 
BRANCH  14  15
ATOM     15  C   UNL     1     -24.279 -26.787  28.990  1.00  0.00    -0.000 C 
BRANCH  15  16
ATOM     16  C   UNL     1     -25.808 -26.817  28.876  1.00  0.00    -0.000 C 
BRANCH  16  17
ATOM     17  C   UNL     1     -26.307 -28.227  28.536  1.00  0.00    -0.003 C 
ATOM     18  C   UNL     1     -26.707 -28.330  27.066  1.00  0.00     0.004 C 
ENDBRANCH  16  17
ENDBRANCH  15  16
ENDBRANCH  14  15
ENDBRANCH  13  14
ENDBRANCH  12  13
ENDBRANCH  11  12
ENDBRANCH   1  11
TORSDOF 14
ENDMDL
MODEL 2
REMARK VINA RESULT:    -6.938      4.344      9.556
REMARK INTER + INTRA:         -13.513
REMARK INTER:                 -12.692
REMARK INTRA:                  -0.821
REMARK UNBOUND:                -0.896
REMARK SMILES CCCCCCCCCCCCCCCC(=O)[O-]
REMARK SMILES IDX 9 1 10 2 11 3 12 4 13 5 14 6 15 7 16 8 17 9 18 10 8 11 7 12
REMARK SMILES IDX 6 13 5 14 4 15 3 16 2 17 1 18
REMARK H PARENT
REMARK Flexibility Score: inf
ROOT
ATOM      1  C   UNL     1     -21.709 -21.979  31.346  1.00  0.00     0.000 C 
ENDROOT
BRANCH   1   2
ATOM      2  C   UNL     1     -22.954 -22.697  31.902  1.00  0.00     0.000 C 
BRANCH   2   3
ATOM      3  C   UNL     1     -23.134 -24.133  31.364  1.00  0.00     0.000 C 
BRANCH   3   4
ATOM      4  C   UNL     1     -22.674 -24.271  29.901  1.00  0.00     0.000 C 
BRANCH   4   5
ATOM      5  C   UNL     1     -23.705 -24.995  29.022  1.00  0.00     0.000 C 
BRANCH   5   6
ATOM      6  C   UNL     1     -23.754 -26.509  29.292  1.00  0.00     0.006 C 
BRANCH   6   7
ATOM      7  C   UNL     1     -25.177 -27.070  29.179  1.00  0.00     0.053 C 
BRANCH   7   8
ATOM      8  C   UNL     1     -25.714 -27.491  30.513  1.00  0.00     0.041 C 
ATOM      9  O   UNL     1     -26.358 -28.567  30.627  1.00  0.00    -0.550 OA
ATOM     10  O   UNL     1     -25.535 -26.676  31.623  1.00  0.00    -0.550 OA
ENDBRANCH   7   8
ENDBRANCH   6   7
ENDBRANCH   5   6
ENDBRANCH   4   5
ENDBRANCH   3   4
ENDBRANCH   2   3
ENDBRANCH   1   2
BRANCH   1  11
ATOM     11  C   UNL     1     -21.940 -20.519  30.922  1.00  0.00     0.000 C 
BRANCH  11  12
ATOM     12  C   UNL     1     -21.914 -20.332  29.397  1.00  0.00    -0.000 C 
BRANCH  12  13
ATOM     13  C   UNL     1     -20.974 -19.186  29.002  1.00  0.00    -0.000 C 
BRANCH  13  14
ATOM     14  C   UNL     1     -20.289 -18.587  30.236  1.00  0.00    -0.000 C 
BRANCH  14  15
ATOM     15  C   UNL     1     -19.746 -17.184  29.938  1.00  0.00    -0.000 C 
BRANCH  15  16
ATOM     16  C   UNL     1     -18.640 -17.238  28.877  1.00  0.00    -0.000 C 
BRANCH  16  17
ATOM     17  C   UNL     1     -18.029 -15.850  28.648  1.00  0.00    -0.003 C 
ATOM     18  C   UNL     1     -17.562 -15.685  27.204  1.00  0.00     0.004 C 
ENDBRANCH  16  17
ENDBRANCH  15  16
ENDBRANCH  14  15
ENDBRANCH  13  14
ENDBRANCH  12  13
ENDBRANCH  11  12
ENDBRANCH   1  11
TORSDOF 14
ENDMDL
MODEL 3
REMARK VINA RESULT:    -6.892      1.328      2.075
REMARK INTER + INTRA:         -13.429
REMARK INTER:                 -12.751
REMARK INTRA:                  -0.678
REMARK UNBOUND:                -0.896
REMARK SMILES CCCCCCCCCCCCCCCC(=O)[O-]
REMARK SMILES IDX 9 1 10 2 11 3 12 4 13 5 14 6 15 7 16 8 17 9 18 10 8 11 7 12
REMARK SMILES IDX 6 13 5 14 4 15 3 16 2 17 1 18
REMARK H PARENT
REMARK Flexibility Score: inf
ROOT
ATOM      1  C   UNL     1     -21.604 -21.456  31.629  1.00  0.00     0.000 C 
ENDROOT
BRANCH   1   2
ATOM      2  C   UNL     1     -22.057 -20.195  30.866  1.00  0.00     0.000 C 
BRANCH   2   3
ATOM      3  C   UNL     1     -21.473 -20.089  29.440  1.00  0.00     0.000 C 
BRANCH   3   4
ATOM      4  C   UNL     1     -20.782 -18.736  29.192  1.00  0.00     0.000 C 
BRANCH   4   5
ATOM      5  C   UNL     1     -20.245 -18.100  30.483  1.00  0.00     0.000 C 
BRANCH   5   6
ATOM      6  C   UNL     1     -19.047 -17.167  30.230  1.00  0.00     0.006 C 
BRANCH   6   7
ATOM      7  C   UNL     1     -18.655 -17.119  28.748  1.00  0.00     0.053 C 
BRANCH   7   8
ATOM      8  C   UNL     1     -17.889 -15.874  28.418  1.00  0.00     0.041 C 
ATOM      9  O   UNL     1     -17.542 -15.082  29.333  1.00  0.00    -0.550 OA
ATOM     10  O   UNL     1     -17.591 -15.571  27.096  1.00  0.00    -0.550 OA
ENDBRANCH   7   8
ENDBRANCH   6   7
ENDBRANCH   5   6
ENDBRANCH   4   5
ENDBRANCH   3   4
ENDBRANCH   2   3
ENDBRANCH   1   2
BRANCH   1  11
ATOM     11  C   UNL     1     -22.725 -22.460  31.941  1.00  0.00     0.000 C 
BRANCH  11  12
ATOM     12  C   UNL     1     -22.731 -23.662  30.983  1.00  0.00    -0.000 C 
BRANCH  12  13
ATOM     13  C   UNL     1     -23.412 -24.874  31.630  1.00  0.00    -0.000 C 
BRANCH  13  14
ATOM     14  C   UNL     1     -24.530 -25.421  30.735  1.00  0.00    -0.000 C 
BRANCH  14  15
ATOM     15  C   UNL     1     -24.073 -25.507  29.274  1.00  0.00    -0.000 C 
BRANCH  15  16
ATOM     16  C   UNL     1     -24.384 -26.887  28.682  1.00  0.00    -0.000 C 
BRANCH  16  17
ATOM     17  C   UNL     1     -25.851 -27.268  28.914  1.00  0.00    -0.003 C 
ATOM     18  C   UNL     1     -26.336 -28.258  27.858  1.00  0.00     0.004 C 
ENDBRANCH  16  17
ENDBRANCH  15  16
ENDBRANCH  14  15
ENDBRANCH  13  14
ENDBRANCH  12  13
ENDBRANCH  11  12
ENDBRANCH   1  11
TORSDOF 14
ENDMDL
MODEL 4
REMARK VINA RESULT:    -6.815      4.961      9.900
REMARK INTER + INTRA:         -13.289
REMARK INTER:                 -12.590
REMARK INTRA:                  -0.698
REMARK UNBOUND:                -0.896
REMARK SMILES CCCCCCCCCCCCCCCC(=O)[O-]
REMARK SMILES IDX 9 1 10 2 11 3 12 4 13 5 14 6 15 7 16 8 17 9 18 10 8 11 7 12
REMARK SMILES IDX 6 13 5 14 4 15 3 16 2 17 1 18
REMARK H PARENT
REMARK Flexibility Score: inf
ROOT
ATOM      1  C   UNL     1     -22.600 -22.296  31.280  1.00  0.00     0.000 C 
ENDROOT
BRANCH   1   2
ATOM      2  C   UNL     1     -22.051 -23.560  30.589  1.00  0.00     0.000 C 
BRANCH   2   3
ATOM      3  C   UNL     1     -22.704 -23.853  29.221  1.00  0.00     0.000 C 
BRANCH   3   4
ATOM      4  C   UNL     1     -23.391 -25.230  29.185  1.00  0.00     0.000 C 
BRANCH   4   5
ATOM      5  C   UNL     1     -24.062 -25.591  30.518  1.00  0.00     0.000 C 
BRANCH   5   6
ATOM      6  C   UNL     1     -25.363 -26.391  30.329  1.00  0.00     0.006 C 
BRANCH   6   7
ATOM      7  C   UNL     1     -25.710 -26.588  28.847  1.00  0.00     0.053 C 
BRANCH   7   8
ATOM      8  C   UNL     1     -26.353 -27.919  28.601  1.00  0.00     0.041 C 
ATOM      9  O   UNL     1     -26.668 -28.659  29.569  1.00  0.00    -0.550 OA
ATOM     10  O   UNL     1     -26.568 -28.357  27.302  1.00  0.00    -0.550 OA
ENDBRANCH   7   8
ENDBRANCH   6   7
ENDBRANCH   5   6
ENDBRANCH   4   5
ENDBRANCH   3   4
ENDBRANCH   2   3
ENDBRANCH   1   2
BRANCH   1  11
ATOM     11  C   UNL     1     -22.054 -20.969  30.727  1.00  0.00     0.000 C 
BRANCH  11  12
ATOM     12  C   UNL     1     -21.010 -20.324  31.652  1.00  0.00    -0.000 C 
BRANCH  12  13
ATOM     13  C   UNL     1     -20.465 -19.027  31.042  1.00  0.00    -0.000 C 
BRANCH  13  14
ATOM     14  C   UNL     1     -20.843 -18.915  29.560  1.00  0.00    -0.000 C 
BRANCH  14  15
ATOM     15  C   UNL     1     -20.478 -17.534  29.002  1.00  0.00    -0.000 C 
BRANCH  15  16
ATOM     16  C   UNL     1     -19.036 -17.159  29.362  1.00  0.00    -0.000 C 
BRANCH  16  17
ATOM     17  C   UNL     1     -18.368 -16.381  28.222  1.00  0.00    -0.003 C 
ATOM     18  C   UNL     1     -17.532 -15.223  28.761  1.00  0.00     0.004 C 
ENDBRANCH  16  17
ENDBRANCH  15  16
ENDBRANCH  14  15
ENDBRANCH  13  14
ENDBRANCH  12  13
ENDBRANCH  11  12
ENDBRANCH   1  11
TORSDOF 14
ENDMDL
MODEL 5
REMARK VINA RESULT:    -6.775      1.283      2.054
REMARK INTER + INTRA:         -13.216
REMARK INTER:                 -12.385
REMARK INTRA:                  -0.832
REMARK UNBOUND:                -0.896
REMARK SMILES CCCCCCCCCCCCCCCC(=O)[O-]
REMARK SMILES IDX 9 1 10 2 11 3 12 4 13 5 14 6 15 7 16 8 17 9 18 10 8 11 7 12
REMARK SMILES IDX 6 13 5 14 4 15 3 16 2 17 1 18
REMARK H PARENT
REMARK Flexibility Score: inf
ROOT
ATOM      1  C   UNL     1     -22.303 -23.304  29.257  1.00  0.00     0.000 C 
ENDROOT
BRANCH   1   2
ATOM      2  C   UNL     1     -22.321 -21.877  28.674  1.00  0.00     0.000 C 
BRANCH   2   3
ATOM      3  C   UNL     1     -22.408 -20.769  29.745  1.00  0.00     0.000 C 
BRANCH   3   4
ATOM      4  C   UNL     1     -21.291 -19.721  29.594  1.00  0.00     0.000 C 
BRANCH   4   5
ATOM      5  C   UNL     1     -20.859 -19.117  30.938  1.00  0.00     0.000 C 
BRANCH   5   6
ATOM      6  C   UNL     1     -19.476 -18.445  30.869  1.00  0.00     0.006 C 
BRANCH   6   7
ATOM      7  C   UNL     1     -19.064 -18.120  29.428  1.00  0.00     0.053 C 
BRANCH   7   8
ATOM      8  C   UNL     1     -18.600 -16.700  29.292  1.00  0.00     0.041 C 
ATOM      9  O   UNL     1     -18.462 -16.186  28.151  1.00  0.00    -0.550 OA
ATOM     10  O   UNL     1     -18.286 -15.960  30.423  1.00  0.00    -0.550 OA
ENDBRANCH   7   8
ENDBRANCH   6   7
ENDBRANCH   5   6
ENDBRANCH   4   5
ENDBRANCH   3   4
ENDBRANCH   2   3
ENDBRANCH   1   2
BRANCH   1  11
ATOM     11  C   UNL     1     -22.113 -23.376  30.781  1.00  0.00     0.000 C 
BRANCH  11  12
ATOM     12  C   UNL     1     -23.280 -24.077  31.494  1.00  0.00    -0.000 C 
BRANCH  12  13
ATOM     13  C   UNL     1     -23.678 -25.362  30.758  1.00  0.00    -0.000 C 
BRANCH  13  14
ATOM     14  C   UNL     1     -24.852 -26.057  31.458  1.00  0.00    -0.000 C 
BRANCH  14  15
ATOM     15  C   UNL     1     -25.424 -27.182  30.588  1.00  0.00    -0.000 C 
BRANCH  15  16
ATOM     16  C   UNL     1     -25.097 -26.952  29.107  1.00  0.00    -0.000 C 
BRANCH  16  17
ATOM     17  C   UNL     1     -26.066 -27.723  28.203  1.00  0.00    -0.003 C 
ATOM     18  C   UNL     1     -26.815 -28.797  28.987  1.00  0.00     0.004 C 
ENDBRANCH  16  17
ENDBRANCH  15  16
ENDBRANCH  14  15
ENDBRANCH  13  14
ENDBRANCH  12  13
ENDBRANCH  11  12
ENDBRANCH   1  11
TORSDOF 14
ENDMDL
MODEL 6
REMARK VINA RESULT:    -6.702      5.062      9.603
REMARK INTER + INTRA:         -13.083
REMARK INTER:                 -12.201
REMARK INTRA:                  -0.882
REMARK UNBOUND:                -0.896
REMARK SMILES CCCCCCCCCCCCCCCC(=O)[O-]
REMARK SMILES IDX 9 1 10 2 11 3 12 4 13 5 14 6 15 7 16 8 17 9 18 10 8 11 7 12
REMARK SMILES IDX 6 13 5 14 4 15 3 16 2 17 1 18
REMARK H PARENT
REMARK Flexibility Score: inf
ROOT
ATOM      1  C   UNL     1     -21.794 -23.266  29.352  1.00  0.00     0.000 C 
ENDROOT
BRANCH   1   2
ATOM      2  C   UNL     1     -22.862 -24.320  29.705  1.00  0.00     0.000 C 
BRANCH   2   3
ATOM      3  C   UNL     1     -23.197 -24.385  31.211  1.00  0.00     0.000 C 
BRANCH   3   4
ATOM      4  C   UNL     1     -23.879 -25.709  31.600  1.00  0.00     0.000 C 
BRANCH   4   5
ATOM      5  C   UNL     1     -25.332 -25.794  31.109  1.00  0.00     0.000 C 
BRANCH   5   6
ATOM      6  C   UNL     1     -25.685 -27.181  30.542  1.00  0.00     0.006 C 
BRANCH   6   7
ATOM      7  C   UNL     1     -25.605 -27.216  29.010  1.00  0.00     0.053 C 
BRANCH   7   8
ATOM      8  C   UNL     1     -26.477 -28.291  28.435  1.00  0.00     0.041 C 
ATOM      9  O   UNL     1     -26.885 -28.209  27.247  1.00  0.00    -0.550 OA
ATOM     10  O   UNL     1     -26.869 -29.364  29.224  1.00  0.00    -0.550 OA
ENDBRANCH   7   8
ENDBRANCH   6   7
ENDBRANCH   5   6
ENDBRANCH   4   5
ENDBRANCH   3   4
ENDBRANCH   2   3
ENDBRANCH   1   2
BRANCH   1  11
ATOM     11  C   UNL     1     -22.335 -22.004  28.660  1.00  0.00     0.000 C 
BRANCH  11  12
ATOM     12  C   UNL     1     -22.209 -20.746  29.533  1.00  0.00    -0.000 C 
BRANCH  12  13
ATOM     13  C   UNL     1     -22.097 -21.118  31.017  1.00  0.00    -0.000 C 
BRANCH  13  14
ATOM     14  C   UNL     1     -20.872 -20.457  31.659  1.00  0.00    -0.000 C 
BRANCH  14  15
ATOM     15  C   UNL     1     -20.828 -18.956  31.345  1.00  0.00    -0.000 C 
BRANCH  15  16
ATOM     16  C   UNL     1     -19.381 -18.461  31.233  1.00  0.00    -0.000 C 
BRANCH  16  17
ATOM     17  C   UNL     1     -19.296 -17.198  30.368  1.00  0.00    -0.003 C 
ATOM     18  C   UNL     1     -20.069 -17.372  29.063  1.00  0.00     0.004 C 
ENDBRANCH  16  17
ENDBRANCH  15  16
ENDBRANCH  14  15
ENDBRANCH  13  14
ENDBRANCH  12  13
ENDBRANCH  11  12
ENDBRANCH   1  11
TORSDOF 14
ENDMDL
MODEL 7
REMARK VINA RESULT:    -6.684      4.493      9.732
REMARK INTER + INTRA:         -13.050
REMARK INTER:                 -12.257
REMARK INTRA:                  -0.793
REMARK UNBOUND:                -0.896
REMARK SMILES CCCCCCCCCCCCCCCC(=O)[O-]
REMARK SMILES IDX 9 1 10 2 11 3 12 4 13 5 14 6 15 7 16 8 17 9 18 10 8 11 7 12
REMARK SMILES IDX 6 13 5 14 4 15 3 16 2 17 1 18
REMARK H PARENT
REMARK Flexibility Score: inf
ROOT
ATOM      1  C   UNL     1     -22.175 -20.817  29.194  1.00  0.00     0.000 C 
ENDROOT
BRANCH   1   2
ATOM      2  C   UNL     1     -22.382 -22.237  28.632  1.00  0.00     0.000 C 
BRANCH   2   3
ATOM      3  C   UNL     1     -21.871 -23.355  29.567  1.00  0.00     0.000 C 
BRANCH   3   4
ATOM      4  C   UNL     1     -22.915 -24.468  29.770  1.00  0.00     0.000 C 
BRANCH   4   5
ATOM      5  C   UNL     1     -23.299 -24.658  31.245  1.00  0.00     0.000 C 
BRANCH   5   6
ATOM      6  C   UNL     1     -24.653 -25.368  31.419  1.00  0.00     0.006 C 
BRANCH   6   7
ATOM      7  C   UNL     1     -24.557 -26.872  31.136  1.00  0.00     0.053 C 
BRANCH   7   8
ATOM      8  C   UNL     1     -25.578 -27.314  30.131  1.00  0.00     0.041 C 
ATOM      9  O   UNL     1     -25.751 -26.655  29.073  1.00  0.00    -0.550 OA
ATOM     10  O   UNL     1     -26.363 -28.431  30.383  1.00  0.00    -0.550 OA
ENDBRANCH   7   8
ENDBRANCH   6   7
ENDBRANCH   5   6
ENDBRANCH   4   5
ENDBRANCH   3   4
ENDBRANCH   2   3
ENDBRANCH   1   2
BRANCH   1  11
ATOM     11  C   UNL     1     -22.123 -20.730  30.728  1.00  0.00     0.000 C 
BRANCH  11  12
ATOM     12  C   UNL     1     -21.097 -19.703  31.232  1.00  0.00    -0.000 C 
BRANCH  12  13
ATOM     13  C   UNL     1     -20.388 -19.017  30.058  1.00  0.00    -0.000 C 
BRANCH  13  14
ATOM     14  C   UNL     1     -19.123 -18.289  30.528  1.00  0.00    -0.000 C 
BRANCH  14  15
ATOM     15  C   UNL     1     -19.120 -16.830  30.057  1.00  0.00    -0.000 C 
BRANCH  15  16
ATOM     16  C   UNL     1     -18.868 -16.741  28.547  1.00  0.00    -0.000 C 
BRANCH  16  17
ATOM     17  C   UNL     1     -17.715 -15.778  28.237  1.00  0.00    -0.003 C 
ATOM     18  C   UNL     1     -17.526 -15.612  26.731  1.00  0.00     0.004 C 
ENDBRANCH  16  17
ENDBRANCH  15  16
ENDBRANCH  14  15
ENDBRANCH  13  14
ENDBRANCH  12  13
ENDBRANCH  11  12
ENDBRANCH   1  11
TORSDOF 14
ENDMDL
MODEL 8
REMARK VINA RESULT:    -6.675      4.282      9.177
REMARK INTER + INTRA:         -13.033
REMARK INTER:                 -12.055
REMARK INTRA:                  -0.979
REMARK UNBOUND:                -0.896
REMARK SMILES CCCCCCCCCCCCCCCC(=O)[O-]
REMARK SMILES IDX 9 1 10 2 11 3 12 4 13 5 14 6 15 7 16 8 17 9 18 10 8 11 7 12
REMARK SMILES IDX 6 13 5 14 4 15 3 16 2 17 1 18
REMARK H PARENT
REMARK Flexibility Score: inf
ROOT
ATOM      1  C   UNL     1     -21.638 -21.546  32.043  1.00  0.00     0.000 C 
ENDROOT
BRANCH   1   2
ATOM      2  C   UNL     1     -22.644 -22.474  31.333  1.00  0.00     0.000 C 
BRANCH   2   3
ATOM      3  C   UNL     1     -21.979 -23.563  30.465  1.00  0.00     0.000 C 
BRANCH   3   4
ATOM      4  C   UNL     1     -22.588 -23.637  29.053  1.00  0.00     0.000 C 
BRANCH   4   5
ATOM      5  C   UNL     1     -23.094 -25.044  28.700  1.00  0.00     0.000 C 
BRANCH   5   6
ATOM      6  C   UNL     1     -24.365 -25.429  29.476  1.00  0.00     0.006 C 
BRANCH   6   7
ATOM      7  C   UNL     1     -24.321 -26.878  29.976  1.00  0.00     0.053 C 
BRANCH   7   8
ATOM      8  C   UNL     1     -25.454 -27.177  30.911  1.00  0.00     0.041 C 
ATOM      9  O   UNL     1     -25.676 -26.426  31.897  1.00  0.00    -0.550 OA
ATOM     10  O   UNL     1     -26.238 -28.305  30.715  1.00  0.00    -0.550 OA
ENDBRANCH   7   8
ENDBRANCH   6   7
ENDBRANCH   5   6
ENDBRANCH   4   5
ENDBRANCH   3   4
ENDBRANCH   2   3
ENDBRANCH   1   2
BRANCH   1  11
ATOM     11  C   UNL     1     -21.204 -20.319  31.226  1.00  0.00     0.000 C 
BRANCH  11  12
ATOM     12  C   UNL     1     -22.011 -20.151  29.929  1.00  0.00    -0.000 C 
BRANCH  12  13
ATOM     13  C   UNL     1     -21.210 -19.366  28.884  1.00  0.00    -0.000 C 
BRANCH  13  14
ATOM     14  C   UNL     1     -20.953 -17.929  29.352  1.00  0.00    -0.000 C 
BRANCH  14  15
ATOM     15  C   UNL     1     -19.800 -17.292  28.567  1.00  0.00    -0.000 C 
BRANCH  15  16
ATOM     16  C   UNL     1     -18.643 -16.915  29.501  1.00  0.00    -0.000 C 
BRANCH  16  17
ATOM     17  C   UNL     1     -19.093 -16.922  30.966  1.00  0.00    -0.003 C 
ATOM     18  C   UNL     1     -18.406 -18.038  31.748  1.00  0.00     0.004 C 
ENDBRANCH  16  17
ENDBRANCH  15  16
ENDBRANCH  14  15
ENDBRANCH  13  14
ENDBRANCH  12  13
ENDBRANCH  11  12
ENDBRANCH   1  11
TORSDOF 14
ENDMDL
MODEL 9
REMARK VINA RESULT:    -6.605      2.592      3.871
REMARK INTER + INTRA:         -12.907
REMARK INTER:                 -12.238
REMARK INTRA:                  -0.668
REMARK UNBOUND:                -0.896
REMARK SMILES CCCCCCCCCCCCCCCC(=O)[O-]
REMARK SMILES IDX 9 1 10 2 11 3 12 4 13 5 14 6 15 7 16 8 17 9 18 10 8 11 7 12
REMARK SMILES IDX 6 13 5 14 4 15 3 16 2 17 1 18
REMARK H PARENT
REMARK Flexibility Score: inf
ROOT
ATOM      1  C   UNL     1     -21.363 -19.858  30.734  1.00  0.00     0.000 C 
ENDROOT
BRANCH   1   2
ATOM      2  C   UNL     1     -20.892 -19.167  29.439  1.00  0.00     0.000 C 
BRANCH   2   3
ATOM      3  C   UNL     1     -19.451 -18.618  29.517  1.00  0.00     0.000 C 
BRANCH   3   4
ATOM      4  C   UNL     1     -19.414 -17.130  29.910  1.00  0.00     0.000 C 
BRANCH   4   5
ATOM      5  C   UNL     1     -18.202 -16.392  29.322  1.00  0.00     0.000 C 
BRANCH   5   6
ATOM      6  C   UNL     1     -18.444 -15.914  27.879  1.00  0.00     0.006 C 
BRANCH   6   7
ATOM      7  C   UNL     1     -17.155 -15.416  27.212  1.00  0.00     0.053 C 
BRANCH   7   8
ATOM      8  C   UNL     1     -17.297 -15.339  25.722  1.00  0.00     0.041 C 
ATOM      9  O   UNL     1     -18.436 -15.227  25.199  1.00  0.00    -0.550 OA
ATOM     10  O   UNL     1     -16.173 -15.429  24.911  1.00  0.00    -0.550 OA
ENDBRANCH   7   8
ENDBRANCH   6   7
ENDBRANCH   5   6
ENDBRANCH   4   5
ENDBRANCH   3   4
ENDBRANCH   2   3
ENDBRANCH   1   2
BRANCH   1  11
ATOM     11  C   UNL     1     -22.296 -21.061  30.523  1.00  0.00     0.000 C 
BRANCH  11  12
ATOM     12  C   UNL     1     -22.352 -21.993  31.743  1.00  0.00    -0.000 C 
BRANCH  12  13
ATOM     13  C   UNL     1     -22.757 -23.413  31.330  1.00  0.00    -0.000 C 
BRANCH  13  14
ATOM     14  C   UNL     1     -22.104 -23.807  30.000  1.00  0.00    -0.000 C 
BRANCH  14  15
ATOM     15  C   UNL     1     -23.155 -24.271  28.985  1.00  0.00    -0.000 C 
BRANCH  15  16
ATOM     16  C   UNL     1     -23.528 -25.740  29.214  1.00  0.00    -0.000 C 
BRANCH  16  17
ATOM     17  C   UNL     1     -25.022 -25.887  29.529  1.00  0.00    -0.003 C 
ATOM     18  C   UNL     1     -25.251 -26.100  31.023  1.00  0.00     0.004 C 
ENDBRANCH  16  17
ENDBRANCH  15  16
ENDBRANCH  14  15
ENDBRANCH  13  14
ENDBRANCH  12  13
ENDBRANCH  11  12
ENDBRANCH   1  11
TORSDOF 14
ENDMDL
