MODEL 1
REMARK VINA RESULT:    -8.234      0.000      0.000
REMARK INTER + INTRA:         -11.507
REMARK INTER:                 -11.362
REMARK INTRA:                  -0.144
REMARK UNBOUND:                -0.144
REMARK SMILES C[C@@H]1OC(=O)[C@H](C)[C@H]1C[C@@H](O)[C@@](C)(O)[C@@H]1CC[C@]2(O)C3=CC(=O)[C@@H]4C[C@H](O)[C@@H](O)C[C@@]4(C)[C@H]3CC[C@]12C
REMARK SMILES IDX 12 1 13 2 10 3 9 4 8 5 7 6 6 7 4 8 2 9 3 10 5 11 1 12 11 13
REMARK SMILES IDX 15 15 16 16 36 17 17 18 18 19 35 20 37 21 20 22 34 23 33 24
REMARK SMILES IDX 21 25 31 26 22 27 24 28 30 29 32 30 23 31 25 32 28 33 26 34
REMARK SMILES IDX 19 35 29 37 27 39 14 41
REMARK H PARENT 11 14 19 36 29 38 27 40 14 42
REMARK Flexibility Score: inf
ROOT
ATOM      1  C   UNL     1      -0.732  24.385  61.406  1.00  0.00     0.091 C 
ATOM      2  C   UNL     1       0.161  23.315  62.107  1.00  0.00     0.045 C 
ENDROOT
BRANCH   1   3
ATOM      3  C   UNL     1      -2.183  24.137  62.002  1.00  0.00     0.146 C 
BRANCH   3   4
ATOM      4  C   UNL     1      -3.271  23.676  61.005  1.00  0.00     0.043 C 
BRANCH   4   5
ATOM      5  C   UNL     1      -4.463  22.912  61.647  1.00  0.00     0.046 C 
ATOM      6  C   UNL     1      -4.497  20.617  62.806  1.00  0.00     0.020 C 
ATOM      7  C   UNL     1      -4.356  21.366  61.473  1.00  0.00     0.103 C 
ATOM      8  C   UNL     1      -5.507  21.050  60.596  1.00  0.00     0.309 C 
ATOM      9  C   UNL     1      -5.808  23.315  60.953  1.00  0.00     0.177 C 
ATOM     10  O   UNL     1      -6.309  22.139  60.342  1.00  0.00    -0.462 OA
ATOM     11  O   UNL     1      -5.749  19.904  60.127  1.00  0.00    -0.252 OA
ATOM     12  C   UNL     1      -6.832  23.853  61.954  1.00  0.00     0.053 C 
ENDBRANCH   4   5
ENDBRANCH   3   4
BRANCH   3  13
ATOM     13  O   UNL     1      -2.097  23.192  63.042  1.00  0.00    -0.390 OA
ATOM     14  H   UNL     1      -2.702  23.485  63.773  1.00  0.00     0.211 HD
ENDBRANCH   3  13
ENDBRANCH   1   3
BRANCH   1  15
ATOM     15  C   UNL     1      -0.168  25.853  61.680  1.00  0.00     0.032 C 
ATOM     16  C   UNL     1       1.271  25.913  62.217  1.00  0.00     0.010 C 
ATOM     17  C   UNL     1      -0.930  26.838  62.664  1.00  0.00     0.006 C 
ATOM     18  C   UNL     1       1.501  27.377  62.536  1.00  0.00     0.041 C 
ATOM     19  C   UNL     1       0.152  27.949  63.013  1.00  0.00     0.092 C 
ATOM     20  C   UNL     1      -1.490  26.156  63.982  1.00  0.00     0.011 C 
ATOM     21  C   UNL     1      -2.142  27.503  61.949  1.00  0.00     0.015 C 
ATOM     22  C   UNL     1       0.170  28.216  64.522  1.00  0.00    -0.031 C 
ATOM     23  C   UNL     1      -0.512  25.900  65.156  1.00  0.00     0.009 C 
ATOM     24  C   UNL     1       0.529  27.026  65.401  1.00  0.00     0.025 C 
ATOM     25  C   UNL     1      -0.455  29.295  65.050  1.00  0.00     0.050 C 
ATOM     26  C   UNL     1       0.796  27.443  66.896  1.00  0.00    -0.013 C 
ATOM     27  C   UNL     1      -0.701  29.426  66.499  1.00  0.00     0.159 C 
ATOM     28  C   UNL     1      -0.424  28.256  67.416  1.00  0.00     0.070 C 
ATOM     29  C   UNL     1       1.015  26.200  67.813  1.00  0.00     0.042 C 
ATOM     30  C   UNL     1       2.108  28.297  66.909  1.00  0.00     0.013 C 
ATOM     31  O   UNL     1      -1.228  30.480  66.946  1.00  0.00    -0.295 OA
ATOM     32  C   UNL     1      -0.272  28.665  68.898  1.00  0.00     0.047 C 
ATOM     33  C   UNL     1       1.160  26.570  69.307  1.00  0.00     0.143 C 
ATOM     34  C   UNL     1      -0.036  27.427  69.789  1.00  0.00     0.143 C 
BRANCH  19  35
ATOM     35  O   UNL     1      -0.088  29.144  62.295  1.00  0.00    -0.385 OA
ATOM     36  H   UNL     1      -0.417  29.828  62.939  1.00  0.00     0.211 HD
ENDBRANCH  19  35
BRANCH  33  37
ATOM     37  O   UNL     1       1.216  25.396  70.078  1.00  0.00    -0.390 OA
ATOM     38  H   UNL     1       0.807  24.670  69.530  1.00  0.00     0.211 HD
ENDBRANCH  33  37
BRANCH  34  39
ATOM     39  O   UNL     1       0.137  27.816  71.129  1.00  0.00    -0.390 OA
ATOM     40  H   UNL     1      -0.598  28.441  71.353  1.00  0.00     0.211 HD
ENDBRANCH  34  39
ENDBRANCH   1  15
BRANCH   1  41
ATOM     41  O   UNL     1      -0.742  24.164  60.014  1.00  0.00    -0.387 OA
ATOM     42  H   UNL     1       0.163  23.873  59.730  1.00  0.00     0.211 HD
ENDBRANCH   1  41
TORSDOF 9
ENDMDL
MODEL 2
REMARK VINA RESULT:    -7.821      4.195      9.268
REMARK INTER + INTRA:         -10.938
REMARK INTER:                 -10.219
REMARK INTRA:                  -0.719
REMARK UNBOUND:                -0.144
REMARK SMILES C[C@@H]1OC(=O)[C@H](C)[C@H]1C[C@@H](O)[C@@](C)(O)[C@@H]1CC[C@]2(O)C3=CC(=O)[C@@H]4C[C@H](O)[C@@H](O)C[C@@]4(C)[C@H]3CC[C@]12C
REMARK SMILES IDX 12 1 13 2 10 3 9 4 8 5 7 6 6 7 4 8 2 9 3 10 5 11 1 12 11 13
REMARK SMILES IDX 15 15 16 16 36 17 17 18 18 19 35 20 37 21 20 22 34 23 33 24
REMARK SMILES IDX 21 25 31 26 22 27 24 28 30 29 32 30 23 31 25 32 28 33 26 34
REMARK SMILES IDX 19 35 29 37 27 39 14 41
REMARK H PARENT 11 14 19 36 29 38 27 40 14 42
REMARK Flexibility Score: inf
ROOT
ATOM      1  C   UNL     1      -0.392  31.993  60.699  1.00  0.00     0.091 C 
ATOM      2  C   UNL     1      -1.643  32.460  59.893  1.00  0.00     0.045 C 
ENDROOT
BRANCH   1   3
ATOM      3  C   UNL     1       0.349  33.342  61.092  1.00  0.00     0.146 C 
BRANCH   3   4
ATOM      4  C   UNL     1       1.787  33.524  60.555  1.00  0.00     0.043 C 
BRANCH   4   5
ATOM      5  C   UNL     1       2.912  33.133  61.554  1.00  0.00     0.046 C 
ATOM      6  C   UNL     1       4.236  34.617  63.184  1.00  0.00     0.020 C 
ATOM      7  C   UNL     1       3.993  34.246  61.714  1.00  0.00     0.103 C 
ATOM      8  C   UNL     1       5.208  33.613  61.150  1.00  0.00     0.309 C 
ATOM      9  C   UNL     1       3.687  31.874  61.039  1.00  0.00     0.177 C 
ATOM     10  O   UNL     1       5.020  32.294  60.807  1.00  0.00    -0.462 OA
ATOM     11  O   UNL     1       6.312  34.203  61.001  1.00  0.00    -0.252 OA
ATOM     12  C   UNL     1       3.675  30.734  62.061  1.00  0.00     0.053 C 
ENDBRANCH   4   5
ENDBRANCH   3   4
BRANCH   3  13
ATOM     13  O   UNL     1      -0.431  34.434  60.667  1.00  0.00    -0.390 OA
ATOM     14  H   UNL     1      -0.397  35.129  61.376  1.00  0.00     0.211 HD
ENDBRANCH   3  13
ENDBRANCH   1   3
BRANCH   1  15
ATOM     15  C   UNL     1      -0.831  31.112  61.956  1.00  0.00     0.032 C 
ATOM     16  C   UNL     1       0.232  30.962  63.055  1.00  0.00     0.010 C 
ATOM     17  C   UNL     1      -1.318  29.614  61.759  1.00  0.00     0.006 C 
ATOM     18  C   UNL     1      -0.366  29.973  64.036  1.00  0.00     0.041 C 
ATOM     19  C   UNL     1      -1.206  28.977  63.211  1.00  0.00     0.092 C 
ATOM     20  C   UNL     1      -0.476  28.777  60.706  1.00  0.00     0.011 C 
ATOM     21  C   UNL     1      -2.800  29.573  61.288  1.00  0.00     0.015 C 
ATOM     22  C   UNL     1      -0.523  27.607  63.139  1.00  0.00    -0.031 C 
ATOM     23  C   UNL     1       0.878  28.174  61.152  1.00  0.00     0.009 C 
ATOM     24  C   UNL     1       0.900  27.605  62.597  1.00  0.00     0.025 C 
ATOM     25  C   UNL     1      -1.244  26.463  63.179  1.00  0.00     0.050 C 
ATOM     26  C   UNL     1       1.621  26.222  62.813  1.00  0.00    -0.013 C 
ATOM     27  C   UNL     1      -0.657  25.155  62.827  1.00  0.00     0.159 C 
ATOM     28  C   UNL     1       0.728  25.092  62.226  1.00  0.00     0.070 C 
ATOM     29  C   UNL     1       3.020  26.186  62.123  1.00  0.00     0.042 C 
ATOM     30  C   UNL     1       1.833  26.048  64.355  1.00  0.00     0.013 C 
ATOM     31  O   UNL     1      -1.354  24.111  62.944  1.00  0.00    -0.295 OA
ATOM     32  C   UNL     1       1.384  23.699  62.347  1.00  0.00     0.047 C 
ATOM     33  C   UNL     1       3.702  24.800  62.214  1.00  0.00     0.143 C 
ATOM     34  C   UNL     1       2.774  23.684  61.677  1.00  0.00     0.143 C 
BRANCH  19  35
ATOM     35  O   UNL     1      -2.476  28.873  63.825  1.00  0.00    -0.385 OA
ATOM     36  H   UNL     1      -3.114  28.510  63.152  1.00  0.00     0.211 HD
ENDBRANCH  19  35
BRANCH  33  37
ATOM     37  O   UNL     1       4.886  24.810  61.456  1.00  0.00    -0.390 OA
ATOM     38  H   UNL     1       5.224  25.747  61.460  1.00  0.00     0.211 HD
ENDBRANCH  33  37
BRANCH  34  39
ATOM     39  O   UNL     1       3.374  22.422  61.826  1.00  0.00    -0.390 OA
ATOM     40  H   UNL     1       2.941  21.809  61.179  1.00  0.00     0.211 HD
ENDBRANCH  34  39
ENDBRANCH   1  15
BRANCH   1  41
ATOM     41  O   UNL     1       0.444  31.211  59.876  1.00  0.00    -0.387 OA
ATOM     42  H   UNL     1       0.543  31.665  58.999  1.00  0.00     0.211 HD
ENDBRANCH   1  41
TORSDOF 9
ENDMDL
MODEL 3
REMARK VINA RESULT:    -7.710      4.467      9.382
REMARK INTER + INTRA:         -10.785
REMARK INTER:                  -9.505
REMARK INTRA:                  -1.280
REMARK UNBOUND:                -0.144
REMARK SMILES C[C@@H]1OC(=O)[C@H](C)[C@H]1C[C@@H](O)[C@@](C)(O)[C@@H]1CC[C@]2(O)C3=CC(=O)[C@@H]4C[C@H](O)[C@@H](O)C[C@@]4(C)[C@H]3CC[C@]12C
REMARK SMILES IDX 12 1 13 2 10 3 9 4 8 5 7 6 6 7 4 8 2 9 3 10 5 11 1 12 11 13
REMARK SMILES IDX 15 15 16 16 36 17 17 18 18 19 35 20 37 21 20 22 34 23 33 24
REMARK SMILES IDX 21 25 31 26 22 27 24 28 30 29 32 30 23 31 25 32 28 33 26 34
REMARK SMILES IDX 19 35 29 37 27 39 14 41
REMARK H PARENT 11 14 19 36 29 38 27 40 14 42
REMARK Flexibility Score: inf
ROOT
ATOM      1  C   UNL     1      -0.191  32.971  61.283  1.00  0.00     0.091 C 
ATOM      2  C   UNL     1      -0.804  34.322  61.766  1.00  0.00     0.045 C 
ENDROOT
BRANCH   1   3
ATOM      3  C   UNL     1       1.314  33.020  61.788  1.00  0.00     0.146 C 
BRANCH   3   4
ATOM      4  C   UNL     1       2.405  33.151  60.701  1.00  0.00     0.043 C 
BRANCH   4   5
ATOM      5  C   UNL     1       3.834  32.743  61.157  1.00  0.00     0.046 C 
ATOM      6  C   UNL     1       4.617  30.610  62.360  1.00  0.00     0.020 C 
ATOM      7  C   UNL     1       3.835  31.926  62.485  1.00  0.00     0.103 C 
ATOM      8  C   UNL     1       4.528  32.831  63.432  1.00  0.00     0.309 C 
ATOM      9  C   UNL     1       4.697  34.016  61.453  1.00  0.00     0.177 C 
ATOM     10  O   UNL     1       5.017  33.969  62.833  1.00  0.00    -0.462 OA
ATOM     11  O   UNL     1       4.672  32.595  64.662  1.00  0.00    -0.252 OA
ATOM     12  C   UNL     1       5.985  34.041  60.626  1.00  0.00     0.053 C 
ENDBRANCH   4   5
ENDBRANCH   3   4
BRANCH   3  13
ATOM     13  O   UNL     1       1.458  34.083  62.700  1.00  0.00    -0.390 OA
ATOM     14  H   UNL     1       1.316  34.932  62.205  1.00  0.00     0.211 HD
ENDBRANCH   3  13
ENDBRANCH   1   3
BRANCH   1  15
ATOM     15  C   UNL     1      -1.024  31.740  61.864  1.00  0.00     0.032 C 
ATOM     16  C   UNL     1      -0.673  31.331  63.303  1.00  0.00     0.010 C 
ATOM     17  C   UNL     1      -1.022  30.340  61.113  1.00  0.00     0.006 C 
ATOM     18  C   UNL     1      -1.474  30.068  63.550  1.00  0.00     0.041 C 
ATOM     19  C   UNL     1      -1.546  29.314  62.207  1.00  0.00     0.092 C 
ATOM     20  C   UNL     1       0.392  29.895  60.547  1.00  0.00     0.011 C 
ATOM     21  C   UNL     1      -2.006  30.360  59.907  1.00  0.00     0.015 C 
ATOM     22  C   UNL     1      -0.660  28.063  62.229  1.00  0.00    -0.031 C 
ATOM     23  C   UNL     1       1.414  29.260  61.522  1.00  0.00     0.009 C 
ATOM     24  C   UNL     1       0.804  28.295  62.576  1.00  0.00     0.025 C 
ATOM     25  C   UNL     1      -1.047  26.920  61.617  1.00  0.00     0.050 C 
ATOM     26  C   UNL     1       1.577  26.951  62.848  1.00  0.00    -0.013 C 
ATOM     27  C   UNL     1      -0.110  25.806  61.373  1.00  0.00     0.159 C 
ATOM     28  C   UNL     1       1.366  25.996  61.638  1.00  0.00     0.070 C 
ATOM     29  C   UNL     1       3.104  27.193  63.054  1.00  0.00     0.042 C 
ATOM     30  C   UNL     1       0.996  26.345  64.170  1.00  0.00     0.013 C 
ATOM     31  O   UNL     1      -0.537  24.738  60.858  1.00  0.00    -0.295 OA
ATOM     32  C   UNL     1       2.134  24.665  61.796  1.00  0.00     0.047 C 
ATOM     33  C   UNL     1       3.908  25.880  63.204  1.00  0.00     0.143 C 
ATOM     34  C   UNL     1       3.640  24.922  62.018  1.00  0.00     0.143 C 
BRANCH  19  35
ATOM     35  O   UNL     1      -2.898  28.967  61.980  1.00  0.00    -0.385 OA
ATOM     36  H   UNL     1      -3.291  28.679  62.847  1.00  0.00     0.211 HD
ENDBRANCH  19  35
BRANCH  33  37
ATOM     37  O   UNL     1       5.282  26.174  63.247  1.00  0.00    -0.390 OA
ATOM     38  H   UNL     1       5.758  25.313  63.408  1.00  0.00     0.211 HD
ENDBRANCH  33  37
BRANCH  34  39
ATOM     39  O   UNL     1       4.321  23.705  62.196  1.00  0.00    -0.390 OA
ATOM     40  H   UNL     1       4.079  23.358  63.092  1.00  0.00     0.211 HD
ENDBRANCH  34  39
ENDBRANCH   1  15
BRANCH   1  41
ATOM     41  O   UNL     1      -0.221  32.907  59.875  1.00  0.00    -0.387 OA
ATOM     42  H   UNL     1      -1.142  33.113  59.566  1.00  0.00     0.211 HD
ENDBRANCH   1  41
TORSDOF 9
ENDMDL
MODEL 4
REMARK VINA RESULT:    -7.558      6.058      8.566
REMARK INTER + INTRA:         -10.574
REMARK INTER:                  -9.074
REMARK INTRA:                  -1.500
REMARK UNBOUND:                -0.144
REMARK SMILES C[C@@H]1OC(=O)[C@H](C)[C@H]1C[C@@H](O)[C@@](C)(O)[C@@H]1CC[C@]2(O)C3=CC(=O)[C@@H]4C[C@H](O)[C@@H](O)C[C@@]4(C)[C@H]3CC[C@]12C
REMARK SMILES IDX 12 1 13 2 10 3 9 4 8 5 7 6 6 7 4 8 2 9 3 10 5 11 1 12 11 13
REMARK SMILES IDX 15 15 16 16 36 17 17 18 18 19 35 20 37 21 20 22 34 23 33 24
REMARK SMILES IDX 21 25 31 26 22 27 24 28 30 29 32 30 23 31 25 32 28 33 26 34
REMARK SMILES IDX 19 35 29 37 27 39 14 41
REMARK H PARENT 11 14 19 36 29 38 27 40 14 42
REMARK Flexibility Score: inf
ROOT
ATOM      1  C   UNL     1       6.350  31.248  64.860  1.00  0.00     0.091 C 
ATOM      2  C   UNL     1       7.668  31.813  64.246  1.00  0.00     0.045 C 
ENDROOT
BRANCH   1   3
ATOM      3  C   UNL     1       6.693  29.736  65.206  1.00  0.00     0.146 C 
BRANCH   3   4
ATOM      4  C   UNL     1       6.003  28.655  64.343  1.00  0.00     0.043 C 
BRANCH   4   5
ATOM      5  C   UNL     1       4.953  27.791  65.096  1.00  0.00     0.046 C 
ATOM      6  C   UNL     1       5.108  26.683  67.412  1.00  0.00     0.020 C 
ATOM      7  C   UNL     1       5.602  26.664  65.957  1.00  0.00     0.103 C 
ATOM      8  C   UNL     1       5.139  25.426  65.288  1.00  0.00     0.309 C 
ATOM      9  C   UNL     1       4.023  27.049  64.077  1.00  0.00     0.177 C 
ATOM     10  O   UNL     1       4.249  25.663  64.267  1.00  0.00    -0.462 OA
ATOM     11  O   UNL     1       5.506  24.264  65.613  1.00  0.00    -0.252 OA
ATOM     12  C   UNL     1       2.545  27.369  64.310  1.00  0.00     0.053 C 
ENDBRANCH   4   5
ENDBRANCH   3   4
BRANCH   3  13
ATOM     13  O   UNL     1       8.087  29.553  65.125  1.00  0.00    -0.390 OA
ATOM     14  H   UNL     1       8.490  29.897  65.966  1.00  0.00     0.211 HD
ENDBRANCH   3  13
ENDBRANCH   1   3
BRANCH   1  15
ATOM     15  C   UNL     1       5.907  32.111  66.127  1.00  0.00     0.032 C 
ATOM     16  C   UNL     1       6.417  31.597  67.482  1.00  0.00     0.010 C 
ATOM     17  C   UNL     1       4.369  32.369  66.429  1.00  0.00     0.006 C 
ATOM     18  C   UNL     1       5.739  32.482  68.510  1.00  0.00     0.041 C 
ATOM     19  C   UNL     1       4.347  32.831  67.949  1.00  0.00     0.092 C 
ATOM     20  C   UNL     1       3.430  31.111  66.204  1.00  0.00     0.011 C 
ATOM     21  C   UNL     1       3.816  33.514  65.531  1.00  0.00     0.015 C 
ATOM     22  C   UNL     1       3.243  32.090  68.713  1.00  0.00    -0.031 C 
ATOM     23  C   UNL     1       3.363  30.029  67.310  1.00  0.00     0.009 C 
ATOM     24  C   UNL     1       3.378  30.575  68.764  1.00  0.00     0.025 C 
ATOM     25  C   UNL     1       2.057  32.684  68.980  1.00  0.00     0.050 C 
ATOM     26  C   UNL     1       2.377  29.918  69.786  1.00  0.00    -0.013 C 
ATOM     27  C   UNL     1       0.886  31.916  69.449  1.00  0.00     0.159 C 
ATOM     28  C   UNL     1       0.936  30.406  69.462  1.00  0.00     0.070 C 
ATOM     29  C   UNL     1       2.421  28.360  69.719  1.00  0.00     0.042 C 
ATOM     30  C   UNL     1       2.827  30.357  71.220  1.00  0.00     0.013 C 
ATOM     31  O   UNL     1      -0.177  32.526  69.745  1.00  0.00    -0.295 OA
ATOM     32  C   UNL     1      -0.125  29.768  70.387  1.00  0.00     0.047 C 
ATOM     33  C   UNL     1       1.363  27.686  70.625  1.00  0.00     0.143 C 
ATOM     34  C   UNL     1      -0.055  28.228  70.325  1.00  0.00     0.143 C 
BRANCH  19  35
ATOM     35  O   UNL     1       4.177  34.231  68.058  1.00  0.00    -0.385 OA
ATOM     36  H   UNL     1       3.745  34.421  68.934  1.00  0.00     0.211 HD
ENDBRANCH  19  35
BRANCH  33  37
ATOM     37  O   UNL     1       1.374  26.298  70.406  1.00  0.00    -0.390 OA
ATOM     38  H   UNL     1       0.893  25.880  71.173  1.00  0.00     0.211 HD
ENDBRANCH  33  37
BRANCH  34  39
ATOM     39  O   UNL     1      -1.001  27.661  71.198  1.00  0.00    -0.390 OA
ATOM     40  H   UNL     1      -1.849  28.160  71.081  1.00  0.00     0.211 HD
ENDBRANCH  34  39
ENDBRANCH   1  15
BRANCH   1  41
ATOM     41  O   UNL     1       5.315  31.296  63.903  1.00  0.00    -0.387 OA
ATOM     42  H   UNL     1       5.714  31.217  62.998  1.00  0.00     0.211 HD
ENDBRANCH   1  41
TORSDOF 9
ENDMDL
MODEL 5
REMARK VINA RESULT:    -7.440      5.136      9.734
REMARK INTER + INTRA:         -10.412
REMARK INTER:                 -10.267
REMARK INTRA:                  -0.145
REMARK UNBOUND:                -0.144
REMARK SMILES C[C@@H]1OC(=O)[C@H](C)[C@H]1C[C@@H](O)[C@@](C)(O)[C@@H]1CC[C@]2(O)C3=CC(=O)[C@@H]4C[C@H](O)[C@@H](O)C[C@@]4(C)[C@H]3CC[C@]12C
REMARK SMILES IDX 12 1 13 2 10 3 9 4 8 5 7 6 6 7 4 8 2 9 3 10 5 11 1 12 11 13
REMARK SMILES IDX 15 15 16 16 36 17 17 18 18 19 35 20 37 21 20 22 34 23 33 24
REMARK SMILES IDX 21 25 31 26 22 27 24 28 30 29 32 30 23 31 25 32 28 33 26 34
REMARK SMILES IDX 19 35 29 37 27 39 14 41
REMARK H PARENT 11 14 19 36 29 38 27 40 14 42
REMARK Flexibility Score: inf
ROOT
ATOM      1  C   UNL     1       0.103  29.449  69.775  1.00  0.00     0.091 C 
ATOM      2  C   UNL     1      -0.105  28.448  70.954  1.00  0.00     0.045 C 
ENDROOT
BRANCH   1   3
ATOM      3  C   UNL     1      -0.519  30.812  70.303  1.00  0.00     0.146 C 
BRANCH   3   4
ATOM      4  C   UNL     1      -1.387  31.610  69.302  1.00  0.00     0.043 C 
BRANCH   4   5
ATOM      5  C   UNL     1      -2.221  32.759  69.934  1.00  0.00     0.046 C 
ATOM      6  C   UNL     1      -4.275  32.629  71.476  1.00  0.00     0.020 C 
ATOM      7  C   UNL     1      -3.737  32.411  70.054  1.00  0.00     0.103 C 
ATOM      8  C   UNL     1      -4.374  33.374  69.125  1.00  0.00     0.309 C 
ATOM      9  C   UNL     1      -2.160  34.038  69.031  1.00  0.00     0.177 C 
ATOM     10  O   UNL     1      -3.485  34.278  68.591  1.00  0.00    -0.462 OA
ATOM     11  O   UNL     1      -5.604  33.384  68.847  1.00  0.00    -0.252 OA
ATOM     12  C   UNL     1      -1.642  35.257  69.798  1.00  0.00     0.053 C 
ENDBRANCH   4   5
ENDBRANCH   3   4
BRANCH   3  13
ATOM     13  O   UNL     1      -1.286  30.551  71.454  1.00  0.00    -0.390 OA
ATOM     14  H   UNL     1      -1.195  29.585  71.670  1.00  0.00     0.211 HD
ENDBRANCH   3  13
ENDBRANCH   1   3
BRANCH   1  15
ATOM     15  C   UNL     1       1.650  29.554  69.395  1.00  0.00     0.032 C 
ATOM     16  C   UNL     1       1.953  30.264  68.066  1.00  0.00     0.010 C 
ATOM     17  C   UNL     1       2.543  28.246  69.283  1.00  0.00     0.006 C 
ATOM     18  C   UNL     1       3.445  30.092  67.869  1.00  0.00     0.041 C 
ATOM     19  C   UNL     1       3.819  28.719  68.464  1.00  0.00     0.092 C 
ATOM     20  C   UNL     1       1.833  27.019  68.570  1.00  0.00     0.011 C 
ATOM     21  C   UNL     1       2.984  27.756  70.693  1.00  0.00     0.015 C 
ATOM     22  C   UNL     1       4.144  27.710  67.357  1.00  0.00    -0.031 C 
ATOM     23  C   UNL     1       1.776  26.994  67.022  1.00  0.00     0.009 C 
ATOM     24  C   UNL     1       3.058  27.504  66.310  1.00  0.00     0.025 C 
ATOM     25  C   UNL     1       5.133  26.798  67.509  1.00  0.00     0.050 C 
ATOM     26  C   UNL     1       3.568  26.676  65.071  1.00  0.00    -0.013 C 
ATOM     27  C   UNL     1       5.279  25.644  66.600  1.00  0.00     0.159 C 
ATOM     28  C   UNL     1       4.203  25.350  65.581  1.00  0.00     0.070 C 
ATOM     29  C   UNL     1       2.410  26.346  64.080  1.00  0.00     0.042 C 
ATOM     30  C   UNL     1       4.615  27.566  64.320  1.00  0.00     0.013 C 
ATOM     31  O   UNL     1       6.256  24.860  66.746  1.00  0.00    -0.295 OA
ATOM     32  C   UNL     1       4.686  24.446  64.425  1.00  0.00     0.047 C 
ATOM     33  C   UNL     1       2.855  25.431  62.915  1.00  0.00     0.143 C 
ATOM     34  C   UNL     1       3.534  24.144  63.443  1.00  0.00     0.143 C 
BRANCH  19  35
ATOM     35  O   UNL     1       4.934  28.907  69.313  1.00  0.00    -0.385 OA
ATOM     36  H   UNL     1       4.594  29.107  70.227  1.00  0.00     0.211 HD
ENDBRANCH  19  35
BRANCH  33  37
ATOM     37  O   UNL     1       1.734  25.069  62.148  1.00  0.00    -0.390 OA
ATOM     38  H   UNL     1       1.638  25.757  61.433  1.00  0.00     0.211 HD
ENDBRANCH  33  37
BRANCH  34  39
ATOM     39  O   UNL     1       3.997  23.351  62.378  1.00  0.00    -0.390 OA
ATOM     40  H   UNL     1       4.587  22.654  62.763  1.00  0.00     0.211 HD
ENDBRANCH  34  39
ENDBRANCH   1  15
BRANCH   1  41
ATOM     41  O   UNL     1      -0.606  29.007  68.640  1.00  0.00    -0.387 OA
ATOM     42  H   UNL     1      -1.579  29.113  68.810  1.00  0.00     0.211 HD
ENDBRANCH   1  41
TORSDOF 9
ENDMDL
MODEL 6
REMARK VINA RESULT:    -7.385      4.970      9.793
REMARK INTER + INTRA:         -10.335
REMARK INTER:                  -9.127
REMARK INTRA:                  -1.208
REMARK UNBOUND:                -0.144
REMARK SMILES C[C@@H]1OC(=O)[C@H](C)[C@H]1C[C@@H](O)[C@@](C)(O)[C@@H]1CC[C@]2(O)C3=CC(=O)[C@@H]4C[C@H](O)[C@@H](O)C[C@@]4(C)[C@H]3CC[C@]12C
REMARK SMILES IDX 12 1 13 2 10 3 9 4 8 5 7 6 6 7 4 8 2 9 3 10 5 11 1 12 11 13
REMARK SMILES IDX 15 15 16 16 36 17 17 18 18 19 35 20 37 21 20 22 34 23 33 24
REMARK SMILES IDX 21 25 31 26 22 27 24 28 30 29 32 30 23 31 25 32 28 33 26 34
REMARK SMILES IDX 19 35 29 37 27 39 14 41
REMARK H PARENT 11 14 19 36 29 38 27 40 14 42
REMARK Flexibility Score: inf
ROOT
ATOM      1  C   UNL     1       1.901  32.645  61.321  1.00  0.00     0.091 C 
ATOM      2  C   UNL     1       1.181  34.024  61.210  1.00  0.00     0.045 C 
ENDROOT
BRANCH   1   3
ATOM      3  C   UNL     1       3.104  32.910  62.323  1.00  0.00     0.146 C 
BRANCH   3   4
ATOM      4  C   UNL     1       4.520  32.552  61.815  1.00  0.00     0.043 C 
BRANCH   4   5
ATOM      5  C   UNL     1       5.612  32.481  62.919  1.00  0.00     0.046 C 
ATOM      6  C   UNL     1       6.828  34.392  64.136  1.00  0.00     0.020 C 
ATOM      7  C   UNL     1       6.656  33.634  62.811  1.00  0.00     0.103 C 
ATOM      8  C   UNL     1       7.910  32.918  62.479  1.00  0.00     0.309 C 
ATOM      9  C   UNL     1       6.440  31.159  62.785  1.00  0.00     0.177 C 
ATOM     10  O   UNL     1       7.770  31.549  62.494  1.00  0.00    -0.462 OA
ATOM     11  O   UNL     1       9.003  33.486  62.214  1.00  0.00    -0.252 OA
ATOM     12  C   UNL     1       6.414  30.333  64.073  1.00  0.00     0.053 C 
ENDBRANCH   4   5
ENDBRANCH   3   4
BRANCH   3  13
ATOM     13  O   UNL     1       3.094  34.265  62.705  1.00  0.00    -0.390 OA
ATOM     14  H   UNL     1       2.634  34.332  63.583  1.00  0.00     0.211 HD
ENDBRANCH   3  13
ENDBRANCH   1   3
BRANCH   1  15
ATOM     15  C   UNL     1       0.884  31.521  61.822  1.00  0.00     0.032 C 
ATOM     16  C   UNL     1       0.763  31.378  63.347  1.00  0.00     0.010 C 
ATOM     17  C   UNL     1       1.062  30.011  61.361  1.00  0.00     0.006 C 
ATOM     18  C   UNL     1      -0.123  30.165  63.551  1.00  0.00     0.041 C 
ATOM     19  C   UNL     1       0.190  29.186  62.402  1.00  0.00     0.092 C 
ATOM     20  C   UNL     1       2.563  29.497  61.343  1.00  0.00     0.011 C 
ATOM     21  C   UNL     1       0.494  29.802  59.928  1.00  0.00     0.015 C 
ATOM     22  C   UNL     1       0.978  27.973  62.911  1.00  0.00    -0.031 C 
ATOM     23  C   UNL     1       3.213  29.062  62.679  1.00  0.00     0.009 C 
ATOM     24  C   UNL     1       2.274  28.288  63.645  1.00  0.00     0.025 C 
ATOM     25  C   UNL     1       0.752  26.734  62.417  1.00  0.00     0.050 C 
ATOM     26  C   UNL     1       2.874  27.025  64.370  1.00  0.00    -0.013 C 
ATOM     27  C   UNL     1       1.676  25.611  62.669  1.00  0.00     0.159 C 
ATOM     28  C   UNL     1       3.007  25.869  63.338  1.00  0.00     0.070 C 
ATOM     29  C   UNL     1       4.274  27.326  64.990  1.00  0.00     0.042 C 
ATOM     30  C   UNL     1       1.895  26.652  65.533  1.00  0.00     0.013 C 
ATOM     31  O   UNL     1       1.386  24.461  62.241  1.00  0.00    -0.295 OA
ATOM     32  C   UNL     1       3.639  24.600  63.951  1.00  0.00     0.047 C 
ATOM     33  C   UNL     1       4.943  26.074  65.604  1.00  0.00     0.143 C 
ATOM     34  C   UNL     1       5.013  24.918  64.578  1.00  0.00     0.143 C 
BRANCH  19  35
ATOM     35  O   UNL     1      -1.041  28.781  61.834  1.00  0.00    -0.385 OA
ATOM     36  H   UNL     1      -1.738  29.434  62.113  1.00  0.00     0.211 HD
ENDBRANCH  19  35
BRANCH  33  37
ATOM     37  O   UNL     1       6.249  26.394  66.016  1.00  0.00    -0.390 OA
ATOM     38  H   UNL     1       6.473  25.782  66.770  1.00  0.00     0.211 HD
ENDBRANCH  33  37
BRANCH  34  39
ATOM     39  O   UNL     1       5.560  23.762  65.164  1.00  0.00    -0.390 OA
ATOM     40  H   UNL     1       6.366  24.040  65.670  1.00  0.00     0.211 HD
ENDBRANCH  34  39
ENDBRANCH   1  15
BRANCH   1  41
ATOM     41  O   UNL     1       2.403  32.263  60.060  1.00  0.00    -0.387 OA
ATOM     42  H   UNL     1       2.753  31.336  60.123  1.00  0.00     0.211 HD
ENDBRANCH   1  41
TORSDOF 9
ENDMDL
MODEL 7
REMARK VINA RESULT:    -7.360      5.216     10.051
REMARK INTER + INTRA:         -10.302
REMARK INTER:                  -9.571
REMARK INTRA:                  -0.730
REMARK UNBOUND:                -0.144
REMARK SMILES C[C@@H]1OC(=O)[C@H](C)[C@H]1C[C@@H](O)[C@@](C)(O)[C@@H]1CC[C@]2(O)C3=CC(=O)[C@@H]4C[C@H](O)[C@@H](O)C[C@@]4(C)[C@H]3CC[C@]12C
REMARK SMILES IDX 12 1 13 2 10 3 9 4 8 5 7 6 6 7 4 8 2 9 3 10 5 11 1 12 11 13
REMARK SMILES IDX 15 15 16 16 36 17 17 18 18 19 35 20 37 21 20 22 34 23 33 24
REMARK SMILES IDX 21 25 31 26 22 27 24 28 30 29 32 30 23 31 25 32 28 33 26 34
REMARK SMILES IDX 19 35 29 37 27 39 14 41
REMARK H PARENT 11 14 19 36 29 38 27 40 14 42
REMARK Flexibility Score: inf
ROOT
ATOM      1  C   UNL     1       0.048  29.475  69.650  1.00  0.00     0.091 C 
ATOM      2  C   UNL     1      -0.181  28.399  70.756  1.00  0.00     0.045 C 
ENDROOT
BRANCH   1   3
ATOM      3  C   UNL     1      -0.577  30.803  70.257  1.00  0.00     0.146 C 
BRANCH   3   4
ATOM      4  C   UNL     1      -1.426  31.669  69.299  1.00  0.00     0.043 C 
BRANCH   4   5
ATOM      5  C   UNL     1      -0.664  32.853  68.640  1.00  0.00     0.046 C 
ATOM      6  C   UNL     1       1.646  33.828  69.212  1.00  0.00     0.020 C 
ATOM      7  C   UNL     1       0.186  33.668  69.662  1.00  0.00     0.103 C 
ATOM      8  C   UNL     1      -0.482  34.991  69.670  1.00  0.00     0.309 C 
ATOM      9  C   UNL     1      -1.675  33.881  68.029  1.00  0.00     0.177 C 
ATOM     10  O   UNL     1      -1.492  35.092  68.742  1.00  0.00    -0.462 OA
ATOM     11  O   UNL     1      -0.166  35.941  70.436  1.00  0.00    -0.252 OA
ATOM     12  C   UNL     1      -1.424  34.117  66.538  1.00  0.00     0.053 C 
ENDBRANCH   4   5
ENDBRANCH   3   4
BRANCH   3  13
ATOM     13  O   UNL     1      -1.363  30.469  71.376  1.00  0.00    -0.390 OA
ATOM     14  H   UNL     1      -2.011  29.769  71.098  1.00  0.00     0.211 HD
ENDBRANCH   3  13
ENDBRANCH   1   3
BRANCH   1  15
ATOM     15  C   UNL     1       1.601  29.598  69.301  1.00  0.00     0.032 C 
ATOM     16  C   UNL     1       1.922  30.294  67.969  1.00  0.00     0.010 C 
ATOM     17  C   UNL     1       2.515  28.302  69.225  1.00  0.00     0.006 C 
ATOM     18  C   UNL     1       3.421  30.142  67.806  1.00  0.00     0.041 C 
ATOM     19  C   UNL     1       3.802  28.783  68.426  1.00  0.00     0.092 C 
ATOM     20  C   UNL     1       1.838  27.055  68.514  1.00  0.00     0.011 C 
ATOM     21  C   UNL     1       2.933  27.837  70.650  1.00  0.00     0.015 C 
ATOM     22  C   UNL     1       4.165  27.764  67.341  1.00  0.00    -0.031 C 
ATOM     23  C   UNL     1       1.815  27.009  66.966  1.00  0.00     0.009 C 
ATOM     24  C   UNL     1       3.105  27.528  66.273  1.00  0.00     0.025 C 
ATOM     25  C   UNL     1       5.163  26.869  67.525  1.00  0.00     0.050 C 
ATOM     26  C   UNL     1       3.653  26.692  65.058  1.00  0.00    -0.013 C 
ATOM     27  C   UNL     1       5.346  25.706  66.636  1.00  0.00     0.159 C 
ATOM     28  C   UNL     1       4.296  25.383  65.598  1.00  0.00     0.070 C 
ATOM     29  C   UNL     1       2.521  26.331  64.046  1.00  0.00     0.042 C 
ATOM     30  C   UNL     1       4.702  27.588  64.317  1.00  0.00     0.013 C 
ATOM     31  O   UNL     1       6.331  24.938  66.813  1.00  0.00    -0.295 OA
ATOM     32  C   UNL     1       4.817  24.470  64.465  1.00  0.00     0.047 C 
ATOM     33  C   UNL     1       3.004  25.408  62.903  1.00  0.00     0.143 C 
ATOM     34  C   UNL     1       3.691  24.139  63.463  1.00  0.00     0.143 C 
BRANCH  19  35
ATOM     35  O   UNL     1       4.896  28.998  69.297  1.00  0.00    -0.385 OA
ATOM     36  H   UNL     1       5.393  28.140  69.384  1.00  0.00     0.211 HD
ENDBRANCH  19  35
BRANCH  33  37
ATOM     37  O   UNL     1       1.905  25.020  62.118  1.00  0.00    -0.390 OA
ATOM     38  H   UNL     1       2.096  25.317  61.186  1.00  0.00     0.211 HD
ENDBRANCH  33  37
BRANCH  34  39
ATOM     39  O   UNL     1       4.187  23.338  62.419  1.00  0.00    -0.390 OA
ATOM     40  H   UNL     1       3.698  22.477  62.448  1.00  0.00     0.211 HD
ENDBRANCH  34  39
ENDBRANCH   1  15
BRANCH   1  41
ATOM     41  O   UNL     1      -0.645  29.112  68.477  1.00  0.00    -0.387 OA
ATOM     42  H   UNL     1      -1.386  29.757  68.332  1.00  0.00     0.211 HD
ENDBRANCH   1  41
TORSDOF 9
ENDMDL
MODEL 8
REMARK VINA RESULT:    -7.353      4.374      9.419
REMARK INTER + INTRA:         -10.292
REMARK INTER:                  -8.876
REMARK INTRA:                  -1.415
REMARK UNBOUND:                -0.144
REMARK SMILES C[C@@H]1OC(=O)[C@H](C)[C@H]1C[C@@H](O)[C@@](C)(O)[C@@H]1CC[C@]2(O)C3=CC(=O)[C@@H]4C[C@H](O)[C@@H](O)C[C@@]4(C)[C@H]3CC[C@]12C
REMARK SMILES IDX 12 1 13 2 10 3 9 4 8 5 7 6 6 7 4 8 2 9 3 10 5 11 1 12 11 13
REMARK SMILES IDX 15 15 16 16 36 17 17 18 18 19 35 20 37 21 20 22 34 23 33 24
REMARK SMILES IDX 21 25 31 26 22 27 24 28 30 29 32 30 23 31 25 32 28 33 26 34
REMARK SMILES IDX 19 35 29 37 27 39 14 41
REMARK H PARENT 11 14 19 36 29 38 27 40 14 42
REMARK Flexibility Score: inf
ROOT
ATOM      1  C   UNL     1       1.918  32.865  61.506  1.00  0.00     0.091 C 
ATOM      2  C   UNL     1       1.677  34.389  61.735  1.00  0.00     0.045 C 
ENDROOT
BRANCH   1   3
ATOM      3  C   UNL     1       3.291  32.568  62.247  1.00  0.00     0.146 C 
BRANCH   3   4
ATOM      4  C   UNL     1       4.293  31.652  61.507  1.00  0.00     0.043 C 
BRANCH   4   5
ATOM      5  C   UNL     1       5.128  30.719  62.428  1.00  0.00     0.046 C 
ATOM      6  C   UNL     1       4.449  28.515  63.567  1.00  0.00     0.020 C 
ATOM      7  C   UNL     1       4.270  30.040  63.540  1.00  0.00     0.103 C 
ATOM      8  C   UNL     1       4.814  30.629  64.786  1.00  0.00     0.309 C 
ATOM      9  C   UNL     1       6.221  31.540  63.192  1.00  0.00     0.177 C 
ATOM     10  O   UNL     1       5.907  31.436  64.570  1.00  0.00    -0.462 OA
ATOM     11  O   UNL     1       4.342  30.418  65.936  1.00  0.00    -0.252 OA
ATOM     12  C   UNL     1       7.629  30.995  62.940  1.00  0.00     0.053 C 
ENDBRANCH   4   5
ENDBRANCH   3   4
BRANCH   3  13
ATOM     13  O   UNL     1       3.929  33.789  62.536  1.00  0.00    -0.390 OA
ATOM     14  H   UNL     1       4.585  33.971  61.812  1.00  0.00     0.211 HD
ENDBRANCH   3  13
ENDBRANCH   1   3
BRANCH   1  15
ATOM     15  C   UNL     1       0.690  32.013  62.066  1.00  0.00     0.032 C 
ATOM     16  C   UNL     1       0.979  31.204  63.340  1.00  0.00     0.010 C 
ATOM     17  C   UNL     1      -0.030  30.936  61.146  1.00  0.00     0.006 C 
ATOM     18  C   UNL     1      -0.274  30.380  63.565  1.00  0.00     0.041 C 
ATOM     19  C   UNL     1      -0.833  30.027  62.173  1.00  0.00     0.092 C 
ATOM     20  C   UNL     1       0.952  30.061  60.260  1.00  0.00     0.011 C 
ATOM     21  C   UNL     1      -1.029  31.624  60.171  1.00  0.00     0.015 C 
ATOM     22  C   UNL     1      -0.616  28.544  61.851  1.00  0.00    -0.031 C 
ATOM     23  C   UNL     1       1.679  28.864  60.921  1.00  0.00     0.009 C 
ATOM     24  C   UNL     1       0.823  28.054  61.933  1.00  0.00     0.025 C 
ATOM     25  C   UNL     1      -1.548  27.830  61.178  1.00  0.00     0.050 C 
ATOM     26  C   UNL     1       0.926  26.484  61.865  1.00  0.00    -0.013 C 
ATOM     27  C   UNL     1      -1.253  26.501  60.607  1.00  0.00     0.159 C 
ATOM     28  C   UNL     1       0.168  25.986  60.602  1.00  0.00     0.070 C 
ATOM     29  C   UNL     1       2.409  26.004  61.799  1.00  0.00     0.042 C 
ATOM     30  C   UNL     1       0.289  25.922  63.180  1.00  0.00     0.013 C 
ATOM     31  O   UNL     1      -2.174  25.849  60.046  1.00  0.00    -0.295 OA
ATOM     32  C   UNL     1       0.261  24.454  60.424  1.00  0.00     0.047 C 
ATOM     33  C   UNL     1       2.541  24.475  61.610  1.00  0.00     0.143 C 
ATOM     34  C   UNL     1       1.733  23.993  60.381  1.00  0.00     0.143 C 
BRANCH  19  35
ATOM     35  O   UNL     1      -2.212  30.344  62.169  1.00  0.00    -0.385 OA
ATOM     36  H   UNL     1      -2.371  31.013  61.450  1.00  0.00     0.211 HD
ENDBRANCH  19  35
BRANCH  33  37
ATOM     37  O   UNL     1       3.894  24.140  61.423  1.00  0.00    -0.390 OA
ATOM     38  H   UNL     1       3.914  23.336  60.835  1.00  0.00     0.211 HD
ENDBRANCH  33  37
BRANCH  34  39
ATOM     39  O   UNL     1       1.803  22.594  60.255  1.00  0.00    -0.390 OA
ATOM     40  H   UNL     1       1.604  22.371  59.311  1.00  0.00     0.211 HD
ENDBRANCH  34  39
ENDBRANCH   1  15
BRANCH   1  41
ATOM     41  O   UNL     1       2.052  32.602  60.127  1.00  0.00    -0.387 OA
ATOM     42  H   UNL     1       2.563  31.759  60.011  1.00  0.00     0.211 HD
ENDBRANCH   1  41
TORSDOF 9
ENDMDL
MODEL 9
REMARK VINA RESULT:    -7.296      4.318      8.031
REMARK INTER + INTRA:         -10.212
REMARK INTER:                  -8.858
REMARK INTRA:                  -1.355
REMARK UNBOUND:                -0.144
REMARK SMILES C[C@@H]1OC(=O)[C@H](C)[C@H]1C[C@@H](O)[C@@](C)(O)[C@@H]1CC[C@]2(O)C3=CC(=O)[C@@H]4C[C@H](O)[C@@H](O)C[C@@]4(C)[C@H]3CC[C@]12C
REMARK SMILES IDX 12 1 13 2 10 3 9 4 8 5 7 6 6 7 4 8 2 9 3 10 5 11 1 12 11 13
REMARK SMILES IDX 15 15 16 16 36 17 17 18 18 19 35 20 37 21 20 22 34 23 33 24
REMARK SMILES IDX 21 25 31 26 22 27 24 28 30 29 32 30 23 31 25 32 28 33 26 34
REMARK SMILES IDX 19 35 29 37 27 39 14 41
REMARK H PARENT 11 14 19 36 29 38 27 40 14 42
REMARK Flexibility Score: inf
ROOT
ATOM      1  C   UNL     1       0.209  29.961  69.054  1.00  0.00     0.091 C 
ATOM      2  C   UNL     1      -0.129  31.123  70.038  1.00  0.00     0.045 C 
ENDROOT
BRANCH   1   3
ATOM      3  C   UNL     1      -0.510  30.371  67.699  1.00  0.00     0.146 C 
BRANCH   3   4
ATOM      4  C   UNL     1      -0.947  29.215  66.769  1.00  0.00     0.043 C 
BRANCH   4   5
ATOM      5  C   UNL     1      -1.172  29.620  65.285  1.00  0.00     0.046 C 
ATOM      6  C   UNL     1      -2.851  28.688  63.576  1.00  0.00     0.020 C 
ATOM      7  C   UNL     1      -1.574  28.413  64.383  1.00  0.00     0.103 C 
ATOM      8  C   UNL     1      -0.419  28.285  63.464  1.00  0.00     0.309 C 
ATOM      9  C   UNL     1       0.153  30.178  64.664  1.00  0.00     0.177 C 
ATOM     10  O   UNL     1       0.511  29.287  63.622  1.00  0.00    -0.462 OA
ATOM     11  O   UNL     1      -0.289  27.365  62.612  1.00  0.00    -0.252 OA
ATOM     12  C   UNL     1      -0.028  31.588  64.097  1.00  0.00     0.053 C 
ENDBRANCH   4   5
ENDBRANCH   3   4
BRANCH   3  13
ATOM     13  O   UNL     1      -1.640  31.157  67.998  1.00  0.00    -0.390 OA
ATOM     14  H   UNL     1      -1.540  31.493  68.928  1.00  0.00     0.211 HD
ENDBRANCH   3  13
ENDBRANCH   1   3
BRANCH   1  15
ATOM     15  C   UNL     1       1.789  29.786  68.914  1.00  0.00     0.032 C 
ATOM     16  C   UNL     1       2.415  30.442  67.674  1.00  0.00     0.010 C 
ATOM     17  C   UNL     1       2.441  28.338  68.887  1.00  0.00     0.006 C 
ATOM     18  C   UNL     1       3.866  30.003  67.696  1.00  0.00     0.041 C 
ATOM     19  C   UNL     1       3.893  28.580  68.287  1.00  0.00     0.092 C 
ATOM     20  C   UNL     1       1.642  27.269  68.029  1.00  0.00     0.011 C 
ATOM     21  C   UNL     1       2.565  27.762  70.327  1.00  0.00     0.015 C 
ATOM     22  C   UNL     1       4.199  27.540  67.203  1.00  0.00    -0.031 C 
ATOM     23  C   UNL     1       1.821  27.271  66.491  1.00  0.00     0.009 C 
ATOM     24  C   UNL     1       3.268  27.546  65.998  1.00  0.00     0.025 C 
ATOM     25  C   UNL     1       4.973  26.462  67.466  1.00  0.00     0.050 C 
ATOM     26  C   UNL     1       3.807  26.652  64.819  1.00  0.00    -0.013 C 
ATOM     27  C   UNL     1       5.050  25.310  66.547  1.00  0.00     0.159 C 
ATOM     28  C   UNL     1       4.109  25.228  65.367  1.00  0.00     0.070 C 
ATOM     29  C   UNL     1       2.775  26.549  63.654  1.00  0.00     0.042 C 
ATOM     30  C   UNL     1       5.099  27.345  64.268  1.00  0.00     0.013 C 
ATOM     31  O   UNL     1       5.837  24.359  66.807  1.00  0.00    -0.295 OA
ATOM     32  C   UNL     1       4.595  24.263  64.263  1.00  0.00     0.047 C 
ATOM     33  C   UNL     1       3.224  25.580  62.534  1.00  0.00     0.143 C 
ATOM     34  C   UNL     1       3.574  24.186  63.109  1.00  0.00     0.143 C 
BRANCH  19  35
ATOM     35  O   UNL     1       4.878  28.552  69.301  1.00  0.00    -0.385 OA
ATOM     36  H   UNL     1       4.854  27.654  69.728  1.00  0.00     0.211 HD
ENDBRANCH  19  35
BRANCH  33  37
ATOM     37  O   UNL     1       2.189  25.437  61.595  1.00  0.00    -0.390 OA
ATOM     38  H   UNL     1       2.310  26.159  60.918  1.00  0.00     0.211 HD
ENDBRANCH  33  37
BRANCH  34  39
ATOM     39  O   UNL     1       4.046  23.333  62.096  1.00  0.00    -0.390 OA
ATOM     40  H   UNL     1       3.668  22.433  62.267  1.00  0.00     0.211 HD
ENDBRANCH  34  39
ENDBRANCH   1  15
BRANCH   1  41
ATOM     41  O   UNL     1      -0.333  28.751  69.536  1.00  0.00    -0.387 OA
ATOM     42  H   UNL     1      -0.370  28.791  70.527  1.00  0.00     0.211 HD
ENDBRANCH   1  41
TORSDOF 9
ENDMDL
