MODEL 1
REMARK VINA RESULT:    -3.871      0.000      0.000
REMARK INTER + INTRA:          -8.384
REMARK INTER:                  -6.587
REMARK INTRA:                  -1.797
REMARK UNBOUND:                -1.797
REMARK SMILES CCCCCCCCCCCCCC(=O)[O-]
REMARK SMILES IDX 8 1 9 2 10 3 11 4 12 5 13 6 14 7 15 8 16 9 7 10 6 11 5 12
REMARK SMILES IDX 4 13 3 14 2 15 1 16
REMARK H PARENT
REMARK Flexibility Score: inf
ROOT
ATOM      1  C   UNL     1      49.115  -6.192 -54.409  1.00  0.00     0.000 C 
ENDROOT
BRANCH   1   2
ATOM      2  C   UNL     1      49.552  -7.651 -54.184  1.00  0.00     0.000 C 
BRANCH   2   3
ATOM      3  C   UNL     1      48.895  -8.684 -55.120  1.00  0.00     0.000 C 
BRANCH   3   4
ATOM      4  C   UNL     1      47.550  -8.203 -55.691  1.00  0.00     0.000 C 
BRANCH   4   5
ATOM      5  C   UNL     1      46.838  -9.284 -56.526  1.00  0.00     0.006 C 
BRANCH   5   6
ATOM      6  C   UNL     1      47.784 -10.181 -57.343  1.00  0.00     0.053 C 
BRANCH   6   7
ATOM      7  C   UNL     1      47.673 -11.621 -56.948  1.00  0.00     0.041 C 
ATOM      8  O   UNL     1      48.446 -12.099 -56.077  1.00  0.00    -0.550 OA
ATOM      9  O   UNL     1      46.739 -12.442 -57.565  1.00  0.00    -0.550 OA
ENDBRANCH   6   7
ENDBRANCH   5   6
ENDBRANCH   4   5
ENDBRANCH   3   4
ENDBRANCH   2   3
ENDBRANCH   1   2
BRANCH   1  10
ATOM     10  C   UNL     1      50.231  -5.314 -54.994  1.00  0.00     0.000 C 
BRANCH  10  11
ATOM     11  C   UNL     1      51.555  -6.087 -55.069  1.00  0.00    -0.000 C 
BRANCH  11  12
ATOM     12  C   UNL     1      52.197  -6.032 -56.465  1.00  0.00    -0.000 C 
BRANCH  12  13
ATOM     13  C   UNL     1      51.240  -5.479 -57.536  1.00  0.00    -0.000 C 
BRANCH  13  14
ATOM     14  C   UNL     1      51.013  -6.482 -58.688  1.00  0.00    -0.000 C 
BRANCH  14  15
ATOM     15  C   UNL     1      49.623  -7.137 -58.667  1.00  0.00    -0.003 C 
ATOM     16  C   UNL     1      48.487  -6.128 -58.512  1.00  0.00     0.004 C 
ENDBRANCH  14  15
ENDBRANCH  13  14
ENDBRANCH  12  13
ENDBRANCH  11  12
ENDBRANCH  10  11
ENDBRANCH   1  10
TORSDOF 12
ENDMDL
MODEL 2
REMARK VINA RESULT:    -3.855      2.028      3.439
REMARK INTER + INTRA:          -8.357
REMARK INTER:                  -7.498
REMARK INTRA:                  -0.859
REMARK UNBOUND:                -1.797
REMARK SMILES CCCCCCCCCCCCCC(=O)[O-]
REMARK SMILES IDX 8 1 9 2 10 3 11 4 12 5 13 6 14 7 15 8 16 9 7 10 6 11 5 12
REMARK SMILES IDX 4 13 3 14 2 15 1 16
REMARK H PARENT
REMARK Flexibility Score: inf
ROOT
ATOM      1  C   UNL     1      48.234  -8.919 -55.553  1.00  0.00     0.000 C 
ENDROOT
BRANCH   1   2
ATOM      2  C   UNL     1      46.881  -8.870 -56.286  1.00  0.00     0.000 C 
BRANCH   2   3
ATOM      3  C   UNL     1      46.673  -9.962 -57.353  1.00  0.00     0.000 C 
BRANCH   3   4
ATOM      4  C   UNL     1      47.828 -10.977 -57.404  1.00  0.00     0.000 C 
BRANCH   4   5
ATOM      5  C   UNL     1      47.402 -12.386 -56.950  1.00  0.00     0.006 C 
BRANCH   5   6
ATOM      6  C   UNL     1      48.480 -13.152 -56.165  1.00  0.00     0.053 C 
BRANCH   6   7
ATOM      7  C   UNL     1      48.008 -14.509 -55.740  1.00  0.00     0.041 C 
ATOM      8  O   UNL     1      48.499 -15.542 -56.266  1.00  0.00    -0.550 OA
ATOM      9  O   UNL     1      47.004 -14.630 -54.788  1.00  0.00    -0.550 OA
ENDBRANCH   6   7
ENDBRANCH   5   6
ENDBRANCH   4   5
ENDBRANCH   3   4
ENDBRANCH   2   3
ENDBRANCH   1   2
BRANCH   1  10
ATOM     10  C   UNL     1      48.515  -7.657 -54.725  1.00  0.00     0.000 C 
BRANCH  10  11
ATOM     11  C   UNL     1      49.916  -7.713 -54.099  1.00  0.00    -0.000 C 
BRANCH  11  12
ATOM     12  C   UNL     1      50.905  -6.744 -54.768  1.00  0.00    -0.000 C 
BRANCH  12  13
ATOM     13  C   UNL     1      50.279  -5.978 -55.946  1.00  0.00    -0.000 C 
BRANCH  13  14
ATOM     14  C   UNL     1      50.281  -4.452 -55.715  1.00  0.00    -0.000 C 
BRANCH  14  15
ATOM     15  C   UNL     1      49.776  -4.040 -54.322  1.00  0.00    -0.003 C 
ATOM     16  C   UNL     1      48.287  -3.701 -54.301  1.00  0.00     0.004 C 
ENDBRANCH  14  15
ENDBRANCH  13  14
ENDBRANCH  12  13
ENDBRANCH  11  12
ENDBRANCH  10  11
ENDBRANCH   1  10
TORSDOF 12
ENDMDL
MODEL 3
REMARK VINA RESULT:    -3.851      2.361      4.486
REMARK INTER + INTRA:          -8.349
REMARK INTER:                  -7.427
REMARK INTRA:                  -0.922
REMARK UNBOUND:                -1.797
REMARK SMILES CCCCCCCCCCCCCC(=O)[O-]
REMARK SMILES IDX 8 1 9 2 10 3 11 4 12 5 13 6 14 7 15 8 16 9 7 10 6 11 5 12
REMARK SMILES IDX 4 13 3 14 2 15 1 16
REMARK H PARENT
REMARK Flexibility Score: inf
ROOT
ATOM      1  C   UNL     1      47.790  -9.652 -56.498  1.00  0.00     0.000 C 
ENDROOT
BRANCH   1   2
ATOM      2  C   UNL     1      46.859 -10.634 -57.232  1.00  0.00     0.000 C 
BRANCH   2   3
ATOM      3  C   UNL     1      47.336 -12.099 -57.251  1.00  0.00     0.000 C 
BRANCH   3   4
ATOM      4  C   UNL     1      48.403 -12.395 -56.183  1.00  0.00     0.000 C 
BRANCH   4   5
ATOM      5  C   UNL     1      48.722 -13.897 -56.061  1.00  0.00     0.006 C 
BRANCH   5   6
ATOM      6  C   UNL     1      47.551 -14.756 -55.556  1.00  0.00     0.053 C 
BRANCH   6   7
ATOM      7  C   UNL     1      47.435 -16.046 -56.307  1.00  0.00     0.041 C 
ATOM      8  O   UNL     1      48.153 -17.030 -55.989  1.00  0.00    -0.550 OA
ATOM      9  O   UNL     1      46.558 -16.151 -57.379  1.00  0.00    -0.550 OA
ENDBRANCH   6   7
ENDBRANCH   5   6
ENDBRANCH   4   5
ENDBRANCH   3   4
ENDBRANCH   2   3
ENDBRANCH   1   2
BRANCH   1  10
ATOM     10  C   UNL     1      47.939  -8.307 -57.226  1.00  0.00     0.000 C 
BRANCH  10  11
ATOM     11  C   UNL     1      47.787  -7.134 -56.247  1.00  0.00    -0.000 C 
BRANCH  11  12
ATOM     12  C   UNL     1      47.695  -7.591 -54.782  1.00  0.00    -0.000 C 
BRANCH  12  13
ATOM     13  C   UNL     1      48.809  -6.995 -53.903  1.00  0.00    -0.000 C 
BRANCH  13  14
ATOM     14  C   UNL     1      50.216  -7.400 -54.393  1.00  0.00    -0.000 C 
BRANCH  14  15
ATOM     15  C   UNL     1      51.091  -6.205 -54.805  1.00  0.00    -0.003 C 
ATOM     16  C   UNL     1      51.353  -6.145 -56.309  1.00  0.00     0.004 C 
ENDBRANCH  14  15
ENDBRANCH  13  14
ENDBRANCH  12  13
ENDBRANCH  11  12
ENDBRANCH  10  11
ENDBRANCH   1  10
TORSDOF 12
ENDMDL
MODEL 4
REMARK VINA RESULT:    -3.845      0.989      3.315
REMARK INTER + INTRA:          -8.340
REMARK INTER:                  -6.789
REMARK INTRA:                  -1.551
REMARK UNBOUND:                -1.797
REMARK SMILES CCCCCCCCCCCCCC(=O)[O-]
REMARK SMILES IDX 8 1 9 2 10 3 11 4 12 5 13 6 14 7 15 8 16 9 7 10 6 11 5 12
REMARK SMILES IDX 4 13 3 14 2 15 1 16
REMARK H PARENT
REMARK Flexibility Score: inf
ROOT
ATOM      1  C   UNL     1      51.653  -6.264 -58.572  1.00  0.00     0.000 C 
ENDROOT
BRANCH   1   2
ATOM      2  C   UNL     1      50.136  -6.261 -58.831  1.00  0.00     0.000 C 
BRANCH   2   3
ATOM      3  C   UNL     1      49.482  -7.654 -58.910  1.00  0.00     0.000 C 
BRANCH   3   4
ATOM      4  C   UNL     1      48.372  -7.854 -57.864  1.00  0.00     0.000 C 
BRANCH   4   5
ATOM      5  C   UNL     1      47.755  -9.264 -57.913  1.00  0.00     0.006 C 
BRANCH   5   6
ATOM      6  C   UNL     1      47.773 -10.012 -56.570  1.00  0.00     0.053 C 
BRANCH   6   7
ATOM      7  C   UNL     1      47.851 -11.497 -56.753  1.00  0.00     0.041 C 
ATOM      8  O   UNL     1      47.131 -12.067 -57.614  1.00  0.00    -0.550 OA
ATOM      9  O   UNL     1      48.696 -12.253 -55.952  1.00  0.00    -0.550 OA
ENDBRANCH   6   7
ENDBRANCH   5   6
ENDBRANCH   4   5
ENDBRANCH   3   4
ENDBRANCH   2   3
ENDBRANCH   1   2
BRANCH   1  10
ATOM     10  C   UNL     1      52.021  -5.824 -57.148  1.00  0.00     0.000 C 
BRANCH  10  11
ATOM     11  C   UNL     1      51.004  -4.808 -56.608  1.00  0.00    -0.000 C 
BRANCH  11  12
ATOM     12  C   UNL     1      50.413  -5.224 -55.251  1.00  0.00    -0.000 C 
BRANCH  12  13
ATOM     13  C   UNL     1      50.957  -6.575 -54.755  1.00  0.00    -0.000 C 
BRANCH  13  14
ATOM     14  C   UNL     1      49.833  -7.607 -54.528  1.00  0.00    -0.000 C 
BRANCH  14  15
ATOM     15  C   UNL     1      48.694  -7.088 -53.635  1.00  0.00    -0.003 C 
ATOM     16  C   UNL     1      47.329  -7.129 -54.320  1.00  0.00     0.004 C 
ENDBRANCH  14  15
ENDBRANCH  13  14
ENDBRANCH  12  13
ENDBRANCH  11  12
ENDBRANCH  10  11
ENDBRANCH   1  10
TORSDOF 12
ENDMDL
MODEL 5
REMARK VINA RESULT:    -3.815      4.131      6.129
REMARK INTER + INTRA:          -8.288
REMARK INTER:                  -6.408
REMARK INTRA:                  -1.881
REMARK UNBOUND:                -1.797
REMARK SMILES CCCCCCCCCCCCCC(=O)[O-]
REMARK SMILES IDX 8 1 9 2 10 3 11 4 12 5 13 6 14 7 15 8 16 9 7 10 6 11 5 12
REMARK SMILES IDX 4 13 3 14 2 15 1 16
REMARK H PARENT
REMARK Flexibility Score: inf
ROOT
ATOM      1  C   UNL     1      47.751  -7.821 -57.134  1.00  0.00     0.000 C 
ENDROOT
BRANCH   1   2
ATOM      2  C   UNL     1      48.718  -7.894 -58.329  1.00  0.00     0.000 C 
BRANCH   2   3
ATOM      3  C   UNL     1      49.434  -6.574 -58.675  1.00  0.00     0.000 C 
BRANCH   3   4
ATOM      4  C   UNL     1      50.959  -6.734 -58.793  1.00  0.00     0.000 C 
BRANCH   4   5
ATOM      5  C   UNL     1      51.705  -5.388 -58.733  1.00  0.00     0.006 C 
BRANCH   5   6
ATOM      6  C   UNL     1      52.991  -5.412 -57.891  1.00  0.00     0.053 C 
BRANCH   6   7
ATOM      7  C   UNL     1      53.920  -4.292 -58.250  1.00  0.00     0.041 C 
ATOM      8  O   UNL     1      53.568  -3.097 -58.070  1.00  0.00    -0.550 OA
ATOM      9  O   UNL     1      55.159  -4.569 -58.811  1.00  0.00    -0.550 OA
ENDBRANCH   6   7
ENDBRANCH   5   6
ENDBRANCH   4   5
ENDBRANCH   3   4
ENDBRANCH   2   3
ENDBRANCH   1   2
BRANCH   1  10
ATOM     10  C   UNL     1      48.224  -8.645 -55.927  1.00  0.00     0.000 C 
BRANCH  10  11
ATOM     11  C   UNL     1      48.324  -7.769 -54.670  1.00  0.00    -0.000 C 
BRANCH  11  12
ATOM     12  C   UNL     1      49.769  -7.619 -54.165  1.00  0.00    -0.000 C 
BRANCH  12  13
ATOM     13  C   UNL     1      50.618  -6.701 -55.062  1.00  0.00    -0.000 C 
BRANCH  13  14
ATOM     14  C   UNL     1      50.544  -5.225 -54.619  1.00  0.00    -0.000 C 
BRANCH  14  15
ATOM     15  C   UNL     1      50.021  -4.280 -55.715  1.00  0.00    -0.003 C 
ATOM     16  C   UNL     1      48.508  -4.363 -55.905  1.00  0.00     0.004 C 
ENDBRANCH  14  15
ENDBRANCH  13  14
ENDBRANCH  12  13
ENDBRANCH  11  12
ENDBRANCH  10  11
ENDBRANCH   1  10
TORSDOF 12
ENDMDL
MODEL 6
REMARK VINA RESULT:    -3.805      1.457      3.137
REMARK INTER + INTRA:          -8.271
REMARK INTER:                  -6.765
REMARK INTRA:                  -1.506
REMARK UNBOUND:                -1.797
REMARK SMILES CCCCCCCCCCCCCC(=O)[O-]
REMARK SMILES IDX 8 1 9 2 10 3 11 4 12 5 13 6 14 7 15 8 16 9 7 10 6 11 5 12
REMARK SMILES IDX 4 13 3 14 2 15 1 16
REMARK H PARENT
REMARK Flexibility Score: inf
ROOT
ATOM      1  C   UNL     1      47.250  -7.367 -56.835  1.00  0.00     0.000 C 
ENDROOT
BRANCH   1   2
ATOM      2  C   UNL     1      48.252  -8.168 -57.685  1.00  0.00     0.000 C 
BRANCH   2   3
ATOM      3  C   UNL     1      47.622  -9.099 -58.739  1.00  0.00     0.000 C 
BRANCH   3   4
ATOM      4  C   UNL     1      47.972 -10.579 -58.515  1.00  0.00     0.000 C 
BRANCH   4   5
ATOM      5  C   UNL     1      47.514 -11.097 -57.138  1.00  0.00     0.006 C 
BRANCH   5   6
ATOM      6  C   UNL     1      47.183 -12.598 -57.102  1.00  0.00     0.053 C 
BRANCH   6   7
ATOM      7  C   UNL     1      48.041 -13.340 -56.124  1.00  0.00     0.041 C 
ATOM      8  O   UNL     1      47.521 -14.155 -55.317  1.00  0.00    -0.550 OA
ATOM      9  O   UNL     1      49.409 -13.108 -56.083  1.00  0.00    -0.550 OA
ENDBRANCH   6   7
ENDBRANCH   5   6
ENDBRANCH   4   5
ENDBRANCH   3   4
ENDBRANCH   2   3
ENDBRANCH   1   2
BRANCH   1  10
ATOM     10  C   UNL     1      47.662  -7.261 -55.359  1.00  0.00     0.000 C 
BRANCH  10  11
ATOM     11  C   UNL     1      48.673  -8.357 -54.993  1.00  0.00    -0.000 C 
BRANCH  11  12
ATOM     12  C   UNL     1      49.865  -7.818 -54.185  1.00  0.00    -0.000 C 
BRANCH  12  13
ATOM     13  C   UNL     1      50.189  -6.350 -54.513  1.00  0.00    -0.000 C 
BRANCH  13  14
ATOM     14  C   UNL     1      51.503  -6.209 -55.310  1.00  0.00    -0.000 C 
BRANCH  14  15
ATOM     15  C   UNL     1      51.291  -6.066 -56.826  1.00  0.00    -0.003 C 
ATOM     16  C   UNL     1      50.294  -4.968 -57.191  1.00  0.00     0.004 C 
ENDBRANCH  14  15
ENDBRANCH  13  14
ENDBRANCH  12  13
ENDBRANCH  11  12
ENDBRANCH  10  11
ENDBRANCH   1  10
TORSDOF 12
ENDMDL
MODEL 7
REMARK VINA RESULT:    -3.754      3.259      6.223
REMARK INTER + INTRA:          -8.185
REMARK INTER:                  -7.019
REMARK INTRA:                  -1.166
REMARK UNBOUND:                -1.797
REMARK SMILES CCCCCCCCCCCCCC(=O)[O-]
REMARK SMILES IDX 8 1 9 2 10 3 11 4 12 5 13 6 14 7 15 8 16 9 7 10 6 11 5 12
REMARK SMILES IDX 4 13 3 14 2 15 1 16
REMARK H PARENT
REMARK Flexibility Score: inf
ROOT
ATOM      1  C   UNL     1      47.860  -8.145 -55.236  1.00  0.00     0.000 C 
ENDROOT
BRANCH   1   2
ATOM      2  C   UNL     1      49.305  -8.456 -54.806  1.00  0.00     0.000 C 
BRANCH   2   3
ATOM      3  C   UNL     1      50.022  -7.322 -54.049  1.00  0.00     0.000 C 
BRANCH   3   4
ATOM      4  C   UNL     1      51.047  -6.576 -54.921  1.00  0.00     0.000 C 
BRANCH   4   5
ATOM      5  C   UNL     1      50.520  -5.222 -55.431  1.00  0.00     0.006 C 
BRANCH   5   6
ATOM      6  C   UNL     1      49.786  -4.385 -54.370  1.00  0.00     0.053 C 
BRANCH   6   7
ATOM      7  C   UNL     1      48.343  -4.181 -54.714  1.00  0.00     0.041 C 
ATOM      8  O   UNL     1      47.450  -4.833 -54.111  1.00  0.00    -0.550 OA
ATOM      9  O   UNL     1      47.986  -3.296 -55.722  1.00  0.00    -0.550 OA
ENDBRANCH   6   7
ENDBRANCH   5   6
ENDBRANCH   4   5
ENDBRANCH   3   4
ENDBRANCH   2   3
ENDBRANCH   1   2
BRANCH   1  10
ATOM     10  C   UNL     1      47.740  -7.792 -56.726  1.00  0.00     0.000 C 
BRANCH  10  11
ATOM     11  C   UNL     1      47.783  -9.057 -57.595  1.00  0.00    -0.000 C 
BRANCH  11  12
ATOM     12  C   UNL     1      46.816 -10.147 -57.104  1.00  0.00    -0.000 C 
BRANCH  12  13
ATOM     13  C   UNL     1      47.396 -11.565 -57.251  1.00  0.00    -0.000 C 
BRANCH  13  14
ATOM     14  C   UNL     1      48.382 -11.911 -56.114  1.00  0.00    -0.000 C 
BRANCH  14  15
ATOM     15  C   UNL     1      48.875 -13.367 -56.150  1.00  0.00    -0.003 C 
ATOM     16  C   UNL     1      47.821 -14.369 -55.683  1.00  0.00     0.004 C 
ENDBRANCH  14  15
ENDBRANCH  13  14
ENDBRANCH  12  13
ENDBRANCH  11  12
ENDBRANCH  10  11
ENDBRANCH   1  10
TORSDOF 12
ENDMDL
MODEL 8
REMARK VINA RESULT:    -3.715      2.367      3.778
REMARK INTER + INTRA:          -8.119
REMARK INTER:                  -5.955
REMARK INTRA:                  -2.164
REMARK UNBOUND:                -1.797
REMARK SMILES CCCCCCCCCCCCCC(=O)[O-]
REMARK SMILES IDX 8 1 9 2 10 3 11 4 12 5 13 6 14 7 15 8 16 9 7 10 6 11 5 12
REMARK SMILES IDX 4 13 3 14 2 15 1 16
REMARK H PARENT
REMARK Flexibility Score: inf
ROOT
ATOM      1  C   UNL     1      48.586  -3.938 -55.244  1.00  0.00     0.000 C 
ENDROOT
BRANCH   1   2
ATOM      2  C   UNL     1      49.687  -4.497 -54.325  1.00  0.00     0.000 C 
BRANCH   2   3
ATOM      3  C   UNL     1      50.926  -5.056 -55.051  1.00  0.00     0.000 C 
BRANCH   3   4
ATOM      4  C   UNL     1      50.997  -6.592 -55.016  1.00  0.00     0.000 C 
BRANCH   4   5
ATOM      5  C   UNL     1      49.877  -7.221 -54.166  1.00  0.00     0.006 C 
BRANCH   5   6
ATOM      6  C   UNL     1      48.918  -8.130 -54.953  1.00  0.00     0.053 C 
BRANCH   6   7
ATOM      7  C   UNL     1      47.494  -7.680 -54.837  1.00  0.00     0.041 C 
ATOM      8  O   UNL     1      47.138  -6.949 -53.876  1.00  0.00    -0.550 OA
ATOM      9  O   UNL     1      46.555  -8.095 -55.772  1.00  0.00    -0.550 OA
ENDBRANCH   6   7
ENDBRANCH   5   6
ENDBRANCH   4   5
ENDBRANCH   3   4
ENDBRANCH   2   3
ENDBRANCH   1   2
BRANCH   1  10
ATOM     10  C   UNL     1      48.944  -4.028 -56.735  1.00  0.00     0.000 C 
BRANCH  10  11
ATOM     11  C   UNL     1      48.068  -5.068 -57.448  1.00  0.00    -0.000 C 
BRANCH  11  12
ATOM     12  C   UNL     1      48.893  -6.185 -58.108  1.00  0.00    -0.000 C 
BRANCH  12  13
ATOM     13  C   UNL     1      50.209  -5.671 -58.716  1.00  0.00    -0.000 C 
BRANCH  13  14
ATOM     14  C   UNL     1      51.306  -6.757 -58.731  1.00  0.00    -0.000 C 
BRANCH  14  15
ATOM     15  C   UNL     1      52.719  -6.200 -58.975  1.00  0.00    -0.003 C 
ATOM     16  C   UNL     1      53.096  -5.079 -58.008  1.00  0.00     0.004 C 
ENDBRANCH  14  15
ENDBRANCH  13  14
ENDBRANCH  12  13
ENDBRANCH  11  12
ENDBRANCH  10  11
ENDBRANCH   1  10
TORSDOF 12
ENDMDL
MODEL 9
REMARK VINA RESULT:    -3.679      2.485      3.203
REMARK INTER + INTRA:          -8.057
REMARK INTER:                  -6.398
REMARK INTRA:                  -1.659
REMARK UNBOUND:                -1.797
REMARK SMILES CCCCCCCCCCCCCC(=O)[O-]
REMARK SMILES IDX 8 1 9 2 10 3 11 4 12 5 13 6 14 7 15 8 16 9 7 10 6 11 5 12
REMARK SMILES IDX 4 13 3 14 2 15 1 16
REMARK H PARENT
REMARK Flexibility Score: inf
ROOT
ATOM      1  C   UNL     1      50.256  -7.460 -54.253  1.00  0.00     0.000 C 
ENDROOT
BRANCH   1   2
ATOM      2  C   UNL     1      48.825  -6.993 -53.928  1.00  0.00     0.000 C 
BRANCH   2   3
ATOM      3  C   UNL     1      47.708  -7.707 -54.714  1.00  0.00     0.000 C 
BRANCH   3   4
ATOM      4  C   UNL     1      48.221  -8.909 -55.524  1.00  0.00     0.000 C 
BRANCH   4   5
ATOM      5  C   UNL     1      47.873  -8.810 -57.021  1.00  0.00     0.006 C 
BRANCH   5   6
ATOM      6  C   UNL     1      48.428  -7.558 -57.720  1.00  0.00     0.053 C 
BRANCH   6   7
ATOM      7  C   UNL     1      47.339  -6.711 -58.304  1.00  0.00     0.041 C 
ATOM      8  O   UNL     1      47.564  -5.508 -58.601  1.00  0.00    -0.550 OA
ATOM      9  O   UNL     1      46.069  -7.240 -58.490  1.00  0.00    -0.550 OA
ENDBRANCH   6   7
ENDBRANCH   5   6
ENDBRANCH   4   5
ENDBRANCH   3   4
ENDBRANCH   2   3
ENDBRANCH   1   2
BRANCH   1  10
ATOM     10  C   UNL     1      51.077  -6.403 -55.006  1.00  0.00     0.000 C 
BRANCH  10  11
ATOM     11  C   UNL     1      50.371  -5.039 -54.980  1.00  0.00    -0.000 C 
BRANCH  11  12
ATOM     12  C   UNL     1      50.114  -4.477 -56.388  1.00  0.00    -0.000 C 
BRANCH  12  13
ATOM     13  C   UNL     1      51.372  -4.501 -57.274  1.00  0.00    -0.000 C 
BRANCH  13  14
ATOM     14  C   UNL     1      51.112  -5.180 -58.636  1.00  0.00    -0.000 C 
BRANCH  14  15
ATOM     15  C   UNL     1      51.812  -6.540 -58.789  1.00  0.00    -0.003 C 
ATOM     16  C   UNL     1      53.298  -6.416 -59.119  1.00  0.00     0.004 C 
ENDBRANCH  14  15
ENDBRANCH  13  14
ENDBRANCH  12  13
ENDBRANCH  11  12
ENDBRANCH  10  11
ENDBRANCH   1  10
TORSDOF 12
ENDMDL
