MODEL 1
REMARK VINA RESULT:    -3.561      0.000      0.000
REMARK INTER + INTRA:         -10.832
REMARK INTER:                  -8.140
REMARK INTRA:                  -2.692
REMARK UNBOUND:                -2.692
REMARK SMILES CCCCCCCCCCCCCCCCCCCCCCCC(=O)[O-]
REMARK SMILES IDX 13 1 14 2 15 3 16 4 17 5 18 6 19 7 20 8 21 9 22 10 23 11
REMARK SMILES IDX 24 12 25 13 26 14 12 15 11 16 10 17 9 18 8 19 7 20 6 21 5 22
REMARK SMILES IDX 4 23 3 24 2 25 1 26
REMARK H PARENT
REMARK Flexibility Score: inf
ROOT
ATOM      1  C   UNL     1      70.637  27.853  57.755  1.00  0.00     0.000 C 
ENDROOT
BRANCH   1   2
ATOM      2  C   UNL     1      71.312  27.334  59.035  1.00  0.00     0.000 C 
BRANCH   2   3
ATOM      3  C   UNL     1      70.359  27.416  60.236  1.00  0.00     0.000 C 
BRANCH   3   4
ATOM      4  C   UNL     1      70.603  28.676  61.094  1.00  0.00     0.000 C 
BRANCH   4   5
ATOM      5  C   UNL     1      72.074  28.878  61.496  1.00  0.00     0.000 C 
BRANCH   5   6
ATOM      6  C   UNL     1      72.681  30.170  60.929  1.00  0.00     0.000 C 
BRANCH   6   7
ATOM      7  C   UNL     1      71.628  31.118  60.335  1.00  0.00     0.000 C 
BRANCH   7   8
ATOM      8  C   UNL     1      71.674  31.207  58.795  1.00  0.00     0.000 C 
BRANCH   8   9
ATOM      9  C   UNL     1      70.421  31.877  58.210  1.00  0.00     0.000 C 
BRANCH   9  10
ATOM     10  C   UNL     1      70.451  33.392  58.443  1.00  0.00     0.006 C 
BRANCH  10  11
ATOM     11  C   UNL     1      69.822  34.147  57.267  1.00  0.00     0.053 C 
BRANCH  11  12
ATOM     12  C   UNL     1      70.883  34.650  56.340  1.00  0.00     0.041 C 
ATOM     13  O   UNL     1      70.820  35.821  55.881  1.00  0.00    -0.550 OA
ATOM     14  O   UNL     1      71.912  33.808  55.939  1.00  0.00    -0.550 OA
ENDBRANCH  11  12
ENDBRANCH  10  11
ENDBRANCH   9  10
ENDBRANCH   8   9
ENDBRANCH   7   8
ENDBRANCH   6   7
ENDBRANCH   5   6
ENDBRANCH   4   5
ENDBRANCH   3   4
ENDBRANCH   2   3
ENDBRANCH   1   2
BRANCH   1  15
ATOM     15  C   UNL     1      69.107  27.699  57.787  1.00  0.00     0.000 C 
BRANCH  15  16
ATOM     16  C   UNL     1      68.378  28.923  57.216  1.00  0.00     0.000 C 
BRANCH  16  17
ATOM     17  C   UNL     1      67.546  29.628  58.298  1.00  0.00     0.000 C 
BRANCH  17  18
ATOM     18  C   UNL     1      67.059  28.626  59.351  1.00  0.00    -0.000 C 
BRANCH  18  19
ATOM     19  C   UNL     1      65.703  29.046  59.933  1.00  0.00    -0.000 C 
BRANCH  19  20
ATOM     20  C   UNL     1      65.159  30.286  59.206  1.00  0.00    -0.000 C 
BRANCH  20  21
ATOM     21  C   UNL     1      64.214  31.123  60.083  1.00  0.00    -0.000 C 
BRANCH  21  22
ATOM     22  C   UNL     1      63.435  32.178  59.276  1.00  0.00    -0.000 C 
BRANCH  22  23
ATOM     23  C   UNL     1      64.030  33.592  59.446  1.00  0.00    -0.000 C 
BRANCH  23  24
ATOM     24  C   UNL     1      64.469  33.907  60.887  1.00  0.00    -0.000 C 
BRANCH  24  25
ATOM     25  C   UNL     1      64.010  35.293  61.364  1.00  0.00    -0.003 C 
ATOM     26  C   UNL     1      62.582  35.589  60.909  1.00  0.00     0.004 C 
ENDBRANCH  24  25
ENDBRANCH  23  24
ENDBRANCH  22  23
ENDBRANCH  21  22
ENDBRANCH  20  21
ENDBRANCH  19  20
ENDBRANCH  18  19
ENDBRANCH  17  18
ENDBRANCH  16  17
ENDBRANCH  15  16
ENDBRANCH   1  15
TORSDOF 22
ENDMDL
MODEL 2
REMARK VINA RESULT:    -3.537     13.404     16.047
REMARK INTER + INTRA:         -10.777
REMARK INTER:                  -6.921
REMARK INTRA:                  -3.856
REMARK UNBOUND:                -2.692
REMARK SMILES CCCCCCCCCCCCCCCCCCCCCCCC(=O)[O-]
REMARK SMILES IDX 13 1 14 2 15 3 16 4 17 5 18 6 19 7 20 8 21 9 22 10 23 11
REMARK SMILES IDX 24 12 25 13 26 14 12 15 11 16 10 17 9 18 8 19 7 20 6 21 5 22
REMARK SMILES IDX 4 23 3 24 2 25 1 26
REMARK H PARENT
REMARK Flexibility Score: inf
ROOT
ATOM      1  C   UNL     1      59.721  23.749  51.851  1.00  0.00     0.000 C 
ENDROOT
BRANCH   1   2
ATOM      2  C   UNL     1      61.209  24.028  51.579  1.00  0.00     0.000 C 
BRANCH   2   3
ATOM      3  C   UNL     1      61.501  24.057  50.071  1.00  0.00     0.000 C 
BRANCH   3   4
ATOM      4  C   UNL     1      60.698  22.990  49.297  1.00  0.00     0.000 C 
BRANCH   4   5
ATOM      5  C   UNL     1      61.427  21.642  49.161  1.00  0.00     0.000 C 
BRANCH   5   6
ATOM      6  C   UNL     1      60.653  20.472  49.786  1.00  0.00     0.000 C 
BRANCH   6   7
ATOM      7  C   UNL     1      60.998  20.246  51.267  1.00  0.00     0.000 C 
BRANCH   7   8
ATOM      8  C   UNL     1      59.860  19.588  52.074  1.00  0.00     0.000 C 
BRANCH   8   9
ATOM      9  C   UNL     1      58.470  19.966  51.540  1.00  0.00     0.000 C 
BRANCH   9  10
ATOM     10  C   UNL     1      57.466  18.830  51.773  1.00  0.00     0.006 C 
BRANCH  10  11
ATOM     11  C   UNL     1      56.911  18.301  50.446  1.00  0.00     0.053 C 
BRANCH  11  12
ATOM     12  C   UNL     1      57.880  17.352  49.814  1.00  0.00     0.041 C 
ATOM     13  O   UNL     1      58.034  16.195  50.287  1.00  0.00    -0.550 OA
ATOM     14  O   UNL     1      58.652  17.763  48.736  1.00  0.00    -0.550 OA
ENDBRANCH  11  12
ENDBRANCH  10  11
ENDBRANCH   9  10
ENDBRANCH   8   9
ENDBRANCH   7   8
ENDBRANCH   6   7
ENDBRANCH   5   6
ENDBRANCH   4   5
ENDBRANCH   3   4
ENDBRANCH   2   3
ENDBRANCH   1   2
BRANCH   1  15
ATOM     15  C   UNL     1      58.795  24.794  51.206  1.00  0.00     0.000 C 
BRANCH  15  16
ATOM     16  C   UNL     1      58.063  25.656  52.244  1.00  0.00     0.000 C 
BRANCH  16  17
ATOM     17  C   UNL     1      57.295  26.802  51.571  1.00  0.00     0.000 C 
BRANCH  17  18
ATOM     18  C   UNL     1      57.508  26.785  50.053  1.00  0.00    -0.000 C 
BRANCH  18  19
ATOM     19  C   UNL     1      57.664  28.206  49.497  1.00  0.00    -0.000 C 
BRANCH  19  20
ATOM     20  C   UNL     1      58.886  28.295  48.568  1.00  0.00    -0.000 C 
BRANCH  20  21
ATOM     21  C   UNL     1      59.827  27.088  48.705  1.00  0.00    -0.000 C 
BRANCH  21  22
ATOM     22  C   UNL     1      61.297  27.502  48.905  1.00  0.00    -0.000 C 
BRANCH  22  23
ATOM     23  C   UNL     1      61.488  28.369  50.167  1.00  0.00    -0.000 C 
BRANCH  23  24
ATOM     24  C   UNL     1      61.145  27.637  51.476  1.00  0.00    -0.000 C 
BRANCH  24  25
ATOM     25  C   UNL     1      60.517  28.558  52.532  1.00  0.00    -0.003 C 
ATOM     26  C   UNL     1      59.946  29.822  51.892  1.00  0.00     0.004 C 
ENDBRANCH  24  25
ENDBRANCH  23  24
ENDBRANCH  22  23
ENDBRANCH  21  22
ENDBRANCH  20  21
ENDBRANCH  19  20
ENDBRANCH  18  19
ENDBRANCH  17  18
ENDBRANCH  16  17
ENDBRANCH  15  16
ENDBRANCH   1  15
TORSDOF 22
ENDMDL
MODEL 3
REMARK VINA RESULT:    -3.521      2.392      3.700
REMARK INTER + INTRA:         -10.741
REMARK INTER:                  -7.897
REMARK INTRA:                  -2.845
REMARK UNBOUND:                -2.692
REMARK SMILES CCCCCCCCCCCCCCCCCCCCCCCC(=O)[O-]
REMARK SMILES IDX 13 1 14 2 15 3 16 4 17 5 18 6 19 7 20 8 21 9 22 10 23 11
REMARK SMILES IDX 24 12 25 13 26 14 12 15 11 16 10 17 9 18 8 19 7 20 6 21 5 22
REMARK SMILES IDX 4 23 3 24 2 25 1 26
REMARK H PARENT
REMARK Flexibility Score: inf
ROOT
ATOM      1  C   UNL     1      67.827  28.228  59.887  1.00  0.00     0.000 C 
ENDROOT
BRANCH   1   2
ATOM      2  C   UNL     1      68.400  28.231  61.314  1.00  0.00     0.000 C 
BRANCH   2   3
ATOM      3  C   UNL     1      69.911  28.506  61.303  1.00  0.00     0.000 C 
BRANCH   3   4
ATOM      4  C   UNL     1      70.660  27.629  60.278  1.00  0.00     0.000 C 
BRANCH   4   5
ATOM      5  C   UNL     1      72.180  27.867  60.250  1.00  0.00     0.000 C 
BRANCH   5   6
ATOM      6  C   UNL     1      72.720  28.462  61.558  1.00  0.00     0.000 C 
BRANCH   6   7
ATOM      7  C   UNL     1      73.027  29.965  61.453  1.00  0.00     0.000 C 
BRANCH   7   8
ATOM      8  C   UNL     1      72.850  30.534  60.030  1.00  0.00     0.000 C 
BRANCH   8   9
ATOM      9  C   UNL     1      71.598  31.417  59.904  1.00  0.00     0.000 C 
BRANCH   9  10
ATOM     10  C   UNL     1      71.207  31.606  58.434  1.00  0.00     0.006 C 
BRANCH  10  11
ATOM     11  C   UNL     1      69.895  30.883  58.112  1.00  0.00     0.053 C 
BRANCH  11  12
ATOM     12  C   UNL     1      70.158  29.670  57.275  1.00  0.00     0.041 C 
ATOM     13  O   UNL     1      71.340  29.297  57.054  1.00  0.00    -0.550 OA
ATOM     14  O   UNL     1      69.099  28.982  56.696  1.00  0.00    -0.550 OA
ENDBRANCH  11  12
ENDBRANCH  10  11
ENDBRANCH   9  10
ENDBRANCH   8   9
ENDBRANCH   7   8
ENDBRANCH   6   7
ENDBRANCH   5   6
ENDBRANCH   4   5
ENDBRANCH   3   4
ENDBRANCH   2   3
ENDBRANCH   1   2
BRANCH   1  15
ATOM     15  C   UNL     1      66.363  27.759  59.837  1.00  0.00     0.000 C 
BRANCH  15  16
ATOM     16  C   UNL     1      65.369  28.889  60.134  1.00  0.00     0.000 C 
BRANCH  16  17
ATOM     17  C   UNL     1      63.920  28.385  60.070  1.00  0.00     0.000 C 
BRANCH  17  18
ATOM     18  C   UNL     1      63.018  29.193  61.010  1.00  0.00    -0.000 C 
BRANCH  18  19
ATOM     19  C   UNL     1      61.543  29.068  60.610  1.00  0.00    -0.000 C 
BRANCH  19  20
ATOM     20  C   UNL     1      61.412  28.606  59.149  1.00  0.00    -0.000 C 
BRANCH  20  21
ATOM     21  C   UNL     1      60.572  29.568  58.293  1.00  0.00    -0.000 C 
BRANCH  21  22
ATOM     22  C   UNL     1      60.759  31.041  58.700  1.00  0.00    -0.000 C 
BRANCH  22  23
ATOM     23  C   UNL     1      61.266  31.906  57.527  1.00  0.00    -0.000 C 
BRANCH  23  24
ATOM     24  C   UNL     1      62.546  32.697  57.853  1.00  0.00    -0.000 C 
BRANCH  24  25
ATOM     25  C   UNL     1      63.586  31.866  58.618  1.00  0.00    -0.003 C 
ATOM     26  C   UNL     1      64.030  32.576  59.895  1.00  0.00     0.004 C 
ENDBRANCH  24  25
ENDBRANCH  23  24
ENDBRANCH  22  23
ENDBRANCH  21  22
ENDBRANCH  20  21
ENDBRANCH  19  20
ENDBRANCH  18  19
ENDBRANCH  17  18
ENDBRANCH  16  17
ENDBRANCH  15  16
ENDBRANCH   1  15
TORSDOF 22
ENDMDL
MODEL 4
REMARK VINA RESULT:    -3.510     15.012     17.324
REMARK INTER + INTRA:         -10.716
REMARK INTER:                  -7.766
REMARK INTRA:                  -2.949
REMARK UNBOUND:                -2.692
REMARK SMILES CCCCCCCCCCCCCCCCCCCCCCCC(=O)[O-]
REMARK SMILES IDX 13 1 14 2 15 3 16 4 17 5 18 6 19 7 20 8 21 9 22 10 23 11
REMARK SMILES IDX 24 12 25 13 26 14 12 15 11 16 10 17 9 18 8 19 7 20 6 21 5 22
REMARK SMILES IDX 4 23 3 24 2 25 1 26
REMARK H PARENT
REMARK Flexibility Score: inf
ROOT
ATOM      1  C   UNL     1      59.059  18.019  49.320  1.00  0.00     0.000 C 
ENDROOT
BRANCH   1   2
ATOM      2  C   UNL     1      60.022  17.685  50.471  1.00  0.00     0.000 C 
BRANCH   2   3
ATOM      3  C   UNL     1      60.730  18.947  50.986  1.00  0.00     0.000 C 
BRANCH   3   4
ATOM      4  C   UNL     1      60.213  20.230  50.302  1.00  0.00     0.000 C 
BRANCH   4   5
ATOM      5  C   UNL     1      61.318  21.065  49.632  1.00  0.00     0.000 C 
BRANCH   5   6
ATOM      6  C   UNL     1      61.406  22.497  50.179  1.00  0.00     0.000 C 
BRANCH   6   7
ATOM      7  C   UNL     1      60.229  23.382  49.738  1.00  0.00     0.000 C 
BRANCH   7   8
ATOM      8  C   UNL     1      60.648  24.810  49.329  1.00  0.00     0.000 C 
BRANCH   8   9
ATOM      9  C   UNL     1      59.440  25.729  49.094  1.00  0.00     0.000 C 
BRANCH   9  10
ATOM     10  C   UNL     1      58.239  25.283  49.938  1.00  0.00     0.006 C 
BRANCH  10  11
ATOM     11  C   UNL     1      57.054  26.239  49.765  1.00  0.00     0.053 C 
BRANCH  11  12
ATOM     12  C   UNL     1      57.416  27.612  50.238  1.00  0.00     0.041 C 
ATOM     13  O   UNL     1      57.303  28.599  49.464  1.00  0.00    -0.550 OA
ATOM     14  O   UNL     1      57.929  27.794  51.515  1.00  0.00    -0.550 OA
ENDBRANCH  11  12
ENDBRANCH  10  11
ENDBRANCH   9  10
ENDBRANCH   8   9
ENDBRANCH   7   8
ENDBRANCH   6   7
ENDBRANCH   5   6
ENDBRANCH   4   5
ENDBRANCH   3   4
ENDBRANCH   2   3
ENDBRANCH   1   2
BRANCH   1  15
ATOM     15  C   UNL     1      57.731  17.249  49.415  1.00  0.00     0.000 C 
BRANCH  15  16
ATOM     16  C   UNL     1      56.567  18.133  49.883  1.00  0.00     0.000 C 
BRANCH  16  17
ATOM     17  C   UNL     1      56.271  17.917  51.374  1.00  0.00     0.000 C 
BRANCH  17  18
ATOM     18  C   UNL     1      56.730  19.121  52.203  1.00  0.00    -0.000 C 
BRANCH  18  19
ATOM     19  C   UNL     1      57.756  18.708  53.265  1.00  0.00    -0.000 C 
BRANCH  19  20
ATOM     20  C   UNL     1      57.881  17.177  53.334  1.00  0.00    -0.000 C 
BRANCH  20  21
ATOM     21  C   UNL     1      57.471  16.607  54.701  1.00  0.00    -0.000 C 
BRANCH  21  22
ATOM     22  C   UNL     1      57.075  17.704  55.706  1.00  0.00    -0.000 C 
BRANCH  22  23
ATOM     23  C   UNL     1      55.585  17.621  56.098  1.00  0.00    -0.000 C 
BRANCH  23  24
ATOM     24  C   UNL     1      54.852  16.415  55.482  1.00  0.00    -0.000 C 
BRANCH  24  25
ATOM     25  C   UNL     1      53.636  16.820  54.637  1.00  0.00    -0.003 C 
ATOM     26  C   UNL     1      53.714  18.289  54.224  1.00  0.00     0.004 C 
ENDBRANCH  24  25
ENDBRANCH  23  24
ENDBRANCH  22  23
ENDBRANCH  21  22
ENDBRANCH  20  21
ENDBRANCH  19  20
ENDBRANCH  18  19
ENDBRANCH  17  18
ENDBRANCH  16  17
ENDBRANCH  15  16
ENDBRANCH   1  15
TORSDOF 22
ENDMDL
MODEL 5
REMARK VINA RESULT:    -3.510      2.577      4.741
REMARK INTER + INTRA:         -10.715
REMARK INTER:                  -7.585
REMARK INTRA:                  -3.130
REMARK UNBOUND:                -2.692
REMARK SMILES CCCCCCCCCCCCCCCCCCCCCCCC(=O)[O-]
REMARK SMILES IDX 13 1 14 2 15 3 16 4 17 5 18 6 19 7 20 8 21 9 22 10 23 11
REMARK SMILES IDX 24 12 25 13 26 14 12 15 11 16 10 17 9 18 8 19 7 20 6 21 5 22
REMARK SMILES IDX 4 23 3 24 2 25 1 26
REMARK H PARENT
REMARK Flexibility Score: inf
ROOT
ATOM      1  C   UNL     1      66.804  27.314  57.988  1.00  0.00     0.000 C 
ENDROOT
BRANCH   1   2
ATOM      2  C   UNL     1      67.792  28.398  57.529  1.00  0.00     0.000 C 
BRANCH   2   3
ATOM      3  C   UNL     1      68.626  28.923  58.708  1.00  0.00     0.000 C 
BRANCH   3   4
ATOM      4  C   UNL     1      68.919  27.826  59.754  1.00  0.00     0.000 C 
BRANCH   4   5
ATOM      5  C   UNL     1      69.645  28.342  61.008  1.00  0.00     0.000 C 
BRANCH   5   6
ATOM      6  C   UNL     1      71.174  28.262  60.894  1.00  0.00     0.000 C 
BRANCH   6   7
ATOM      7  C   UNL     1      71.885  29.499  61.466  1.00  0.00     0.000 C 
BRANCH   7   8
ATOM      8  C   UNL     1      72.734  30.260  60.427  1.00  0.00     0.000 C 
BRANCH   8   9
ATOM      9  C   UNL     1      71.974  30.502  59.114  1.00  0.00     0.000 C 
BRANCH   9  10
ATOM     10  C   UNL     1      71.102  31.761  59.210  1.00  0.00     0.006 C 
BRANCH  10  11
ATOM     11  C   UNL     1      70.955  32.438  57.843  1.00  0.00     0.053 C 
BRANCH  11  12
ATOM     12  C   UNL     1      70.387  33.814  57.999  1.00  0.00     0.041 C 
ATOM     13  O   UNL     1      70.183  34.288  59.148  1.00  0.00    -0.550 OA
ATOM     14  O   UNL     1      70.033  34.551  56.877  1.00  0.00    -0.550 OA
ENDBRANCH  11  12
ENDBRANCH  10  11
ENDBRANCH   9  10
ENDBRANCH   8   9
ENDBRANCH   7   8
ENDBRANCH   6   7
ENDBRANCH   5   6
ENDBRANCH   4   5
ENDBRANCH   3   4
ENDBRANCH   2   3
ENDBRANCH   1   2
BRANCH   1  15
ATOM     15  C   UNL     1      65.408  27.878  58.303  1.00  0.00     0.000 C 
BRANCH  15  16
ATOM     16  C   UNL     1      65.233  28.229  59.787  1.00  0.00     0.000 C 
BRANCH  16  17
ATOM     17  C   UNL     1      65.162  29.748  59.993  1.00  0.00     0.000 C 
BRANCH  17  18
ATOM     18  C   UNL     1      63.800  30.160  60.563  1.00  0.00    -0.000 C 
BRANCH  18  19
ATOM     19  C   UNL     1      62.774  30.386  59.446  1.00  0.00    -0.000 C 
BRANCH  19  20
ATOM     20  C   UNL     1      61.572  29.442  59.611  1.00  0.00    -0.000 C 
BRANCH  20  21
ATOM     21  C   UNL     1      61.510  28.795  61.004  1.00  0.00    -0.000 C 
BRANCH  21  22
ATOM     22  C   UNL     1      61.791  27.282  60.969  1.00  0.00    -0.000 C 
BRANCH  22  23
ATOM     23  C   UNL     1      61.772  26.723  59.531  1.00  0.00    -0.000 C 
BRANCH  23  24
ATOM     24  C   UNL     1      62.595  25.434  59.360  1.00  0.00    -0.000 C 
BRANCH  24  25
ATOM     25  C   UNL     1      63.133  24.885  60.689  1.00  0.00    -0.003 C 
ATOM     26  C   UNL     1      64.646  24.680  60.631  1.00  0.00     0.004 C 
ENDBRANCH  24  25
ENDBRANCH  23  24
ENDBRANCH  22  23
ENDBRANCH  21  22
ENDBRANCH  20  21
ENDBRANCH  19  20
ENDBRANCH  18  19
ENDBRANCH  17  18
ENDBRANCH  16  17
ENDBRANCH  15  16
ENDBRANCH   1  15
TORSDOF 22
ENDMDL
MODEL 6
REMARK VINA RESULT:    -3.505     13.405     16.058
REMARK INTER + INTRA:         -10.704
REMARK INTER:                  -7.005
REMARK INTRA:                  -3.699
REMARK UNBOUND:                -2.692
REMARK SMILES CCCCCCCCCCCCCCCCCCCCCCCC(=O)[O-]
REMARK SMILES IDX 13 1 14 2 15 3 16 4 17 5 18 6 19 7 20 8 21 9 22 10 23 11
REMARK SMILES IDX 24 12 25 13 26 14 12 15 11 16 10 17 9 18 8 19 7 20 6 21 5 22
REMARK SMILES IDX 4 23 3 24 2 25 1 26
REMARK H PARENT
REMARK Flexibility Score: inf
ROOT
ATOM      1  C   UNL     1      62.292  25.986  51.190  1.00  0.00     0.000 C 
ENDROOT
BRANCH   1   2
ATOM      2  C   UNL     1      63.067  25.501  49.954  1.00  0.00     0.000 C 
BRANCH   2   3
ATOM      3  C   UNL     1      62.538  24.145  49.465  1.00  0.00     0.000 C 
BRANCH   3   4
ATOM      4  C   UNL     1      62.412  23.116  50.610  1.00  0.00     0.000 C 
BRANCH   4   5
ATOM      5  C   UNL     1      62.605  21.658  50.158  1.00  0.00     0.000 C 
BRANCH   5   6
ATOM      6  C   UNL     1      61.900  21.339  48.833  1.00  0.00     0.000 C 
BRANCH   6   7
ATOM      7  C   UNL     1      60.386  21.125  48.994  1.00  0.00     0.000 C 
BRANCH   7   8
ATOM      8  C   UNL     1      60.003  20.373  50.286  1.00  0.00     0.000 C 
BRANCH   8   9
ATOM      9  C   UNL     1      60.050  18.847  50.110  1.00  0.00     0.000 C 
BRANCH   9  10
ATOM     10  C   UNL     1      58.891  18.360  49.232  1.00  0.00     0.006 C 
BRANCH  10  11
ATOM     11  C   UNL     1      57.938  17.458  50.023  1.00  0.00     0.053 C 
BRANCH  11  12
ATOM     12  C   UNL     1      56.740  18.233  50.476  1.00  0.00     0.041 C 
ATOM     13  O   UNL     1      56.750  18.821  51.589  1.00  0.00    -0.550 OA
ATOM     14  O   UNL     1      55.594  18.261  49.692  1.00  0.00    -0.550 OA
ENDBRANCH  11  12
ENDBRANCH  10  11
ENDBRANCH   9  10
ENDBRANCH   8   9
ENDBRANCH   7   8
ENDBRANCH   6   7
ENDBRANCH   5   6
ENDBRANCH   4   5
ENDBRANCH   3   4
ENDBRANCH   2   3
ENDBRANCH   1   2
BRANCH   1  15
ATOM     15  C   UNL     1      61.913  27.474  51.106  1.00  0.00     0.000 C 
BRANCH  15  16
ATOM     16  C   UNL     1      60.640  27.807  51.896  1.00  0.00     0.000 C 
BRANCH  16  17
ATOM     17  C   UNL     1      59.688  28.683  51.071  1.00  0.00     0.000 C 
BRANCH  17  18
ATOM     18  C   UNL     1      60.095  28.691  49.593  1.00  0.00    -0.000 C 
BRANCH  18  19
ATOM     19  C   UNL     1      59.037  28.003  48.721  1.00  0.00    -0.000 C 
BRANCH  19  20
ATOM     20  C   UNL     1      57.765  27.715  49.533  1.00  0.00    -0.000 C 
BRANCH  20  21
ATOM     21  C   UNL     1      57.461  26.213  49.652  1.00  0.00    -0.000 C 
BRANCH  21  22
ATOM     22  C   UNL     1      58.684  25.334  49.336  1.00  0.00    -0.000 C 
BRANCH  22  23
ATOM     23  C   UNL     1      58.988  24.334  50.472  1.00  0.00    -0.000 C 
BRANCH  23  24
ATOM     24  C   UNL     1      58.036  24.460  51.675  1.00  0.00    -0.000 C 
BRANCH  24  25
ATOM     25  C   UNL     1      58.752  24.893  52.962  1.00  0.00    -0.003 C 
ATOM     26  C   UNL     1      59.973  24.018  53.238  1.00  0.00     0.004 C 
ENDBRANCH  24  25
ENDBRANCH  23  24
ENDBRANCH  22  23
ENDBRANCH  21  22
ENDBRANCH  20  21
ENDBRANCH  19  20
ENDBRANCH  18  19
ENDBRANCH  17  18
ENDBRANCH  16  17
ENDBRANCH  15  16
ENDBRANCH   1  15
TORSDOF 22
ENDMDL
MODEL 7
REMARK VINA RESULT:    -3.492     11.117     13.621
REMARK INTER + INTRA:         -10.674
REMARK INTER:                  -6.378
REMARK INTRA:                  -4.296
REMARK UNBOUND:                -2.692
REMARK SMILES CCCCCCCCCCCCCCCCCCCCCCCC(=O)[O-]
REMARK SMILES IDX 13 1 14 2 15 3 16 4 17 5 18 6 19 7 20 8 21 9 22 10 23 11
REMARK SMILES IDX 24 12 25 13 26 14 12 15 11 16 10 17 9 18 8 19 7 20 6 21 5 22
REMARK SMILES IDX 4 23 3 24 2 25 1 26
REMARK H PARENT
REMARK Flexibility Score: inf
ROOT
ATOM      1  C   UNL     1      58.415  24.551  51.098  1.00  0.00     0.000 C 
ENDROOT
BRANCH   1   2
ATOM      2  C   UNL     1      59.053  24.497  49.700  1.00  0.00     0.000 C 
BRANCH   2   3
ATOM      3  C   UNL     1      60.556  24.193  49.788  1.00  0.00     0.000 C 
BRANCH   3   4
ATOM      4  C   UNL     1      60.842  22.681  49.911  1.00  0.00     0.000 C 
BRANCH   4   5
ATOM      5  C   UNL     1      62.042  22.206  49.074  1.00  0.00     0.000 C 
BRANCH   5   6
ATOM      6  C   UNL     1      63.389  22.411  49.781  1.00  0.00     0.000 C 
BRANCH   6   7
ATOM      7  C   UNL     1      64.463  23.017  48.863  1.00  0.00     0.000 C 
BRANCH   7   8
ATOM      8  C   UNL     1      64.894  24.440  49.272  1.00  0.00     0.000 C 
BRANCH   8   9
ATOM      9  C   UNL     1      63.720  25.432  49.265  1.00  0.00     0.000 C 
BRANCH   9  10
ATOM     10  C   UNL     1      64.124  26.755  48.603  1.00  0.00     0.006 C 
BRANCH  10  11
ATOM     11  C   UNL     1      65.293  26.555  47.632  1.00  0.00     0.053 C 
BRANCH  11  12
ATOM     12  C   UNL     1      65.294  27.626  46.587  1.00  0.00     0.041 C 
ATOM     13  O   UNL     1      64.513  28.609  46.686  1.00  0.00    -0.550 OA
ATOM     14  O   UNL     1      66.119  27.511  45.476  1.00  0.00    -0.550 OA
ENDBRANCH  11  12
ENDBRANCH  10  11
ENDBRANCH   9  10
ENDBRANCH   8   9
ENDBRANCH   7   8
ENDBRANCH   6   7
ENDBRANCH   5   6
ENDBRANCH   4   5
ENDBRANCH   3   4
ENDBRANCH   2   3
ENDBRANCH   1   2
BRANCH   1  15
ATOM     15  C   UNL     1      57.268  25.571  51.188  1.00  0.00     0.000 C 
BRANCH  15  16
ATOM     16  C   UNL     1      57.041  26.323  49.870  1.00  0.00     0.000 C 
BRANCH  16  17
ATOM     17  C   UNL     1      56.854  27.828  50.114  1.00  0.00     0.000 C 
BRANCH  17  18
ATOM     18  C   UNL     1      58.110  28.607  49.707  1.00  0.00    -0.000 C 
BRANCH  18  19
ATOM     19  C   UNL     1      58.827  27.932  48.532  1.00  0.00    -0.000 C 
BRANCH  19  20
ATOM     20  C   UNL     1      60.329  27.785  48.824  1.00  0.00    -0.000 C 
BRANCH  20  21
ATOM     21  C   UNL     1      60.776  28.576  50.064  1.00  0.00    -0.000 C 
BRANCH  21  22
ATOM     22  C   UNL     1      61.451  27.687  51.124  1.00  0.00    -0.000 C 
BRANCH  22  23
ATOM     23  C   UNL     1      60.497  27.346  52.287  1.00  0.00    -0.000 C 
BRANCH  23  24
ATOM     24  C   UNL     1      60.956  26.142  53.128  1.00  0.00    -0.000 C 
BRANCH  24  25
ATOM     25  C   UNL     1      62.466  25.882  53.029  1.00  0.00    -0.003 C 
ATOM     26  C   UNL     1      62.756  24.404  52.775  1.00  0.00     0.004 C 
ENDBRANCH  24  25
ENDBRANCH  23  24
ENDBRANCH  22  23
ENDBRANCH  21  22
ENDBRANCH  20  21
ENDBRANCH  19  20
ENDBRANCH  18  19
ENDBRANCH  17  18
ENDBRANCH  16  17
ENDBRANCH  15  16
ENDBRANCH   1  15
TORSDOF 22
ENDMDL
MODEL 8
REMARK VINA RESULT:    -3.474     14.641     17.142
REMARK INTER + INTRA:         -10.635
REMARK INTER:                  -7.713
REMARK INTRA:                  -2.923
REMARK UNBOUND:                -2.692
REMARK SMILES CCCCCCCCCCCCCCCCCCCCCCCC(=O)[O-]
REMARK SMILES IDX 13 1 14 2 15 3 16 4 17 5 18 6 19 7 20 8 21 9 22 10 23 11
REMARK SMILES IDX 24 12 25 13 26 14 12 15 11 16 10 17 9 18 8 19 7 20 6 21 5 22
REMARK SMILES IDX 4 23 3 24 2 25 1 26
REMARK H PARENT
REMARK Flexibility Score: inf
ROOT
ATOM      1  C   UNL     1      58.841  21.842  52.101  1.00  0.00     0.000 C 
ENDROOT
BRANCH   1   2
ATOM      2  C   UNL     1      59.596  20.527  51.848  1.00  0.00     0.000 C 
BRANCH   2   3
ATOM      3  C   UNL     1      59.230  19.467  52.898  1.00  0.00     0.000 C 
BRANCH   3   4
ATOM      4  C   UNL     1      60.074  18.183  52.754  1.00  0.00     0.000 C 
BRANCH   4   5
ATOM      5  C   UNL     1      59.348  16.908  53.219  1.00  0.00     0.000 C 
BRANCH   5   6
ATOM      6  C   UNL     1      59.075  15.919  52.076  1.00  0.00     0.000 C 
BRANCH   6   7
ATOM      7  C   UNL     1      59.205  16.560  50.685  1.00  0.00     0.000 C 
BRANCH   7   8
ATOM      8  C   UNL     1      57.871  16.640  49.914  1.00  0.00     0.000 C 
BRANCH   8   9
ATOM      9  C   UNL     1      57.310  18.069  49.863  1.00  0.00     0.000 C 
BRANCH   9  10
ATOM     10  C   UNL     1      55.920  18.135  50.507  1.00  0.00     0.006 C 
BRANCH  10  11
ATOM     11  C   UNL     1      56.017  18.451  52.004  1.00  0.00     0.053 C 
BRANCH  11  12
ATOM     12  C   UNL     1      55.109  19.586  52.359  1.00  0.00     0.041 C 
ATOM     13  O   UNL     1      55.334  20.281  53.384  1.00  0.00    -0.550 OA
ATOM     14  O   UNL     1      53.983  19.843  51.587  1.00  0.00    -0.550 OA
ENDBRANCH  11  12
ENDBRANCH  10  11
ENDBRANCH   9  10
ENDBRANCH   8   9
ENDBRANCH   7   8
ENDBRANCH   6   7
ENDBRANCH   5   6
ENDBRANCH   4   5
ENDBRANCH   3   4
ENDBRANCH   2   3
ENDBRANCH   1   2
BRANCH   1  15
ATOM     15  C   UNL     1      59.562  23.064  51.507  1.00  0.00     0.000 C 
BRANCH  15  16
ATOM     16  C   UNL     1      60.655  22.675  50.503  1.00  0.00     0.000 C 
BRANCH  16  17
ATOM     17  C   UNL     1      61.123  23.893  49.693  1.00  0.00     0.000 C 
BRANCH  17  18
ATOM     18  C   UNL     1      59.960  24.858  49.436  1.00  0.00    -0.000 C 
BRANCH  18  19
ATOM     19  C   UNL     1      60.466  26.231  48.978  1.00  0.00    -0.000 C 
BRANCH  19  20
ATOM     20  C   UNL     1      60.739  27.141  50.187  1.00  0.00    -0.000 C 
BRANCH  20  21
ATOM     21  C   UNL     1      59.816  28.370  50.227  1.00  0.00    -0.000 C 
BRANCH  21  22
ATOM     22  C   UNL     1      58.882  28.451  49.006  1.00  0.00    -0.000 C 
BRANCH  22  23
ATOM     23  C   UNL     1      57.406  28.634  49.417  1.00  0.00    -0.000 C 
BRANCH  23  24
ATOM     24  C   UNL     1      56.704  27.318  49.798  1.00  0.00    -0.000 C 
BRANCH  24  25
ATOM     25  C   UNL     1      56.589  27.118  51.316  1.00  0.00    -0.003 C 
ATOM     26  C   UNL     1      57.139  25.756  51.737  1.00  0.00     0.004 C 
ENDBRANCH  24  25
ENDBRANCH  23  24
ENDBRANCH  22  23
ENDBRANCH  21  22
ENDBRANCH  20  21
ENDBRANCH  19  20
ENDBRANCH  18  19
ENDBRANCH  17  18
ENDBRANCH  16  17
ENDBRANCH  15  16
ENDBRANCH   1  15
TORSDOF 22
ENDMDL
MODEL 9
REMARK VINA RESULT:    -3.465     10.671     12.902
REMARK INTER + INTRA:         -10.614
REMARK INTER:                  -5.598
REMARK INTRA:                  -5.016
REMARK UNBOUND:                -2.692
REMARK SMILES CCCCCCCCCCCCCCCCCCCCCCCC(=O)[O-]
REMARK SMILES IDX 13 1 14 2 15 3 16 4 17 5 18 6 19 7 20 8 21 9 22 10 23 11
REMARK SMILES IDX 24 12 25 13 26 14 12 15 11 16 10 17 9 18 8 19 7 20 6 21 5 22
REMARK SMILES IDX 4 23 3 24 2 25 1 26
REMARK H PARENT
REMARK Flexibility Score: inf
ROOT
ATOM      1  C   UNL     1      55.930  26.847  51.982  1.00  0.00     0.000 C 
ENDROOT
BRANCH   1   2
ATOM      2  C   UNL     1      56.203  28.072  51.093  1.00  0.00     0.000 C 
BRANCH   2   3
ATOM      3  C   UNL     1      56.804  27.654  49.743  1.00  0.00     0.000 C 
BRANCH   3   4
ATOM      4  C   UNL     1      57.853  28.663  49.230  1.00  0.00     0.000 C 
BRANCH   4   5
ATOM      5  C   UNL     1      59.114  28.005  48.643  1.00  0.00     0.000 C 
BRANCH   5   6
ATOM      6  C   UNL     1      59.217  26.507  48.966  1.00  0.00     0.000 C 
BRANCH   6   7
ATOM      7  C   UNL     1      60.661  26.045  49.218  1.00  0.00     0.000 C 
BRANCH   7   8
ATOM      8  C   UNL     1      61.697  27.185  49.145  1.00  0.00     0.000 C 
BRANCH   8   9
ATOM      9  C   UNL     1      62.524  27.309  50.433  1.00  0.00     0.000 C 
BRANCH   9  10
ATOM     10  C   UNL     1      63.020  28.747  50.631  1.00  0.00     0.006 C 
BRANCH  10  11
ATOM     11  C   UNL     1      62.329  29.710  49.660  1.00  0.00     0.053 C 
BRANCH  11  12
ATOM     12  C   UNL     1      63.344  30.473  48.868  1.00  0.00     0.041 C 
ATOM     13  O   UNL     1      64.015  29.894  47.974  1.00  0.00    -0.550 OA
ATOM     14  O   UNL     1      63.586  31.810  49.154  1.00  0.00    -0.550 OA
ENDBRANCH  11  12
ENDBRANCH  10  11
ENDBRANCH   9  10
ENDBRANCH   8   9
ENDBRANCH   7   8
ENDBRANCH   6   7
ENDBRANCH   5   6
ENDBRANCH   4   5
ENDBRANCH   3   4
ENDBRANCH   2   3
ENDBRANCH   1   2
BRANCH   1  15
ATOM     15  C   UNL     1      57.202  26.036  52.282  1.00  0.00     0.000 C 
BRANCH  15  16
ATOM     16  C   UNL     1      58.134  26.743  53.275  1.00  0.00     0.000 C 
BRANCH  16  17
ATOM     17  C   UNL     1      59.542  26.917  52.687  1.00  0.00     0.000 C 
BRANCH  17  18
ATOM     18  C   UNL     1      60.118  28.291  53.045  1.00  0.00    -0.000 C 
BRANCH  18  19
ATOM     19  C   UNL     1      59.597  29.378  52.098  1.00  0.00    -0.000 C 
BRANCH  19  20
ATOM     20  C   UNL     1      60.113  30.763  52.522  1.00  0.00    -0.000 C 
BRANCH  20  21
ATOM     21  C   UNL     1      58.978  31.747  52.849  1.00  0.00    -0.000 C 
BRANCH  21  22
ATOM     22  C   UNL     1      57.593  31.211  52.444  1.00  0.00    -0.000 C 
BRANCH  22  23
ATOM     23  C   UNL     1      56.628  31.132  53.645  1.00  0.00    -0.000 C 
BRANCH  23  24
ATOM     24  C   UNL     1      56.733  29.816  54.435  1.00  0.00    -0.000 C 
BRANCH  24  25
ATOM     25  C   UNL     1      57.558  29.954  55.723  1.00  0.00    -0.003 C 
ATOM     26  C   UNL     1      57.729  28.604  56.417  1.00  0.00     0.004 C 
ENDBRANCH  24  25
ENDBRANCH  23  24
ENDBRANCH  22  23
ENDBRANCH  21  22
ENDBRANCH  20  21
ENDBRANCH  19  20
ENDBRANCH  18  19
ENDBRANCH  17  18
ENDBRANCH  16  17
ENDBRANCH  15  16
ENDBRANCH   1  15
TORSDOF 22
ENDMDL
