MODEL 1
REMARK VINA RESULT:    -4.460      0.000      0.000
REMARK INTER + INTRA:         -10.271
REMARK INTER:                  -8.111
REMARK INTRA:                  -2.160
REMARK UNBOUND:                -2.160
REMARK SMILES CCCCCC=CCC=CCCCCCCCC(=O)[O-]
REMARK SMILES IDX 11 1 12 2 13 3 14 4 15 5 16 6 17 7 18 8 19 9 20 10 10 11
REMARK SMILES IDX 9 12 8 13 7 14 6 15 5 16 4 17 3 18 2 19 1 20
REMARK H PARENT
REMARK Flexibility Score: inf
ROOT
ATOM      1  C   UNL     1     130.956 122.240 140.960  1.00  0.00     0.027 C 
ENDROOT
BRANCH   1   2
ATOM      2  C   UNL     1     131.309 122.530 139.493  1.00  0.00     0.004 C 
BRANCH   2   3
ATOM      3  C   UNL     1     131.891 121.306 138.761  1.00  0.00     0.000 C 
BRANCH   3   4
ATOM      4  C   UNL     1     130.860 120.229 138.376  1.00  0.00     0.000 C 
BRANCH   4   5
ATOM      5  C   UNL     1     130.919 118.991 139.284  1.00  0.00     0.000 C 
BRANCH   5   6
ATOM      6  C   UNL     1     129.552 118.716 139.928  1.00  0.00     0.006 C 
BRANCH   6   7
ATOM      7  C   UNL     1     128.409 118.752 138.905  1.00  0.00     0.053 C 
BRANCH   7   8
ATOM      8  C   UNL     1     127.076 118.538 139.556  1.00  0.00     0.041 C 
ATOM      9  O   UNL     1     126.042 118.396 138.850  1.00  0.00    -0.550 OA
ATOM     10  O   UNL     1     126.970 118.531 140.941  1.00  0.00    -0.550 OA
ENDBRANCH   7   8
ENDBRANCH   6   7
ENDBRANCH   5   6
ENDBRANCH   4   5
ENDBRANCH   3   4
ENDBRANCH   2   3
ENDBRANCH   1   2
BRANCH   1  11
ATOM     11  C   UNL     1     129.468 122.138 141.149  1.00  0.00    -0.031 C 
ATOM     12  C   UNL     1     128.612 122.402 140.150  1.00  0.00    -0.027 C 
BRANCH  12  13
ATOM     13  C   UNL     1     127.125 122.306 140.346  1.00  0.00     0.054 C 
BRANCH  13  14
ATOM     14  C   UNL     1     126.416 122.069 139.040  1.00  0.00    -0.027 C 
ATOM     15  C   UNL     1     127.110 121.927 137.903  1.00  0.00    -0.031 C 
BRANCH  15  16
ATOM     16  C   UNL     1     126.424 121.687 136.584  1.00  0.00     0.027 C 
BRANCH  16  17
ATOM     17  C   UNL     1     126.341 122.957 135.719  1.00  0.00     0.004 C 
BRANCH  17  18
ATOM     18  C   UNL     1     125.401 122.840 134.502  1.00  0.00     0.000 C 
BRANCH  18  19
ATOM     19  C   UNL     1     126.042 123.209 133.152  1.00  0.00    -0.003 C 
ATOM     20  C   UNL     1     127.320 124.033 133.304  1.00  0.00     0.004 C 
ENDBRANCH  18  19
ENDBRANCH  17  18
ENDBRANCH  16  17
ENDBRANCH  15  16
ENDBRANCH  13  14
ENDBRANCH  12  13
ENDBRANCH   1  11
TORSDOF 14
ENDMDL
MODEL 2
REMARK VINA RESULT:    -4.389      2.841      6.142
REMARK INTER + INTRA:         -10.142
REMARK INTER:                  -8.140
REMARK INTRA:                  -2.002
REMARK UNBOUND:                -2.160
REMARK SMILES CCCCCC=CCC=CCCCCCCCC(=O)[O-]
REMARK SMILES IDX 11 1 12 2 13 3 14 4 15 5 16 6 17 7 18 8 19 9 20 10 10 11
REMARK SMILES IDX 9 12 8 13 7 14 6 15 5 16 4 17 3 18 2 19 1 20
REMARK H PARENT
REMARK Flexibility Score: inf
ROOT
ATOM      1  C   UNL     1     126.273 121.229 141.494  1.00  0.00     0.027 C 
ENDROOT
BRANCH   1   2
ATOM      2  C   UNL     1     126.472 122.530 140.702  1.00  0.00     0.004 C 
BRANCH   2   3
ATOM      3  C   UNL     1     127.283 122.327 139.408  1.00  0.00     0.000 C 
BRANCH   3   4
ATOM      4  C   UNL     1     126.461 121.868 138.190  1.00  0.00     0.000 C 
BRANCH   4   5
ATOM      5  C   UNL     1     127.130 122.213 136.851  1.00  0.00     0.000 C 
BRANCH   5   6
ATOM      6  C   UNL     1     126.140 122.063 135.687  1.00  0.00     0.006 C 
BRANCH   6   7
ATOM      7  C   UNL     1     125.734 123.417 135.089  1.00  0.00     0.053 C 
BRANCH   7   8
ATOM      8  C   UNL     1     126.363 123.642 133.748  1.00  0.00     0.041 C 
ATOM      9  O   UNL     1     125.677 123.524 132.699  1.00  0.00    -0.550 OA
ATOM     10  O   UNL     1     127.715 123.949 133.655  1.00  0.00    -0.550 OA
ENDBRANCH   7   8
ENDBRANCH   6   7
ENDBRANCH   5   6
ENDBRANCH   4   5
ENDBRANCH   3   4
ENDBRANCH   2   3
ENDBRANCH   1   2
BRANCH   1  11
ATOM     11  C   UNL     1     127.478 120.337 141.384  1.00  0.00    -0.031 C 
ATOM     12  C   UNL     1     127.372 119.059 140.988  1.00  0.00    -0.027 C 
BRANCH  12  13
ATOM     13  C   UNL     1     128.578 118.167 140.886  1.00  0.00     0.054 C 
BRANCH  13  14
ATOM     14  C   UNL     1     129.675 118.821 140.090  1.00  0.00    -0.027 C 
ATOM     15  C   UNL     1     129.444 119.268 138.848  1.00  0.00    -0.031 C 
BRANCH  15  16
ATOM     16  C   UNL     1     130.524 119.928 138.033  1.00  0.00     0.027 C 
BRANCH  16  17
ATOM     17  C   UNL     1     130.535 121.458 138.192  1.00  0.00     0.004 C 
BRANCH  17  18
ATOM     18  C   UNL     1     131.853 122.031 138.752  1.00  0.00     0.000 C 
BRANCH  18  19
ATOM     19  C   UNL     1     131.700 122.875 140.031  1.00  0.00    -0.003 C 
ATOM     20  C   UNL     1     130.771 122.233 141.061  1.00  0.00     0.004 C 
ENDBRANCH  18  19
ENDBRANCH  17  18
ENDBRANCH  16  17
ENDBRANCH  15  16
ENDBRANCH  13  14
ENDBRANCH  12  13
ENDBRANCH   1  11
TORSDOF 14
ENDMDL
MODEL 3
REMARK VINA RESULT:    -4.310      2.345      3.590
REMARK INTER + INTRA:          -9.998
REMARK INTER:                  -8.133
REMARK INTRA:                  -1.864
REMARK UNBOUND:                -2.160
REMARK SMILES CCCCCC=CCC=CCCCCCCCC(=O)[O-]
REMARK SMILES IDX 11 1 12 2 13 3 14 4 15 5 16 6 17 7 18 8 19 9 20 10 10 11
REMARK SMILES IDX 9 12 8 13 7 14 6 15 5 16 4 17 3 18 2 19 1 20
REMARK H PARENT
REMARK Flexibility Score: inf
ROOT
ATOM      1  C   UNL     1     127.904 119.433 141.343  1.00  0.00     0.027 C 
ENDROOT
BRANCH   1   2
ATOM      2  C   UNL     1     127.979 118.369 140.237  1.00  0.00     0.004 C 
BRANCH   2   3
ATOM      3  C   UNL     1     129.422 118.063 139.795  1.00  0.00     0.000 C 
BRANCH   3   4
ATOM      4  C   UNL     1     130.286 119.300 139.492  1.00  0.00     0.000 C 
BRANCH   4   5
ATOM      5  C   UNL     1     129.873 120.019 138.199  1.00  0.00     0.000 C 
BRANCH   5   6
ATOM      6  C   UNL     1     130.389 121.465 138.185  1.00  0.00     0.006 C 
BRANCH   6   7
ATOM      7  C   UNL     1     131.776 121.596 138.827  1.00  0.00     0.053 C 
BRANCH   7   8
ATOM      8  C   UNL     1     131.802 122.659 139.882  1.00  0.00     0.041 C 
ATOM      9  O   UNL     1     132.404 123.745 139.673  1.00  0.00    -0.550 OA
ATOM     10  O   UNL     1     131.190 122.438 141.110  1.00  0.00    -0.550 OA
ENDBRANCH   7   8
ENDBRANCH   6   7
ENDBRANCH   5   6
ENDBRANCH   4   5
ENDBRANCH   3   4
ENDBRANCH   2   3
ENDBRANCH   1   2
BRANCH   1  11
ATOM     11  C   UNL     1     126.975 120.550 140.958  1.00  0.00    -0.031 C 
ATOM     12  C   UNL     1     127.436 121.706 140.455  1.00  0.00    -0.027 C 
BRANCH  12  13
ATOM     13  C   UNL     1     126.504 122.824 140.079  1.00  0.00     0.054 C 
BRANCH  13  14
ATOM     14  C   UNL     1     126.084 122.724 138.638  1.00  0.00    -0.027 C 
ATOM     15  C   UNL     1     126.880 122.137 137.734  1.00  0.00    -0.031 C 
BRANCH  15  16
ATOM     16  C   UNL     1     126.481 122.022 136.287  1.00  0.00     0.027 C 
BRANCH  16  17
ATOM     17  C   UNL     1     125.245 122.871 135.944  1.00  0.00     0.004 C 
BRANCH  17  18
ATOM     18  C   UNL     1     125.386 123.715 134.661  1.00  0.00     0.000 C 
BRANCH  18  19
ATOM     19  C   UNL     1     126.398 123.172 133.637  1.00  0.00    -0.003 C 
ATOM     20  C   UNL     1     127.593 124.102 133.429  1.00  0.00     0.004 C 
ENDBRANCH  18  19
ENDBRANCH  17  18
ENDBRANCH  16  17
ENDBRANCH  15  16
ENDBRANCH  13  14
ENDBRANCH  12  13
ENDBRANCH   1  11
TORSDOF 14
ENDMDL
MODEL 4
REMARK VINA RESULT:    -4.220      2.496      3.832
REMARK INTER + INTRA:          -9.835
REMARK INTER:                  -8.365
REMARK INTRA:                  -1.470
REMARK UNBOUND:                -2.160
REMARK SMILES CCCCCC=CCC=CCCCCCCCC(=O)[O-]
REMARK SMILES IDX 11 1 12 2 13 3 14 4 15 5 16 6 17 7 18 8 19 9 20 10 10 11
REMARK SMILES IDX 9 12 8 13 7 14 6 15 5 16 4 17 3 18 2 19 1 20
REMARK H PARENT
REMARK Flexibility Score: inf
ROOT
ATOM      1  C   UNL     1     127.009 120.420 141.414  1.00  0.00     0.027 C 
ENDROOT
BRANCH   1   2
ATOM      2  C   UNL     1     128.409 119.905 141.048  1.00  0.00     0.004 C 
BRANCH   2   3
ATOM      3  C   UNL     1     128.379 118.772 140.005  1.00  0.00     0.000 C 
BRANCH   3   4
ATOM      4  C   UNL     1     129.025 119.118 138.651  1.00  0.00     0.000 C 
BRANCH   4   5
ATOM      5  C   UNL     1     130.430 119.723 138.793  1.00  0.00     0.000 C 
BRANCH   5   6
ATOM      6  C   UNL     1     130.452 121.180 138.311  1.00  0.00     0.006 C 
BRANCH   6   7
ATOM      7  C   UNL     1     131.842 121.817 138.445  1.00  0.00     0.053 C 
BRANCH   7   8
ATOM      8  C   UNL     1     131.914 122.751 139.614  1.00  0.00     0.041 C 
ATOM      9  O   UNL     1     132.632 123.785 139.555  1.00  0.00    -0.550 OA
ATOM     10  O   UNL     1     131.218 122.463 140.781  1.00  0.00    -0.550 OA
ENDBRANCH   7   8
ENDBRANCH   6   7
ENDBRANCH   5   6
ENDBRANCH   4   5
ENDBRANCH   3   4
ENDBRANCH   2   3
ENDBRANCH   1   2
BRANCH   1  11
ATOM     11  C   UNL     1     126.388 121.167 140.266  1.00  0.00    -0.031 C 
ATOM     12  C   UNL     1     127.098 122.031 139.524  1.00  0.00    -0.027 C 
BRANCH  12  13
ATOM     13  C   UNL     1     126.473 122.782 138.382  1.00  0.00     0.054 C 
BRANCH  13  14
ATOM     14  C   UNL     1     126.338 121.911 137.163  1.00  0.00    -0.027 C 
ATOM     15  C   UNL     1     126.072 122.449 135.965  1.00  0.00    -0.031 C 
BRANCH  15  16
ATOM     16  C   UNL     1     125.935 121.598 134.730  1.00  0.00     0.027 C 
BRANCH  16  17
ATOM     17  C   UNL     1     125.510 122.411 133.495  1.00  0.00     0.004 C 
BRANCH  17  18
ATOM     18  C   UNL     1     126.488 123.538 133.104  1.00  0.00     0.000 C 
BRANCH  18  19
ATOM     19  C   UNL     1     125.864 124.943 133.041  1.00  0.00    -0.003 C 
ATOM     20  C   UNL     1     124.586 125.067 133.872  1.00  0.00     0.004 C 
ENDBRANCH  18  19
ENDBRANCH  17  18
ENDBRANCH  16  17
ENDBRANCH  15  16
ENDBRANCH  13  14
ENDBRANCH  12  13
ENDBRANCH   1  11
TORSDOF 14
ENDMDL
MODEL 5
REMARK VINA RESULT:    -4.145     13.554     16.619
REMARK INTER + INTRA:          -9.697
REMARK INTER:                  -8.708
REMARK INTRA:                  -0.990
REMARK UNBOUND:                -2.160
REMARK SMILES CCCCCC=CCC=CCCCCCCCC(=O)[O-]
REMARK SMILES IDX 11 1 12 2 13 3 14 4 15 5 16 6 17 7 18 8 19 9 20 10 10 11
REMARK SMILES IDX 9 12 8 13 7 14 6 15 5 16 4 17 3 18 2 19 1 20
REMARK H PARENT
REMARK Flexibility Score: inf
ROOT
ATOM      1  C   UNL     1     129.346 136.884 130.184  1.00  0.00     0.027 C 
ENDROOT
BRANCH   1   2
ATOM      2  C   UNL     1     128.816 135.690 130.991  1.00  0.00     0.004 C 
BRANCH   2   3
ATOM      3  C   UNL     1     129.754 135.277 132.140  1.00  0.00     0.000 C 
BRANCH   3   4
ATOM      4  C   UNL     1     129.536 136.035 133.463  1.00  0.00     0.000 C 
BRANCH   4   5
ATOM      5  C   UNL     1     129.348 135.099 134.666  1.00  0.00     0.000 C 
BRANCH   5   6
ATOM      6  C   UNL     1     128.203 135.584 135.567  1.00  0.00     0.006 C 
BRANCH   6   7
ATOM      7  C   UNL     1     127.112 134.520 135.745  1.00  0.00     0.053 C 
BRANCH   7   8
ATOM      8  C   UNL     1     126.878 133.747 134.483  1.00  0.00     0.041 C 
ATOM      9  O   UNL     1     126.277 134.282 133.515  1.00  0.00    -0.550 OA
ATOM     10  O   UNL     1     127.294 132.425 134.389  1.00  0.00    -0.550 OA
ENDBRANCH   7   8
ENDBRANCH   6   7
ENDBRANCH   5   6
ENDBRANCH   4   5
ENDBRANCH   3   4
ENDBRANCH   2   3
ENDBRANCH   1   2
BRANCH   1  11
ATOM     11  C   UNL     1     129.886 136.443 128.852  1.00  0.00    -0.031 C 
ATOM     12  C   UNL     1     129.427 136.958 127.701  1.00  0.00    -0.027 C 
BRANCH  12  13
ATOM     13  C   UNL     1     129.964 136.509 126.371  1.00  0.00     0.054 C 
BRANCH  13  14
ATOM     14  C   UNL     1     130.271 135.036 126.375  1.00  0.00    -0.027 C 
ATOM     15  C   UNL     1     129.411 134.158 125.840  1.00  0.00    -0.031 C 
BRANCH  15  16
ATOM     16  C   UNL     1     129.697 132.680 125.829  1.00  0.00     0.027 C 
BRANCH  16  17
ATOM     17  C   UNL     1     131.050 132.334 126.476  1.00  0.00     0.004 C 
BRANCH  17  18
ATOM     18  C   UNL     1     132.004 131.530 125.569  1.00  0.00     0.000 C 
BRANCH  18  19
ATOM     19  C   UNL     1     133.492 131.896 125.710  1.00  0.00    -0.003 C 
ATOM     20  C   UNL     1     133.865 133.174 124.958  1.00  0.00     0.004 C 
ENDBRANCH  18  19
ENDBRANCH  17  18
ENDBRANCH  16  17
ENDBRANCH  15  16
ENDBRANCH  13  14
ENDBRANCH  12  13
ENDBRANCH   1  11
TORSDOF 14
ENDMDL
MODEL 6
REMARK VINA RESULT:    -4.061      1.320      2.216
REMARK INTER + INTRA:          -9.545
REMARK INTER:                  -7.975
REMARK INTRA:                  -1.570
REMARK UNBOUND:                -2.160
REMARK SMILES CCCCCC=CCC=CCCCCCCCC(=O)[O-]
REMARK SMILES IDX 11 1 12 2 13 3 14 4 15 5 16 6 17 7 18 8 19 9 20 10 10 11
REMARK SMILES IDX 9 12 8 13 7 14 6 15 5 16 4 17 3 18 2 19 1 20
REMARK H PARENT
REMARK Flexibility Score: inf
ROOT
ATOM      1  C   UNL     1     128.527 121.710 141.122  1.00  0.00     0.027 C 
ENDROOT
BRANCH   1   2
ATOM      2  C   UNL     1     129.988 122.139 141.323  1.00  0.00     0.004 C 
BRANCH   2   3
ATOM      3  C   UNL     1     130.615 122.748 140.055  1.00  0.00     0.000 C 
BRANCH   3   4
ATOM      4  C   UNL     1     131.529 121.797 139.260  1.00  0.00     0.000 C 
BRANCH   4   5
ATOM      5  C   UNL     1     130.773 120.989 138.195  1.00  0.00     0.000 C 
BRANCH   5   6
ATOM      6  C   UNL     1     130.748 119.496 138.552  1.00  0.00     0.006 C 
BRANCH   6   7
ATOM      7  C   UNL     1     129.404 119.063 139.154  1.00  0.00     0.053 C 
BRANCH   7   8
ATOM      8  C   UNL     1     129.590 118.140 140.319  1.00  0.00     0.041 C 
ATOM      9  O   UNL     1     128.628 117.898 141.095  1.00  0.00    -0.550 OA
ATOM     10  O   UNL     1     130.834 117.574 140.569  1.00  0.00    -0.550 OA
ENDBRANCH   7   8
ENDBRANCH   6   7
ENDBRANCH   5   6
ENDBRANCH   4   5
ENDBRANCH   3   4
ENDBRANCH   2   3
ENDBRANCH   1   2
BRANCH   1  11
ATOM     11  C   UNL     1     127.848 122.566 140.089  1.00  0.00    -0.031 C 
ATOM     12  C   UNL     1     126.761 122.139 139.427  1.00  0.00    -0.027 C 
BRANCH  12  13
ATOM     13  C   UNL     1     126.089 122.994 138.389  1.00  0.00     0.054 C 
BRANCH  13  14
ATOM     14  C   UNL     1     125.524 122.158 137.273  1.00  0.00    -0.027 C 
ATOM     15  C   UNL     1     126.211 121.984 136.136  1.00  0.00    -0.031 C 
BRANCH  15  16
ATOM     16  C   UNL     1     125.669 121.149 135.006  1.00  0.00     0.027 C 
BRANCH  16  17
ATOM     17  C   UNL     1     125.105 122.003 133.856  1.00  0.00     0.004 C 
BRANCH  17  18
ATOM     18  C   UNL     1     125.203 123.525 134.084  1.00  0.00     0.000 C 
BRANCH  18  19
ATOM     19  C   UNL     1     126.109 124.271 133.089  1.00  0.00    -0.003 C 
ATOM     20  C   UNL     1     127.596 124.126 133.412  1.00  0.00     0.004 C 
ENDBRANCH  18  19
ENDBRANCH  17  18
ENDBRANCH  16  17
ENDBRANCH  15  16
ENDBRANCH  13  14
ENDBRANCH  12  13
ENDBRANCH   1  11
TORSDOF 14
ENDMDL
MODEL 7
REMARK VINA RESULT:    -4.060      2.104      3.519
REMARK INTER + INTRA:          -9.543
REMARK INTER:                  -7.179
REMARK INTRA:                  -2.364
REMARK UNBOUND:                -2.160
REMARK SMILES CCCCCC=CCC=CCCCCCCCC(=O)[O-]
REMARK SMILES IDX 11 1 12 2 13 3 14 4 15 5 16 6 17 7 18 8 19 9 20 10 10 11
REMARK SMILES IDX 9 12 8 13 7 14 6 15 5 16 4 17 3 18 2 19 1 20
REMARK H PARENT
REMARK Flexibility Score: inf
ROOT
ATOM      1  C   UNL     1     131.300 121.145 138.715  1.00  0.00     0.027 C 
ENDROOT
BRANCH   1   2
ATOM      2  C   UNL     1     130.872 122.377 139.526  1.00  0.00     0.004 C 
BRANCH   2   3
ATOM      3  C   UNL     1     130.405 122.026 140.951  1.00  0.00     0.000 C 
BRANCH   3   4
ATOM      4  C   UNL     1     128.968 122.462 141.291  1.00  0.00     0.000 C 
BRANCH   4   5
ATOM      5  C   UNL     1     127.980 121.288 141.341  1.00  0.00     0.000 C 
BRANCH   5   6
ATOM      6  C   UNL     1     126.736 121.579 140.488  1.00  0.00     0.006 C 
BRANCH   6   7
ATOM      7  C   UNL     1     126.995 122.657 139.428  1.00  0.00     0.053 C 
BRANCH   7   8
ATOM      8  C   UNL     1     125.728 123.336 139.006  1.00  0.00     0.041 C 
ATOM      9  O   UNL     1     124.689 122.659 138.786  1.00  0.00    -0.550 OA
ATOM     10  O   UNL     1     125.703 124.713 138.821  1.00  0.00    -0.550 OA
ENDBRANCH   7   8
ENDBRANCH   6   7
ENDBRANCH   5   6
ENDBRANCH   4   5
ENDBRANCH   3   4
ENDBRANCH   2   3
ENDBRANCH   1   2
BRANCH   1  11
ATOM     11  C   UNL     1     130.346 120.001 138.920  1.00  0.00    -0.031 C 
ATOM     12  C   UNL     1     129.196 119.913 138.234  1.00  0.00    -0.027 C 
BRANCH  12  13
ATOM     13  C   UNL     1     128.240 118.772 138.448  1.00  0.00     0.054 C 
BRANCH  13  14
ATOM     14  C   UNL     1     127.164 118.756 137.396  1.00  0.00    -0.027 C 
ATOM     15  C   UNL     1     126.418 119.845 137.167  1.00  0.00    -0.031 C 
BRANCH  15  16
ATOM     16  C   UNL     1     125.337 119.855 136.119  1.00  0.00     0.027 C 
BRANCH  16  17
ATOM     17  C   UNL     1     125.392 121.105 135.223  1.00  0.00     0.004 C 
BRANCH  17  18
ATOM     18  C   UNL     1     126.373 122.193 135.705  1.00  0.00     0.000 C 
BRANCH  18  19
ATOM     19  C   UNL     1     126.668 123.298 134.676  1.00  0.00    -0.003 C 
ATOM     20  C   UNL     1     126.056 123.016 133.304  1.00  0.00     0.004 C 
ENDBRANCH  18  19
ENDBRANCH  17  18
ENDBRANCH  16  17
ENDBRANCH  15  16
ENDBRANCH  13  14
ENDBRANCH  12  13
ENDBRANCH   1  11
TORSDOF 14
ENDMDL
MODEL 8
REMARK VINA RESULT:    -4.009      3.058      6.782
REMARK INTER + INTRA:          -9.450
REMARK INTER:                  -7.314
REMARK INTRA:                  -2.136
REMARK UNBOUND:                -2.160
REMARK SMILES CCCCCC=CCC=CCCCCCCCC(=O)[O-]
REMARK SMILES IDX 11 1 12 2 13 3 14 4 15 5 16 6 17 7 18 8 19 9 20 10 10 11
REMARK SMILES IDX 9 12 8 13 7 14 6 15 5 16 4 17 3 18 2 19 1 20
REMARK H PARENT
REMARK Flexibility Score: inf
ROOT
ATOM      1  C   UNL     1     127.393 122.467 138.655  1.00  0.00     0.027 C 
ENDROOT
BRANCH   1   2
ATOM      2  C   UNL     1     126.114 121.681 138.983  1.00  0.00     0.004 C 
BRANCH   2   3
ATOM      3  C   UNL     1     125.296 121.315 137.731  1.00  0.00     0.000 C 
BRANCH   3   4
ATOM      4  C   UNL     1     125.764 121.988 136.428  1.00  0.00     0.000 C 
BRANCH   4   5
ATOM      5  C   UNL     1     125.579 121.095 135.192  1.00  0.00     0.000 C 
BRANCH   5   6
ATOM      6  C   UNL     1     125.738 121.907 133.898  1.00  0.00     0.006 C 
BRANCH   6   7
ATOM      7  C   UNL     1     126.386 123.276 134.145  1.00  0.00     0.053 C 
BRANCH   7   8
ATOM      8  C   UNL     1     125.513 124.397 133.669  1.00  0.00     0.041 C 
ATOM      9  O   UNL     1     125.932 125.197 132.790  1.00  0.00    -0.550 OA
ATOM     10  O   UNL     1     124.251 124.580 134.219  1.00  0.00    -0.550 OA
ENDBRANCH   7   8
ENDBRANCH   6   7
ENDBRANCH   5   6
ENDBRANCH   4   5
ENDBRANCH   3   4
ENDBRANCH   2   3
ENDBRANCH   1   2
BRANCH   1  11
ATOM     11  C   UNL     1     128.618 121.722 139.107  1.00  0.00    -0.031 C 
ATOM     12  C   UNL     1     129.657 121.511 138.284  1.00  0.00    -0.027 C 
BRANCH  12  13
ATOM     13  C   UNL     1     130.877 120.759 138.738  1.00  0.00     0.054 C 
BRANCH  13  14
ATOM     14  C   UNL     1     130.518 119.674 139.716  1.00  0.00    -0.027 C 
ATOM     15  C   UNL     1     130.878 118.404 139.488  1.00  0.00    -0.031 C 
BRANCH  15  16
ATOM     16  C   UNL     1     130.533 117.301 140.454  1.00  0.00     0.027 C 
BRANCH  16  17
ATOM     17  C   UNL     1     129.120 117.451 141.045  1.00  0.00     0.004 C 
BRANCH  17  18
ATOM     18  C   UNL     1     127.986 116.965 140.119  1.00  0.00     0.000 C 
BRANCH  18  19
ATOM     19  C   UNL     1     127.124 118.085 139.511  1.00  0.00    -0.003 C 
ATOM     20  C   UNL     1     127.388 118.298 138.021  1.00  0.00     0.004 C 
ENDBRANCH  18  19
ENDBRANCH  17  18
ENDBRANCH  16  17
ENDBRANCH  15  16
ENDBRANCH  13  14
ENDBRANCH  12  13
ENDBRANCH   1  11
TORSDOF 14
ENDMDL
MODEL 9
REMARK VINA RESULT:    -3.979      2.729      4.270
REMARK INTER + INTRA:          -9.395
REMARK INTER:                  -6.529
REMARK INTRA:                  -2.866
REMARK UNBOUND:                -2.160
REMARK SMILES CCCCCC=CCC=CCCCCCCCC(=O)[O-]
REMARK SMILES IDX 11 1 12 2 13 3 14 4 15 5 16 6 17 7 18 8 19 9 20 10 10 11
REMARK SMILES IDX 9 12 8 13 7 14 6 15 5 16 4 17 3 18 2 19 1 20
REMARK H PARENT
REMARK Flexibility Score: inf
ROOT
ATOM      1  C   UNL     1     126.938 118.139 140.724  1.00  0.00     0.027 C 
ENDROOT
BRANCH   1   2
ATOM      2  C   UNL     1     127.820 117.701 139.545  1.00  0.00     0.004 C 
BRANCH   2   3
ATOM      3  C   UNL     1     129.320 117.675 139.894  1.00  0.00     0.000 C 
BRANCH   3   4
ATOM      4  C   UNL     1     130.102 118.941 139.497  1.00  0.00     0.000 C 
BRANCH   4   5
ATOM      5  C   UNL     1     129.490 119.671 138.292  1.00  0.00     0.000 C 
BRANCH   5   6
ATOM      6  C   UNL     1     129.594 121.194 138.461  1.00  0.00     0.006 C 
BRANCH   6   7
ATOM      7  C   UNL     1     130.511 121.590 139.625  1.00  0.00     0.053 C 
BRANCH   7   8
ATOM      8  C   UNL     1     131.824 122.125 139.141  1.00  0.00     0.041 C 
ATOM      9  O   UNL     1     132.578 121.408 138.432  1.00  0.00    -0.550 OA
ATOM     10  O   UNL     1     132.231 123.403 139.502  1.00  0.00    -0.550 OA
ENDBRANCH   7   8
ENDBRANCH   6   7
ENDBRANCH   5   6
ENDBRANCH   4   5
ENDBRANCH   3   4
ENDBRANCH   2   3
ENDBRANCH   1   2
BRANCH   1  11
ATOM     11  C   UNL     1     126.524 119.578 140.587  1.00  0.00    -0.031 C 
ATOM     12  C   UNL     1     127.170 120.560 141.234  1.00  0.00    -0.027 C 
BRANCH  12  13
ATOM     13  C   UNL     1     126.749 121.997 141.101  1.00  0.00     0.054 C 
BRANCH  13  14
ATOM     14  C   UNL     1     125.965 122.221 139.836  1.00  0.00    -0.027 C 
ATOM     15  C   UNL     1     126.520 122.851 138.792  1.00  0.00    -0.031 C 
BRANCH  15  16
ATOM     16  C   UNL     1     125.757 123.085 137.515  1.00  0.00     0.027 C 
BRANCH  16  17
ATOM     17  C   UNL     1     126.407 122.397 136.302  1.00  0.00     0.004 C 
BRANCH  17  18
ATOM     18  C   UNL     1     125.791 121.031 135.938  1.00  0.00     0.000 C 
BRANCH  18  19
ATOM     19  C   UNL     1     126.131 119.888 136.911  1.00  0.00    -0.003 C 
ATOM     20  C   UNL     1     125.171 118.704 136.799  1.00  0.00     0.004 C 
ENDBRANCH  18  19
ENDBRANCH  17  18
ENDBRANCH  16  17
ENDBRANCH  15  16
ENDBRANCH  13  14
ENDBRANCH  12  13
ENDBRANCH   1  11
TORSDOF 14
ENDMDL
