MODEL 1
REMARK VINA RESULT:    -4.618      0.000      0.000
REMARK INTER + INTRA:          -5.341
REMARK INTER:                  -5.293
REMARK INTRA:                  -0.049
REMARK UNBOUND:                -0.049
REMARK SMILES O=C([O-])c1cc(O)c(O)c(O)c1
REMARK SMILES IDX 4 1 5 2 12 3 6 4 10 5 8 6 2 7 1 8 3 9 7 10 11 12 9 14
REMARK H PARENT 7 11 11 13 9 15
REMARK Flexibility Score: inf
ROOT
ATOM      1  C   UNL     1      -2.342   8.940   0.376  1.00  0.00     0.005 A 
ATOM      2  C   UNL     1      -3.583   9.236   0.963  1.00  0.00     0.060 A 
ATOM      3  C   UNL     1      -2.307   8.485  -0.953  1.00  0.00     0.060 A 
ATOM      4  C   UNL     1      -4.772   9.081   0.237  1.00  0.00     0.162 A 
ATOM      5  C   UNL     1      -3.489   8.327  -1.685  1.00  0.00     0.162 A 
ATOM      6  C   UNL     1      -4.728   8.625  -1.092  1.00  0.00     0.200 A 
ENDROOT
BRANCH   1   7
ATOM      7  C   UNL     1      -1.092   9.107   1.150  1.00  0.00     0.072 C 
ATOM      8  O   UNL     1      -0.917  10.125   1.872  1.00  0.00    -0.545 OA
ATOM      9  O   UNL     1      -0.091   8.143   1.091  1.00  0.00    -0.545 OA
ENDBRANCH   1   7
BRANCH   4  10
ATOM     10  O   UNL     1      -5.998   9.378   0.831  1.00  0.00    -0.504 OA
ATOM     11  H   UNL     1      -6.873   9.263   0.331  1.00  0.00     0.293 HD
ENDBRANCH   4  10
BRANCH   5  12
ATOM     12  O   UNL     1      -3.412   7.873  -3.001  1.00  0.00    -0.504 OA
ATOM     13  H   UNL     1      -3.994   7.120  -3.347  1.00  0.00     0.293 HD
ENDBRANCH   5  12
BRANCH   6  14
ATOM     14  O   UNL     1      -5.902   8.464  -1.830  1.00  0.00    -0.502 OA
ATOM     15  H   UNL     1      -6.819   8.513  -1.402  1.00  0.00     0.293 HD
ENDBRANCH   6  14
TORSDOF 4
ENDMDL
MODEL 2
REMARK VINA RESULT:    -4.502      9.262     10.145
REMARK INTER + INTRA:          -5.208
REMARK INTER:                  -5.163
REMARK INTRA:                  -0.045
REMARK UNBOUND:                -0.049
REMARK SMILES O=C([O-])c1cc(O)c(O)c(O)c1
REMARK SMILES IDX 4 1 5 2 12 3 6 4 10 5 8 6 2 7 1 8 3 9 7 10 11 12 9 14
REMARK H PARENT 7 11 11 13 9 15
REMARK Flexibility Score: inf
ROOT
ATOM      1  C   UNL     1       0.486   0.112   0.345  1.00  0.00     0.005 A 
ATOM      2  C   UNL     1       1.698   0.611  -0.161  1.00  0.00     0.060 A 
ATOM      3  C   UNL     1      -0.399  -0.544  -0.526  1.00  0.00     0.060 A 
ATOM      4  C   UNL     1       2.022   0.458  -1.517  1.00  0.00     0.162 A 
ATOM      5  C   UNL     1      -0.083  -0.700  -1.881  1.00  0.00     0.162 A 
ATOM      6  C   UNL     1       1.130  -0.199  -2.381  1.00  0.00     0.200 A 
ENDROOT
BRANCH   1   7
ATOM      7  C   UNL     1       0.152   0.277   1.777  1.00  0.00     0.072 C 
ATOM      8  O   UNL     1      -0.444   1.312   2.180  1.00  0.00    -0.545 OA
ATOM      9  O   UNL     1       0.491  -0.707   2.699  1.00  0.00    -0.545 OA
ENDBRANCH   1   7
BRANCH   4  10
ATOM     10  O   UNL     1       3.227   0.957  -2.007  1.00  0.00    -0.504 OA
ATOM     11  H   UNL     1       4.062   0.993  -1.433  1.00  0.00     0.293 HD
ENDBRANCH   4  10
BRANCH   5  12
ATOM     12  O   UNL     1      -0.989  -1.357  -2.713  1.00  0.00    -0.504 OA
ATOM     13  H   UNL     1      -0.837  -1.450  -3.710  1.00  0.00     0.293 HD
ENDBRANCH   5  12
BRANCH   6  14
ATOM     14  O   UNL     1       1.437  -0.359  -3.734  1.00  0.00    -0.502 OA
ATOM     15  H   UNL     1       1.459  -1.269  -4.178  1.00  0.00     0.293 HD
ENDBRANCH   6  14
TORSDOF 4
ENDMDL
MODEL 3
REMARK VINA RESULT:    -4.489      9.273     10.069
REMARK INTER + INTRA:          -5.194
REMARK INTER:                  -5.149
REMARK INTRA:                  -0.045
REMARK UNBOUND:                -0.049
REMARK SMILES O=C([O-])c1cc(O)c(O)c(O)c1
REMARK SMILES IDX 4 1 5 2 12 3 6 4 10 5 8 6 2 7 1 8 3 9 7 10 11 12 9 14
REMARK H PARENT 7 11 11 13 9 15
REMARK Flexibility Score: inf
ROOT
ATOM      1  C   UNL     1       0.487   0.118   0.366  1.00  0.00     0.005 A 
ATOM      2  C   UNL     1      -0.412  -0.533  -0.495  1.00  0.00     0.060 A 
ATOM      3  C   UNL     1       1.691   0.618  -0.157  1.00  0.00     0.060 A 
ATOM      4  C   UNL     1      -0.114  -0.685  -1.857  1.00  0.00     0.162 A 
ATOM      5  C   UNL     1       1.996   0.470  -1.515  1.00  0.00     0.162 A 
ATOM      6  C   UNL     1       1.093  -0.182  -2.371  1.00  0.00     0.200 A 
ENDROOT
BRANCH   1   7
ATOM      7  C   UNL     1       0.165   0.274   1.801  1.00  0.00     0.072 C 
ATOM      8  O   UNL     1      -0.458   1.291   2.211  1.00  0.00    -0.545 OA
ATOM      9  O   UNL     1       0.545  -0.697   2.720  1.00  0.00    -0.545 OA
ENDBRANCH   1   7
BRANCH   4  10
ATOM     10  O   UNL     1      -1.015  -1.334  -2.701  1.00  0.00    -0.504 OA
ATOM     11  H   UNL     1      -0.907  -2.313  -2.942  1.00  0.00     0.293 HD
ENDBRANCH   4  10
BRANCH   5  12
ATOM     12  O   UNL     1       3.203   0.980  -1.995  1.00  0.00    -0.504 OA
ATOM     13  H   UNL     1       3.345   1.196  -2.974  1.00  0.00     0.293 HD
ENDBRANCH   5  12
BRANCH   6  14
ATOM     14  O   UNL     1       1.405  -0.325  -3.724  1.00  0.00    -0.502 OA
ATOM     15  H   UNL     1       1.658   0.464  -4.306  1.00  0.00     0.293 HD
ENDBRANCH   6  14
TORSDOF 4
ENDMDL
MODEL 4
REMARK VINA RESULT:    -4.275      1.492      4.546
REMARK INTER + INTRA:          -4.949
REMARK INTER:                  -4.903
REMARK INTRA:                  -0.045
REMARK UNBOUND:                -0.049
REMARK SMILES O=C([O-])c1cc(O)c(O)c(O)c1
REMARK SMILES IDX 4 1 5 2 12 3 6 4 10 5 8 6 2 7 1 8 3 9 7 10 11 12 9 14
REMARK H PARENT 7 11 11 13 9 15
REMARK Flexibility Score: inf
ROOT
ATOM      1  C   UNL     1      -3.850   8.930   0.470  1.00  0.00     0.005 A 
ATOM      2  C   UNL     1      -3.460   7.700  -0.086  1.00  0.00     0.060 A 
ATOM      3  C   UNL     1      -2.885   9.726   1.109  1.00  0.00     0.060 A 
ATOM      4  C   UNL     1      -2.128   7.271  -0.006  1.00  0.00     0.162 A 
ATOM      5  C   UNL     1      -1.554   9.305   1.194  1.00  0.00     0.162 A 
ATOM      6  C   UNL     1      -1.170   8.074   0.636  1.00  0.00     0.200 A 
ENDROOT
BRANCH   1   7
ATOM      7  C   UNL     1      -5.258   9.376   0.380  1.00  0.00     0.072 C 
ATOM      8  O   UNL     1      -5.744   9.743  -0.723  1.00  0.00    -0.545 OA
ATOM      9  O   UNL     1      -6.065   9.398   1.512  1.00  0.00    -0.545 OA
ENDBRANCH   1   7
BRANCH   4  10
ATOM     10  O   UNL     1      -1.753   6.048  -0.561  1.00  0.00    -0.504 OA
ATOM     11  H   UNL     1      -1.155   5.399  -0.063  1.00  0.00     0.293 HD
ENDBRANCH   4  10
BRANCH   5  12
ATOM     12  O   UNL     1      -0.626  10.125   1.836  1.00  0.00    -0.504 OA
ATOM     13  H   UNL     1       0.333   9.838   1.989  1.00  0.00     0.293 HD
ENDBRANCH   5  12
BRANCH   6  14
ATOM     14  O   UNL     1       0.161   7.661   0.725  1.00  0.00    -0.502 OA
ATOM     15  H   UNL     1       0.925   8.319   0.819  1.00  0.00     0.293 HD
ENDBRANCH   6  14
TORSDOF 4
ENDMDL
MODEL 5
REMARK VINA RESULT:    -4.150      8.865     10.199
REMARK INTER + INTRA:          -4.805
REMARK INTER:                  -4.758
REMARK INTRA:                  -0.047
REMARK UNBOUND:                -0.049
REMARK SMILES O=C([O-])c1cc(O)c(O)c(O)c1
REMARK SMILES IDX 4 1 5 2 12 3 6 4 10 5 8 6 2 7 1 8 3 9 7 10 11 12 9 14
REMARK H PARENT 7 11 11 13 9 15
REMARK Flexibility Score: inf
ROOT
ATOM      1  C   UNL     1       0.770  -0.117  -1.067  1.00  0.00     0.005 A 
ATOM      2  C   UNL     1       0.403  -1.144  -0.181  1.00  0.00     0.060 A 
ATOM      3  C   UNL     1       0.766   1.211  -0.610  1.00  0.00     0.060 A 
ATOM      4  C   UNL     1       0.036  -0.850   1.140  1.00  0.00     0.162 A 
ATOM      5  C   UNL     1       0.401   1.513   0.707  1.00  0.00     0.162 A 
ATOM      6  C   UNL     1       0.035   0.482   1.588  1.00  0.00     0.200 A 
ENDROOT
BRANCH   1   7
ATOM      7  C   UNL     1       1.156  -0.436  -2.459  1.00  0.00     0.072 C 
ATOM      8  O   UNL     1       0.401  -1.133  -3.189  1.00  0.00    -0.545 OA
ATOM      9  O   UNL     1       2.358   0.027  -2.982  1.00  0.00    -0.545 OA
ENDBRANCH   1   7
BRANCH   4  10
ATOM     10  O   UNL     1      -0.327  -1.877   2.010  1.00  0.00    -0.504 OA
ATOM     11  H   UNL     1      -0.914  -2.647   1.708  1.00  0.00     0.293 HD
ENDBRANCH   4  10
BRANCH   5  12
ATOM     12  O   UNL     1       0.411   2.845   1.120  1.00  0.00    -0.504 OA
ATOM     13  H   UNL     1       0.471   3.106   2.098  1.00  0.00     0.293 HD
ENDBRANCH   5  12
BRANCH   6  14
ATOM     14  O   UNL     1      -0.328   0.793   2.900  1.00  0.00    -0.502 OA
ATOM     15  H   UNL     1      -0.517   1.742   3.197  1.00  0.00     0.293 HD
ENDBRANCH   6  14
TORSDOF 4
ENDMDL
MODEL 6
REMARK VINA RESULT:    -4.112     12.005     13.375
REMARK INTER + INTRA:          -4.761
REMARK INTER:                  -4.710
REMARK INTRA:                  -0.051
REMARK UNBOUND:                -0.049
REMARK SMILES O=C([O-])c1cc(O)c(O)c(O)c1
REMARK SMILES IDX 4 1 5 2 12 3 6 4 10 5 8 6 2 7 1 8 3 9 7 10 11 12 9 14
REMARK H PARENT 7 11 11 13 9 15
REMARK Flexibility Score: inf
ROOT
ATOM      1  C   UNL     1      -3.460   0.090  -9.067  1.00  0.00     0.005 A 
ATOM      2  C   UNL     1      -2.399   1.009  -9.127  1.00  0.00     0.060 A 
ATOM      3  C   UNL     1      -3.171  -1.279  -8.949  1.00  0.00     0.060 A 
ATOM      4  C   UNL     1      -1.069   0.569  -9.072  1.00  0.00     0.162 A 
ATOM      5  C   UNL     1      -1.846  -1.727  -8.894  1.00  0.00     0.162 A 
ATOM      6  C   UNL     1      -0.789  -0.803  -8.954  1.00  0.00     0.200 A 
ENDROOT
BRANCH   1   7
ATOM      7  C   UNL     1      -4.861   0.563  -9.125  1.00  0.00     0.072 C 
ATOM      8  O   UNL     1      -5.149   1.641  -9.711  1.00  0.00    -0.545 OA
ATOM      9  O   UNL     1      -5.881  -0.174  -8.534  1.00  0.00    -0.545 OA
ENDBRANCH   1   7
BRANCH   4  10
ATOM     10  O   UNL     1      -0.025   1.490  -9.132  1.00  0.00    -0.504 OA
ATOM     11  H   UNL     1       0.681   1.447  -9.858  1.00  0.00     0.293 HD
ENDBRANCH   4  10
BRANCH   5  12
ATOM     12  O   UNL     1      -1.601  -3.095  -8.777  1.00  0.00    -0.504 OA
ATOM     13  H   UNL     1      -0.956  -3.471  -8.092  1.00  0.00     0.293 HD
ENDBRANCH   5  12
BRANCH   6  14
ATOM     14  O   UNL     1       0.529  -1.259  -8.898  1.00  0.00    -0.502 OA
ATOM     15  H   UNL     1       0.766  -2.188  -8.570  1.00  0.00     0.293 HD
ENDBRANCH   6  14
TORSDOF 4
ENDMDL
MODEL 7
REMARK VINA RESULT:    -4.065     11.947     13.421
REMARK INTER + INTRA:          -4.707
REMARK INTER:                  -4.657
REMARK INTRA:                  -0.051
REMARK UNBOUND:                -0.049
REMARK SMILES O=C([O-])c1cc(O)c(O)c(O)c1
REMARK SMILES IDX 4 1 5 2 12 3 6 4 10 5 8 6 2 7 1 8 3 9 7 10 11 12 9 14
REMARK H PARENT 7 11 11 13 9 15
REMARK Flexibility Score: inf
ROOT
ATOM      1  C   UNL     1      -3.472  -0.007  -8.993  1.00  0.00     0.005 A 
ATOM      2  C   UNL     1      -3.152  -1.375  -8.982  1.00  0.00     0.060 A 
ATOM      3  C   UNL     1      -2.432   0.937  -8.999  1.00  0.00     0.060 A 
ATOM      4  C   UNL     1      -1.814  -1.795  -8.975  1.00  0.00     0.162 A 
ATOM      5  C   UNL     1      -1.094   0.525  -8.993  1.00  0.00     0.162 A 
ATOM      6  C   UNL     1      -0.780  -0.844  -8.982  1.00  0.00     0.200 A 
ENDROOT
BRANCH   1   7
ATOM      7  C   UNL     1      -4.886   0.428  -9.000  1.00  0.00     0.072 C 
ATOM      8  O   UNL     1      -5.220   1.510  -9.553  1.00  0.00    -0.545 OA
ATOM      9  O   UNL     1      -5.867  -0.350  -8.395  1.00  0.00    -0.545 OA
ENDBRANCH   1   7
BRANCH   4  10
ATOM     10  O   UNL     1      -1.509  -3.156  -8.964  1.00  0.00    -0.504 OA
ATOM     11  H   UNL     1      -1.874  -3.776  -8.250  1.00  0.00     0.293 HD
ENDBRANCH   4  10
BRANCH   5  12
ATOM     12  O   UNL     1      -0.091   1.494  -9.000  1.00  0.00    -0.504 OA
ATOM     13  H   UNL     1       0.299   1.873  -8.145  1.00  0.00     0.293 HD
ENDBRANCH   5  12
BRANCH   6  14
ATOM     14  O   UNL     1       0.557  -1.245  -8.975  1.00  0.00    -0.502 OA
ATOM     15  H   UNL     1       0.831  -2.209  -8.829  1.00  0.00     0.293 HD
ENDBRANCH   6  14
TORSDOF 4
ENDMDL
