MODEL 1
REMARK VINA RESULT:    -4.903      0.000      0.000
REMARK INTER + INTRA:         -10.503
REMARK INTER:                  -9.203
REMARK INTRA:                  -1.300
REMARK UNBOUND:                -1.300
REMARK SMILES CCCCCC=CCC=CCCCCCCCC(=O)OC
REMARK SMILES IDX 11 1 10 2 9 3 8 4 7 5 6 6 5 7 4 8 3 9 2 10 1 11 12 12 13 13
REMARK SMILES IDX 14 14 15 15 16 16 17 17 18 18 19 19 20 20 21 21
REMARK H PARENT
REMARK Flexibility Score: inf
ROOT
ATOM      1  C   UNL     1      36.360   6.696   4.000  1.00  0.00     0.027 C 
ENDROOT
BRANCH   1   2
ATOM      2  C   UNL     1      37.829   6.726   3.682  1.00  0.00    -0.031 C 
ATOM      3  C   UNL     1      38.624   7.708   4.134  1.00  0.00    -0.027 C 
BRANCH   3   4
ATOM      4  C   UNL     1      40.096   7.730   3.828  1.00  0.00     0.054 C 
BRANCH   4   5
ATOM      5  C   UNL     1      40.366   7.292   2.415  1.00  0.00    -0.027 C 
ATOM      6  C   UNL     1      40.981   8.099   1.538  1.00  0.00    -0.031 C 
BRANCH   6   7
ATOM      7  C   UNL     1      41.216   7.683   0.110  1.00  0.00     0.027 C 
BRANCH   7   8
ATOM      8  C   UNL     1      41.446   8.896  -0.804  1.00  0.00     0.004 C 
BRANCH   8   9
ATOM      9  C   UNL     1      40.813   8.764  -2.200  1.00  0.00     0.000 C 
BRANCH   9  10
ATOM     10  C   UNL     1      41.856   8.765  -3.327  1.00  0.00    -0.003 C 
ATOM     11  C   UNL     1      43.274   8.736  -2.764  1.00  0.00     0.004 C 
ENDBRANCH   9  10
ENDBRANCH   8   9
ENDBRANCH   7   8
ENDBRANCH   6   7
ENDBRANCH   4   5
ENDBRANCH   3   4
ENDBRANCH   1   2
BRANCH   1  12
ATOM     12  C   UNL     1      36.080   5.845   5.245  1.00  0.00     0.004 C 
BRANCH  12  13
ATOM     13  C   UNL     1      35.552   6.712   6.395  1.00  0.00     0.000 C 
BRANCH  13  14
ATOM     14  C   UNL     1      34.834   7.958   5.861  1.00  0.00     0.000 C 
BRANCH  14  15
ATOM     15  C   UNL     1      35.109   9.175   6.755  1.00  0.00     0.001 C 
BRANCH  15  16
ATOM     16  C   UNL     1      35.002  10.505   5.992  1.00  0.00     0.012 C 
BRANCH  16  17
ATOM     17  C   UNL     1      35.622  10.432   4.592  1.00  0.00     0.123 C 
BRANCH  17  18
ATOM     18  C   UNL     1      34.587  10.722   3.551  1.00  0.00     0.305 C 
ATOM     19  O   UNL     1      34.277  11.917   3.290  1.00  0.00    -0.252 OA
BRANCH  18  20
ATOM     20  O   UNL     1      33.943   9.660   2.908  1.00  0.00    -0.469 OA
ATOM     21  C   UNL     1      33.875   9.550   1.493  1.00  0.00     0.282 C 
ENDBRANCH  18  20
ENDBRANCH  17  18
ENDBRANCH  16  17
ENDBRANCH  15  16
ENDBRANCH  14  15
ENDBRANCH  13  14
ENDBRANCH  12  13
ENDBRANCH   1  12
TORSDOF 15
ENDMDL
MODEL 2
REMARK VINA RESULT:    -4.778      2.251      4.114
REMARK INTER + INTRA:         -10.267
REMARK INTER:                  -9.272
REMARK INTRA:                  -0.994
REMARK UNBOUND:                -1.300
REMARK SMILES CCCCCC=CCC=CCCCCCCCC(=O)OC
REMARK SMILES IDX 11 1 10 2 9 3 8 4 7 5 6 6 5 7 4 8 3 9 2 10 1 11 12 12 13 13
REMARK SMILES IDX 14 14 15 15 16 16 17 17 18 18 19 19 20 20 21 21
REMARK H PARENT
REMARK Flexibility Score: inf
ROOT
ATOM      1  C   UNL     1      40.377   6.799   2.273  1.00  0.00     0.027 C 
ENDROOT
BRANCH   1   2
ATOM      2  C   UNL     1      40.896   7.221   0.926  1.00  0.00    -0.031 C 
ATOM      3  C   UNL     1      41.259   8.489   0.680  1.00  0.00    -0.027 C 
BRANCH   3   4
ATOM      4  C   UNL     1      41.792   8.908  -0.662  1.00  0.00     0.054 C 
BRANCH   4   5
ATOM      5  C   UNL     1      40.676   9.147  -1.640  1.00  0.00    -0.027 C 
ATOM      6  C   UNL     1      40.773   8.761  -2.921  1.00  0.00    -0.031 C 
BRANCH   6   7
ATOM      7  C   UNL     1      39.677   9.035  -3.916  1.00  0.00     0.027 C 
BRANCH   7   8
ATOM      8  C   UNL     1      40.123   8.721  -5.352  1.00  0.00     0.004 C 
BRANCH   8   9
ATOM      9  C   UNL     1      39.074   7.967  -6.188  1.00  0.00     0.000 C 
BRANCH   9  10
ATOM     10  C   UNL     1      39.677   7.286  -7.425  1.00  0.00    -0.003 C 
ATOM     11  C   UNL     1      39.142   5.866  -7.586  1.00  0.00     0.004 C 
ENDBRANCH   9  10
ENDBRANCH   8   9
ENDBRANCH   7   8
ENDBRANCH   6   7
ENDBRANCH   4   5
ENDBRANCH   3   4
ENDBRANCH   1   2
BRANCH   1  12
ATOM     12  C   UNL     1      40.433   7.959   3.275  1.00  0.00     0.004 C 
BRANCH  12  13
ATOM     13  C   UNL     1      39.184   7.976   4.165  1.00  0.00     0.000 C 
BRANCH  13  14
ATOM     14  C   UNL     1      38.130   6.987   3.653  1.00  0.00     0.000 C 
BRANCH  14  15
ATOM     15  C   UNL     1      36.820   7.124   4.442  1.00  0.00     0.001 C 
BRANCH  15  16
ATOM     16  C   UNL     1      36.882   8.236   5.501  1.00  0.00     0.012 C 
BRANCH  16  17
ATOM     17  C   UNL     1      35.584   9.048   5.579  1.00  0.00     0.123 C 
BRANCH  17  18
ATOM     18  C   UNL     1      35.560  10.090   4.506  1.00  0.00     0.305 C 
ATOM     19  O   UNL     1      36.556  10.848   4.343  1.00  0.00    -0.252 OA
BRANCH  18  20
ATOM     20  O   UNL     1      34.412  10.242   3.721  1.00  0.00    -0.469 OA
ATOM     21  C   UNL     1      34.313   9.725   2.401  1.00  0.00     0.282 C 
ENDBRANCH  18  20
ENDBRANCH  17  18
ENDBRANCH  16  17
ENDBRANCH  15  16
ENDBRANCH  14  15
ENDBRANCH  13  14
ENDBRANCH  12  13
ENDBRANCH   1  12
TORSDOF 15
ENDMDL
MODEL 3
REMARK VINA RESULT:    -4.703      3.146      7.472
REMARK INTER + INTRA:         -10.127
REMARK INTER:                  -8.536
REMARK INTRA:                  -1.591
REMARK UNBOUND:                -1.300
REMARK SMILES CCCCCC=CCC=CCCCCCCCC(=O)OC
REMARK SMILES IDX 11 1 10 2 9 3 8 4 7 5 6 6 5 7 4 8 3 9 2 10 1 11 12 12 13 13
REMARK SMILES IDX 14 14 15 15 16 16 17 17 18 18 19 19 20 20 21 21
REMARK H PARENT
REMARK Flexibility Score: inf
ROOT
ATOM      1  C   UNL     1      40.394   7.974   3.871  1.00  0.00     0.027 C 
ENDROOT
BRANCH   1   2
ATOM      2  C   UNL     1      38.974   7.614   3.531  1.00  0.00    -0.031 C 
ATOM      3  C   UNL     1      38.162   7.039   4.432  1.00  0.00    -0.027 C 
BRANCH   3   4
ATOM      4  C   UNL     1      36.738   6.693   4.097  1.00  0.00     0.054 C 
BRANCH   4   5
ATOM      5  C   UNL     1      35.860   7.912   4.120  1.00  0.00    -0.027 C 
ATOM      6  C   UNL     1      35.834   8.736   5.179  1.00  0.00    -0.031 C 
BRANCH   6   7
ATOM      7  C   UNL     1      34.926   9.936   5.226  1.00  0.00     0.027 C 
BRANCH   7   8
ATOM      8  C   UNL     1      35.194  10.897   4.058  1.00  0.00     0.004 C 
BRANCH   8   9
ATOM      9  C   UNL     1      33.940  11.616   3.530  1.00  0.00     0.000 C 
BRANCH   9  10
ATOM     10  C   UNL     1      33.718  11.395   2.027  1.00  0.00    -0.003 C 
ATOM     11  C   UNL     1      33.917   9.929   1.651  1.00  0.00     0.004 C 
ENDBRANCH   9  10
ENDBRANCH   8   9
ENDBRANCH   7   8
ENDBRANCH   6   7
ENDBRANCH   4   5
ENDBRANCH   3   4
ENDBRANCH   1   2
BRANCH   1  12
ATOM     12  C   UNL     1      40.450   9.208   4.779  1.00  0.00     0.004 C 
BRANCH  12  13
ATOM     13  C   UNL     1      39.944  10.454   4.043  1.00  0.00     0.000 C 
BRANCH  13  14
ATOM     14  C   UNL     1      41.110  11.259   3.456  1.00  0.00     0.000 C 
BRANCH  14  15
ATOM     15  C   UNL     1      40.922  11.479   1.948  1.00  0.00     0.001 C 
BRANCH  15  16
ATOM     16  C   UNL     1      41.604  10.391   1.103  1.00  0.00     0.012 C 
BRANCH  16  17
ATOM     17  C   UNL     1      41.000  10.271  -0.301  1.00  0.00     0.123 C 
BRANCH  17  18
ATOM     18  C   UNL     1      41.282   8.917  -0.872  1.00  0.00     0.305 C 
ATOM     19  O   UNL     1      41.224   7.898  -0.130  1.00  0.00    -0.252 OA
BRANCH  18  20
ATOM     20  O   UNL     1      41.650   8.801  -2.216  1.00  0.00    -0.469 OA
ATOM     21  C   UNL     1      43.008   8.763  -2.637  1.00  0.00     0.282 C 
ENDBRANCH  18  20
ENDBRANCH  17  18
ENDBRANCH  16  17
ENDBRANCH  15  16
ENDBRANCH  14  15
ENDBRANCH  13  14
ENDBRANCH  12  13
ENDBRANCH   1  12
TORSDOF 15
ENDMDL
MODEL 4
REMARK VINA RESULT:    -4.696      1.693      2.243
REMARK INTER + INTRA:         -10.114
REMARK INTER:                  -8.280
REMARK INTRA:                  -1.835
REMARK UNBOUND:                -1.300
REMARK SMILES CCCCCC=CCC=CCCCCCCCC(=O)OC
REMARK SMILES IDX 11 1 10 2 9 3 8 4 7 5 6 6 5 7 4 8 3 9 2 10 1 11 12 12 13 13
REMARK SMILES IDX 14 14 15 15 16 16 17 17 18 18 19 19 20 20 21 21
REMARK H PARENT
REMARK Flexibility Score: inf
ROOT
ATOM      1  C   UNL     1      37.829   6.701   4.098  1.00  0.00     0.027 C 
ENDROOT
BRANCH   1   2
ATOM      2  C   UNL     1      38.799   7.847   4.016  1.00  0.00    -0.031 C 
ATOM      3  C   UNL     1      39.225   8.484   5.118  1.00  0.00    -0.027 C 
BRANCH   3   4
ATOM      4  C   UNL     1      40.206   9.620   5.038  1.00  0.00     0.054 C 
BRANCH   4   5
ATOM      5  C   UNL     1      40.491   9.995   3.611  1.00  0.00    -0.027 C 
ATOM      6  C   UNL     1      40.529  11.277   3.218  1.00  0.00    -0.031 C 
BRANCH   6   7
ATOM      7  C   UNL     1      40.772  11.657   1.781  1.00  0.00     0.027 C 
BRANCH   7   8
ATOM      8  C   UNL     1      41.555  10.569   1.031  1.00  0.00     0.004 C 
BRANCH   8   9
ATOM      9  C   UNL     1      41.127  10.381  -0.435  1.00  0.00     0.000 C 
BRANCH   9  10
ATOM     10  C   UNL     1      41.036   8.903  -0.842  1.00  0.00    -0.003 C 
ATOM     11  C   UNL     1      41.762   8.011   0.161  1.00  0.00     0.004 C 
ENDBRANCH   9  10
ENDBRANCH   8   9
ENDBRANCH   7   8
ENDBRANCH   6   7
ENDBRANCH   4   5
ENDBRANCH   3   4
ENDBRANCH   1   2
BRANCH   1  12
ATOM     12  C   UNL     1      36.433   7.122   3.621  1.00  0.00     0.004 C 
BRANCH  12  13
ATOM     13  C   UNL     1      35.386   6.890   4.717  1.00  0.00     0.000 C 
BRANCH  13  14
ATOM     14  C   UNL     1      34.732   8.210   5.143  1.00  0.00     0.000 C 
BRANCH  14  15
ATOM     15  C   UNL     1      35.727   9.092   5.911  1.00  0.00     0.001 C 
BRANCH  15  16
ATOM     16  C   UNL     1      36.023  10.416   5.189  1.00  0.00     0.012 C 
BRANCH  16  17
ATOM     17  C   UNL     1      35.265  10.546   3.863  1.00  0.00     0.123 C 
BRANCH  17  18
ATOM     18  C   UNL     1      34.170  11.559   3.988  1.00  0.00     0.305 C 
ATOM     19  O   UNL     1      33.963  12.125   5.096  1.00  0.00    -0.252 OA
BRANCH  18  20
ATOM     20  O   UNL     1      33.359  11.834   2.882  1.00  0.00    -0.469 OA
ATOM     21  C   UNL     1      33.195  10.920   1.806  1.00  0.00     0.282 C 
ENDBRANCH  18  20
ENDBRANCH  17  18
ENDBRANCH  16  17
ENDBRANCH  15  16
ENDBRANCH  14  15
ENDBRANCH  13  14
ENDBRANCH  12  13
ENDBRANCH   1  12
TORSDOF 15
ENDMDL
MODEL 5
REMARK VINA RESULT:    -4.689      2.313      4.025
REMARK INTER + INTRA:         -10.100
REMARK INTER:                  -8.389
REMARK INTRA:                  -1.711
REMARK UNBOUND:                -1.300
REMARK SMILES CCCCCC=CCC=CCCCCCCCC(=O)OC
REMARK SMILES IDX 11 1 10 2 9 3 8 4 7 5 6 6 5 7 4 8 3 9 2 10 1 11 12 12 13 13
REMARK SMILES IDX 14 14 15 15 16 16 17 17 18 18 19 19 20 20 21 21
REMARK H PARENT
REMARK Flexibility Score: inf
ROOT
ATOM      1  C   UNL     1      38.869   9.700   5.060  1.00  0.00     0.027 C 
ENDROOT
BRANCH   1   2
ATOM      2  C   UNL     1      39.998  10.230   4.219  1.00  0.00    -0.031 C 
ATOM      3  C   UNL     1      39.934  11.440   3.642  1.00  0.00    -0.027 C 
BRANCH   3   4
ATOM      4  C   UNL     1      41.068  11.976   2.814  1.00  0.00     0.054 C 
BRANCH   4   5
ATOM      5  C   UNL     1      40.867  11.676   1.355  1.00  0.00    -0.027 C 
ATOM      6  C   UNL     1      41.320  10.540   0.805  1.00  0.00    -0.031 C 
BRANCH   6   7
ATOM      7  C   UNL     1      41.159  10.253  -0.665  1.00  0.00     0.027 C 
BRANCH   7   8
ATOM      8  C   UNL     1      41.356   8.762  -0.976  1.00  0.00     0.004 C 
BRANCH   8   9
ATOM      9  C   UNL     1      41.849   7.926   0.218  1.00  0.00     0.000 C 
BRANCH   9  10
ATOM     10  C   UNL     1      40.801   6.920   0.713  1.00  0.00    -0.003 C 
ATOM     11  C   UNL     1      40.547   7.082   2.209  1.00  0.00     0.004 C 
ENDBRANCH   9  10
ENDBRANCH   8   9
ENDBRANCH   7   8
ENDBRANCH   6   7
ENDBRANCH   4   5
ENDBRANCH   3   4
ENDBRANCH   1   2
BRANCH   1  12
ATOM     12  C   UNL     1      38.384  10.754   6.063  1.00  0.00     0.004 C 
BRANCH  12  13
ATOM     13  C   UNL     1      36.864  10.937   5.975  1.00  0.00     0.000 C 
BRANCH  13  14
ATOM     14  C   UNL     1      36.324  10.420   4.636  1.00  0.00     0.000 C 
BRANCH  14  15
ATOM     15  C   UNL     1      35.091   9.531   4.848  1.00  0.00     0.001 C 
BRANCH  15  16
ATOM     16  C   UNL     1      35.003   8.973   6.277  1.00  0.00     0.012 C 
BRANCH  16  17
ATOM     17  C   UNL     1      35.340   7.479   6.348  1.00  0.00     0.123 C 
BRANCH  17  18
ATOM     18  C   UNL     1      34.857   6.780   5.117  1.00  0.00     0.305 C 
ATOM     19  O   UNL     1      33.636   6.481   5.002  1.00  0.00    -0.252 OA
BRANCH  18  20
ATOM     20  O   UNL     1      35.775   6.425   4.123  1.00  0.00    -0.469 OA
ATOM     21  C   UNL     1      37.180   6.431   4.341  1.00  0.00     0.282 C 
ENDBRANCH  18  20
ENDBRANCH  17  18
ENDBRANCH  16  17
ENDBRANCH  15  16
ENDBRANCH  14  15
ENDBRANCH  13  14
ENDBRANCH  12  13
ENDBRANCH   1  12
TORSDOF 15
ENDMDL
MODEL 6
REMARK VINA RESULT:    -4.665      2.108      3.500
REMARK INTER + INTRA:         -10.056
REMARK INTER:                  -8.326
REMARK INTRA:                  -1.730
REMARK UNBOUND:                -1.300
REMARK SMILES CCCCCC=CCC=CCCCCCCCC(=O)OC
REMARK SMILES IDX 11 1 10 2 9 3 8 4 7 5 6 6 5 7 4 8 3 9 2 10 1 11 12 12 13 13
REMARK SMILES IDX 14 14 15 15 16 16 17 17 18 18 19 19 20 20 21 21
REMARK H PARENT
REMARK Flexibility Score: inf
ROOT
ATOM      1  C   UNL     1      40.740   8.770   5.449  1.00  0.00     0.027 C 
ENDROOT
BRANCH   1   2
ATOM      2  C   UNL     1      40.578   9.780   4.347  1.00  0.00    -0.031 C 
ATOM      3  C   UNL     1      40.937  11.062   4.514  1.00  0.00    -0.027 C 
BRANCH   3   4
ATOM      4  C   UNL     1      40.789  12.069   3.407  1.00  0.00     0.054 C 
BRANCH   4   5
ATOM      5  C   UNL     1      40.935  11.423   2.058  1.00  0.00    -0.027 C 
ATOM      6  C   UNL     1      41.966  11.712   1.251  1.00  0.00    -0.031 C 
BRANCH   6   7
ATOM      7  C   UNL     1      42.096  11.100  -0.118  1.00  0.00     0.027 C 
BRANCH   7   8
ATOM      8  C   UNL     1      40.867  10.253  -0.479  1.00  0.00     0.004 C 
BRANCH   8   9
ATOM      9  C   UNL     1      41.201   8.850  -1.015  1.00  0.00     0.000 C 
BRANCH   9  10
ATOM     10  C   UNL     1      41.911   7.971   0.025  1.00  0.00    -0.003 C 
ATOM     11  C   UNL     1      40.932   7.472   1.084  1.00  0.00     0.004 C 
ENDBRANCH   9  10
ENDBRANCH   8   9
ENDBRANCH   7   8
ENDBRANCH   6   7
ENDBRANCH   4   5
ENDBRANCH   3   4
ENDBRANCH   1   2
BRANCH   1  12
ATOM     12  C   UNL     1      39.424   8.028   5.718  1.00  0.00     0.004 C 
BRANCH  12  13
ATOM     13  C   UNL     1      38.423   8.257   4.579  1.00  0.00     0.000 C 
BRANCH  13  14
ATOM     14  C   UNL     1      38.222   6.977   3.758  1.00  0.00     0.000 C 
BRANCH  14  15
ATOM     15  C   UNL     1      36.733   6.617   3.659  1.00  0.00     0.001 C 
BRANCH  15  16
ATOM     16  C   UNL     1      35.820   7.720   4.218  1.00  0.00     0.012 C 
BRANCH  16  17
ATOM     17  C   UNL     1      34.740   8.153   3.221  1.00  0.00     0.123 C 
BRANCH  17  18
ATOM     18  C   UNL     1      34.455   9.615   3.367  1.00  0.00     0.305 C 
ATOM     19  O   UNL     1      34.799  10.219   4.420  1.00  0.00    -0.252 OA
BRANCH  18  20
ATOM     20  O   UNL     1      33.770  10.287   2.349  1.00  0.00    -0.469 OA
ATOM     21  C   UNL     1      34.010  11.652   2.037  1.00  0.00     0.282 C 
ENDBRANCH  18  20
ENDBRANCH  17  18
ENDBRANCH  16  17
ENDBRANCH  15  16
ENDBRANCH  14  15
ENDBRANCH  13  14
ENDBRANCH  12  13
ENDBRANCH   1  12
TORSDOF 15
ENDMDL
MODEL 7
REMARK VINA RESULT:    -4.580      6.886     12.318
REMARK INTER + INTRA:          -9.895
REMARK INTER:                  -9.105
REMARK INTRA:                  -0.790
REMARK UNBOUND:                -1.300
REMARK SMILES CCCCCC=CCC=CCCCCCCCC(=O)OC
REMARK SMILES IDX 11 1 10 2 9 3 8 4 7 5 6 6 5 7 4 8 3 9 2 10 1 11 12 12 13 13
REMARK SMILES IDX 14 14 15 15 16 16 17 17 18 18 19 19 20 20 21 21
REMARK H PARENT
REMARK Flexibility Score: inf
ROOT
ATOM      1  C   UNL     1      40.657   7.557  -8.008  1.00  0.00     0.027 C 
ENDROOT
BRANCH   1   2
ATOM      2  C   UNL     1      39.725   7.931  -6.889  1.00  0.00    -0.031 C 
ATOM      3  C   UNL     1      40.188   8.377  -5.711  1.00  0.00    -0.027 C 
BRANCH   3   4
ATOM      4  C   UNL     1      39.256   8.764  -4.596  1.00  0.00     0.054 C 
BRANCH   4   5
ATOM      5  C   UNL     1      40.016   9.132  -3.353  1.00  0.00    -0.027 C 
ATOM      6  C   UNL     1      41.270   8.703  -3.147  1.00  0.00    -0.031 C 
BRANCH   6   7
ATOM      7  C   UNL     1      42.022   9.033  -1.885  1.00  0.00     0.027 C 
BRANCH   7   8
ATOM      8  C   UNL     1      41.085   9.557  -0.787  1.00  0.00     0.004 C 
BRANCH   8   9
ATOM      9  C   UNL     1      41.300   8.907   0.592  1.00  0.00     0.000 C 
BRANCH   9  10
ATOM     10  C   UNL     1      41.057   7.392   0.578  1.00  0.00    -0.003 C 
ATOM     11  C   UNL     1      40.643   6.890   1.959  1.00  0.00     0.004 C 
ENDBRANCH   9  10
ENDBRANCH   8   9
ENDBRANCH   7   8
ENDBRANCH   6   7
ENDBRANCH   4   5
ENDBRANCH   3   4
ENDBRANCH   1   2
BRANCH   1  12
ATOM     12  C   UNL     1      39.902   7.430  -9.337  1.00  0.00     0.004 C 
BRANCH  12  13
ATOM     13  C   UNL     1      40.230   6.102 -10.030  1.00  0.00     0.000 C 
BRANCH  13  14
ATOM     14  C   UNL     1      40.135   4.930  -9.046  1.00  0.00     0.000 C 
BRANCH  14  15
ATOM     15  C   UNL     1      40.789   3.669  -9.629  1.00  0.00     0.001 C 
BRANCH  15  16
ATOM     16  C   UNL     1      40.640   2.447  -8.710  1.00  0.00     0.012 C 
BRANCH  16  17
ATOM     17  C   UNL     1      41.046   2.746  -7.262  1.00  0.00     0.123 C 
BRANCH  17  18
ATOM     18  C   UNL     1      42.516   2.533  -7.081  1.00  0.00     0.305 C 
ATOM     19  O   UNL     1      43.297   2.687  -8.060  1.00  0.00    -0.252 OA
BRANCH  18  20
ATOM     20  O   UNL     1      43.004   2.123  -5.836  1.00  0.00    -0.469 OA
ATOM     21  C   UNL     1      42.747   0.831  -5.302  1.00  0.00     0.282 C 
ENDBRANCH  18  20
ENDBRANCH  17  18
ENDBRANCH  16  17
ENDBRANCH  15  16
ENDBRANCH  14  15
ENDBRANCH  13  14
ENDBRANCH  12  13
ENDBRANCH   1  12
TORSDOF 15
ENDMDL
MODEL 8
REMARK VINA RESULT:    -4.567      2.254      3.371
REMARK INTER + INTRA:          -9.871
REMARK INTER:                  -8.076
REMARK INTRA:                  -1.795
REMARK UNBOUND:                -1.300
REMARK SMILES CCCCCC=CCC=CCCCCCCCC(=O)OC
REMARK SMILES IDX 11 1 10 2 9 3 8 4 7 5 6 6 5 7 4 8 3 9 2 10 1 11 12 12 13 13
REMARK SMILES IDX 14 14 15 15 16 16 17 17 18 18 19 19 20 20 21 21
REMARK H PARENT
REMARK Flexibility Score: inf
ROOT
ATOM      1  C   UNL     1      38.837   9.594   4.962  1.00  0.00     0.027 C 
ENDROOT
BRANCH   1   2
ATOM      2  C   UNL     1      40.104  10.277   4.526  1.00  0.00    -0.031 C 
ATOM      3  C   UNL     1      40.126  11.105   3.469  1.00  0.00    -0.027 C 
BRANCH   3   4
ATOM      4  C   UNL     1      41.389  11.799   3.042  1.00  0.00     0.054 C 
BRANCH   4   5
ATOM      5  C   UNL     1      41.821  11.353   1.673  1.00  0.00    -0.027 C 
ATOM      6  C   UNL     1      40.939  10.874   0.784  1.00  0.00    -0.031 C 
BRANCH   6   7
ATOM      7  C   UNL     1      41.371  10.386  -0.574  1.00  0.00     0.027 C 
BRANCH   7   8
ATOM      8  C   UNL     1      41.057   8.895  -0.767  1.00  0.00     0.004 C 
BRANCH   8   9
ATOM      9  C   UNL     1      41.749   7.966   0.246  1.00  0.00     0.000 C 
BRANCH   9  10
ATOM     10  C   UNL     1      40.787   6.949   0.874  1.00  0.00    -0.003 C 
ATOM     11  C   UNL     1      40.582   7.232   2.360  1.00  0.00     0.004 C 
ENDBRANCH   9  10
ENDBRANCH   8   9
ENDBRANCH   7   8
ENDBRANCH   6   7
ENDBRANCH   4   5
ENDBRANCH   3   4
ENDBRANCH   1   2
BRANCH   1  12
ATOM     12  C   UNL     1      38.862   9.288   6.464  1.00  0.00     0.004 C 
BRANCH  12  13
ATOM     13  C   UNL     1      37.602   9.823   7.154  1.00  0.00     0.000 C 
BRANCH  13  14
ATOM     14  C   UNL     1      37.015  11.012   6.383  1.00  0.00     0.000 C 
BRANCH  14  15
ATOM     15  C   UNL     1      35.497  11.110   6.599  1.00  0.00     0.001 C 
BRANCH  15  16
ATOM     16  C   UNL     1      34.725  11.295   5.284  1.00  0.00     0.012 C 
BRANCH  16  17
ATOM     17  C   UNL     1      35.459  10.695   4.079  1.00  0.00     0.123 C 
BRANCH  17  18
ATOM     18  C   UNL     1      34.621   9.636   3.436  1.00  0.00     0.305 C 
ATOM     19  O   UNL     1      34.343   8.582   4.072  1.00  0.00    -0.252 OA
BRANCH  18  20
ATOM     20  O   UNL     1      34.190   9.808   2.116  1.00  0.00    -0.469 OA
ATOM     21  C   UNL     1      33.113  10.668   1.768  1.00  0.00     0.282 C 
ENDBRANCH  18  20
ENDBRANCH  17  18
ENDBRANCH  16  17
ENDBRANCH  15  16
ENDBRANCH  14  15
ENDBRANCH  13  14
ENDBRANCH  12  13
ENDBRANCH   1  12
TORSDOF 15
ENDMDL
MODEL 9
REMARK VINA RESULT:    -4.529      2.700      4.787
REMARK INTER + INTRA:          -9.799
REMARK INTER:                  -8.386
REMARK INTRA:                  -1.414
REMARK UNBOUND:                -1.300
REMARK SMILES CCCCCC=CCC=CCCCCCCCC(=O)OC
REMARK SMILES IDX 11 1 10 2 9 3 8 4 7 5 6 6 5 7 4 8 3 9 2 10 1 11 12 12 13 13
REMARK SMILES IDX 14 14 15 15 16 16 17 17 18 18 19 19 20 20 21 21
REMARK H PARENT
REMARK Flexibility Score: inf
ROOT
ATOM      1  C   UNL     1      34.664  11.346   5.483  1.00  0.00     0.027 C 
ENDROOT
BRANCH   1   2
ATOM      2  C   UNL     1      36.102  11.646   5.805  1.00  0.00    -0.031 C 
ATOM      3  C   UNL     1      37.107  11.018   5.175  1.00  0.00    -0.027 C 
BRANCH   3   4
ATOM      4  C   UNL     1      38.545  11.329   5.487  1.00  0.00     0.054 C 
BRANCH   4   5
ATOM      5  C   UNL     1      39.451  10.897   4.368  1.00  0.00    -0.027 C 
ATOM      6  C   UNL     1      39.998  11.788   3.528  1.00  0.00    -0.031 C 
BRANCH   6   7
ATOM      7  C   UNL     1      40.872  11.359   2.379  1.00  0.00     0.027 C 
BRANCH   7   8
ATOM      8  C   UNL     1      40.456  12.036   1.065  1.00  0.00     0.004 C 
BRANCH   8   9
ATOM      9  C   UNL     1      40.719  11.191  -0.193  1.00  0.00     0.000 C 
BRANCH   9  10
ATOM     10  C   UNL     1      41.292   9.804   0.132  1.00  0.00    -0.003 C 
ATOM     11  C   UNL     1      41.069   8.833  -1.024  1.00  0.00     0.004 C 
ENDBRANCH   9  10
ENDBRANCH   8   9
ENDBRANCH   7   8
ENDBRANCH   6   7
ENDBRANCH   4   5
ENDBRANCH   3   4
ENDBRANCH   1   2
BRANCH   1  12
ATOM     12  C   UNL     1      34.200  12.124   4.245  1.00  0.00     0.004 C 
BRANCH  12  13
ATOM     13  C   UNL     1      33.593  11.180   3.200  1.00  0.00     0.000 C 
BRANCH  13  14
ATOM     14  C   UNL     1      34.669  10.281   2.579  1.00  0.00     0.000 C 
BRANCH  14  15
ATOM     15  C   UNL     1      34.343   8.798   2.806  1.00  0.00     0.001 C 
BRANCH  15  16
ATOM     16  C   UNL     1      35.313   8.125   3.790  1.00  0.00     0.012 C 
BRANCH  16  17
ATOM     17  C   UNL     1      34.627   7.065   4.661  1.00  0.00     0.123 C 
BRANCH  17  18
ATOM     18  C   UNL     1      35.651   6.208   5.337  1.00  0.00     0.305 C 
ATOM     19  O   UNL     1      36.811   6.113   4.849  1.00  0.00    -0.252 OA
BRANCH  18  20
ATOM     20  O   UNL     1      35.295   5.486   6.481  1.00  0.00    -0.469 OA
ATOM     21  C   UNL     1      35.280   4.065   6.514  1.00  0.00     0.282 C 
ENDBRANCH  18  20
ENDBRANCH  17  18
ENDBRANCH  16  17
ENDBRANCH  15  16
ENDBRANCH  14  15
ENDBRANCH  13  14
ENDBRANCH  12  13
ENDBRANCH   1  12
TORSDOF 15
ENDMDL
