MODEL 1
REMARK VINA RESULT:    -4.159      0.000      0.000
REMARK INTER + INTRA:          -5.477
REMARK INTER:                  -5.131
REMARK INTRA:                  -0.346
REMARK UNBOUND:                -0.346
REMARK SMILES C=CC[C@@H](C)C(=O)CC
REMARK SMILES IDX 4 1 5 2 6 3 7 4 8 5 9 6 3 7 2 8 1 9
REMARK H PARENT
REMARK Flexibility Score: inf
ROOT
ATOM      1  C   UNL     1      -4.509 -15.217  -6.432  1.00  0.00     0.057 C 
ATOM      2  C   UNL     1      -4.376 -15.776  -7.853  1.00  0.00     0.016 C 
ENDROOT
BRANCH   1   3
ATOM      3  C   UNL     1      -4.220 -16.304  -5.417  1.00  0.00     0.135 C 
ATOM      4  O   UNL     1      -4.713 -16.237  -4.300  1.00  0.00    -0.299 OA
BRANCH   3   5
ATOM      5  C   UNL     1      -3.347 -17.480  -5.765  1.00  0.00     0.072 C 
ATOM      6  C   UNL     1      -4.060 -18.793  -5.461  1.00  0.00     0.012 C 
ENDBRANCH   3   5
ENDBRANCH   1   3
BRANCH   1   7
ATOM      7  C   UNL     1      -3.571 -14.008  -6.236  1.00  0.00     0.038 C 
BRANCH   7   8
ATOM      8  C   UNL     1      -2.313 -14.128  -7.056  1.00  0.00    -0.034 C 
ATOM      9  C   UNL     1      -1.146 -14.482  -6.510  1.00  0.00     0.004 C 
ENDBRANCH   7   8
ENDBRANCH   1   7
TORSDOF 4
ENDMDL
MODEL 2
REMARK VINA RESULT:    -4.157      2.332      3.284
REMARK INTER + INTRA:          -5.475
REMARK INTER:                  -5.008
REMARK INTRA:                  -0.467
REMARK UNBOUND:                -0.346
REMARK SMILES C=CC[C@@H](C)C(=O)CC
REMARK SMILES IDX 4 1 5 2 6 3 7 4 8 5 9 6 3 7 2 8 1 9
REMARK H PARENT
REMARK Flexibility Score: inf
ROOT
ATOM      1  C   UNL     1      -5.634 -13.837  -7.498  1.00  0.00     0.057 C 
ATOM      2  C   UNL     1      -5.912 -14.275  -8.940  1.00  0.00     0.016 C 
ENDROOT
BRANCH   1   3
ATOM      3  C   UNL     1      -4.577 -14.730  -6.879  1.00  0.00     0.135 C 
ATOM      4  O   UNL     1      -4.735 -15.161  -5.747  1.00  0.00    -0.299 OA
BRANCH   3   5
ATOM      5  C   UNL     1      -3.336 -15.110  -7.644  1.00  0.00     0.072 C 
ATOM      6  C   UNL     1      -2.109 -14.418  -7.061  1.00  0.00     0.012 C 
ENDBRANCH   3   5
ENDBRANCH   1   3
BRANCH   1   7
ATOM      7  C   UNL     1      -5.207 -12.356  -7.455  1.00  0.00     0.038 C 
BRANCH   7   8
ATOM      8  C   UNL     1      -4.862 -11.825  -8.823  1.00  0.00    -0.034 C 
ATOM      9  C   UNL     1      -3.631 -11.401  -9.125  1.00  0.00     0.004 C 
ENDBRANCH   7   8
ENDBRANCH   1   7
TORSDOF 4
ENDMDL
MODEL 3
REMARK VINA RESULT:    -4.050      1.852      3.347
REMARK INTER + INTRA:          -5.343
REMARK INTER:                  -4.911
REMARK INTRA:                  -0.432
REMARK UNBOUND:                -0.346
REMARK SMILES C=CC[C@@H](C)C(=O)CC
REMARK SMILES IDX 4 1 5 2 6 3 7 4 8 5 9 6 3 7 2 8 1 9
REMARK H PARENT
REMARK Flexibility Score: inf
ROOT
ATOM      1  C   UNL     1      -3.481 -15.392  -7.201  1.00  0.00     0.057 C 
ATOM      2  C   UNL     1      -3.094 -15.788  -5.772  1.00  0.00     0.016 C 
ENDROOT
BRANCH   1   3
ATOM      3  C   UNL     1      -4.933 -14.961  -7.246  1.00  0.00     0.135 C 
ATOM      4  O   UNL     1      -5.533 -14.744  -6.203  1.00  0.00    -0.299 OA
BRANCH   3   5
ATOM      5  C   UNL     1      -5.650 -14.778  -8.558  1.00  0.00     0.072 C 
ATOM      6  C   UNL     1      -6.059 -13.322  -8.752  1.00  0.00     0.012 C 
ENDBRANCH   3   5
ENDBRANCH   1   3
BRANCH   1   7
ATOM      7  C   UNL     1      -2.553 -14.276  -7.723  1.00  0.00     0.038 C 
BRANCH   7   8
ATOM      8  C   UNL     1      -2.634 -13.030  -6.880  1.00  0.00    -0.034 C 
ATOM      9  C   UNL     1      -3.009 -11.855  -7.393  1.00  0.00     0.004 C 
ENDBRANCH   7   8
ENDBRANCH   1   7
TORSDOF 4
ENDMDL
MODEL 4
REMARK VINA RESULT:    -4.035      1.954      3.648
REMARK INTER + INTRA:          -5.324
REMARK INTER:                  -4.901
REMARK INTRA:                  -0.423
REMARK UNBOUND:                -0.346
REMARK SMILES C=CC[C@@H](C)C(=O)CC
REMARK SMILES IDX 4 1 5 2 6 3 7 4 8 5 9 6 3 7 2 8 1 9
REMARK H PARENT
REMARK Flexibility Score: inf
ROOT
ATOM      1  C   UNL     1      -3.977 -14.747  -7.812  1.00  0.00     0.057 C 
ATOM      2  C   UNL     1      -4.693 -15.466  -8.960  1.00  0.00     0.016 C 
ENDROOT
BRANCH   1   3
ATOM      3  C   UNL     1      -4.892 -13.705  -7.201  1.00  0.00     0.135 C 
ATOM      4  O   UNL     1      -5.522 -13.971  -6.187  1.00  0.00    -0.299 OA
BRANCH   3   5
ATOM      5  C   UNL     1      -5.029 -12.336  -7.813  1.00  0.00     0.072 C 
ATOM      6  C   UNL     1      -3.662 -11.771  -8.184  1.00  0.00     0.012 C 
ENDBRANCH   3   5
ENDBRANCH   1   3
BRANCH   1   7
ATOM      7  C   UNL     1      -3.501 -15.761  -6.752  1.00  0.00     0.038 C 
BRANCH   7   8
ATOM      8  C   UNL     1      -2.224 -15.325  -6.081  1.00  0.00    -0.034 C 
ATOM      9  C   UNL     1      -1.399 -14.439  -6.646  1.00  0.00     0.004 C 
ENDBRANCH   7   8
ENDBRANCH   1   7
TORSDOF 4
ENDMDL
MODEL 5
REMARK VINA RESULT:    -4.010      2.322      3.829
REMARK INTER + INTRA:          -5.293
REMARK INTER:                  -4.978
REMARK INTRA:                  -0.315
REMARK UNBOUND:                -0.346
REMARK SMILES C=CC[C@@H](C)C(=O)CC
REMARK SMILES IDX 4 1 5 2 6 3 7 4 8 5 9 6 3 7 2 8 1 9
REMARK H PARENT
REMARK Flexibility Score: inf
ROOT
ATOM      1  C   UNL     1      -3.466 -12.810  -7.273  1.00  0.00     0.057 C 
ATOM      2  C   UNL     1      -3.176 -11.519  -8.046  1.00  0.00     0.016 C 
ENDROOT
BRANCH   1   3
ATOM      3  C   UNL     1      -4.948 -13.121  -7.318  1.00  0.00     0.135 C 
ATOM      4  O   UNL     1      -5.529 -13.458  -6.297  1.00  0.00    -0.299 OA
BRANCH   3   5
ATOM      5  C   UNL     1      -5.727 -13.007  -8.602  1.00  0.00     0.072 C 
ATOM      6  C   UNL     1      -6.115 -14.386  -9.125  1.00  0.00     0.012 C 
ENDBRANCH   3   5
ENDBRANCH   1   3
BRANCH   1   7
ATOM      7  C   UNL     1      -2.634 -13.979  -7.840  1.00  0.00     0.038 C 
BRANCH   7   8
ATOM      8  C   UNL     1      -1.869 -14.705  -6.765  1.00  0.00    -0.034 C 
ATOM      9  C   UNL     1      -2.464 -15.566  -5.934  1.00  0.00     0.004 C 
ENDBRANCH   7   8
ENDBRANCH   1   7
TORSDOF 4
ENDMDL
MODEL 6
REMARK VINA RESULT:    -3.995      1.359      2.759
REMARK INTER + INTRA:          -5.275
REMARK INTER:                  -4.890
REMARK INTRA:                  -0.386
REMARK UNBOUND:                -0.346
REMARK SMILES C=CC[C@@H](C)C(=O)CC
REMARK SMILES IDX 4 1 5 2 6 3 7 4 8 5 9 6 3 7 2 8 1 9
REMARK H PARENT
REMARK Flexibility Score: inf
ROOT
ATOM      1  C   UNL     1      -2.683 -15.153  -6.926  1.00  0.00     0.057 C 
ATOM      2  C   UNL     1      -1.355 -14.457  -6.606  1.00  0.00     0.016 C 
ENDROOT
BRANCH   1   3
ATOM      3  C   UNL     1      -3.603 -15.094  -5.723  1.00  0.00     0.135 C 
ATOM      4  O   UNL     1      -3.783 -14.030  -5.149  1.00  0.00    -0.299 OA
BRANCH   3   5
ATOM      5  C   UNL     1      -4.315 -16.326  -5.228  1.00  0.00     0.072 C 
ATOM      6  C   UNL     1      -3.623 -17.588  -5.730  1.00  0.00     0.012 C 
ENDBRANCH   3   5
ENDBRANCH   1   3
BRANCH   1   7
ATOM      7  C   UNL     1      -3.344 -14.514  -8.164  1.00  0.00     0.038 C 
BRANCH   7   8
ATOM      8  C   UNL     1      -4.473 -15.355  -8.702  1.00  0.00    -0.034 C 
ATOM      9  C   UNL     1      -5.618 -14.811  -9.125  1.00  0.00     0.004 C 
ENDBRANCH   7   8
ENDBRANCH   1   7
TORSDOF 4
ENDMDL
MODEL 7
REMARK VINA RESULT:    -3.863      2.178      3.050
REMARK INTER + INTRA:          -5.112
REMARK INTER:                  -4.797
REMARK INTRA:                  -0.315
REMARK UNBOUND:                -0.346
REMARK SMILES C=CC[C@@H](C)C(=O)CC
REMARK SMILES IDX 4 1 5 2 6 3 7 4 8 5 9 6 3 7 2 8 1 9
REMARK H PARENT
REMARK Flexibility Score: inf
ROOT
ATOM      1  C   UNL     1      -2.663 -14.448  -7.687  1.00  0.00     0.057 C 
ATOM      2  C   UNL     1      -2.316 -13.638  -6.434  1.00  0.00     0.016 C 
ENDROOT
BRANCH   1   3
ATOM      3  C   UNL     1      -3.810 -15.394  -7.392  1.00  0.00     0.135 C 
ATOM      4  O   UNL     1      -4.497 -15.820  -8.309  1.00  0.00    -0.299 OA
BRANCH   3   5
ATOM      5  C   UNL     1      -4.111 -15.835  -5.984  1.00  0.00     0.072 C 
ATOM      6  C   UNL     1      -3.710 -17.291  -5.775  1.00  0.00     0.012 C 
ENDBRANCH   3   5
ENDBRANCH   1   3
BRANCH   1   7
ATOM      7  C   UNL     1      -3.005 -13.509  -8.862  1.00  0.00     0.038 C 
BRANCH   7   8
ATOM      8  C   UNL     1      -3.641 -12.225  -8.395  1.00  0.00    -0.034 C 
ATOM      9  C   UNL     1      -4.892 -11.896  -8.730  1.00  0.00     0.004 C 
ENDBRANCH   7   8
ENDBRANCH   1   7
TORSDOF 4
ENDMDL
MODEL 8
REMARK VINA RESULT:    -3.835      2.522      3.070
REMARK INTER + INTRA:          -5.078
REMARK INTER:                  -4.764
REMARK INTRA:                  -0.314
REMARK UNBOUND:                -0.346
REMARK SMILES C=CC[C@@H](C)C(=O)CC
REMARK SMILES IDX 4 1 5 2 6 3 7 4 8 5 9 6 3 7 2 8 1 9
REMARK H PARENT
REMARK Flexibility Score: inf
ROOT
ATOM      1  C   UNL     1      -4.727 -15.050  -7.646  1.00  0.00     0.057 C 
ATOM      2  C   UNL     1      -4.863 -15.428  -9.125  1.00  0.00     0.016 C 
ENDROOT
BRANCH   1   3
ATOM      3  C   UNL     1      -3.263 -14.975  -7.262  1.00  0.00     0.135 C 
ATOM      4  O   UNL     1      -2.494 -14.302  -7.933  1.00  0.00    -0.299 OA
BRANCH   3   5
ATOM      5  C   UNL     1      -2.738 -15.705  -6.054  1.00  0.00     0.072 C 
ATOM      6  C   UNL     1      -3.707 -16.800  -5.620  1.00  0.00     0.012 C 
ENDBRANCH   3   5
ENDBRANCH   1   3
BRANCH   1   7
ATOM      7  C   UNL     1      -5.447 -13.717  -7.360  1.00  0.00     0.038 C 
BRANCH   7   8
ATOM      8  C   UNL     1      -5.581 -12.867  -8.597  1.00  0.00    -0.034 C 
ATOM      9  C   UNL     1      -4.835 -11.774  -8.786  1.00  0.00     0.004 C 
ENDBRANCH   7   8
ENDBRANCH   1   7
TORSDOF 4
ENDMDL
MODEL 9
REMARK VINA RESULT:    -3.786      2.580      4.078
REMARK INTER + INTRA:          -5.017
REMARK INTER:                  -4.520
REMARK INTRA:                  -0.496
REMARK UNBOUND:                -0.346
REMARK SMILES C=CC[C@@H](C)C(=O)CC
REMARK SMILES IDX 4 1 5 2 6 3 7 4 8 5 9 6 3 7 2 8 1 9
REMARK H PARENT
REMARK Flexibility Score: inf
ROOT
ATOM      1  C   UNL     1      -3.054 -13.998  -8.432  1.00  0.00     0.057 C 
ATOM      2  C   UNL     1      -4.125 -14.902  -9.050  1.00  0.00     0.016 C 
ENDROOT
BRANCH   1   3
ATOM      3  C   UNL     1      -3.686 -12.718  -7.924  1.00  0.00     0.135 C 
ATOM      4  O   UNL     1      -2.976 -11.821  -7.492  1.00  0.00    -0.299 OA
BRANCH   3   5
ATOM      5  C   UNL     1      -5.178 -12.522  -7.956  1.00  0.00     0.072 C 
ATOM      6  C   UNL     1      -5.787 -12.777  -6.581  1.00  0.00     0.012 C 
ENDBRANCH   3   5
ENDBRANCH   1   3
BRANCH   1   7
ATOM      7  C   UNL     1      -2.309 -14.738  -7.302  1.00  0.00     0.038 C 
BRANCH   7   8
ATOM      8  C   UNL     1      -3.225 -15.634  -6.509  1.00  0.00    -0.034 C 
ATOM      9  C   UNL     1      -3.406 -15.474  -5.196  1.00  0.00     0.004 C 
ENDBRANCH   7   8
ENDBRANCH   1   7
TORSDOF 4
ENDMDL
