MODEL 1
REMARK VINA RESULT:    -2.287      0.000      0.000
REMARK INTER + INTRA:          -0.454
REMARK INTER:                  -2.555
REMARK INTRA:                   2.101
REMARK UNBOUND:                 2.101
REMARK SMILES CC1(C)CC[C@]2(C(=O)[O-])[C@H](O)C[C@@]3(C)C(=CC[C@@H]4[C@@]5(C)CC[C@@H](O)C(C)(C)[C@H]5CC[C@]43C)[C@H]2C1
REMARK SMILES IDX 6 1 5 2 33 3 10 4 4 5 34 6 15 7 12 8 2 9 16 10 13 11 1 12
REMARK SMILES IDX 3 13 17 14 31 15 14 16 18 17 30 18 32 19 19 20 29 21 21 22
REMARK SMILES IDX 20 23 28 24 22 25 25 26 23 27 26 28 27 29 7 30 8 31 9 32
REMARK SMILES IDX 11 33 24 35
REMARK H PARENT 11 34 24 36
REMARK Flexibility Score: inf
ROOT
ATOM      1  C   UNL     1      99.236 112.988 107.567  1.00  0.00     0.042 C 
ATOM      2  C   UNL     1     100.372 113.909 108.093  1.00  0.00     0.017 C 
ATOM      3  C   UNL     1      98.758 112.145 108.790  1.00  0.00     0.030 C 
ATOM      4  C   UNL     1      97.990 113.800 107.086  1.00  0.00     0.127 C 
ATOM      5  C   UNL     1     101.544 113.082 108.680  1.00  0.00     0.007 C 
ATOM      6  C   UNL     1      99.841 111.232 109.389  1.00  0.00     0.015 C 
ATOM      7  C   UNL     1      97.340 111.555 108.690  1.00  0.00    -0.063 C 
ATOM      8  C   UNL     1      96.851 112.869 106.566  1.00  0.00     0.044 C 
ATOM      9  C   UNL     1     101.131 112.038 109.774  1.00  0.00    -0.035 C 
ATOM     10  C   UNL     1      96.672 111.492 109.870  1.00  0.00    -0.027 C 
ATOM     11  C   UNL     1      96.600 111.494 107.328  1.00  0.00    -0.003 C 
ATOM     12  C   UNL     1     102.288 111.036 109.959  1.00  0.00     0.011 C 
ATOM     13  C   UNL     1     100.923 112.769 111.124  1.00  0.00     0.011 C 
ATOM     14  C   UNL     1      95.181 111.582 110.018  1.00  0.00     0.032 C 
ATOM     15  C   UNL     1      95.016 111.179 107.509  1.00  0.00    -0.020 C 
ATOM     16  C   UNL     1      97.212 110.329 106.489  1.00  0.00     0.017 C 
ATOM     17  C   UNL     1      94.485 112.040 108.715  1.00  0.00     0.006 C 
ATOM     18  C   UNL     1      94.226 111.486 106.183  1.00  0.00     0.008 C 
ATOM     19  C   UNL     1      94.778 109.659 107.823  1.00  0.00     0.012 C 
ATOM     20  C   UNL     1      92.895 112.270 108.861  1.00  0.00    -0.025 C 
ATOM     21  C   UNL     1      93.116 112.526 106.329  1.00  0.00     0.005 C 
ATOM     22  C   UNL     1      92.707 113.722 109.413  1.00  0.00     0.010 C 
ATOM     23  C   UNL     1      92.296 111.276 109.905  1.00  0.00     0.012 C 
ATOM     24  C   UNL     1      92.144 112.115 107.467  1.00  0.00     0.003 C 
ATOM     25  C   UNL     1      91.264 114.223 109.414  1.00  0.00     0.033 C 
ATOM     26  C   UNL     1      90.694 112.797 107.358  1.00  0.00    -0.006 C 
ATOM     27  C   UNL     1      90.674 114.217 108.000  1.00  0.00     0.120 C 
ATOM     28  C   UNL     1      89.601 111.905 108.033  1.00  0.00     0.014 C 
ATOM     29  C   UNL     1      90.221 112.924 105.877  1.00  0.00     0.014 C 
ENDROOT
BRANCH   1  30
ATOM     30  C   UNL     1      99.836 112.235 106.373  1.00  0.00     0.051 C 
ATOM     31  O   UNL     1     100.934 112.611 105.881  1.00  0.00    -0.549 OA
ATOM     32  O   UNL     1      99.271 111.068 105.879  1.00  0.00    -0.549 OA
ENDBRANCH   1  30
BRANCH   4  33
ATOM     33  O   UNL     1      97.476 114.597 108.128  1.00  0.00    -0.392 OA
ATOM     34  H   UNL     1      96.818 115.223 107.728  1.00  0.00     0.210 HD
ENDBRANCH   4  33
BRANCH  27  35
ATOM     35  O   UNL     1      91.399 115.133 107.212  1.00  0.00    -0.393 OA
ATOM     36  H   UNL     1      90.824 115.931 107.072  1.00  0.00     0.210 HD
ENDBRANCH  27  35
TORSDOF 3
ENDMDL
MODEL 2
REMARK VINA RESULT:     0.343      1.854      7.965
REMARK INTER + INTRA:           2.483
REMARK INTER:                   1.744
REMARK INTRA:                   0.739
REMARK UNBOUND:                 2.101
REMARK SMILES CC1(C)CC[C@]2(C(=O)[O-])[C@H](O)C[C@@]3(C)C(=CC[C@@H]4[C@@]5(C)CC[C@@H](O)C(C)(C)[C@H]5CC[C@]43C)[C@H]2C1
REMARK SMILES IDX 6 1 5 2 33 3 10 4 4 5 34 6 15 7 12 8 2 9 16 10 13 11 1 12
REMARK SMILES IDX 3 13 17 14 31 15 14 16 18 17 30 18 32 19 19 20 29 21 21 22
REMARK SMILES IDX 20 23 28 24 22 25 25 26 23 27 26 28 27 29 7 30 8 31 9 32
REMARK SMILES IDX 11 33 24 35
REMARK H PARENT 11 34 24 36
REMARK Flexibility Score: inf
ROOT
ATOM      1  C   UNL     1      93.089 112.385 108.834  1.00  0.00     0.042 C 
ATOM      2  C   UNL     1      91.978 113.386 109.256  1.00  0.00     0.017 C 
ATOM      3  C   UNL     1      93.551 112.821 107.409  1.00  0.00     0.030 C 
ATOM      4  C   UNL     1      94.352 112.481 109.749  1.00  0.00     0.127 C 
ATOM      5  C   UNL     1      90.788 113.362 108.263  1.00  0.00     0.007 C 
ATOM      6  C   UNL     1      92.448 112.752 106.340  1.00  0.00     0.015 C 
ATOM      7  C   UNL     1      94.953 112.354 106.982  1.00  0.00    -0.063 C 
ATOM      8  C   UNL     1      95.465 111.477 109.315  1.00  0.00     0.044 C 
ATOM      9  C   UNL     1      91.180 113.576 106.760  1.00  0.00    -0.035 C 
ATOM     10  C   UNL     1      95.624 113.233 106.195  1.00  0.00    -0.027 C 
ATOM     11  C   UNL     1      95.686 111.228 107.758  1.00  0.00    -0.003 C 
ATOM     12  C   UNL     1      89.999 113.127 105.876  1.00  0.00     0.011 C 
ATOM     13  C   UNL     1      91.411 115.085 106.502  1.00  0.00     0.011 C 
ATOM     14  C   UNL     1      97.118 113.377 106.150  1.00  0.00     0.032 C 
ATOM     15  C   UNL     1      97.262 111.148 107.372  1.00  0.00    -0.020 C 
ATOM     16  C   UNL     1      95.041 109.862 107.367  1.00  0.00     0.017 C 
ATOM     17  C   UNL     1      97.819 112.618 107.300  1.00  0.00     0.006 C 
ATOM     18  C   UNL     1      98.053 110.277 108.416  1.00  0.00     0.008 C 
ATOM     19  C   UNL     1      97.464 110.456 105.977  1.00  0.00     0.012 C 
ATOM     20  C   UNL     1      99.415 112.845 107.365  1.00  0.00    -0.025 C 
ATOM     21  C   UNL     1      99.190 111.010 109.128  1.00  0.00     0.005 C 
ATOM     22  C   UNL     1      99.642 114.170 108.166  1.00  0.00     0.010 C 
ATOM     23  C   UNL     1      99.994 113.046 105.929  1.00  0.00     0.012 C 
ATOM     24  C   UNL     1     100.156 111.637 108.087  1.00  0.00     0.003 C 
ATOM     25  C   UNL     1     101.096 114.452 108.537  1.00  0.00     0.033 C 
ATOM     26  C   UNL     1     101.622 111.943 108.667  1.00  0.00    -0.006 C 
ATOM     27  C   UNL     1     101.679 113.323 109.391  1.00  0.00     0.120 C 
ATOM     28  C   UNL     1     102.695 111.907 107.530  1.00  0.00     0.014 C 
ATOM     29  C   UNL     1     102.091 110.845 109.670  1.00  0.00     0.014 C 
ENDROOT
BRANCH   1  30
ATOM     30  C   UNL     1      92.465 110.992 108.985  1.00  0.00     0.051 C 
ATOM     31  O   UNL     1      92.800 110.255 109.951  1.00  0.00    -0.549 OA
ATOM     32  O   UNL     1      91.445 110.548 108.155  1.00  0.00    -0.549 OA
ENDBRANCH   1  30
BRANCH   4  33
ATOM     33  O   UNL     1      94.890 113.783 109.727  1.00  0.00    -0.392 OA
ATOM     34  H   UNL     1      94.185 114.403 110.052  1.00  0.00     0.210 HD
ENDBRANCH   4  33
BRANCH  27  35
ATOM     35  O   UNL     1     100.975 113.278 110.611  1.00  0.00    -0.393 OA
ATOM     36  H   UNL     1     101.632 113.407 111.344  1.00  0.00     0.210 HD
ENDBRANCH  27  35
TORSDOF 3
ENDMDL
