MODEL 1
REMARK VINA RESULT:    -3.389      0.000      0.000
REMARK INTER + INTRA:          -3.424
REMARK INTER:                  -4.182
REMARK INTRA:                   0.757
REMARK UNBOUND:                 0.757
REMARK SMILES CC1=CC=CC(C)(C)CC1=O
REMARK SMILES IDX 1 1 2 2 3 3 10 4 11 5 9 6 4 8 5 9 6 10 7 11 8 12
REMARK H PARENT
REMARK Flexibility Score: 80.00
ROOT
ATOM      1  C   UNL     1      -0.908  -0.458  26.889  1.00  0.00     0.048 C 
ATOM      2  C   UNL     1      -1.139   0.273  28.190  1.00  0.00    -0.008 C 
ATOM      3  C   UNL     1      -0.150   1.071  28.644  1.00  0.00     0.007 C 
ENDROOT
BRANCH   2   4
ATOM      4  C   UNL     1      -2.470   0.112  28.829  1.00  0.00     0.159 C 
ATOM      5  O   UNL     1      -3.397  -0.435  28.171  1.00  0.00    -0.295 OA
BRANCH   4   6
ATOM      6  C   UNL     1      -2.774   0.554  30.227  1.00  0.00     0.091 CG0
ATOM      7  G   UNL     1      -2.575   2.071  30.443  1.00  0.00     0.000 G0
ENDBRANCH   4   6
ENDBRANCH   2   4
BRANCH   3   8
ATOM      8  C   UNL     1      -0.094   1.922  29.857  1.00  0.00    -0.003 C 
ATOM      9  C   UNL     1      -1.098   2.366  30.623  1.00  0.00    -0.020 C 
BRANCH   9  10
ATOM     10  C   UNL     1      -2.567   2.069  30.438  1.00  0.00    -0.010 CG0
ATOM     11  C   UNL     1      -3.136   2.916  29.277  1.00  0.00     0.016 C 
ATOM     12  C   UNL     1      -3.311   2.474  31.732  1.00  0.00     0.016 C 
ATOM     13  G   UNL     1      -2.768   0.552  30.223  1.00  0.00     0.000 G0
ENDBRANCH   9  10
ENDBRANCH   3   8
TORSDOF 0
ENDMDL
MODEL 2
REMARK VINA RESULT:    -3.344      2.838      4.021
REMARK INTER + INTRA:          -3.369
REMARK INTER:                  -4.117
REMARK INTRA:                   0.749
REMARK UNBOUND:                 0.757
REMARK SMILES CC1=CC=CC(C)(C)CC1=O
REMARK SMILES IDX 1 1 2 2 3 3 10 4 11 5 9 6 4 8 5 9 6 10 7 11 8 12
REMARK H PARENT
REMARK Flexibility Score: 80.00
ROOT
ATOM      1  C   UNL     1      -0.091   0.751  29.237  1.00  0.00     0.048 C 
ATOM      2  C   UNL     1      -1.031   0.893  28.063  1.00  0.00    -0.008 C 
ATOM      3  C   UNL     1      -1.258  -0.202  27.308  1.00  0.00     0.007 C 
ENDROOT
BRANCH   2   4
ATOM      4  C   UNL     1      -1.689   2.212  27.879  1.00  0.00     0.159 C 
ATOM      5  O   UNL     1      -1.623   3.059  28.811  1.00  0.00    -0.295 OA
BRANCH   4   6
ATOM      6  C   UNL     1      -2.421   2.602  26.633  1.00  0.00     0.091 CG0
ATOM      7  G   UNL     1      -3.625   1.685  26.321  1.00  0.00     0.000 G0
ENDBRANCH   4   6
ENDBRANCH   2   4
BRANCH   3   8
ATOM      8  C   UNL     1      -2.136  -0.378  26.126  1.00  0.00    -0.003 C 
ATOM      9  C   UNL     1      -3.147   0.391  25.703  1.00  0.00    -0.020 C 
BRANCH   9  10
ATOM     10  C   UNL     1      -3.625   1.674  26.340  1.00  0.00    -0.010 CG0
ATOM     11  C   UNL     1      -4.465   1.359  27.599  1.00  0.00     0.016 C 
ATOM     12  C   UNL     1      -4.537   2.407  25.329  1.00  0.00     0.016 C 
ATOM     13  G   UNL     1      -2.415   2.586  26.645  1.00  0.00     0.000 G0
ENDBRANCH   9  10
ENDBRANCH   3   8
TORSDOF 0
ENDMDL
MODEL 3
REMARK VINA RESULT:    -3.310      9.910     11.159
REMARK INTER + INTRA:          -3.327
REMARK INTER:                  -4.083
REMARK INTRA:                   0.756
REMARK UNBOUND:                 0.757
REMARK SMILES CC1=CC=CC(C)(C)CC1=O
REMARK SMILES IDX 1 1 2 2 3 3 10 4 11 5 9 6 4 8 5 9 6 10 7 11 8 12
REMARK H PARENT
REMARK Flexibility Score: 80.00
ROOT
ATOM      1  C   UNL     1     -12.109   1.504  32.576  1.00  0.00     0.048 C 
ATOM      2  C   UNL     1     -12.315   1.581  31.082  1.00  0.00    -0.008 C 
ATOM      3  C   UNL     1     -13.114   0.654  30.512  1.00  0.00     0.007 C 
ENDROOT
BRANCH   2   4
ATOM      4  C   UNL     1     -11.678   2.718  30.369  1.00  0.00     0.159 C 
ATOM      5  O   UNL     1     -11.197   3.666  31.047  1.00  0.00    -0.295 OA
BRANCH   4   6
ATOM      6  C   UNL     1     -11.562   2.797  28.879  1.00  0.00     0.091 CG0
ATOM      7  G   UNL     1     -12.930   2.803  28.160  1.00  0.00     0.000 G0
ENDBRANCH   4   6
ENDBRANCH   2   4
BRANCH   3   8
ATOM      8  C   UNL     1     -13.521   0.490  29.096  1.00  0.00    -0.003 C 
ATOM      9  C   UNL     1     -13.468   1.377  28.093  1.00  0.00    -0.020 C 
BRANCH   9  10
ATOM     10  C   UNL     1     -12.940   2.789  28.173  1.00  0.00    -0.010 CG0
ATOM     11  C   UNL     1     -13.975   3.704  28.867  1.00  0.00     0.016 C 
ATOM     12  C   UNL     1     -12.733   3.311  26.732  1.00  0.00     0.016 C 
ATOM     13  G   UNL     1     -11.569   2.792  28.886  1.00  0.00     0.000 G0
ENDBRANCH   9  10
ENDBRANCH   3   8
TORSDOF 0
ENDMDL
MODEL 4
REMARK VINA RESULT:    -3.288      9.647     10.837
REMARK INTER + INTRA:          -3.300
REMARK INTER:                  -4.043
REMARK INTRA:                   0.743
REMARK UNBOUND:                 0.757
REMARK SMILES CC1=CC=CC(C)(C)CC1=O
REMARK SMILES IDX 1 1 2 2 3 3 10 4 11 5 9 6 4 8 5 9 6 10 7 11 8 12
REMARK H PARENT
REMARK Flexibility Score: 80.00
ROOT
ATOM      1  C   UNL     1     -13.286  -0.382  31.133  1.00  0.00     0.048 C 
ATOM      2  C   UNL     1     -12.918   1.042  30.788  1.00  0.00    -0.008 C 
ATOM      3  C   UNL     1     -12.098   1.700  31.636  1.00  0.00     0.007 C 
ENDROOT
BRANCH   2   4
ATOM      4  C   UNL     1     -13.429   1.580  29.502  1.00  0.00     0.159 C 
ATOM      5  O   UNL     1     -13.957   0.785  28.678  1.00  0.00    -0.295 OA
BRANCH   4   6
ATOM      6  C   UNL     1     -13.366   3.029  29.129  1.00  0.00     0.091 CG0
ATOM      7  G   UNL     1     -11.926   3.587  29.094  1.00  0.00     0.000 G0
ENDBRANCH   4   6
ENDBRANCH   2   4
BRANCH   3   8
ATOM      8  C   UNL     1     -11.549   3.074  31.554  1.00  0.00    -0.003 C 
ATOM      9  C   UNL     1     -11.455   3.884  30.492  1.00  0.00    -0.020 C 
BRANCH   9  10
ATOM     10  C   UNL     1     -11.928   3.584  29.090  1.00  0.00    -0.010 CG0
ATOM     11  C   UNL     1     -10.927   2.639  28.385  1.00  0.00     0.016 C 
ATOM     12  C   UNL     1     -11.970   4.910  28.297  1.00  0.00     0.016 C 
ATOM     13  G   UNL     1     -13.360   3.006  29.137  1.00  0.00     0.000 G0
ENDBRANCH   9  10
ENDBRANCH   3   8
TORSDOF 0
ENDMDL
MODEL 5
REMARK VINA RESULT:    -3.262      1.736      2.086
REMARK INTER + INTRA:          -3.268
REMARK INTER:                  -4.019
REMARK INTRA:                   0.751
REMARK UNBOUND:                 0.757
REMARK SMILES CC1=CC=CC(C)(C)CC1=O
REMARK SMILES IDX 1 1 2 2 3 3 10 4 11 5 9 6 4 8 5 9 6 10 7 11 8 12
REMARK H PARENT
REMARK Flexibility Score: 80.00
ROOT
ATOM      1  C   UNL     1      -2.797  -0.032  25.449  1.00  0.00     0.048 C 
ATOM      2  C   UNL     1      -2.326   0.482  26.790  1.00  0.00    -0.008 C 
ATOM      3  C   UNL     1      -1.138   0.036  27.249  1.00  0.00     0.007 C 
ENDROOT
BRANCH   2   4
ATOM      4  C   UNL     1      -3.177   1.497  27.461  1.00  0.00     0.159 C 
ATOM      5  O   UNL     1      -4.113   2.034  26.807  1.00  0.00    -0.295 OA
BRANCH   4   6
ATOM      6  C   UNL     1      -2.995   1.915  28.887  1.00  0.00     0.091 CG0
ATOM      7  G   UNL     1      -1.600   2.514  29.173  1.00  0.00     0.000 G0
ENDBRANCH   4   6
ENDBRANCH   2   4
BRANCH   3   8
ATOM      8  C   UNL     1      -0.412   0.375  28.496  1.00  0.00    -0.003 C 
ATOM      9  C   UNL     1      -0.583   1.420  29.316  1.00  0.00    -0.020 C 
BRANCH   9  10
ATOM     10  C   UNL     1      -1.609   2.518  29.167  1.00  0.00    -0.010 CG0
ATOM     11  C   UNL     1      -1.158   3.518  28.077  1.00  0.00     0.016 C 
ATOM     12  C   UNL     1      -1.699   3.283  30.507  1.00  0.00     0.016 C 
ATOM     13  G   UNL     1      -2.994   1.900  28.872  1.00  0.00     0.000 G0
ENDBRANCH   9  10
ENDBRANCH   3   8
TORSDOF 0
ENDMDL
MODEL 6
REMARK VINA RESULT:    -3.181     15.638     17.003
REMARK INTER + INTRA:          -3.167
REMARK INTER:                  -3.937
REMARK INTRA:                   0.770
REMARK UNBOUND:                 0.757
REMARK SMILES CC1=CC=CC(C)(C)CC1=O
REMARK SMILES IDX 1 1 2 2 3 3 10 4 11 5 9 6 4 8 5 9 6 10 7 11 8 12
REMARK H PARENT
REMARK Flexibility Score: 80.00
ROOT
ATOM      1  C   UNL     1      -9.349  12.711  19.069  1.00  0.00     0.048 C 
ATOM      2  C   UNL     1      -9.954  11.348  18.829  1.00  0.00    -0.008 C 
ATOM      3  C   UNL     1      -9.266  10.272  19.265  1.00  0.00     0.007 C 
ENDROOT
BRANCH   2   4
ATOM      4  C   UNL     1     -11.297  11.306  18.196  1.00  0.00     0.159 C 
ATOM      5  O   UNL     1     -11.939  12.384  18.061  1.00  0.00    -0.295 OA
BRANCH   4   6
ATOM      6  C   UNL     1     -11.934  10.048  17.692  1.00  0.00     0.091 CG0
ATOM      7  G   UNL     1     -12.112   8.974  18.789  1.00  0.00     0.000 G0
ENDBRANCH   4   6
ENDBRANCH   2   4
BRANCH   3   8
ATOM      8  C   UNL     1      -9.610   8.831  19.199  1.00  0.00    -0.003 C 
ATOM      9  C   UNL     1     -10.804   8.256  19.009  1.00  0.00    -0.020 C 
BRANCH   9  10
ATOM     10  C   UNL     1     -12.117   8.967  18.784  1.00  0.00    -0.010 CG0
ATOM     11  C   UNL     1     -12.641   9.544  20.119  1.00  0.00     0.016 C 
ATOM     12  C   UNL     1     -13.147   7.934  18.273  1.00  0.00     0.016 C 
ATOM     13  G   UNL     1     -11.942  10.050  17.696  1.00  0.00     0.000 G0
ENDBRANCH   9  10
ENDBRANCH   3   8
TORSDOF 0
ENDMDL
MODEL 7
REMARK VINA RESULT:    -3.146     15.629     16.896
REMARK INTER + INTRA:          -3.124
REMARK INTER:                  -3.878
REMARK INTRA:                   0.754
REMARK UNBOUND:                 0.757
REMARK SMILES CC1=CC=CC(C)(C)CC1=O
REMARK SMILES IDX 1 1 2 2 3 3 10 4 11 5 9 6 4 8 5 9 6 10 7 11 8 12
REMARK H PARENT
REMARK Flexibility Score: 80.00
ROOT
ATOM      1  C   UNL     1      -8.696  12.098  19.306  1.00  0.00     0.048 C 
ATOM      2  C   UNL     1     -10.031  11.419  19.107  1.00  0.00    -0.008 C 
ATOM      3  C   UNL     1     -10.891  11.977  18.229  1.00  0.00     0.007 C 
ENDROOT
BRANCH   2   4
ATOM      4  C   UNL     1     -10.259  10.149  19.840  1.00  0.00     0.159 C 
ATOM      5  O   UNL     1      -9.282   9.593  20.412  1.00  0.00    -0.295 OA
BRANCH   4   6
ATOM      6  C   UNL     1     -11.599   9.489  19.951  1.00  0.00     0.091 CG0
ATOM      7  G   UNL     1     -12.214   9.123  18.582  1.00  0.00     0.000 G0
ENDBRANCH   4   6
ENDBRANCH   2   4
BRANCH   3   8
ATOM      8  C   UNL     1     -12.242  11.535  17.809  1.00  0.00    -0.003 C 
ATOM      9  C   UNL     1     -12.813  10.330  17.934  1.00  0.00    -0.020 C 
BRANCH   9  10
ATOM     10  C   UNL     1     -12.201   9.110  18.579  1.00  0.00    -0.010 CG0
ATOM     11  C   UNL     1     -11.167   8.470  17.625  1.00  0.00     0.016 C 
ATOM     12  C   UNL     1     -13.324   8.076  18.827  1.00  0.00     0.016 C 
ATOM     13  G   UNL     1     -11.591   9.495  19.946  1.00  0.00     0.000 G0
ENDBRANCH   9  10
ENDBRANCH   3   8
TORSDOF 0
ENDMDL
MODEL 8
REMARK VINA RESULT:    -3.081     12.098     13.876
REMARK INTER + INTRA:          -3.044
REMARK INTER:                  -3.801
REMARK INTRA:                   0.757
REMARK UNBOUND:                 0.757
REMARK SMILES CC1=CC=CC(C)(C)CC1=O
REMARK SMILES IDX 1 1 2 2 3 3 10 4 11 5 9 6 4 8 5 9 6 10 7 11 8 12
REMARK H PARENT
REMARK Flexibility Score: 80.00
ROOT
ATOM      1  C   UNL     1     -13.750  12.751  30.487  1.00  0.00     0.048 C 
ATOM      2  C   UNL     1     -12.905  11.499  30.501  1.00  0.00    -0.008 C 
ATOM      3  C   UNL     1     -11.767  11.520  31.226  1.00  0.00     0.007 C 
ENDROOT
BRANCH   2   4
ATOM      4  C   UNL     1     -13.435  10.318  29.774  1.00  0.00     0.159 C 
ATOM      5  O   UNL     1     -14.634  10.334  29.380  1.00  0.00    -0.295 OA
BRANCH   4   6
ATOM      6  C   UNL     1     -12.617   9.102  29.466  1.00  0.00     0.091 CG0
ATOM      7  G   UNL     1     -12.083   8.391  30.729  1.00  0.00     0.000 G0
ENDBRANCH   4   6
ENDBRANCH   2   4
BRANCH   3   8
ATOM      8  C   UNL     1     -10.762  10.454  31.451  1.00  0.00    -0.003 C 
ATOM      9  C   UNL     1     -10.875   9.133  31.261  1.00  0.00    -0.020 C 
BRANCH   9  10
ATOM     10  C   UNL     1     -12.086   8.404  30.730  1.00  0.00    -0.010 CG0
ATOM     11  C   UNL     1     -13.157   8.281  31.838  1.00  0.00     0.016 C 
ATOM     12  C   UNL     1     -11.653   6.975  30.325  1.00  0.00     0.016 C 
ATOM     13  G   UNL     1     -12.614   9.121  29.468  1.00  0.00     0.000 G0
ENDBRANCH   9  10
ENDBRANCH   3   8
TORSDOF 0
ENDMDL
MODEL 9
REMARK VINA RESULT:    -3.056      1.580      2.541
REMARK INTER + INTRA:          -3.013
REMARK INTER:                  -3.766
REMARK INTRA:                   0.753
REMARK UNBOUND:                 0.757
REMARK SMILES CC1=CC=CC(C)(C)CC1=O
REMARK SMILES IDX 1 1 2 2 3 3 10 4 11 5 9 6 4 8 5 9 6 10 7 11 8 12
REMARK H PARENT
REMARK Flexibility Score: 80.00
ROOT
ATOM      1  C   UNL     1      -1.568  -0.629  26.600  1.00  0.00     0.048 C 
ATOM      2  C   UNL     1      -2.382   0.097  27.644  1.00  0.00    -0.008 C 
ATOM      3  C   UNL     1      -3.296  -0.617  28.333  1.00  0.00     0.007 C 
ENDROOT
BRANCH   2   4
ATOM      4  C   UNL     1      -2.058   1.527  27.880  1.00  0.00     0.159 C 
ATOM      5  O   UNL     1      -1.008   2.004  27.369  1.00  0.00    -0.295 OA
BRANCH   4   6
ATOM      6  C   UNL     1      -2.920   2.447  28.687  1.00  0.00     0.091 CG0
ATOM      7  G   UNL     1      -3.101   1.987  30.151  1.00  0.00     0.000 G0
ENDBRANCH   4   6
ENDBRANCH   2   4
BRANCH   3   8
ATOM      8  C   UNL     1      -4.212  -0.195  29.420  1.00  0.00    -0.003 C 
ATOM      9  C   UNL     1      -4.146   0.886  30.208  1.00  0.00    -0.020 C 
BRANCH   9  10
ATOM     10  C   UNL     1      -3.101   1.975  30.151  1.00  0.00    -0.010 CG0
ATOM     11  C   UNL     1      -1.785   1.479  30.793  1.00  0.00     0.016 C 
ATOM     12  C   UNL     1      -3.610   3.179  30.976  1.00  0.00     0.016 C 
ATOM     13  G   UNL     1      -2.913   2.439  28.689  1.00  0.00     0.000 G0
ENDBRANCH   9  10
ENDBRANCH   3   8
TORSDOF 0
ENDMDL
