MODEL 1
REMARK VINA RESULT:    -4.224      0.000      0.000
REMARK INTER + INTRA:          -5.960
REMARK INTER:                  -5.706
REMARK INTRA:                  -0.254
REMARK UNBOUND:                -0.254
REMARK SMILES CCCCCCCC(=O)[O-]
REMARK SMILES IDX 5 1 6 2 7 3 8 4 9 5 10 6 4 7 3 8 2 9 1 10
REMARK H PARENT
REMARK Flexibility Score: inf
ROOT
ATOM      1  C   UNL     1      -2.100  37.500  18.319  1.00  0.00     0.000 C 
ENDROOT
BRANCH   1   2
ATOM      2  C   UNL     1      -2.875  37.500  19.649  1.00  0.00     0.006 C 
BRANCH   2   3
ATOM      3  C   UNL     1      -4.366  37.199  19.448  1.00  0.00     0.053 C 
BRANCH   3   4
ATOM      4  C   UNL     1      -4.741  35.861  20.007  1.00  0.00     0.041 C 
ATOM      5  O   UNL     1      -5.125  34.938  19.241  1.00  0.00    -0.550 OA
ATOM      6  O   UNL     1      -4.634  35.623  21.371  1.00  0.00    -0.550 OA
ENDBRANCH   3   4
ENDBRANCH   2   3
ENDBRANCH   1   2
BRANCH   1   7
ATOM      7  C   UNL     1      -2.984  37.126  17.117  1.00  0.00     0.000 C 
BRANCH   7   8
ATOM      8  C   UNL     1      -2.204  36.380  16.021  1.00  0.00    -0.000 C 
BRANCH   8   9
ATOM      9  C   UNL     1      -2.818  36.578  14.626  1.00  0.00    -0.003 C 
ATOM     10  C   UNL     1      -3.923  37.634  14.607  1.00  0.00     0.004 C 
ENDBRANCH   8   9
ENDBRANCH   7   8
ENDBRANCH   1   7
TORSDOF 6
ENDMDL
MODEL 2
REMARK VINA RESULT:    -3.920      2.898      5.254
REMARK INTER + INTRA:          -5.549
REMARK INTER:                  -5.313
REMARK INTRA:                  -0.237
REMARK UNBOUND:                -0.254
REMARK SMILES CCCCCCCC(=O)[O-]
REMARK SMILES IDX 5 1 6 2 7 3 8 4 9 5 10 6 4 7 3 8 2 9 1 10
REMARK H PARENT
REMARK Flexibility Score: inf
ROOT
ATOM      1  C   UNL     1      -3.027  37.381  19.474  1.00  0.00     0.000 C 
ENDROOT
BRANCH   1   2
ATOM      2  C   UNL     1      -2.490  37.496  18.036  1.00  0.00     0.006 C 
BRANCH   2   3
ATOM      3  C   UNL     1      -3.347  36.711  17.034  1.00  0.00     0.053 C 
BRANCH   3   4
ATOM      4  C   UNL     1      -2.969  37.023  15.619  1.00  0.00     0.041 C 
ATOM      5  O   UNL     1      -1.945  36.500  15.106  1.00  0.00    -0.550 OA
ATOM      6  O   UNL     1      -3.768  37.864  14.856  1.00  0.00    -0.550 OA
ENDBRANCH   3   4
ENDBRANCH   2   3
ENDBRANCH   1   2
BRANCH   1   7
ATOM      7  C   UNL     1      -4.558  37.513  19.547  1.00  0.00     0.000 C 
BRANCH   7   8
ATOM      8  C   UNL     1      -5.125  37.061  20.903  1.00  0.00    -0.000 C 
BRANCH   8   9
ATOM      9  C   UNL     1      -4.695  35.632  21.272  1.00  0.00    -0.003 C 
ATOM     10  C   UNL     1      -5.125  35.229  22.683  1.00  0.00     0.004 C 
ENDBRANCH   8   9
ENDBRANCH   7   8
ENDBRANCH   1   7
TORSDOF 6
ENDMDL
MODEL 3
REMARK VINA RESULT:    -3.739      2.978      5.060
REMARK INTER + INTRA:          -5.304
REMARK INTER:                  -5.108
REMARK INTRA:                  -0.196
REMARK UNBOUND:                -0.254
REMARK SMILES CCCCCCCC(=O)[O-]
REMARK SMILES IDX 5 1 6 2 7 3 8 4 9 5 10 6 4 7 3 8 2 9 1 10
REMARK H PARENT
REMARK Flexibility Score: inf
ROOT
ATOM      1  C   UNL     1      -2.330  37.498  18.544  1.00  0.00     0.000 C 
ENDROOT
BRANCH   1   2
ATOM      2  C   UNL     1      -3.171  37.080  17.325  1.00  0.00     0.006 C 
BRANCH   2   3
ATOM      3  C   UNL     1      -2.352  37.095  16.027  1.00  0.00     0.053 C 
BRANCH   3   4
ATOM      4  C   UNL     1      -3.228  37.240  14.821  1.00  0.00     0.041 C 
ATOM      5  O   UNL     1      -3.360  36.282  14.014  1.00  0.00    -0.550 OA
ATOM      6  O   UNL     1      -3.925  38.421  14.607  1.00  0.00    -0.550 OA
ENDBRANCH   3   4
ENDBRANCH   2   3
ENDBRANCH   1   2
BRANCH   1   7
ATOM      7  C   UNL     1      -3.139  37.488  19.853  1.00  0.00     0.000 C 
BRANCH   7   8
ATOM      8  C   UNL     1      -4.630  37.189  19.622  1.00  0.00    -0.000 C 
BRANCH   8   9
ATOM      9  C   UNL     1      -5.028  35.784  20.101  1.00  0.00    -0.003 C 
ATOM     10  C   UNL     1      -5.100  35.674  21.624  1.00  0.00     0.004 C 
ENDBRANCH   8   9
ENDBRANCH   7   8
ENDBRANCH   1   7
TORSDOF 6
ENDMDL
MODEL 4
REMARK VINA RESULT:    -3.393      1.234      1.806
REMARK INTER + INTRA:          -4.837
REMARK INTER:                  -4.700
REMARK INTRA:                  -0.137
REMARK UNBOUND:                -0.254
REMARK SMILES CCCCCCCC(=O)[O-]
REMARK SMILES IDX 5 1 6 2 7 3 8 4 9 5 10 6 4 7 3 8 2 9 1 10
REMARK H PARENT
REMARK Flexibility Score: inf
ROOT
ATOM      1  C   UNL     1      -2.737  37.356  19.439  1.00  0.00     0.000 C 
ENDROOT
BRANCH   1   2
ATOM      2  C   UNL     1      -4.113  36.676  19.554  1.00  0.00     0.006 C 
BRANCH   2   3
ATOM      3  C   UNL     1      -4.720  36.835  20.954  1.00  0.00     0.053 C 
BRANCH   3   4
ATOM      4  C   UNL     1      -4.392  35.669  21.836  1.00  0.00     0.041 C 
ATOM      5  O   UNL     1      -5.125  35.393  22.821  1.00  0.00    -0.550 OA
ATOM      6  O   UNL     1      -3.294  34.868  21.548  1.00  0.00    -0.550 OA
ENDBRANCH   3   4
ENDBRANCH   2   3
ENDBRANCH   1   2
BRANCH   1   7
ATOM      7  C   UNL     1      -2.307  37.583  17.980  1.00  0.00     0.000 C 
BRANCH   7   8
ATOM      8  C   UNL     1      -3.220  36.858  16.977  1.00  0.00    -0.000 C 
BRANCH   8   9
ATOM      9  C   UNL     1      -2.433  36.217  15.824  1.00  0.00    -0.003 C 
ATOM     10  C   UNL     1      -2.848  36.751  14.453  1.00  0.00     0.004 C 
ENDBRANCH   8   9
ENDBRANCH   7   8
ENDBRANCH   1   7
TORSDOF 6
ENDMDL
MODEL 5
REMARK VINA RESULT:    -2.349      2.729      4.754
REMARK INTER + INTRA:          -3.428
REMARK INTER:                  -2.961
REMARK INTRA:                  -0.467
REMARK UNBOUND:                -0.254
REMARK SMILES CCCCCCCC(=O)[O-]
REMARK SMILES IDX 5 1 6 2 7 3 8 4 9 5 10 6 4 7 3 8 2 9 1 10
REMARK H PARENT
REMARK Flexibility Score: inf
ROOT
ATOM      1  C   UNL     1      -4.409  34.992  18.455  1.00  0.00     0.000 C 
ENDROOT
BRANCH   1   2
ATOM      2  C   UNL     1      -4.321  35.867  17.192  1.00  0.00     0.006 C 
BRANCH   2   3
ATOM      3  C   UNL     1      -3.002  35.657  16.436  1.00  0.00     0.053 C 
BRANCH   3   4
ATOM      4  C   UNL     1      -2.790  36.710  15.392  1.00  0.00     0.041 C 
ATOM      5  O   UNL     1      -3.312  37.848  15.522  1.00  0.00    -0.550 OA
ATOM      6  O   UNL     1      -1.985  36.445  14.291  1.00  0.00    -0.550 OA
ENDBRANCH   3   4
ENDBRANCH   2   3
ENDBRANCH   1   2
BRANCH   1   7
ATOM      7  C   UNL     1      -4.550  35.821  19.743  1.00  0.00     0.000 C 
BRANCH   7   8
ATOM      8  C   UNL     1      -4.032  37.260  19.576  1.00  0.00    -0.000 C 
BRANCH   8   9
ATOM      9  C   UNL     1      -2.565  37.410  20.008  1.00  0.00    -0.003 C 
ATOM     10  C   UNL     1      -1.665  37.927  18.885  1.00  0.00     0.004 C 
ENDBRANCH   8   9
ENDBRANCH   7   8
ENDBRANCH   1   7
TORSDOF 6
ENDMDL
MODEL 6
REMARK VINA RESULT:    -2.142      1.657      2.140
REMARK INTER + INTRA:          -3.147
REMARK INTER:                  -3.100
REMARK INTRA:                  -0.047
REMARK UNBOUND:                -0.254
REMARK SMILES CCCCCCCC(=O)[O-]
REMARK SMILES IDX 5 1 6 2 7 3 8 4 9 5 10 6 4 7 3 8 2 9 1 10
REMARK H PARENT
REMARK Flexibility Score: inf
ROOT
ATOM      1  C   UNL     1      -3.756  35.148  17.755  1.00  0.00     0.000 C 
ENDROOT
BRANCH   1   2
ATOM      2  C   UNL     1      -5.125  34.959  18.433  1.00  0.00     0.006 C 
BRANCH   2   3
ATOM      3  C   UNL     1      -5.122  35.451  19.886  1.00  0.00     0.053 C 
BRANCH   3   4
ATOM      4  C   UNL     1      -4.413  36.762  20.026  1.00  0.00     0.041 C 
ATOM      5  O   UNL     1      -3.204  36.795  20.378  1.00  0.00    -0.550 OA
ATOM      6  O   UNL     1      -5.077  37.946  19.734  1.00  0.00    -0.550 OA
ENDBRANCH   3   4
ENDBRANCH   2   3
ENDBRANCH   1   2
BRANCH   1   7
ATOM      7  C   UNL     1      -3.815  36.111  16.557  1.00  0.00     0.000 C 
BRANCH   7   8
ATOM      8  C   UNL     1      -2.536  36.070  15.703  1.00  0.00    -0.000 C 
BRANCH   8   9
ATOM      9  C   UNL     1      -2.639  36.949  14.448  1.00  0.00    -0.003 C 
ATOM     10  C   UNL     1      -4.054  37.476  14.206  1.00  0.00     0.004 C 
ENDBRANCH   8   9
ENDBRANCH   7   8
ENDBRANCH   1   7
TORSDOF 6
ENDMDL
MODEL 7
REMARK VINA RESULT:    -1.792      1.592      2.650
REMARK INTER + INTRA:          -2.675
REMARK INTER:                  -2.456
REMARK INTRA:                  -0.219
REMARK UNBOUND:                -0.254
REMARK SMILES CCCCCCCC(=O)[O-]
REMARK SMILES IDX 5 1 6 2 7 3 8 4 9 5 10 6 4 7 3 8 2 9 1 10
REMARK H PARENT
REMARK Flexibility Score: inf
ROOT
ATOM      1  C   UNL     1      -3.969  35.673  17.294  1.00  0.00     0.000 C 
ENDROOT
BRANCH   1   2
ATOM      2  C   UNL     1      -4.784  35.431  18.577  1.00  0.00     0.006 C 
BRANCH   2   3
ATOM      3  C   UNL     1      -4.355  36.363  19.718  1.00  0.00     0.053 C 
BRANCH   3   4
ATOM      4  C   UNL     1      -4.140  35.611  20.995  1.00  0.00     0.041 C 
ATOM      5  O   UNL     1      -5.124  35.243  21.688  1.00  0.00    -0.550 OA
ATOM      6  O   UNL     1      -2.852  35.287  21.402  1.00  0.00    -0.550 OA
ENDBRANCH   3   4
ENDBRANCH   2   3
ENDBRANCH   1   2
BRANCH   1   7
ATOM      7  C   UNL     1      -3.349  37.079  17.242  1.00  0.00     0.000 C 
BRANCH   7   8
ATOM      8  C   UNL     1      -1.903  37.067  16.717  1.00  0.00    -0.000 C 
BRANCH   8   9
ATOM      9  C   UNL     1      -0.887  37.504  17.784  1.00  0.00    -0.003 C 
ATOM     10  C   UNL     1      -1.546  37.887  19.110  1.00  0.00     0.004 C 
ENDBRANCH   8   9
ENDBRANCH   7   8
ENDBRANCH   1   7
TORSDOF 6
ENDMDL
MODEL 8
REMARK VINA RESULT:    -1.327      2.861      5.215
REMARK INTER + INTRA:          -2.046
REMARK INTER:                  -2.059
REMARK INTRA:                   0.013
REMARK UNBOUND:                -0.254
REMARK SMILES CCCCCCCC(=O)[O-]
REMARK SMILES IDX 5 1 6 2 7 3 8 4 9 5 10 6 4 7 3 8 2 9 1 10
REMARK H PARENT
REMARK Flexibility Score: inf
ROOT
ATOM      1  C   UNL     1      -3.508  37.403  19.393  1.00  0.00     0.000 C 
ENDROOT
BRANCH   1   2
ATOM      2  C   UNL     1      -3.121  36.990  17.962  1.00  0.00     0.006 C 
BRANCH   2   3
ATOM      3  C   UNL     1      -1.602  37.023  17.743  1.00  0.00     0.053 C 
BRANCH   3   4
ATOM      4  C   UNL     1      -0.906  37.811  18.809  1.00  0.00     0.041 C 
ATOM      5  O   UNL     1      -0.359  37.223  19.778  1.00  0.00    -0.550 OA
ATOM      6  O   UNL     1      -0.831  39.195  18.713  1.00  0.00    -0.550 OA
ENDBRANCH   3   4
ENDBRANCH   2   3
ENDBRANCH   1   2
BRANCH   1   7
ATOM      7  C   UNL     1      -4.973  37.073  19.729  1.00  0.00     0.000 C 
BRANCH   7   8
ATOM      8  C   UNL     1      -5.123  35.720  20.444  1.00  0.00    -0.000 C 
BRANCH   8   9
ATOM      9  C   UNL     1      -5.125  35.860  21.974  1.00  0.00    -0.003 C 
ATOM     10  C   UNL     1      -4.339  34.751  22.673  1.00  0.00     0.004 C 
ENDBRANCH   8   9
ENDBRANCH   7   8
ENDBRANCH   1   7
TORSDOF 6
ENDMDL
