MODEL 1
REMARK VINA RESULT:     2.408      0.000      0.000
REMARK INTER + INTRA:           5.757
REMARK INTER:                   6.350
REMARK INTRA:                  -0.592
REMARK UNBOUND:                -0.592
REMARK SMILES CCCCCCCCCCCCCCCCCCCCCCCCCCCCCC(=O)[O-]
REMARK SMILES IDX 16 1 17 2 18 3 19 4 20 5 21 6 22 7 23 8 24 9 25 10 26 11
REMARK SMILES IDX 27 12 28 13 29 14 30 15 31 16 32 17 15 18 14 19 13 20 12 21
REMARK SMILES IDX 11 22 10 23 9 24 8 25 7 26 6 27 5 28 4 29 3 30 2 31 1 32
REMARK H PARENT
REMARK Flexibility Score: inf
ROOT
ATOM      1  C   UNL     1       8.438  -4.312   9.602  1.00  0.00     0.000 C 
ENDROOT
BRANCH   1   2
ATOM      2  C   UNL     1       9.016  -3.138   8.788  1.00  0.00     0.000 C 
BRANCH   2   3
ATOM      3  C   UNL     1       8.045  -1.970   8.533  1.00  0.00     0.000 C 
BRANCH   3   4
ATOM      4  C   UNL     1       8.765  -0.640   8.260  1.00  0.00     0.000 C 
BRANCH   4   5
ATOM      5  C   UNL     1       8.436   0.439   9.309  1.00  0.00     0.000 C 
BRANCH   5   6
ATOM      6  C   UNL     1       9.226   1.756   9.164  1.00  0.00     0.000 C 
BRANCH   6   7
ATOM      7  C   UNL     1       8.563   2.993   9.803  1.00  0.00     0.000 C 
BRANCH   7   8
ATOM      8  C   UNL     1       9.451   4.250   9.854  1.00  0.00     0.000 C 
BRANCH   8   9
ATOM      9  C   UNL     1       8.976   5.417   8.967  1.00  0.00     0.000 C 
BRANCH   9  10
ATOM     10  C   UNL     1       8.247   6.533   9.746  1.00  0.00     0.000 C 
BRANCH  10  11
ATOM     11  C   UNL     1       9.169   7.711  10.092  1.00  0.00     0.000 C 
BRANCH  11  12
ATOM     12  C   UNL     1       8.616   9.024   9.521  1.00  0.00     0.000 C 
BRANCH  12  13
ATOM     13  C   UNL     1       7.097   8.947   9.330  1.00  0.00     0.006 C 
BRANCH  13  14
ATOM     14  C   UNL     1       6.745   8.648   7.867  1.00  0.00     0.053 C 
BRANCH  14  15
ATOM     15  C   UNL     1       5.446   7.908   7.756  1.00  0.00     0.041 C 
ATOM     16  O   UNL     1       5.243   7.119   6.792  1.00  0.00    -0.550 OA
ATOM     17  O   UNL     1       4.479   8.051   8.741  1.00  0.00    -0.550 OA
ENDBRANCH  14  15
ENDBRANCH  13  14
ENDBRANCH  12  13
ENDBRANCH  11  12
ENDBRANCH  10  11
ENDBRANCH   9  10
ENDBRANCH   8   9
ENDBRANCH   7   8
ENDBRANCH   6   7
ENDBRANCH   5   6
ENDBRANCH   4   5
ENDBRANCH   3   4
ENDBRANCH   2   3
ENDBRANCH   1   2
BRANCH   1  18
ATOM     18  C   UNL     1       7.133  -4.924   9.059  1.00  0.00     0.000 C 
BRANCH  18  19
ATOM     19  C   UNL     1       6.821  -6.337   9.596  1.00  0.00     0.000 C 
BRANCH  19  20
ATOM     20  C   UNL     1       5.994  -7.182   8.610  1.00  0.00     0.000 C 
BRANCH  20  21
ATOM     21  C   UNL     1       5.388  -8.440   9.262  1.00  0.00     0.000 C 
BRANCH  21  22
ATOM     22  C   UNL     1       4.922  -9.533   8.276  1.00  0.00     0.000 C 
BRANCH  22  23
ATOM     23  C   UNL     1       3.400  -9.618   8.060  1.00  0.00     0.000 C 
BRANCH  23  24
ATOM     24  C   UNL     1       2.891  -8.637   6.993  1.00  0.00    -0.000 C 
BRANCH  24  25
ATOM     25  C   UNL     1       2.259  -7.397   7.642  1.00  0.00    -0.000 C 
BRANCH  25  26
ATOM     26  C   UNL     1       3.306  -6.349   8.064  1.00  0.00    -0.000 C 
BRANCH  26  27
ATOM     27  C   UNL     1       2.869  -5.417   9.212  1.00  0.00    -0.000 C 
BRANCH  27  28
ATOM     28  C   UNL     1       2.400  -4.011   8.782  1.00  0.00    -0.000 C 
BRANCH  28  29
ATOM     29  C   UNL     1       1.499  -3.981   7.531  1.00  0.00    -0.000 C 
BRANCH  29  30
ATOM     30  C   UNL     1       0.111  -4.626   7.751  1.00  0.00    -0.000 C 
BRANCH  30  31
ATOM     31  C   UNL     1      -0.744  -4.690   6.474  1.00  0.00    -0.003 C 
ATOM     32  C   UNL     1      -1.205  -6.107   6.140  1.00  0.00     0.004 C 
ENDBRANCH  30  31
ENDBRANCH  29  30
ENDBRANCH  28  29
ENDBRANCH  27  28
ENDBRANCH  26  27
ENDBRANCH  25  26
ENDBRANCH  24  25
ENDBRANCH  23  24
ENDBRANCH  22  23
ENDBRANCH  21  22
ENDBRANCH  20  21
ENDBRANCH  19  20
ENDBRANCH  18  19
ENDBRANCH   1  18
TORSDOF 28
ENDMDL
MODEL 2
REMARK VINA RESULT:     2.464      1.228      2.124
REMARK INTER + INTRA:           5.905
REMARK INTER:                   5.647
REMARK INTRA:                   0.258
REMARK UNBOUND:                -0.592
REMARK SMILES CCCCCCCCCCCCCCCCCCCCCCCCCCCCCC(=O)[O-]
REMARK SMILES IDX 16 1 17 2 18 3 19 4 20 5 21 6 22 7 23 8 24 9 25 10 26 11
REMARK SMILES IDX 27 12 28 13 29 14 30 15 31 16 32 17 15 18 14 19 13 20 12 21
REMARK SMILES IDX 11 22 10 23 9 24 8 25 7 26 6 27 5 28 4 29 3 30 2 31 1 32
REMARK H PARENT
REMARK Flexibility Score: inf
ROOT
ATOM      1  C   UNL     1       6.721  -5.633   9.042  1.00  0.00     0.000 C 
ENDROOT
BRANCH   1   2
ATOM      2  C   UNL     1       7.404  -4.489   9.816  1.00  0.00     0.000 C 
BRANCH   2   3
ATOM      3  C   UNL     1       8.845  -4.166   9.381  1.00  0.00     0.000 C 
BRANCH   3   4
ATOM      4  C   UNL     1       9.358  -2.833   9.948  1.00  0.00     0.000 C 
BRANCH   4   5
ATOM      5  C   UNL     1       8.354  -1.681   9.757  1.00  0.00     0.000 C 
BRANCH   5   6
ATOM      6  C   UNL     1       8.978  -0.272   9.687  1.00  0.00     0.000 C 
BRANCH   6   7
ATOM      7  C   UNL     1       8.004   0.892   9.961  1.00  0.00     0.000 C 
BRANCH   7   8
ATOM      8  C   UNL     1       8.282   2.173   9.153  1.00  0.00     0.000 C 
BRANCH   8   9
ATOM      9  C   UNL     1       8.692   3.396   9.997  1.00  0.00     0.000 C 
BRANCH   9  10
ATOM     10  C   UNL     1       9.553   4.421   9.227  1.00  0.00     0.000 C 
BRANCH  10  11
ATOM     11  C   UNL     1      10.062   5.558  10.125  1.00  0.00     0.000 C 
BRANCH  11  12
ATOM     12  C   UNL     1       9.528   6.915   9.644  1.00  0.00     0.000 C 
BRANCH  12  13
ATOM     13  C   UNL     1       8.090   7.143  10.123  1.00  0.00     0.006 C 
BRANCH  13  14
ATOM     14  C   UNL     1       7.654   8.593   9.874  1.00  0.00     0.053 C 
BRANCH  14  15
ATOM     15  C   UNL     1       6.753   8.698   8.681  1.00  0.00     0.041 C 
ATOM     16  O   UNL     1       5.688   8.025   8.627  1.00  0.00    -0.550 OA
ATOM     17  O   UNL     1       7.066   9.575   7.650  1.00  0.00    -0.550 OA
ENDBRANCH  14  15
ENDBRANCH  13  14
ENDBRANCH  12  13
ENDBRANCH  11  12
ENDBRANCH  10  11
ENDBRANCH   9  10
ENDBRANCH   8   9
ENDBRANCH   7   8
ENDBRANCH   6   7
ENDBRANCH   5   6
ENDBRANCH   4   5
ENDBRANCH   3   4
ENDBRANCH   2   3
ENDBRANCH   1   2
BRANCH   1  18
ATOM     18  C   UNL     1       7.377  -7.020   9.180  1.00  0.00     0.000 C 
BRANCH  18  19
ATOM     19  C   UNL     1       6.602  -8.005  10.080  1.00  0.00     0.000 C 
BRANCH  19  20
ATOM     20  C   UNL     1       6.755  -9.470   9.633  1.00  0.00     0.000 C 
BRANCH  20  21
ATOM     21  C   UNL     1       5.551  -9.974   8.813  1.00  0.00     0.000 C 
BRANCH  21  22
ATOM     22  C   UNL     1       5.667  -9.775   7.286  1.00  0.00     0.000 C 
BRANCH  22  23
ATOM     23  C   UNL     1       4.343  -9.886   6.506  1.00  0.00     0.000 C 
BRANCH  23  24
ATOM     24  C   UNL     1       3.108  -9.876   7.421  1.00  0.00    -0.000 C 
BRANCH  24  25
ATOM     25  C   UNL     1       3.421  -9.193   8.760  1.00  0.00    -0.000 C 
BRANCH  25  26
ATOM     26  C   UNL     1       2.795  -7.790   8.871  1.00  0.00    -0.000 C 
BRANCH  26  27
ATOM     27  C   UNL     1       3.578  -6.795   9.752  1.00  0.00    -0.000 C 
BRANCH  27  28
ATOM     28  C   UNL     1       3.437  -5.309   9.360  1.00  0.00    -0.000 C 
BRANCH  28  29
ATOM     29  C   UNL     1       1.987  -4.823   9.165  1.00  0.00    -0.000 C 
BRANCH  29  30
ATOM     30  C   UNL     1       1.631  -4.507   7.693  1.00  0.00    -0.000 C 
BRANCH  30  31
ATOM     31  C   UNL     1       0.885  -5.650   6.984  1.00  0.00    -0.003 C 
ATOM     32  C   UNL     1      -0.629  -5.571   7.168  1.00  0.00     0.004 C 
ENDBRANCH  30  31
ENDBRANCH  29  30
ENDBRANCH  28  29
ENDBRANCH  27  28
ENDBRANCH  26  27
ENDBRANCH  25  26
ENDBRANCH  24  25
ENDBRANCH  23  24
ENDBRANCH  22  23
ENDBRANCH  21  22
ENDBRANCH  20  21
ENDBRANCH  19  20
ENDBRANCH  18  19
ENDBRANCH   1  18
TORSDOF 28
ENDMDL
MODEL 3
REMARK VINA RESULT:     3.594      5.836     10.423
REMARK INTER + INTRA:           8.885
REMARK INTER:                   6.958
REMARK INTRA:                   1.928
REMARK UNBOUND:                -0.592
REMARK SMILES CCCCCCCCCCCCCCCCCCCCCCCCCCCCCC(=O)[O-]
REMARK SMILES IDX 16 1 17 2 18 3 19 4 20 5 21 6 22 7 23 8 24 9 25 10 26 11
REMARK SMILES IDX 27 12 28 13 29 14 30 15 31 16 32 17 15 18 14 19 13 20 12 21
REMARK SMILES IDX 11 22 10 23 9 24 8 25 7 26 6 27 5 28 4 29 3 30 2 31 1 32
REMARK H PARENT
REMARK Flexibility Score: inf
ROOT
ATOM      1  C   UNL     1       6.725  -5.747   9.677  1.00  0.00     0.000 C 
ENDROOT
BRANCH   1   2
ATOM      2  C   UNL     1       5.962  -7.009  10.125  1.00  0.00     0.000 C 
BRANCH   2   3
ATOM      3  C   UNL     1       6.633  -8.348   9.765  1.00  0.00     0.000 C 
BRANCH   3   4
ATOM      4  C   UNL     1       5.622  -9.444   9.393  1.00  0.00     0.000 C 
BRANCH   4   5
ATOM      5  C   UNL     1       4.267  -9.266  10.104  1.00  0.00     0.000 C 
BRANCH   5   6
ATOM      6  C   UNL     1       3.115 -10.125   9.543  1.00  0.00     0.000 C 
BRANCH   6   7
ATOM      7  C   UNL     1       2.528  -9.641   8.201  1.00  0.00     0.000 C 
BRANCH   7   8
ATOM      8  C   UNL     1       3.092  -8.302   7.691  1.00  0.00     0.000 C 
BRANCH   8   9
ATOM      9  C   UNL     1       2.441  -7.048   8.305  1.00  0.00     0.000 C 
BRANCH   9  10
ATOM     10  C   UNL     1       3.432  -5.890   8.551  1.00  0.00     0.000 C 
BRANCH  10  11
ATOM     11  C   UNL     1       2.731  -4.589   8.969  1.00  0.00     0.000 C 
BRANCH  11  12
ATOM     12  C   UNL     1       1.238  -4.634   8.613  1.00  0.00     0.000 C 
BRANCH  12  13
ATOM     13  C   UNL     1       0.955  -3.860   7.321  1.00  0.00     0.006 C 
BRANCH  13  14
ATOM     14  C   UNL     1      -0.410  -4.249   6.738  1.00  0.00     0.053 C 
BRANCH  14  15
ATOM     15  C   UNL     1      -0.687  -5.711   6.918  1.00  0.00     0.041 C 
ATOM     16  O   UNL     1      -1.874  -6.129   6.998  1.00  0.00    -0.550 OA
ATOM     17  O   UNL     1       0.365  -6.618   6.949  1.00  0.00    -0.550 OA
ENDBRANCH  14  15
ENDBRANCH  13  14
ENDBRANCH  12  13
ENDBRANCH  11  12
ENDBRANCH  10  11
ENDBRANCH   9  10
ENDBRANCH   8   9
ENDBRANCH   7   8
ENDBRANCH   6   7
ENDBRANCH   5   6
ENDBRANCH   4   5
ENDBRANCH   3   4
ENDBRANCH   2   3
ENDBRANCH   1   2
BRANCH   1  18
ATOM     18  C   UNL     1       8.197  -5.662  10.124  1.00  0.00     0.000 C 
BRANCH  18  19
ATOM     19  C   UNL     1       8.911  -4.354   9.719  1.00  0.00     0.000 C 
BRANCH  19  20
ATOM     20  C   UNL     1       8.018  -3.111   9.882  1.00  0.00     0.000 C 
BRANCH  20  21
ATOM     21  C   UNL     1       8.776  -1.794   9.628  1.00  0.00     0.000 C 
BRANCH  21  22
ATOM     22  C   UNL     1       8.287  -0.979   8.410  1.00  0.00     0.000 C 
BRANCH  22  23
ATOM     23  C   UNL     1       8.217  -1.758   7.083  1.00  0.00     0.000 C 
BRANCH  23  24
ATOM     24  C   UNL     1       8.663  -3.222   7.225  1.00  0.00    -0.000 C 
BRANCH  24  25
ATOM     25  C   UNL     1       7.865  -4.133   6.280  1.00  0.00    -0.000 C 
BRANCH  25  26
ATOM     26  C   UNL     1       7.520  -5.492   6.918  1.00  0.00    -0.000 C 
BRANCH  26  27
ATOM     27  C   UNL     1       6.242  -6.162   6.373  1.00  0.00    -0.000 C 
BRANCH  27  28
ATOM     28  C   UNL     1       6.438  -7.565   5.763  1.00  0.00    -0.000 C 
BRANCH  28  29
ATOM     29  C   UNL     1       5.935  -8.730   6.639  1.00  0.00    -0.000 C 
BRANCH  29  30
ATOM     30  C   UNL     1       5.779 -10.063   5.871  1.00  0.00    -0.000 C 
BRANCH  30  31
ATOM     31  C   UNL     1       6.324 -10.008   4.433  1.00  0.00    -0.003 C 
ATOM     32  C   UNL     1       5.232  -9.756   3.396  1.00  0.00     0.004 C 
ENDBRANCH  30  31
ENDBRANCH  29  30
ENDBRANCH  28  29
ENDBRANCH  27  28
ENDBRANCH  26  27
ENDBRANCH  25  26
ENDBRANCH  24  25
ENDBRANCH  23  24
ENDBRANCH  22  23
ENDBRANCH  21  22
ENDBRANCH  20  21
ENDBRANCH  19  20
ENDBRANCH  18  19
ENDBRANCH   1  18
TORSDOF 28
ENDMDL
MODEL 4
REMARK VINA RESULT:     4.520     12.008     18.470
REMARK INTER + INTRA:          11.325
REMARK INTER:                  12.468
REMARK INTRA:                  -1.143
REMARK UNBOUND:                -0.592
REMARK SMILES CCCCCCCCCCCCCCCCCCCCCCCCCCCCCC(=O)[O-]
REMARK SMILES IDX 16 1 17 2 18 3 19 4 20 5 21 6 22 7 23 8 24 9 25 10 26 11
REMARK SMILES IDX 27 12 28 13 29 14 30 15 31 16 32 17 15 18 14 19 13 20 12 21
REMARK SMILES IDX 11 22 10 23 9 24 8 25 7 26 6 27 5 28 4 29 3 30 2 31 1 32
REMARK H PARENT
REMARK Flexibility Score: inf
ROOT
ATOM      1  C   UNL     1      -4.971   3.943   2.492  1.00  0.00     0.000 C 
ENDROOT
BRANCH   1   2
ATOM      2  C   UNL     1      -6.154   3.837   1.511  1.00  0.00     0.000 C 
BRANCH   2   3
ATOM      3  C   UNL     1      -6.011   2.761   0.417  1.00  0.00     0.000 C 
BRANCH   3   4
ATOM      4  C   UNL     1      -7.232   1.833   0.325  1.00  0.00     0.000 C 
BRANCH   4   5
ATOM      5  C   UNL     1      -7.517   1.370  -1.116  1.00  0.00     0.000 C 
BRANCH   5   6
ATOM      6  C   UNL     1      -7.097   2.362  -2.219  1.00  0.00     0.000 C 
BRANCH   6   7
ATOM      7  C   UNL     1      -7.296   1.862  -3.664  1.00  0.00     0.000 C 
BRANCH   7   8
ATOM      8  C   UNL     1      -6.712   2.779  -4.754  1.00  0.00     0.000 C 
BRANCH   8   9
ATOM      9  C   UNL     1      -7.228   2.503  -6.180  1.00  0.00     0.000 C 
BRANCH   9  10
ATOM     10  C   UNL     1      -6.200   2.828  -7.286  1.00  0.00     0.000 C 
BRANCH  10  11
ATOM     11  C   UNL     1      -4.775   2.993  -6.740  1.00  0.00     0.000 C 
BRANCH  11  12
ATOM     12  C   UNL     1      -3.771   2.193  -7.581  1.00  0.00     0.000 C 
BRANCH  12  13
ATOM     13  C   UNL     1      -3.477   2.901  -8.909  1.00  0.00     0.006 C 
BRANCH  13  14
ATOM     14  C   UNL     1      -2.617   4.151  -8.684  1.00  0.00     0.053 C 
BRANCH  14  15
ATOM     15  C   UNL     1      -3.323   5.392  -9.142  1.00  0.00     0.041 C 
ATOM     16  O   UNL     1      -2.797   6.526  -8.965  1.00  0.00    -0.550 OA
ATOM     17  O   UNL     1      -4.538   5.295  -9.806  1.00  0.00    -0.550 OA
ENDBRANCH  14  15
ENDBRANCH  13  14
ENDBRANCH  12  13
ENDBRANCH  11  12
ENDBRANCH  10  11
ENDBRANCH   9  10
ENDBRANCH   8   9
ENDBRANCH   7   8
ENDBRANCH   6   7
ENDBRANCH   5   6
ENDBRANCH   4   5
ENDBRANCH   3   4
ENDBRANCH   2   3
ENDBRANCH   1   2
BRANCH   1  18
ATOM     18  C   UNL     1      -4.874   5.261   3.283  1.00  0.00     0.000 C 
BRANCH  18  19
ATOM     19  C   UNL     1      -4.108   5.147   4.619  1.00  0.00     0.000 C 
BRANCH  19  20
ATOM     20  C   UNL     1      -2.631   5.563   4.498  1.00  0.00     0.000 C 
BRANCH  20  21
ATOM     21  C   UNL     1      -2.449   7.083   4.323  1.00  0.00     0.000 C 
BRANCH  21  22
ATOM     22  C   UNL     1      -2.115   7.858   5.617  1.00  0.00     0.000 C 
BRANCH  22  23
ATOM     23  C   UNL     1      -3.082   7.622   6.793  1.00  0.00     0.000 C 
BRANCH  23  24
ATOM     24  C   UNL     1      -2.770   8.508   8.010  1.00  0.00    -0.000 C 
BRANCH  24  25
ATOM     25  C   UNL     1      -1.405   9.195   7.854  1.00  0.00    -0.000 C 
BRANCH  25  26
ATOM     26  C   UNL     1      -0.523   9.054   9.108  1.00  0.00    -0.000 C 
BRANCH  26  27
ATOM     27  C   UNL     1       0.799   9.846   9.068  1.00  0.00    -0.000 C 
BRANCH  27  28
ATOM     28  C   UNL     1       2.040   9.092   9.590  1.00  0.00    -0.000 C 
BRANCH  28  29
ATOM     29  C   UNL     1       3.224   9.029   8.604  1.00  0.00    -0.000 C 
BRANCH  29  30
ATOM     30  C   UNL     1       4.602   9.231   9.275  1.00  0.00    -0.000 C 
BRANCH  30  31
ATOM     31  C   UNL     1       5.704   8.328   8.695  1.00  0.00    -0.003 C 
ATOM     32  C   UNL     1       7.110   8.830   9.016  1.00  0.00     0.004 C 
ENDBRANCH  30  31
ENDBRANCH  29  30
ENDBRANCH  28  29
ENDBRANCH  27  28
ENDBRANCH  26  27
ENDBRANCH  25  26
ENDBRANCH  24  25
ENDBRANCH  23  24
ENDBRANCH  22  23
ENDBRANCH  21  22
ENDBRANCH  20  21
ENDBRANCH  19  20
ENDBRANCH  18  19
ENDBRANCH   1  18
TORSDOF 28
ENDMDL
MODEL 5
REMARK VINA RESULT:     4.606      8.715     14.278
REMARK INTER + INTRA:          11.554
REMARK INTER:                  13.301
REMARK INTRA:                  -1.747
REMARK UNBOUND:                -0.592
REMARK SMILES CCCCCCCCCCCCCCCCCCCCCCCCCCCCCC(=O)[O-]
REMARK SMILES IDX 16 1 17 2 18 3 19 4 20 5 21 6 22 7 23 8 24 9 25 10 26 11
REMARK SMILES IDX 27 12 28 13 29 14 30 15 31 16 32 17 15 18 14 19 13 20 12 21
REMARK SMILES IDX 11 22 10 23 9 24 8 25 7 26 6 27 5 28 4 29 3 30 2 31 1 32
REMARK H PARENT
REMARK Flexibility Score: inf
ROOT
ATOM      1  C   UNL     1      -3.669  -4.935   4.149  1.00  0.00     0.000 C 
ENDROOT
BRANCH   1   2
ATOM      2  C   UNL     1      -2.644  -5.822   4.883  1.00  0.00     0.000 C 
BRANCH   2   3
ATOM      3  C   UNL     1      -1.577  -5.065   5.696  1.00  0.00     0.000 C 
BRANCH   3   4
ATOM      4  C   UNL     1      -0.846  -5.961   6.707  1.00  0.00     0.000 C 
BRANCH   4   5
ATOM      5  C   UNL     1       0.209  -5.193   7.526  1.00  0.00     0.000 C 
BRANCH   5   6
ATOM      6  C   UNL     1       1.560  -5.917   7.697  1.00  0.00     0.000 C 
BRANCH   6   7
ATOM      7  C   UNL     1       1.464  -7.430   7.982  1.00  0.00     0.000 C 
BRANCH   7   8
ATOM      8  C   UNL     1       2.531  -8.290   7.281  1.00  0.00     0.000 C 
BRANCH   8   9
ATOM      9  C   UNL     1       3.303  -9.248   8.207  1.00  0.00     0.000 C 
BRANCH   9  10
ATOM     10  C   UNL     1       3.544  -8.683   9.624  1.00  0.00     0.000 C 
BRANCH  10  11
ATOM     11  C   UNL     1       4.942  -8.070   9.787  1.00  0.00     0.000 C 
BRANCH  11  12
ATOM     12  C   UNL     1       4.868  -6.537   9.812  1.00  0.00     0.000 C 
BRANCH  12  13
ATOM     13  C   UNL     1       5.350  -5.939   8.485  1.00  0.00     0.006 C 
BRANCH  13  14
ATOM     14  C   UNL     1       5.878  -7.036   7.551  1.00  0.00     0.053 C 
BRANCH  14  15
ATOM     15  C   UNL     1       6.681  -6.457   6.425  1.00  0.00     0.041 C 
ATOM     16  O   UNL     1       7.339  -5.394   6.593  1.00  0.00    -0.550 OA
ATOM     17  O   UNL     1       6.742  -7.117   5.205  1.00  0.00    -0.550 OA
ENDBRANCH  14  15
ENDBRANCH  13  14
ENDBRANCH  12  13
ENDBRANCH  11  12
ENDBRANCH  10  11
ENDBRANCH   9  10
ENDBRANCH   8   9
ENDBRANCH   7   8
ENDBRANCH   6   7
ENDBRANCH   5   6
ENDBRANCH   4   5
ENDBRANCH   3   4
ENDBRANCH   2   3
ENDBRANCH   1   2
BRANCH   1  18
ATOM     18  C   UNL     1      -4.341  -5.569   2.916  1.00  0.00     0.000 C 
BRANCH  18  19
ATOM     19  C   UNL     1      -3.380  -5.849   1.741  1.00  0.00     0.000 C 
BRANCH  19  20
ATOM     20  C   UNL     1      -4.011  -6.735   0.652  1.00  0.00     0.000 C 
BRANCH  20  21
ATOM     21  C   UNL     1      -3.474  -6.424  -0.758  1.00  0.00     0.000 C 
BRANCH  21  22
ATOM     22  C   UNL     1      -3.943  -7.390  -1.868  1.00  0.00     0.000 C 
BRANCH  22  23
ATOM     23  C   UNL     1      -2.926  -8.475  -2.268  1.00  0.00     0.000 C 
BRANCH  23  24
ATOM     24  C   UNL     1      -1.879  -7.973  -3.275  1.00  0.00    -0.000 C 
BRANCH  24  25
ATOM     25  C   UNL     1      -1.552  -9.055  -4.314  1.00  0.00    -0.000 C 
BRANCH  25  26
ATOM     26  C   UNL     1      -1.506  -8.504  -5.751  1.00  0.00    -0.000 C 
BRANCH  26  27
ATOM     27  C   UNL     1      -0.167  -8.714  -6.488  1.00  0.00    -0.000 C 
BRANCH  27  28
ATOM     28  C   UNL     1      -0.182  -9.785  -7.598  1.00  0.00    -0.000 C 
BRANCH  28  29
ATOM     29  C   UNL     1       0.839  -9.561  -8.731  1.00  0.00    -0.000 C 
BRANCH  29  30
ATOM     30  C   UNL     1       0.485  -8.377  -9.661  1.00  0.00    -0.000 C 
BRANCH  30  31
ATOM     31  C   UNL     1      -1.022  -8.252  -9.946  1.00  0.00    -0.003 C 
ATOM     32  C   UNL     1      -1.573  -6.867  -9.615  1.00  0.00     0.004 C 
ENDBRANCH  30  31
ENDBRANCH  29  30
ENDBRANCH  28  29
ENDBRANCH  27  28
ENDBRANCH  26  27
ENDBRANCH  25  26
ENDBRANCH  24  25
ENDBRANCH  23  24
ENDBRANCH  22  23
ENDBRANCH  21  22
ENDBRANCH  20  21
ENDBRANCH  19  20
ENDBRANCH  18  19
ENDBRANCH   1  18
TORSDOF 28
ENDMDL
MODEL 6
REMARK VINA RESULT:     4.825      6.485     10.902
REMARK INTER + INTRA:          12.129
REMARK INTER:                  14.258
REMARK INTRA:                  -2.129
REMARK UNBOUND:                -0.592
REMARK SMILES CCCCCCCCCCCCCCCCCCCCCCCCCCCCCC(=O)[O-]
REMARK SMILES IDX 16 1 17 2 18 3 19 4 20 5 21 6 22 7 23 8 24 9 25 10 26 11
REMARK SMILES IDX 27 12 28 13 29 14 30 15 31 16 32 17 15 18 14 19 13 20 12 21
REMARK SMILES IDX 11 22 10 23 9 24 8 25 7 26 6 27 5 28 4 29 3 30 2 31 1 32
REMARK H PARENT
REMARK Flexibility Score: inf
ROOT
ATOM      1  C   UNL     1       5.973  -6.008   8.174  1.00  0.00     0.000 C 
ENDROOT
BRANCH   1   2
ATOM      2  C   UNL     1       6.662  -6.449   6.868  1.00  0.00     0.000 C 
BRANCH   2   3
ATOM      3  C   UNL     1       5.807  -7.326   5.934  1.00  0.00     0.000 C 
BRANCH   3   4
ATOM      4  C   UNL     1       6.392  -8.732   5.730  1.00  0.00     0.000 C 
BRANCH   4   5
ATOM      5  C   UNL     1       5.858  -9.751   6.755  1.00  0.00     0.000 C 
BRANCH   5   6
ATOM      6  C   UNL     1       4.355 -10.076   6.635  1.00  0.00     0.000 C 
BRANCH   6   7
ATOM      7  C   UNL     1       3.539  -9.904   7.932  1.00  0.00     0.000 C 
BRANCH   7   8
ATOM      8  C   UNL     1       4.379  -9.840   9.221  1.00  0.00     0.000 C 
BRANCH   8   9
ATOM      9  C   UNL     1       4.088  -8.626  10.125  1.00  0.00     0.000 C 
BRANCH   9  10
ATOM     10  C   UNL     1       3.285  -7.508   9.424  1.00  0.00     0.000 C 
BRANCH  10  11
ATOM     11  C   UNL     1       3.496  -6.132  10.073  1.00  0.00     0.000 C 
BRANCH  11  12
ATOM     12  C   UNL     1       2.973  -5.013   9.164  1.00  0.00     0.000 C 
BRANCH  12  13
ATOM     13  C   UNL     1       2.407  -5.582   7.858  1.00  0.00     0.006 C 
BRANCH  13  14
ATOM     14  C   UNL     1       1.195  -4.767   7.386  1.00  0.00     0.053 C 
BRANCH  14  15
ATOM     15  C   UNL     1      -0.073  -5.559   7.490  1.00  0.00     0.041 C 
ATOM     16  O   UNL     1      -0.242  -6.587   6.779  1.00  0.00    -0.550 OA
ATOM     17  O   UNL     1      -1.049  -5.190   8.407  1.00  0.00    -0.550 OA
ENDBRANCH  14  15
ENDBRANCH  13  14
ENDBRANCH  12  13
ENDBRANCH  11  12
ENDBRANCH  10  11
ENDBRANCH   9  10
ENDBRANCH   8   9
ENDBRANCH   7   8
ENDBRANCH   6   7
ENDBRANCH   5   6
ENDBRANCH   4   5
ENDBRANCH   3   4
ENDBRANCH   2   3
ENDBRANCH   1   2
BRANCH   1  18
ATOM     18  C   UNL     1       6.795  -6.204   9.463  1.00  0.00     0.000 C 
BRANCH  18  19
ATOM     19  C   UNL     1       7.567  -4.949   9.923  1.00  0.00     0.000 C 
BRANCH  19  20
ATOM     20  C   UNL     1       9.070  -5.213  10.125  1.00  0.00     0.000 C 
BRANCH  20  21
ATOM     21  C   UNL     1       9.902  -4.933   8.858  1.00  0.00     0.000 C 
BRANCH  21  22
ATOM     22  C   UNL     1       9.091  -4.835   7.547  1.00  0.00     0.000 C 
BRANCH  22  23
ATOM     23  C   UNL     1       9.085  -3.447   6.880  1.00  0.00     0.000 C 
BRANCH  23  24
ATOM     24  C   UNL     1       7.668  -2.889   6.672  1.00  0.00    -0.000 C 
BRANCH  24  25
ATOM     25  C   UNL     1       7.647  -1.847   5.544  1.00  0.00    -0.000 C 
BRANCH  25  26
ATOM     26  C   UNL     1       8.196  -2.400   4.216  1.00  0.00    -0.000 C 
BRANCH  26  27
ATOM     27  C   UNL     1       9.186  -1.472   3.483  1.00  0.00    -0.000 C 
BRANCH  27  28
ATOM     28  C   UNL     1       8.572  -0.591   2.375  1.00  0.00    -0.000 C 
BRANCH  28  29
ATOM     29  C   UNL     1       7.253  -1.121   1.780  1.00  0.00    -0.000 C 
BRANCH  29  30
ATOM     30  C   UNL     1       6.799  -0.369   0.507  1.00  0.00    -0.000 C 
BRANCH  30  31
ATOM     31  C   UNL     1       6.490  -1.300  -0.678  1.00  0.00    -0.003 C 
ATOM     32  C   UNL     1       7.659  -2.218  -1.028  1.00  0.00     0.004 C 
ENDBRANCH  30  31
ENDBRANCH  29  30
ENDBRANCH  28  29
ENDBRANCH  27  28
ENDBRANCH  26  27
ENDBRANCH  25  26
ENDBRANCH  24  25
ENDBRANCH  23  24
ENDBRANCH  22  23
ENDBRANCH  21  22
ENDBRANCH  20  21
ENDBRANCH  19  20
ENDBRANCH  18  19
ENDBRANCH   1  18
TORSDOF 28
ENDMDL
MODEL 7
REMARK VINA RESULT:     5.101      3.362     12.590
REMARK INTER + INTRA:          12.857
REMARK INTER:                  14.204
REMARK INTRA:                  -1.347
REMARK UNBOUND:                -0.592
REMARK SMILES CCCCCCCCCCCCCCCCCCCCCCCCCCCCCC(=O)[O-]
REMARK SMILES IDX 16 1 17 2 18 3 19 4 20 5 21 6 22 7 23 8 24 9 25 10 26 11
REMARK SMILES IDX 27 12 28 13 29 14 30 15 31 16 32 17 15 18 14 19 13 20 12 21
REMARK SMILES IDX 11 22 10 23 9 24 8 25 7 26 6 27 5 28 4 29 3 30 2 31 1 32
REMARK H PARENT
REMARK Flexibility Score: inf
ROOT
ATOM      1  C   UNL     1       9.098  -4.743   7.831  1.00  0.00     0.000 C 
ENDROOT
BRANCH   1   2
ATOM      2  C   UNL     1      10.036  -5.424   8.846  1.00  0.00     0.000 C 
BRANCH   2   3
ATOM      3  C   UNL     1       9.350  -5.981  10.108  1.00  0.00     0.000 C 
BRANCH   3   4
ATOM      4  C   UNL     1       8.478  -7.213   9.822  1.00  0.00     0.000 C 
BRANCH   4   5
ATOM      5  C   UNL     1       6.988  -6.968  10.125  1.00  0.00     0.000 C 
BRANCH   5   6
ATOM      6  C   UNL     1       6.068  -8.189   9.922  1.00  0.00     0.000 C 
BRANCH   6   7
ATOM      7  C   UNL     1       5.593  -8.420   8.473  1.00  0.00     0.000 C 
BRANCH   7   8
ATOM      8  C   UNL     1       5.016  -9.821   8.196  1.00  0.00     0.000 C 
BRANCH   8   9
ATOM      9  C   UNL     1       4.569 -10.062   6.741  1.00  0.00     0.000 C 
BRANCH   9  10
ATOM     10  C   UNL     1       3.036 -10.122   6.564  1.00  0.00     0.000 C 
BRANCH  10  11
ATOM     11  C   UNL     1       2.288  -9.252   7.585  1.00  0.00     0.000 C 
BRANCH  11  12
ATOM     12  C   UNL     1       2.208  -7.796   7.108  1.00  0.00     0.000 C 
BRANCH  12  13
ATOM     13  C   UNL     1       2.358  -6.821   8.282  1.00  0.00     0.006 C 
BRANCH  13  14
ATOM     14  C   UNL     1       1.138  -5.897   8.386  1.00  0.00     0.053 C 
BRANCH  14  15
ATOM     15  C   UNL     1       1.234  -4.753   7.422  1.00  0.00     0.041 C 
ATOM     16  O   UNL     1       0.284  -3.929   7.315  1.00  0.00    -0.550 OA
ATOM     17  O   UNL     1       2.391  -4.568   6.676  1.00  0.00    -0.550 OA
ENDBRANCH  14  15
ENDBRANCH  13  14
ENDBRANCH  12  13
ENDBRANCH  11  12
ENDBRANCH  10  11
ENDBRANCH   9  10
ENDBRANCH   8   9
ENDBRANCH   7   8
ENDBRANCH   6   7
ENDBRANCH   5   6
ENDBRANCH   4   5
ENDBRANCH   3   4
ENDBRANCH   2   3
ENDBRANCH   1   2
BRANCH   1  18
ATOM     18  C   UNL     1       7.882  -4.011   8.430  1.00  0.00     0.000 C 
BRANCH  18  19
ATOM     19  C   UNL     1       8.221  -3.067   9.603  1.00  0.00     0.000 C 
BRANCH  19  20
ATOM     20  C   UNL     1       9.193  -1.942   9.203  1.00  0.00     0.000 C 
BRANCH  20  21
ATOM     21  C   UNL     1       9.092  -0.710  10.122  1.00  0.00     0.000 C 
BRANCH  21  22
ATOM     22  C   UNL     1       8.925   0.642   9.394  1.00  0.00     0.000 C 
BRANCH  22  23
ATOM     23  C   UNL     1       7.730   1.496   9.858  1.00  0.00     0.000 C 
BRANCH  23  24
ATOM     24  C   UNL     1       8.109   2.961  10.124  1.00  0.00    -0.000 C 
BRANCH  24  25
ATOM     25  C   UNL     1       9.127   3.462   9.089  1.00  0.00    -0.000 C 
BRANCH  25  26
ATOM     26  C   UNL     1       9.872   4.728   9.553  1.00  0.00    -0.000 C 
BRANCH  26  27
ATOM     27  C   UNL     1       8.963   5.892   9.999  1.00  0.00    -0.000 C 
BRANCH  27  28
ATOM     28  C   UNL     1       9.587   7.299   9.889  1.00  0.00    -0.000 C 
BRANCH  28  29
ATOM     29  C   UNL     1       8.572   8.449   9.733  1.00  0.00    -0.000 C 
BRANCH  29  30
ATOM     30  C   UNL     1       7.116   7.969   9.531  1.00  0.00    -0.000 C 
BRANCH  30  31
ATOM     31  C   UNL     1       6.064   8.992   9.992  1.00  0.00    -0.003 C 
ATOM     32  C   UNL     1       5.301   9.620   8.829  1.00  0.00     0.004 C 
ENDBRANCH  30  31
ENDBRANCH  29  30
ENDBRANCH  28  29
ENDBRANCH  27  28
ENDBRANCH  26  27
ENDBRANCH  25  26
ENDBRANCH  24  25
ENDBRANCH  23  24
ENDBRANCH  22  23
ENDBRANCH  21  22
ENDBRANCH  20  21
ENDBRANCH  19  20
ENDBRANCH  18  19
ENDBRANCH   1  18
TORSDOF 28
ENDMDL
