MODEL 1
REMARK VINA RESULT:    -3.903      0.000      0.000
REMARK INTER + INTRA:          -5.249
REMARK INTER:                  -5.158
REMARK INTRA:                  -0.091
REMARK UNBOUND:                -0.091
REMARK SMILES CCCCCCCO
REMARK SMILES IDX 5 1 4 2 3 3 2 4 1 5 6 6 7 7 8 8
REMARK H PARENT 8 9
REMARK Flexibility Score: inf
ROOT
ATOM      1  C   UNL     1      -1.474 -16.262  19.670  1.00  0.00     0.002 C 
ENDROOT
BRANCH   1   2
ATOM      2  C   UNL     1      -2.059 -17.024  20.864  1.00  0.00     0.000 C 
BRANCH   2   3
ATOM      3  C   UNL     1      -3.473 -17.534  20.553  1.00  0.00    -0.000 C 
BRANCH   3   4
ATOM      4  C   UNL     1      -3.963 -18.576  21.570  1.00  0.00    -0.003 C 
ATOM      5  C   UNL     1      -4.772 -19.700  20.923  1.00  0.00     0.004 C 
ENDBRANCH   3   4
ENDBRANCH   2   3
ENDBRANCH   1   2
BRANCH   1   6
ATOM      6  C   UNL     1      -1.768 -14.760  19.778  1.00  0.00     0.028 C 
BRANCH   6   7
ATOM      7  C   UNL     1      -0.551 -13.914  19.386  1.00  0.00     0.156 C 
BRANCH   7   8
ATOM      8  O   UNL     1       0.549 -14.728  19.081  1.00  0.00    -0.396 OA
ATOM      9  H   UNL     1       0.257 -15.665  19.224  1.00  0.00     0.210 HD
ENDBRANCH   7   8
ENDBRANCH   6   7
ENDBRANCH   1   6
TORSDOF 6
ENDMDL
MODEL 2
REMARK VINA RESULT:    -3.897     12.907     14.315
REMARK INTER + INTRA:          -5.241
REMARK INTER:                  -5.072
REMARK INTRA:                  -0.169
REMARK UNBOUND:                -0.091
REMARK SMILES CCCCCCCO
REMARK SMILES IDX 5 1 4 2 3 3 2 4 1 5 6 6 7 7 8 8
REMARK H PARENT 8 9
REMARK Flexibility Score: inf
ROOT
ATOM      1  C   UNL     1     -10.059 -27.652  18.026  1.00  0.00     0.002 C 
ENDROOT
BRANCH   1   2
ATOM      2  C   UNL     1      -8.551 -27.867  18.202  1.00  0.00     0.000 C 
BRANCH   2   3
ATOM      3  C   UNL     1      -7.750 -26.895  17.323  1.00  0.00    -0.000 C 
BRANCH   3   4
ATOM      4  C   UNL     1      -7.530 -27.430  15.900  1.00  0.00    -0.003 C 
ATOM      5  C   UNL     1      -7.080 -28.891  15.881  1.00  0.00     0.004 C 
ENDBRANCH   3   4
ENDBRANCH   2   3
ENDBRANCH   1   2
BRANCH   1   6
ATOM      6  C   UNL     1     -10.855 -28.488  19.036  1.00  0.00     0.028 C 
BRANCH   6   7
ATOM      7  C   UNL     1     -10.021 -28.826  20.276  1.00  0.00     0.156 C 
BRANCH   7   8
ATOM      8  O   UNL     1     -10.766 -28.639  21.450  1.00  0.00    -0.396 OA
ATOM      9  H   UNL     1     -10.396 -29.267  22.124  1.00  0.00     0.210 HD
ENDBRANCH   7   8
ENDBRANCH   6   7
ENDBRANCH   1   6
TORSDOF 6
ENDMDL
MODEL 3
REMARK VINA RESULT:    -3.839      2.885      5.177
REMARK INTER + INTRA:          -5.164
REMARK INTER:                  -5.044
REMARK INTRA:                  -0.120
REMARK UNBOUND:                -0.091
REMARK SMILES CCCCCCCO
REMARK SMILES IDX 5 1 4 2 3 3 2 4 1 5 6 6 7 7 8 8
REMARK H PARENT 8 9
REMARK Flexibility Score: inf
ROOT
ATOM      1  C   UNL     1      -3.274 -17.705  20.506  1.00  0.00     0.002 C 
ENDROOT
BRANCH   1   2
ATOM      2  C   UNL     1      -2.277 -16.600  20.875  1.00  0.00     0.000 C 
BRANCH   2   3
ATOM      3  C   UNL     1      -1.548 -16.079  19.628  1.00  0.00    -0.000 C 
BRANCH   3   4
ATOM      4  C   UNL     1      -2.024 -14.681  19.206  1.00  0.00    -0.003 C 
ATOM      5  C   UNL     1      -2.491 -13.833  20.389  1.00  0.00     0.004 C 
ENDBRANCH   3   4
ENDBRANCH   2   3
ENDBRANCH   1   2
BRANCH   1   6
ATOM      6  C   UNL     1      -3.376 -18.750  21.625  1.00  0.00     0.028 C 
BRANCH   6   7
ATOM      7  C   UNL     1      -4.759 -19.410  21.662  1.00  0.00     0.156 C 
BRANCH   7   8
ATOM      8  O   UNL     1      -4.997 -20.143  20.490  1.00  0.00    -0.396 OA
ATOM      9  H   UNL     1      -5.978 -20.288  20.441  1.00  0.00     0.210 HD
ENDBRANCH   7   8
ENDBRANCH   6   7
ENDBRANCH   1   6
TORSDOF 6
ENDMDL
MODEL 4
REMARK VINA RESULT:    -3.778      1.354      1.561
REMARK INTER + INTRA:          -5.084
REMARK INTER:                  -4.960
REMARK INTRA:                  -0.124
REMARK UNBOUND:                -0.091
REMARK SMILES CCCCCCCO
REMARK SMILES IDX 5 1 4 2 3 3 2 4 1 5 6 6 7 7 8 8
REMARK H PARENT 8 9
REMARK Flexibility Score: inf
ROOT
ATOM      1  C   UNL     1      -1.476 -16.767  19.951  1.00  0.00     0.002 C 
ENDROOT
BRANCH   1   2
ATOM      2  C   UNL     1      -2.611 -16.911  20.971  1.00  0.00     0.000 C 
BRANCH   2   3
ATOM      3  C   UNL     1      -3.528 -18.088  20.611  1.00  0.00    -0.000 C 
BRANCH   3   4
ATOM      4  C   UNL     1      -4.161 -18.744  21.848  1.00  0.00    -0.003 C 
ATOM      5  C   UNL     1      -3.137 -19.470  22.721  1.00  0.00     0.004 C 
ENDBRANCH   3   4
ENDBRANCH   2   3
ENDBRANCH   1   2
BRANCH   1   6
ATOM      6  C   UNL     1      -1.075 -15.296  19.777  1.00  0.00     0.028 C 
BRANCH   6   7
ATOM      7  C   UNL     1      -2.241 -14.448  19.258  1.00  0.00     0.156 C 
BRANCH   7   8
ATOM      8  O   UNL     1      -2.042 -14.088  17.917  1.00  0.00    -0.396 OA
ATOM      9  H   UNL     1      -2.254 -14.891  17.373  1.00  0.00     0.210 HD
ENDBRANCH   7   8
ENDBRANCH   6   7
ENDBRANCH   1   6
TORSDOF 6
ENDMDL
MODEL 5
REMARK VINA RESULT:    -3.630      3.060      5.066
REMARK INTER + INTRA:          -4.889
REMARK INTER:                  -4.818
REMARK INTRA:                  -0.071
REMARK UNBOUND:                -0.091
REMARK SMILES CCCCCCCO
REMARK SMILES IDX 5 1 4 2 3 3 2 4 1 5 6 6 7 7 8 8
REMARK H PARENT 8 9
REMARK Flexibility Score: inf
ROOT
ATOM      1  C   UNL     1      -2.268 -14.127  20.476  1.00  0.00     0.002 C 
ENDROOT
BRANCH   1   2
ATOM      2  C   UNL     1      -3.330 -13.100  20.066  1.00  0.00     0.000 C 
BRANCH   2   3
ATOM      3  C   UNL     1      -3.707 -12.196  21.248  1.00  0.00    -0.000 C 
BRANCH   3   4
ATOM      4  C   UNL     1      -4.152 -10.794  20.802  1.00  0.00    -0.003 C 
ATOM      5  C   UNL     1      -5.433 -10.819  19.968  1.00  0.00     0.004 C 
ENDBRANCH   3   4
ENDBRANCH   2   3
ENDBRANCH   1   2
BRANCH   1   6
ATOM      6  C   UNL     1      -2.042 -15.159  19.364  1.00  0.00     0.028 C 
BRANCH   6   7
ATOM      7  C   UNL     1      -1.295 -16.394  19.879  1.00  0.00     0.156 C 
BRANCH   7   8
ATOM      8  O   UNL     1      -0.128 -16.622  19.137  1.00  0.00    -0.396 OA
ATOM      9  H   UNL     1       0.245 -15.730  18.913  1.00  0.00     0.210 HD
ENDBRANCH   7   8
ENDBRANCH   6   7
ENDBRANCH   1   6
TORSDOF 6
ENDMDL
MODEL 6
REMARK VINA RESULT:    -3.613      2.438      4.676
REMARK INTER + INTRA:          -4.866
REMARK INTER:                  -4.590
REMARK INTRA:                  -0.276
REMARK UNBOUND:                -0.091
REMARK SMILES CCCCCCCO
REMARK SMILES IDX 5 1 4 2 3 3 2 4 1 5 6 6 7 7 8 8
REMARK H PARENT 8 9
REMARK Flexibility Score: inf
ROOT
ATOM      1  C   UNL     1      -1.912 -15.016  19.225  1.00  0.00     0.002 C 
ENDROOT
BRANCH   1   2
ATOM      2  C   UNL     1      -1.035 -13.886  19.776  1.00  0.00     0.000 C 
BRANCH   2   3
ATOM      3  C   UNL     1      -1.887 -12.826  20.488  1.00  0.00    -0.000 C 
BRANCH   3   4
ATOM      4  C   UNL     1      -3.394 -13.046  20.287  1.00  0.00    -0.003 C 
ATOM      5  C   UNL     1      -4.181 -11.737  20.226  1.00  0.00     0.004 C 
ENDBRANCH   3   4
ENDBRANCH   2   3
ENDBRANCH   1   2
BRANCH   1   6
ATOM      6  C   UNL     1      -1.443 -16.381  19.746  1.00  0.00     0.028 C 
BRANCH   6   7
ATOM      7  C   UNL     1      -2.541 -17.091  20.546  1.00  0.00     0.156 C 
BRANCH   7   8
ATOM      8  O   UNL     1      -2.886 -16.354  21.688  1.00  0.00    -0.396 OA
ATOM      9  H   UNL     1      -2.244 -15.599  21.744  1.00  0.00     0.210 HD
ENDBRANCH   7   8
ENDBRANCH   6   7
ENDBRANCH   1   6
TORSDOF 6
ENDMDL
MODEL 7
REMARK VINA RESULT:    -3.567     12.327     13.553
REMARK INTER + INTRA:          -4.805
REMARK INTER:                  -4.639
REMARK INTRA:                  -0.166
REMARK UNBOUND:                -0.091
REMARK SMILES CCCCCCCO
REMARK SMILES IDX 5 1 4 2 3 3 2 4 1 5 6 6 7 7 8 8
REMARK H PARENT 8 9
REMARK Flexibility Score: inf
ROOT
ATOM      1  C   UNL     1      -8.442 -26.929  18.364  1.00  0.00     0.002 C 
ENDROOT
BRANCH   1   2
ATOM      2  C   UNL     1      -8.954 -28.365  18.527  1.00  0.00     0.000 C 
BRANCH   2   3
ATOM      3  C   UNL     1     -10.452 -28.380  18.863  1.00  0.00    -0.000 C 
BRANCH   3   4
ATOM      4  C   UNL     1     -10.756 -29.124  20.173  1.00  0.00    -0.003 C 
ATOM      5  C   UNL     1      -9.646 -28.968  21.212  1.00  0.00     0.004 C 
ENDBRANCH   3   4
ENDBRANCH   2   3
ENDBRANCH   1   2
BRANCH   1   6
ATOM      6  C   UNL     1      -7.241 -26.877  17.411  1.00  0.00     0.028 C 
BRANCH   6   7
ATOM      7  C   UNL     1      -7.378 -27.892  16.270  1.00  0.00     0.156 C 
BRANCH   7   8
ATOM      8  O   UNL     1      -8.192 -27.388  15.245  1.00  0.00    -0.396 OA
ATOM      9  H   UNL     1      -9.051 -27.127  15.667  1.00  0.00     0.210 HD
ENDBRANCH   7   8
ENDBRANCH   6   7
ENDBRANCH   1   6
TORSDOF 6
ENDMDL
MODEL 8
REMARK VINA RESULT:    -3.504      9.533     11.381
REMARK INTER + INTRA:          -4.722
REMARK INTER:                  -4.518
REMARK INTRA:                  -0.203
REMARK UNBOUND:                -0.091
REMARK SMILES CCCCCCCO
REMARK SMILES IDX 5 1 4 2 3 3 2 4 1 5 6 6 7 7 8 8
REMARK H PARENT 8 9
REMARK Flexibility Score: inf
ROOT
ATOM      1  C   UNL     1       6.186 -11.247  16.750  1.00  0.00     0.002 C 
ENDROOT
BRANCH   1   2
ATOM      2  C   UNL     1       7.571 -10.948  17.337  1.00  0.00     0.000 C 
BRANCH   2   3
ATOM      3  C   UNL     1       8.057 -12.107  18.218  1.00  0.00    -0.000 C 
BRANCH   3   4
ATOM      4  C   UNL     1       8.726 -11.623  19.514  1.00  0.00    -0.003 C 
ATOM      5  C   UNL     1       8.802 -10.099  19.607  1.00  0.00     0.004 C 
ENDBRANCH   3   4
ENDBRANCH   2   3
ENDBRANCH   1   2
BRANCH   1   6
ATOM      6  C   UNL     1       5.803 -12.716  16.967  1.00  0.00     0.028 C 
BRANCH   6   7
ATOM      7  C   UNL     1       5.160 -13.326  15.716  1.00  0.00     0.156 C 
BRANCH   7   8
ATOM      8  O   UNL     1       3.829 -12.904  15.579  1.00  0.00    -0.396 OA
ATOM      9  H   UNL     1       3.479 -13.334  14.756  1.00  0.00     0.210 HD
ENDBRANCH   7   8
ENDBRANCH   6   7
ENDBRANCH   1   6
TORSDOF 6
ENDMDL
MODEL 9
REMARK VINA RESULT:    -3.397      8.868     11.837
REMARK INTER + INTRA:          -4.580
REMARK INTER:                  -4.341
REMARK INTRA:                  -0.239
REMARK UNBOUND:                -0.091
REMARK SMILES CCCCCCCO
REMARK SMILES IDX 5 1 4 2 3 3 2 4 1 5 6 6 7 7 8 8
REMARK H PARENT 8 9
REMARK Flexibility Score: inf
ROOT
ATOM      1  C   UNL     1       6.718 -12.674  17.279  1.00  0.00     0.002 C 
ENDROOT
BRANCH   1   2
ATOM      2  C   UNL     1       7.811 -11.871  17.994  1.00  0.00     0.000 C 
BRANCH   2   3
ATOM      3  C   UNL     1       7.834 -10.416  17.504  1.00  0.00    -0.000 C 
BRANCH   3   4
ATOM      4  C   UNL     1       9.085 -10.093  16.672  1.00  0.00    -0.003 C 
ATOM      5  C   UNL     1       8.747  -9.625  15.256  1.00  0.00     0.004 C 
ENDBRANCH   3   4
ENDBRANCH   2   3
ENDBRANCH   1   2
BRANCH   1   6
ATOM      6  C   UNL     1       5.672 -11.743  16.653  1.00  0.00     0.028 C 
BRANCH   6   7
ATOM      7  C   UNL     1       4.254 -12.310  16.788  1.00  0.00     0.156 C 
BRANCH   7   8
ATOM      8  O   UNL     1       3.875 -12.996  15.625  1.00  0.00    -0.396 OA
ATOM      9  H   UNL     1       4.455 -12.659  14.894  1.00  0.00     0.210 HD
ENDBRANCH   7   8
ENDBRANCH   6   7
ENDBRANCH   1   6
TORSDOF 6
ENDMDL
