MODEL 1
REMARK VINA RESULT:     1.324      0.000      0.000
REMARK INTER + INTRA:           0.788
REMARK INTER:                   2.021
REMARK INTRA:                  -1.232
REMARK UNBOUND:                -1.232
REMARK SMILES OC[C@@H]1O[C@@](CO)(O[C@H]2O[C@H](CO)[C@@H](O)[C@H](O)[C@H]2O)[C@H](O)[C@H]1O
REMARK SMILES IDX 8 1 9 2 11 3 14 4 10 5 16 6 18 7 12 8 13 9 15 11 17 13 19 15
REMARK SMILES IDX 5 17 20 18 4 19 22 20 3 21 6 22 7 23 21 25 23 27 2 29 1 30
REMARK H PARENT 13 10 15 12 17 14 19 16 7 24 21 26 23 28 1 31
REMARK Flexibility Score: inf
ROOT
ATOM      1  O   UNL     1      36.844  26.402  34.590  1.00  0.00    -0.313 OA
ENDROOT
BRANCH   1   2
ATOM      2  C   UNL     1      37.450  25.818  35.747  1.00  0.00     0.285 C 
ATOM      3  C   UNL     1      37.946  27.970  36.569  1.00  0.00     0.178 C 
ATOM      4  C   UNL     1      36.907  27.870  37.715  1.00  0.00     0.177 C 
ATOM      5  O   UNL     1      38.465  26.691  36.224  1.00  0.00    -0.341 OA
ATOM      6  C   UNL     1      35.800  26.869  37.338  1.00  0.00     0.179 C 
ATOM      7  C   UNL     1      36.445  25.550  36.891  1.00  0.00     0.202 C 
BRANCH   3   8
ATOM      8  C   UNL     1      39.119  28.885  36.955  1.00  0.00     0.191 C 
BRANCH   8   9
ATOM      9  O   UNL     1      39.021  29.291  38.294  1.00  0.00    -0.394 OA
ATOM     10  H   UNL     1      39.925  29.190  38.694  1.00  0.00     0.210 HD
ENDBRANCH   8   9
ENDBRANCH   3   8
BRANCH   4  11
ATOM     11  O   UNL     1      36.342  29.135  37.949  1.00  0.00    -0.387 OA
ATOM     12  H   UNL     1      35.949  29.439  37.090  1.00  0.00     0.211 HD
ENDBRANCH   4  11
BRANCH   6  13
ATOM     13  O   UNL     1      34.976  26.648  38.453  1.00  0.00    -0.387 OA
ATOM     14  H   UNL     1      35.337  27.203  39.192  1.00  0.00     0.211 HD
ENDBRANCH   6  13
BRANCH   7  15
ATOM     15  O   UNL     1      35.461  24.627  36.509  1.00  0.00    -0.385 OA
ATOM     16  H   UNL     1      35.433  24.630  35.516  1.00  0.00     0.211 HD
ENDBRANCH   7  15
ENDBRANCH   1   2
BRANCH   1  17
ATOM     17  C   UNL     1      36.601  25.609  33.418  1.00  0.00     0.224 C 
ATOM     18  C   UNL     1      36.985  26.453  32.185  1.00  0.00     0.208 C 
ATOM     19  O   UNL     1      37.516  24.535  33.468  1.00  0.00    -0.337 OA
ATOM     20  C   UNL     1      38.482  26.266  32.106  1.00  0.00     0.180 C 
ATOM     21  C   UNL     1      38.707  24.924  32.816  1.00  0.00     0.179 C 
BRANCH  17  22
ATOM     22  C   UNL     1      35.185  24.970  33.303  1.00  0.00     0.225 C 
BRANCH  22  23
ATOM     23  O   UNL     1      34.262  25.663  34.101  1.00  0.00    -0.391 OA
ATOM     24  H   UNL     1      34.182  26.571  33.709  1.00  0.00     0.210 HD
ENDBRANCH  22  23
ENDBRANCH  17  22
BRANCH  18  25
ATOM     25  O   UNL     1      36.384  25.971  31.010  1.00  0.00    -0.385 OA
ATOM     26  H   UNL     1      36.330  26.737  30.379  1.00  0.00     0.211 HD
ENDBRANCH  18  25
BRANCH  20  27
ATOM     27  O   UNL     1      39.125  27.301  32.805  1.00  0.00    -0.387 OA
ATOM     28  H   UNL     1      38.527  28.093  32.747  1.00  0.00     0.211 HD
ENDBRANCH  20  27
BRANCH  21  29
ATOM     29  C   UNL     1      39.122  23.815  31.841  1.00  0.00     0.191 C 
BRANCH  29  30
ATOM     30  O   UNL     1      38.696  24.120  30.539  1.00  0.00    -0.394 OA
ATOM     31  H   UNL     1      38.605  23.261  30.053  1.00  0.00     0.210 HD
ENDBRANCH  29  30
ENDBRANCH  21  29
ENDBRANCH   1  17
TORSDOF 13
ENDMDL
MODEL 2
REMARK VINA RESULT:     2.464      1.110      2.940
REMARK INTER + INTRA:           2.529
REMARK INTER:                   1.008
REMARK INTRA:                   1.520
REMARK UNBOUND:                -1.232
REMARK SMILES OC[C@@H]1O[C@@](CO)(O[C@H]2O[C@H](CO)[C@@H](O)[C@H](O)[C@H]2O)[C@H](O)[C@H]1O
REMARK SMILES IDX 8 1 9 2 11 3 14 4 10 5 16 6 18 7 12 8 13 9 15 11 17 13 19 15
REMARK SMILES IDX 5 17 20 18 4 19 22 20 3 21 6 22 7 23 21 25 23 27 2 29 1 30
REMARK H PARENT 13 10 15 12 17 14 19 16 7 24 21 26 23 28 1 31
REMARK Flexibility Score: inf
ROOT
ATOM      1  O   UNL     1      36.786  26.597  34.642  1.00  0.00    -0.313 OA
ENDROOT
BRANCH   1   2
ATOM      2  C   UNL     1      37.506  26.015  35.732  1.00  0.00     0.285 C 
ATOM      3  C   UNL     1      37.965  28.167  36.573  1.00  0.00     0.178 C 
ATOM      4  C   UNL     1      37.025  27.990  37.792  1.00  0.00     0.177 C 
ATOM      5  O   UNL     1      38.514  26.923  36.154  1.00  0.00    -0.341 OA
ATOM      6  C   UNL     1      35.938  26.947  37.473  1.00  0.00     0.179 C 
ATOM      7  C   UNL     1      36.607  25.672  36.942  1.00  0.00     0.202 C 
BRANCH   3   8
ATOM      8  C   UNL     1      39.122  29.127  36.893  1.00  0.00     0.191 C 
BRANCH   8   9
ATOM      9  O   UNL     1      39.113  29.492  38.248  1.00  0.00    -0.394 OA
ATOM     10  H   UNL     1      38.302  30.046  38.393  1.00  0.00     0.210 HD
ENDBRANCH   8   9
ENDBRANCH   3   8
BRANCH   4  11
ATOM     11  O   UNL     1      36.422  29.220  38.104  1.00  0.00    -0.387 OA
ATOM     12  H   UNL     1      35.766  29.411  37.384  1.00  0.00     0.211 HD
ENDBRANCH   4  11
BRANCH   6  13
ATOM     13  O   UNL     1      35.214  26.660  38.641  1.00  0.00    -0.387 OA
ATOM     14  H   UNL     1      35.263  25.677  38.775  1.00  0.00     0.211 HD
ENDBRANCH   6  13
BRANCH   7  15
ATOM     15  O   UNL     1      35.639  24.712  36.610  1.00  0.00    -0.385 OA
ATOM     16  H   UNL     1      35.047  25.124  35.928  1.00  0.00     0.211 HD
ENDBRANCH   7  15
ENDBRANCH   1   2
BRANCH   1  17
ATOM     17  C   UNL     1      36.757  25.949  33.360  1.00  0.00     0.224 C 
ATOM     18  C   UNL     1      36.495  24.447  33.594  1.00  0.00     0.208 C 
ATOM     19  O   UNL     1      35.624  26.452  32.686  1.00  0.00    -0.337 OA
ATOM     20  C   UNL     1      34.994  24.390  33.752  1.00  0.00     0.180 C 
ATOM     21  C   UNL     1      34.514  25.635  32.994  1.00  0.00     0.179 C 
BRANCH  17  22
ATOM     22  C   UNL     1      37.975  26.219  32.427  1.00  0.00     0.225 C 
BRANCH  22  23
ATOM     23  O   UNL     1      38.922  27.031  33.070  1.00  0.00    -0.391 OA
ATOM     24  H   UNL     1      38.516  27.301  33.934  1.00  0.00     0.210 HD
ENDBRANCH  22  23
ENDBRANCH  17  22
BRANCH  18  25
ATOM     25  O   UNL     1      36.886  23.667  32.492  1.00  0.00    -0.385 OA
ATOM     26  H   UNL     1      37.424  22.912  32.849  1.00  0.00     0.211 HD
ENDBRANCH  18  25
BRANCH  20  27
ATOM     27  O   UNL     1      34.659  24.488  35.113  1.00  0.00    -0.387 OA
ATOM     28  H   UNL     1      33.683  24.311  35.176  1.00  0.00     0.211 HD
ENDBRANCH  20  27
BRANCH  21  29
ATOM     29  C   UNL     1      33.786  25.275  31.692  1.00  0.00     0.191 C 
BRANCH  29  30
ATOM     30  O   UNL     1      32.488  24.817  31.965  1.00  0.00    -0.394 OA
ATOM     31  H   UNL     1      32.023  25.536  32.465  1.00  0.00     0.210 HD
ENDBRANCH  29  30
ENDBRANCH  21  29
ENDBRANCH   1  17
TORSDOF 13
ENDMDL
MODEL 3
REMARK VINA RESULT:     2.685     20.126     21.493
REMARK INTER + INTRA:           2.866
REMARK INTER:                   0.873
REMARK INTRA:                   1.993
REMARK UNBOUND:                -1.232
REMARK SMILES OC[C@@H]1O[C@@](CO)(O[C@H]2O[C@H](CO)[C@@H](O)[C@H](O)[C@H]2O)[C@H](O)[C@H]1O
REMARK SMILES IDX 8 1 9 2 11 3 14 4 10 5 16 6 18 7 12 8 13 9 15 11 17 13 19 15
REMARK SMILES IDX 5 17 20 18 4 19 22 20 3 21 6 22 7 23 21 25 23 27 2 29 1 30
REMARK H PARENT 13 10 15 12 17 14 19 16 7 24 21 26 23 28 1 31
REMARK Flexibility Score: inf
ROOT
ATOM      1  O   UNL     1      20.963  14.591  38.045  1.00  0.00    -0.313 OA
ENDROOT
BRANCH   1   2
ATOM      2  C   UNL     1      19.679  14.668  38.670  1.00  0.00     0.285 C 
ATOM      3  C   UNL     1      20.216  12.795  39.995  1.00  0.00     0.178 C 
ATOM      4  C   UNL     1      20.312  13.631  41.297  1.00  0.00     0.177 C 
ATOM      5  O   UNL     1      19.288  13.365  39.079  1.00  0.00    -0.341 OA
ATOM      6  C   UNL     1      20.644  15.096  40.960  1.00  0.00     0.179 C 
ATOM      7  C   UNL     1      19.656  15.604  39.901  1.00  0.00     0.202 C 
BRANCH   3   8
ATOM      8  C   UNL     1      19.787  11.349  40.288  1.00  0.00     0.191 C 
BRANCH   8   9
ATOM      9  O   UNL     1      18.911  11.296  41.383  1.00  0.00    -0.394 OA
ATOM     10  H   UNL     1      19.128  10.468  41.887  1.00  0.00     0.210 HD
ENDBRANCH   8   9
ENDBRANCH   3   8
BRANCH   4  11
ATOM     11  O   UNL     1      21.314  13.098  42.125  1.00  0.00    -0.387 OA
ATOM     12  H   UNL     1      21.258  13.578  42.992  1.00  0.00     0.211 HD
ENDBRANCH   4  11
BRANCH   6  13
ATOM     13  O   UNL     1      20.541  15.874  42.125  1.00  0.00    -0.387 OA
ATOM     14  H   UNL     1      21.440  16.261  42.292  1.00  0.00     0.211 HD
ENDBRANCH   6  13
BRANCH   7  15
ATOM     15  O   UNL     1      19.952  16.928  39.549  1.00  0.00    -0.385 OA
ATOM     16  H   UNL     1      19.085  17.385  39.386  1.00  0.00     0.211 HD
ENDBRANCH   7  15
ENDBRANCH   1   2
BRANCH   1  17
ATOM     17  C   UNL     1      21.353  13.410  37.328  1.00  0.00     0.224 C 
ATOM     18  C   UNL     1      20.071  12.720  36.817  1.00  0.00     0.208 C 
ATOM     19  O   UNL     1      22.052  13.852  36.184  1.00  0.00    -0.337 OA
ATOM     20  C   UNL     1      19.760  13.488  35.553  1.00  0.00     0.180 C 
ATOM     21  C   UNL     1      21.127  14.043  35.134  1.00  0.00     0.179 C 
BRANCH  17  22
ATOM     22  C   UNL     1      22.313  12.438  38.077  1.00  0.00     0.225 C 
BRANCH  22  23
ATOM     23  O   UNL     1      23.349  12.014  37.231  1.00  0.00    -0.391 OA
ATOM     24  H   UNL     1      23.445  11.038  37.377  1.00  0.00     0.210 HD
ENDBRANCH  22  23
ENDBRANCH  17  22
BRANCH  18  25
ATOM     25  O   UNL     1      20.290  11.367  36.507  1.00  0.00    -0.385 OA
ATOM     26  H   UNL     1      19.401  10.924  36.503  1.00  0.00     0.211 HD
ENDBRANCH  18  25
BRANCH  20  27
ATOM     27  O   UNL     1      18.875  14.539  35.847  1.00  0.00    -0.387 OA
ATOM     28  H   UNL     1      18.010  14.305  35.419  1.00  0.00     0.211 HD
ENDBRANCH  20  27
BRANCH  21  29
ATOM     29  C   UNL     1      21.666  13.362  33.869  1.00  0.00     0.191 C 
BRANCH  29  30
ATOM     30  O   UNL     1      20.673  13.311  32.878  1.00  0.00    -0.394 OA
ATOM     31  H   UNL     1      20.417  14.247  32.672  1.00  0.00     0.210 HD
ENDBRANCH  29  30
ENDBRANCH  21  29
ENDBRANCH   1  17
TORSDOF 13
ENDMDL
