MODEL 1
REMARK VINA RESULT:    -2.099      0.000      0.000
REMARK INTER + INTRA:          -2.099
REMARK INTER:                  -2.099
REMARK INTRA:                   0.000
REMARK UNBOUND:                 0.000
REMARK SMILES CC(=O)[O-]
REMARK SMILES IDX 1 1 2 2 3 3 4 4
REMARK H PARENT
REMARK Flexibility Score: inf
ROOT
ATOM      1  C   UNL     1      -3.684  -3.654  35.467  1.00  0.00     0.063 C 
ATOM      2  C   UNL     1      -4.223  -3.145  34.173  1.00  0.00     0.038 C 
ATOM      3  O   UNL     1      -3.898  -3.703  33.092  1.00  0.00    -0.550 OA
ATOM      4  O   UNL     1      -5.124  -2.089  34.161  1.00  0.00    -0.550 OA
ENDROOT
TORSDOF 0
ENDMDL
MODEL 2
REMARK VINA RESULT:    -2.080      1.347      1.757
REMARK INTER + INTRA:          -2.080
REMARK INTER:                  -2.080
REMARK INTRA:                   0.000
REMARK UNBOUND:                 0.000
REMARK SMILES CC(=O)[O-]
REMARK SMILES IDX 1 1 2 2 3 3 4 4
REMARK H PARENT
REMARK Flexibility Score: inf
ROOT
ATOM      1  C   UNL     1      -5.022  -2.022  34.363  1.00  0.00     0.063 C 
ATOM      2  C   UNL     1      -4.257  -3.294  34.221  1.00  0.00     0.038 C 
ATOM      3  O   UNL     1      -3.929  -3.709  33.078  1.00  0.00    -0.550 OA
ATOM      4  O   UNL     1      -3.860  -3.997  35.350  1.00  0.00    -0.550 OA
ENDROOT
TORSDOF 0
ENDMDL
MODEL 3
REMARK VINA RESULT:    -2.072      1.880      2.117
REMARK INTER + INTRA:          -2.072
REMARK INTER:                  -2.072
REMARK INTRA:                   0.000
REMARK UNBOUND:                 0.000
REMARK SMILES CC(=O)[O-]
REMARK SMILES IDX 1 1 2 2 3 3 4 4
REMARK H PARENT
REMARK Flexibility Score: inf
ROOT
ATOM      1  C   UNL     1      -3.886  -3.245  33.781  1.00  0.00     0.063 C 
ATOM      2  C   UNL     1      -4.132  -3.594  35.209  1.00  0.00     0.038 C 
ATOM      3  O   UNL     1      -3.164  -3.851  35.972  1.00  0.00    -0.550 OA
ATOM      4  O   UNL     1      -5.425  -3.583  35.715  1.00  0.00    -0.550 OA
ENDROOT
TORSDOF 0
ENDMDL
MODEL 4
REMARK VINA RESULT:    -2.070      1.900      2.444
REMARK INTER + INTRA:          -2.070
REMARK INTER:                  -2.070
REMARK INTRA:                   0.000
REMARK UNBOUND:                 0.000
REMARK SMILES CC(=O)[O-]
REMARK SMILES IDX 1 1 2 2 3 3 4 4
REMARK H PARENT
REMARK Flexibility Score: inf
ROOT
ATOM      1  C   UNL     1      -3.935  -3.269  33.761  1.00  0.00     0.063 C 
ATOM      2  C   UNL     1      -4.162  -3.566  35.205  1.00  0.00     0.038 C 
ATOM      3  O   UNL     1      -5.333  -3.586  35.668  1.00  0.00    -0.550 OA
ATOM      4  O   UNL     1      -3.089  -3.873  36.030  1.00  0.00    -0.550 OA
ENDROOT
TORSDOF 0
ENDMDL
MODEL 5
REMARK VINA RESULT:    -2.047      1.372      1.980
REMARK INTER + INTRA:          -2.047
REMARK INTER:                  -2.047
REMARK INTRA:                   0.000
REMARK UNBOUND:                 0.000
REMARK SMILES CC(=O)[O-]
REMARK SMILES IDX 1 1 2 2 3 3 4 4
REMARK H PARENT
REMARK Flexibility Score: inf
ROOT
ATOM      1  C   UNL     1      -5.182  -2.133  34.622  1.00  0.00     0.063 C 
ATOM      2  C   UNL     1      -4.273  -3.294  34.400  1.00  0.00     0.038 C 
ATOM      3  O   UNL     1      -3.876  -3.981  35.378  1.00  0.00    -0.550 OA
ATOM      4  O   UNL     1      -3.904  -3.652  33.111  1.00  0.00    -0.550 OA
ENDROOT
TORSDOF 0
ENDMDL
MODEL 6
REMARK VINA RESULT:    -1.962      1.769      1.815
REMARK INTER + INTRA:          -1.962
REMARK INTER:                  -1.962
REMARK INTRA:                   0.000
REMARK UNBOUND:                 0.000
REMARK SMILES CC(=O)[O-]
REMARK SMILES IDX 1 1 2 2 3 3 4 4
REMARK H PARENT
REMARK Flexibility Score: inf
ROOT
ATOM      1  C   UNL     1      -3.896  -3.259  33.745  1.00  0.00     0.063 C 
ATOM      2  C   UNL     1      -5.035  -2.798  34.589  1.00  0.00     0.038 C 
ATOM      3  O   UNL     1      -5.411  -3.489  35.573  1.00  0.00    -0.550 OA
ATOM      4  O   UNL     1      -5.649  -1.582  34.326  1.00  0.00    -0.550 OA
ENDROOT
TORSDOF 0
ENDMDL
MODEL 7
REMARK VINA RESULT:    -1.961      1.887      2.089
REMARK INTER + INTRA:          -1.961
REMARK INTER:                  -1.961
REMARK INTRA:                   0.000
REMARK UNBOUND:                 0.000
REMARK SMILES CC(=O)[O-]
REMARK SMILES IDX 1 1 2 2 3 3 4 4
REMARK H PARENT
REMARK Flexibility Score: inf
ROOT
ATOM      1  C   UNL     1      -5.528  -2.920  36.318  1.00  0.00     0.063 C 
ATOM      2  C   UNL     1      -4.510  -3.374  35.328  1.00  0.00     0.038 C 
ATOM      3  O   UNL     1      -4.670  -3.131  34.102  1.00  0.00    -0.550 OA
ATOM      4  O   UNL     1      -3.359  -4.019  35.759  1.00  0.00    -0.550 OA
ENDROOT
TORSDOF 0
ENDMDL
MODEL 8
REMARK VINA RESULT:    -1.800     11.590     11.700
REMARK INTER + INTRA:          -1.800
REMARK INTER:                  -1.800
REMARK INTRA:                   0.000
REMARK UNBOUND:                 0.000
REMARK SMILES CC(=O)[O-]
REMARK SMILES IDX 1 1 2 2 3 3 4 4
REMARK H PARENT
REMARK Flexibility Score: inf
ROOT
ATOM      1  C   UNL     1      -9.714 -13.516  37.749  1.00  0.00     0.063 C 
ATOM      2  C   UNL     1     -10.582 -12.372  37.351  1.00  0.00     0.038 C 
ATOM      3  O   UNL     1     -10.600 -11.980  36.154  1.00  0.00    -0.550 OA
ATOM      4  O   UNL     1     -11.412 -11.770  38.287  1.00  0.00    -0.550 OA
ENDROOT
TORSDOF 0
ENDMDL
MODEL 9
REMARK VINA RESULT:    -1.792     11.429     11.870
REMARK INTER + INTRA:          -1.792
REMARK INTER:                  -1.792
REMARK INTRA:                   0.000
REMARK UNBOUND:                 0.000
REMARK SMILES CC(=O)[O-]
REMARK SMILES IDX 1 1 2 2 3 3 4 4
REMARK H PARENT
REMARK Flexibility Score: inf
ROOT
ATOM      1  C   UNL     1     -14.186   1.650  29.018  1.00  0.00     0.063 C 
ATOM      2  C   UNL     1     -14.412   0.510  29.952  1.00  0.00     0.038 C 
ATOM      3  O   UNL     1     -15.011   0.699  31.044  1.00  0.00    -0.550 OA
ATOM      4  O   UNL     1     -14.012  -0.771  29.598  1.00  0.00    -0.550 OA
ENDROOT
TORSDOF 0
ENDMDL
