MODEL 1
REMARK VINA RESULT:    -3.934      0.000      0.000
REMARK INTER + INTRA:          -8.430
REMARK INTER:                  -6.694
REMARK INTRA:                  -1.736
REMARK UNBOUND:                -1.736
REMARK SMILES CCCCCCCCCCCCCC(=O)[O-]
REMARK SMILES IDX 8 1 9 2 10 3 11 4 12 5 13 6 14 7 15 8 16 9 7 10 6 11 5 12
REMARK SMILES IDX 4 13 3 14 2 15 1 16
REMARK H PARENT
REMARK Flexibility Score: inf
ROOT
ATOM      1  C   UNL     1     154.372 171.044 164.863  1.00  0.00     0.000 C 
ENDROOT
BRANCH   1   2
ATOM      2  C   UNL     1     154.881 171.809 163.629  1.00  0.00     0.000 C 
BRANCH   2   3
ATOM      3  C   UNL     1     153.837 172.781 163.053  1.00  0.00     0.000 C 
BRANCH   3   4
ATOM      4  C   UNL     1     154.122 174.251 163.411  1.00  0.00     0.000 C 
BRANCH   4   5
ATOM      5  C   UNL     1     154.769 175.088 162.289  1.00  0.00     0.006 C 
BRANCH   5   6
ATOM      6  C   UNL     1     155.129 174.293 161.024  1.00  0.00     0.053 C 
BRANCH   6   7
ATOM      7  C   UNL     1     156.424 174.748 160.425  1.00  0.00     0.041 C 
ATOM      8  O   UNL     1     156.953 174.093 159.488  1.00  0.00    -0.550 OA
ATOM      9  O   UNL     1     157.063 175.876 160.923  1.00  0.00    -0.550 OA
ENDBRANCH   6   7
ENDBRANCH   5   6
ENDBRANCH   4   5
ENDBRANCH   3   4
ENDBRANCH   2   3
ENDBRANCH   1   2
BRANCH   1  10
ATOM     10  C   UNL     1     154.352 171.854 166.176  1.00  0.00     0.000 C 
BRANCH  10  11
ATOM     11  C   UNL     1     155.518 171.560 167.142  1.00  0.00    -0.000 C 
BRANCH  11  12
ATOM     12  C   UNL     1     156.513 172.722 167.333  1.00  0.00    -0.000 C 
BRANCH  12  13
ATOM     13  C   UNL     1     156.513 173.767 166.203  1.00  0.00    -0.000 C 
BRANCH  13  14
ATOM     14  C   UNL     1     157.906 173.975 165.584  1.00  0.00    -0.000 C 
BRANCH  14  15
ATOM     15  C   UNL     1     157.841 174.290 164.082  1.00  0.00    -0.003 C 
ATOM     16  C   UNL     1     158.210 173.090 163.211  1.00  0.00     0.004 C 
ENDBRANCH  14  15
ENDBRANCH  13  14
ENDBRANCH  12  13
ENDBRANCH  11  12
ENDBRANCH  10  11
ENDBRANCH   1  10
TORSDOF 12
ENDMDL
MODEL 2
REMARK VINA RESULT:    -3.861      2.134      4.449
REMARK INTER + INTRA:          -8.305
REMARK INTER:                  -6.316
REMARK INTRA:                  -1.989
REMARK UNBOUND:                -1.736
REMARK SMILES CCCCCCCCCCCCCC(=O)[O-]
REMARK SMILES IDX 8 1 9 2 10 3 11 4 12 5 13 6 14 7 15 8 16 9 7 10 6 11 5 12
REMARK SMILES IDX 4 13 3 14 2 15 1 16
REMARK H PARENT
REMARK Flexibility Score: inf
ROOT
ATOM      1  C   UNL     1     154.604 171.780 163.654  1.00  0.00     0.000 C 
ENDROOT
BRANCH   1   2
ATOM      2  C   UNL     1     155.947 172.522 163.768  1.00  0.00     0.000 C 
BRANCH   2   3
ATOM      3  C   UNL     1     156.102 173.279 165.098  1.00  0.00     0.000 C 
BRANCH   3   4
ATOM      4  C   UNL     1     156.251 174.800 164.911  1.00  0.00     0.000 C 
BRANCH   4   5
ATOM      5  C   UNL     1     157.694 175.297 164.687  1.00  0.00     0.006 C 
BRANCH   5   6
ATOM      6  C   UNL     1     158.775 174.461 165.392  1.00  0.00     0.053 C 
BRANCH   6   7
ATOM      7  C   UNL     1     159.718 173.826 164.416  1.00  0.00     0.041 C 
ATOM      8  O   UNL     1     159.327 173.537 163.255  1.00  0.00    -0.550 OA
ATOM      9  O   UNL     1     161.019 173.525 164.800  1.00  0.00    -0.550 OA
ENDBRANCH   6   7
ENDBRANCH   5   6
ENDBRANCH   4   5
ENDBRANCH   3   4
ENDBRANCH   2   3
ENDBRANCH   1   2
BRANCH   1  10
ATOM     10  C   UNL     1     153.374 172.680 163.414  1.00  0.00     0.000 C 
BRANCH  10  11
ATOM     11  C   UNL     1     153.387 173.464 162.087  1.00  0.00    -0.000 C 
BRANCH  11  12
ATOM     12  C   UNL     1     153.605 174.984 162.232  1.00  0.00    -0.000 C 
BRANCH  12  13
ATOM     13  C   UNL     1     154.861 175.528 161.527  1.00  0.00    -0.000 C 
BRANCH  13  14
ATOM     14  C   UNL     1     155.538 174.482 160.625  1.00  0.00    -0.000 C 
BRANCH  14  15
ATOM     15  C   UNL     1     157.069 174.511 160.737  1.00  0.00    -0.003 C 
ATOM     16  C   UNL     1     157.611 175.907 161.048  1.00  0.00     0.004 C 
ENDBRANCH  14  15
ENDBRANCH  13  14
ENDBRANCH  12  13
ENDBRANCH  11  12
ENDBRANCH  10  11
ENDBRANCH   1  10
TORSDOF 12
ENDMDL
MODEL 3
REMARK VINA RESULT:    -3.829      2.157      4.305
REMARK INTER + INTRA:          -8.250
REMARK INTER:                  -6.331
REMARK INTRA:                  -1.919
REMARK UNBOUND:                -1.736
REMARK SMILES CCCCCCCCCCCCCC(=O)[O-]
REMARK SMILES IDX 8 1 9 2 10 3 11 4 12 5 13 6 14 7 15 8 16 9 7 10 6 11 5 12
REMARK SMILES IDX 4 13 3 14 2 15 1 16
REMARK H PARENT
REMARK Flexibility Score: inf
ROOT
ATOM      1  C   UNL     1     154.895 171.366 164.076  1.00  0.00     0.000 C 
ENDROOT
BRANCH   1   2
ATOM      2  C   UNL     1     154.389 171.379 165.529  1.00  0.00     0.000 C 
BRANCH   2   3
ATOM      3  C   UNL     1     155.358 172.080 166.495  1.00  0.00     0.000 C 
BRANCH   3   4
ATOM      4  C   UNL     1     155.263 173.616 166.432  1.00  0.00     0.000 C 
BRANCH   4   5
ATOM      5  C   UNL     1     156.490 174.327 165.824  1.00  0.00     0.006 C 
BRANCH   5   6
ATOM      6  C   UNL     1     157.845 173.732 166.240  1.00  0.00     0.053 C 
BRANCH   6   7
ATOM      7  C   UNL     1     158.994 174.576 165.779  1.00  0.00     0.041 C 
ATOM      8  O   UNL     1     158.795 175.545 165.000  1.00  0.00    -0.550 OA
ATOM      9  O   UNL     1     160.288 174.271 166.182  1.00  0.00    -0.550 OA
ENDBRANCH   6   7
ENDBRANCH   5   6
ENDBRANCH   4   5
ENDBRANCH   3   4
ENDBRANCH   2   3
ENDBRANCH   1   2
BRANCH   1  10
ATOM     10  C   UNL     1     153.945 172.006 163.043  1.00  0.00     0.000 C 
BRANCH  10  11
ATOM     11  C   UNL     1     153.264 173.311 163.502  1.00  0.00    -0.000 C 
BRANCH  11  12
ATOM     12  C   UNL     1     153.963 174.606 163.042  1.00  0.00    -0.000 C 
BRANCH  12  13
ATOM     13  C   UNL     1     154.967 174.427 161.890  1.00  0.00    -0.000 C 
BRANCH  13  14
ATOM     14  C   UNL     1     156.319 175.107 162.167  1.00  0.00    -0.000 C 
BRANCH  14  15
ATOM     15  C   UNL     1     157.509 174.273 161.669  1.00  0.00    -0.003 C 
ATOM     16  C   UNL     1     157.844 173.109 162.600  1.00  0.00     0.004 C 
ENDBRANCH  14  15
ENDBRANCH  13  14
ENDBRANCH  12  13
ENDBRANCH  11  12
ENDBRANCH  10  11
ENDBRANCH   1  10
TORSDOF 12
ENDMDL
MODEL 4
REMARK VINA RESULT:    -3.806      2.055      3.878
REMARK INTER + INTRA:          -8.212
REMARK INTER:                  -6.536
REMARK INTRA:                  -1.676
REMARK UNBOUND:                -1.736
REMARK SMILES CCCCCCCCCCCCCC(=O)[O-]
REMARK SMILES IDX 8 1 9 2 10 3 11 4 12 5 13 6 14 7 15 8 16 9 7 10 6 11 5 12
REMARK SMILES IDX 4 13 3 14 2 15 1 16
REMARK H PARENT
REMARK Flexibility Score: inf
ROOT
ATOM      1  C   UNL     1     156.975 172.747 163.272  1.00  0.00     0.000 C 
ENDROOT
BRANCH   1   2
ATOM      2  C   UNL     1     158.203 173.376 162.591  1.00  0.00     0.000 C 
BRANCH   2   3
ATOM      3  C   UNL     1     157.833 174.266 161.392  1.00  0.00     0.000 C 
BRANCH   3   4
ATOM      4  C   UNL     1     156.332 174.224 161.053  1.00  0.00     0.000 C 
BRANCH   4   5
ATOM      5  C   UNL     1     155.956 174.767 159.659  1.00  0.00     0.006 C 
BRANCH   5   6
ATOM      6  C   UNL     1     157.122 175.402 158.884  1.00  0.00     0.053 C 
BRANCH   6   7
ATOM      7  C   UNL     1     157.363 174.717 157.574  1.00  0.00     0.041 C 
ATOM      8  O   UNL     1     158.066 175.273 156.689  1.00  0.00    -0.550 OA
ATOM      9  O   UNL     1     156.785 173.480 157.318  1.00  0.00    -0.550 OA
ENDBRANCH   6   7
ENDBRANCH   5   6
ENDBRANCH   4   5
ENDBRANCH   3   4
ENDBRANCH   2   3
ENDBRANCH   1   2
BRANCH   1  10
ATOM     10  C   UNL     1     156.738 173.183 164.732  1.00  0.00     0.000 C 
BRANCH  10  11
ATOM     11  C   UNL     1     156.859 174.698 164.991  1.00  0.00    -0.000 C 
BRANCH  11  12
ATOM     12  C   UNL     1     155.649 175.535 164.531  1.00  0.00    -0.000 C 
BRANCH  12  13
ATOM     13  C   UNL     1     154.301 174.792 164.553  1.00  0.00    -0.000 C 
BRANCH  13  14
ATOM     14  C   UNL     1     153.615 174.762 163.177  1.00  0.00    -0.000 C 
BRANCH  14  15
ATOM     15  C   UNL     1     153.247 173.338 162.735  1.00  0.00    -0.003 C 
ATOM     16  C   UNL     1     153.175 172.357 163.905  1.00  0.00     0.004 C 
ENDBRANCH  14  15
ENDBRANCH  13  14
ENDBRANCH  12  13
ENDBRANCH  11  12
ENDBRANCH  10  11
ENDBRANCH   1  10
TORSDOF 12
ENDMDL
MODEL 5
REMARK VINA RESULT:    -3.803      1.534      4.022
REMARK INTER + INTRA:          -8.206
REMARK INTER:                  -6.469
REMARK INTRA:                  -1.737
REMARK UNBOUND:                -1.736
REMARK SMILES CCCCCCCCCCCCCC(=O)[O-]
REMARK SMILES IDX 8 1 9 2 10 3 11 4 12 5 13 6 14 7 15 8 16 9 7 10 6 11 5 12
REMARK SMILES IDX 4 13 3 14 2 15 1 16
REMARK H PARENT
REMARK Flexibility Score: inf
ROOT
ATOM      1  C   UNL     1     154.620 171.246 164.437  1.00  0.00     0.000 C 
ENDROOT
BRANCH   1   2
ATOM      2  C   UNL     1     154.584 171.265 165.976  1.00  0.00     0.000 C 
BRANCH   2   3
ATOM      3  C   UNL     1     155.506 172.335 166.583  1.00  0.00     0.000 C 
BRANCH   3   4
ATOM      4  C   UNL     1     155.066 173.771 166.243  1.00  0.00     0.000 C 
BRANCH   4   5
ATOM      5  C   UNL     1     156.064 174.581 165.390  1.00  0.00     0.006 C 
BRANCH   5   6
ATOM      6  C   UNL     1     157.405 173.876 165.133  1.00  0.00     0.053 C 
BRANCH   6   7
ATOM      7  C   UNL     1     157.714 173.774 163.671  1.00  0.00     0.041 C 
ATOM      8  O   UNL     1     157.536 172.688 163.060  1.00  0.00    -0.550 OA
ATOM      9  O   UNL     1     158.228 174.871 162.989  1.00  0.00    -0.550 OA
ENDBRANCH   6   7
ENDBRANCH   5   6
ENDBRANCH   4   5
ENDBRANCH   3   4
ENDBRANCH   2   3
ENDBRANCH   1   2
BRANCH   1  10
ATOM     10  C   UNL     1     153.242 171.161 163.748  1.00  0.00     0.000 C 
BRANCH  10  11
ATOM     11  C   UNL     1     152.875 172.373 162.869  1.00  0.00    -0.000 C 
BRANCH  11  12
ATOM     12  C   UNL     1     154.053 173.306 162.523  1.00  0.00    -0.000 C 
BRANCH  12  13
ATOM     13  C   UNL     1     153.724 174.809 162.565  1.00  0.00    -0.000 C 
BRANCH  13  14
ATOM     14  C   UNL     1     154.690 175.654 161.718  1.00  0.00    -0.000 C 
BRANCH  14  15
ATOM     15  C   UNL     1     155.499 174.806 160.727  1.00  0.00    -0.003 C 
ATOM     16  C   UNL     1     155.042 174.992 159.280  1.00  0.00     0.004 C 
ENDBRANCH  14  15
ENDBRANCH  13  14
ENDBRANCH  12  13
ENDBRANCH  11  12
ENDBRANCH  10  11
ENDBRANCH   1  10
TORSDOF 12
ENDMDL
MODEL 6
REMARK VINA RESULT:    -3.759      2.865      5.131
REMARK INTER + INTRA:          -8.132
REMARK INTER:                  -6.273
REMARK INTRA:                  -1.858
REMARK UNBOUND:                -1.736
REMARK SMILES CCCCCCCCCCCCCC(=O)[O-]
REMARK SMILES IDX 8 1 9 2 10 3 11 4 12 5 13 6 14 7 15 8 16 9 7 10 6 11 5 12
REMARK SMILES IDX 4 13 3 14 2 15 1 16
REMARK H PARENT
REMARK Flexibility Score: inf
ROOT
ATOM      1  C   UNL     1     154.080 173.880 161.536  1.00  0.00     0.000 C 
ENDROOT
BRANCH   1   2
ATOM      2  C   UNL     1     153.515 173.583 162.937  1.00  0.00     0.000 C 
BRANCH   2   3
ATOM      3  C   UNL     1     153.469 172.080 163.258  1.00  0.00     0.000 C 
BRANCH   3   4
ATOM      4  C   UNL     1     154.774 171.561 163.889  1.00  0.00     0.000 C 
BRANCH   4   5
ATOM      5  C   UNL     1     154.655 171.084 165.351  1.00  0.00     0.006 C 
BRANCH   5   6
ATOM      6  C   UNL     1     153.385 171.558 166.077  1.00  0.00     0.053 C 
BRANCH   6   7
ATOM      7  C   UNL     1     153.625 172.803 166.873  1.00  0.00     0.041 C 
ATOM      8  O   UNL     1     154.270 172.750 167.953  1.00  0.00    -0.550 OA
ATOM      9  O   UNL     1     153.109 174.018 166.439  1.00  0.00    -0.550 OA
ENDBRANCH   6   7
ENDBRANCH   5   6
ENDBRANCH   4   5
ENDBRANCH   3   4
ENDBRANCH   2   3
ENDBRANCH   1   2
BRANCH   1  10
ATOM     10  C   UNL     1     155.302 174.821 161.506  1.00  0.00     0.000 C 
BRANCH  10  11
ATOM     11  C   UNL     1     156.555 174.242 160.819  1.00  0.00    -0.000 C 
BRANCH  11  12
ATOM     12  C   UNL     1     157.823 174.211 161.696  1.00  0.00    -0.000 C 
BRANCH  12  13
ATOM     13  C   UNL     1     157.781 173.204 162.860  1.00  0.00    -0.000 C 
BRANCH  13  14
ATOM     14  C   UNL     1     158.385 173.768 164.158  1.00  0.00    -0.000 C 
BRANCH  14  15
ATOM     15  C   UNL     1     157.366 173.818 165.306  1.00  0.00    -0.003 C 
ATOM     16  C   UNL     1     156.249 174.833 165.060  1.00  0.00     0.004 C 
ENDBRANCH  14  15
ENDBRANCH  13  14
ENDBRANCH  12  13
ENDBRANCH  11  12
ENDBRANCH  10  11
ENDBRANCH   1  10
TORSDOF 12
ENDMDL
MODEL 7
REMARK VINA RESULT:    -3.731      2.477      4.771
REMARK INTER + INTRA:          -8.084
REMARK INTER:                  -6.393
REMARK INTRA:                  -1.691
REMARK UNBOUND:                -1.736
REMARK SMILES CCCCCCCCCCCCCC(=O)[O-]
REMARK SMILES IDX 8 1 9 2 10 3 11 4 12 5 13 6 14 7 15 8 16 9 7 10 6 11 5 12
REMARK SMILES IDX 4 13 3 14 2 15 1 16
REMARK H PARENT
REMARK Flexibility Score: inf
ROOT
ATOM      1  C   UNL     1     154.829 174.265 161.198  1.00  0.00     0.000 C 
ENDROOT
BRANCH   1   2
ATOM      2  C   UNL     1     154.144 175.019 162.352  1.00  0.00     0.000 C 
BRANCH   2   3
ATOM      3  C   UNL     1     154.945 174.964 163.663  1.00  0.00     0.000 C 
BRANCH   3   4
ATOM      4  C   UNL     1     154.059 174.728 164.900  1.00  0.00     0.000 C 
BRANCH   4   5
ATOM      5  C   UNL     1     153.749 173.250 165.215  1.00  0.00     0.006 C 
BRANCH   5   6
ATOM      6  C   UNL     1     154.764 172.248 164.643  1.00  0.00     0.053 C 
BRANCH   6   7
ATOM      7  C   UNL     1     154.122 171.275 163.702  1.00  0.00     0.041 C 
ATOM      8  O   UNL     1     154.604 170.121 163.559  1.00  0.00    -0.550 OA
ATOM      9  O   UNL     1     153.011 171.654 162.959  1.00  0.00    -0.550 OA
ENDBRANCH   6   7
ENDBRANCH   5   6
ENDBRANCH   4   5
ENDBRANCH   3   4
ENDBRANCH   2   3
ENDBRANCH   1   2
BRANCH   1  10
ATOM     10  C   UNL     1     155.645 175.145 160.230  1.00  0.00     0.000 C 
BRANCH  10  11
ATOM     11  C   UNL     1     157.163 174.875 160.223  1.00  0.00    -0.000 C 
BRANCH  11  12
ATOM     12  C   UNL     1     157.840 174.929 161.608  1.00  0.00    -0.000 C 
BRANCH  12  13
ATOM     13  C   UNL     1     158.512 173.618 162.053  1.00  0.00    -0.000 C 
BRANCH  13  14
ATOM     14  C   UNL     1     158.100 173.189 163.471  1.00  0.00    -0.000 C 
BRANCH  14  15
ATOM     15  C   UNL     1     158.634 174.140 164.552  1.00  0.00    -0.003 C 
ATOM     16  C   UNL     1     157.792 174.118 165.827  1.00  0.00     0.004 C 
ENDBRANCH  14  15
ENDBRANCH  13  14
ENDBRANCH  12  13
ENDBRANCH  11  12
ENDBRANCH  10  11
ENDBRANCH   1  10
TORSDOF 12
ENDMDL
MODEL 8
REMARK VINA RESULT:    -3.518      2.407      5.609
REMARK INTER + INTRA:          -7.721
REMARK INTER:                  -6.176
REMARK INTRA:                  -1.545
REMARK UNBOUND:                -1.736
REMARK SMILES CCCCCCCCCCCCCC(=O)[O-]
REMARK SMILES IDX 8 1 9 2 10 3 11 4 12 5 13 6 14 7 15 8 16 9 7 10 6 11 5 12
REMARK SMILES IDX 4 13 3 14 2 15 1 16
REMARK H PARENT
REMARK Flexibility Score: inf
ROOT
ATOM      1  C   UNL     1     158.743 173.666 162.946  1.00  0.00     0.000 C 
ENDROOT
BRANCH   1   2
ATOM      2  C   UNL     1     158.553 174.190 164.381  1.00  0.00     0.000 C 
BRANCH   2   3
ATOM      3  C   UNL     1     157.365 175.157 164.514  1.00  0.00     0.000 C 
BRANCH   3   4
ATOM      4  C   UNL     1     156.223 174.590 165.378  1.00  0.00     0.000 C 
BRANCH   4   5
ATOM      5  C   UNL     1     156.608 173.398 166.278  1.00  0.00     0.006 C 
BRANCH   5   6
ATOM      6  C   UNL     1     155.486 172.367 166.487  1.00  0.00     0.053 C 
BRANCH   6   7
ATOM      7  C   UNL     1     154.624 172.221 165.271  1.00  0.00     0.041 C 
ATOM      8  O   UNL     1     153.422 172.592 165.298  1.00  0.00    -0.550 OA
ATOM      9  O   UNL     1     155.141 171.645 164.116  1.00  0.00    -0.550 OA
ENDBRANCH   6   7
ENDBRANCH   5   6
ENDBRANCH   4   5
ENDBRANCH   3   4
ENDBRANCH   2   3
ENDBRANCH   1   2
BRANCH   1  10
ATOM     10  C   UNL     1     157.442 173.477 162.139  1.00  0.00     0.000 C 
BRANCH  10  11
ATOM     11  C   UNL     1     157.385 174.244 160.803  1.00  0.00    -0.000 C 
BRANCH  11  12
ATOM     12  C   UNL     1     157.080 175.750 160.931  1.00  0.00    -0.000 C 
BRANCH  12  13
ATOM     13  C   UNL     1     155.593 176.124 160.798  1.00  0.00    -0.000 C 
BRANCH  13  14
ATOM     14  C   UNL     1     154.750 175.001 160.169  1.00  0.00    -0.000 C 
BRANCH  14  15
ATOM     15  C   UNL     1     153.546 174.612 161.039  1.00  0.00    -0.003 C 
ATOM     16  C   UNL     1     153.825 174.766 162.534  1.00  0.00     0.004 C 
ENDBRANCH  14  15
ENDBRANCH  13  14
ENDBRANCH  12  13
ENDBRANCH  11  12
ENDBRANCH  10  11
ENDBRANCH   1  10
TORSDOF 12
ENDMDL
MODEL 9
REMARK VINA RESULT:    -3.498      1.561      2.542
REMARK INTER + INTRA:          -7.688
REMARK INTER:                  -6.325
REMARK INTRA:                  -1.363
REMARK UNBOUND:                -1.736
REMARK SMILES CCCCCCCCCCCCCC(=O)[O-]
REMARK SMILES IDX 8 1 9 2 10 3 11 4 12 5 13 6 14 7 15 8 16 9 7 10 6 11 5 12
REMARK SMILES IDX 4 13 3 14 2 15 1 16
REMARK H PARENT
REMARK Flexibility Score: inf
ROOT
ATOM      1  C   UNL     1     155.353 171.864 166.806  1.00  0.00     0.000 C 
ENDROOT
BRANCH   1   2
ATOM      2  C   UNL     1     154.381 170.942 166.049  1.00  0.00     0.000 C 
BRANCH   2   3
ATOM      3  C   UNL     1     154.466 171.105 164.522  1.00  0.00     0.000 C 
BRANCH   3   4
ATOM      4  C   UNL     1     153.265 171.866 163.931  1.00  0.00     0.000 C 
BRANCH   4   5
ATOM      5  C   UNL     1     153.609 172.876 162.817  1.00  0.00     0.006 C 
BRANCH   5   6
ATOM      6  C   UNL     1     155.110 173.170 162.661  1.00  0.00     0.053 C 
BRANCH   6   7
ATOM      7  C   UNL     1     155.357 174.432 161.894  1.00  0.00     0.041 C 
ATOM      8  O   UNL     1     155.276 175.549 162.471  1.00  0.00    -0.550 OA
ATOM      9  O   UNL     1     155.645 174.378 160.536  1.00  0.00    -0.550 OA
ENDBRANCH   6   7
ENDBRANCH   5   6
ENDBRANCH   4   5
ENDBRANCH   3   4
ENDBRANCH   2   3
ENDBRANCH   1   2
BRANCH   1  10
ATOM     10  C   UNL     1     154.951 173.353 166.845  1.00  0.00     0.000 C 
BRANCH  10  11
ATOM     11  C   UNL     1     155.786 174.279 165.938  1.00  0.00    -0.000 C 
BRANCH  11  12
ATOM     12  C   UNL     1     157.232 173.809 165.684  1.00  0.00    -0.000 C 
BRANCH  12  13
ATOM     13  C   UNL     1     158.017 174.651 164.662  1.00  0.00    -0.000 C 
BRANCH  13  14
ATOM     14  C   UNL     1     159.262 175.320 165.272  1.00  0.00    -0.000 C 
BRANCH  14  15
ATOM     15  C   UNL     1     160.133 174.332 166.060  1.00  0.00    -0.003 C 
ATOM     16  C   UNL     1     161.086 173.541 165.164  1.00  0.00     0.004 C 
ENDBRANCH  14  15
ENDBRANCH  13  14
ENDBRANCH  12  13
ENDBRANCH  11  12
ENDBRANCH  10  11
ENDBRANCH   1  10
TORSDOF 12
ENDMDL
