MODEL 1
REMARK VINA RESULT:    -5.100      0.000      0.000
REMARK INTER + INTRA:         -14.672
REMARK INTER:                 -11.659
REMARK INTRA:                  -3.012
REMARK UNBOUND:                -3.012
REMARK SMILES CCCCCCCCCCCCCCCCCCCCCCCC(=O)[O-]
REMARK SMILES IDX 13 1 14 2 15 3 16 4 17 5 18 6 19 7 20 8 21 9 22 10 23 11
REMARK SMILES IDX 24 12 25 13 26 14 12 15 11 16 10 17 9 18 8 19 7 20 6 21 5 22
REMARK SMILES IDX 4 23 3 24 2 25 1 26
REMARK H PARENT
REMARK Flexibility Score: inf
ROOT
ATOM      1  C   UNL     1      55.581  51.386   4.516  1.00  0.00     0.000 C 
ENDROOT
BRANCH   1   2
ATOM      2  C   UNL     1      54.748  50.339   3.758  1.00  0.00     0.000 C 
BRANCH   2   3
ATOM      3  C   UNL     1      53.650  49.713   4.645  1.00  0.00     0.000 C 
BRANCH   3   4
ATOM      4  C   UNL     1      52.253  50.300   4.384  1.00  0.00     0.000 C 
BRANCH   4   5
ATOM      5  C   UNL     1      51.473  49.518   3.313  1.00  0.00     0.000 C 
BRANCH   5   6
ATOM      6  C   UNL     1      50.889  48.205   3.854  1.00  0.00     0.000 C 
BRANCH   6   7
ATOM      7  C   UNL     1      49.391  48.045   3.542  1.00  0.00     0.000 C 
BRANCH   7   8
ATOM      8  C   UNL     1      48.948  48.860   2.314  1.00  0.00     0.000 C 
BRANCH   8   9
ATOM      9  C   UNL     1      47.466  48.694   1.922  1.00  0.00     0.000 C 
BRANCH   9  10
ATOM     10  C   UNL     1      47.181  47.568   0.913  1.00  0.00     0.006 C 
BRANCH  10  11
ATOM     11  C   UNL     1      46.875  46.227   1.591  1.00  0.00     0.053 C 
BRANCH  11  12
ATOM     12  C   UNL     1      47.967  45.241   1.323  1.00  0.00     0.041 C 
ATOM     13  O   UNL     1      48.776  44.928   2.236  1.00  0.00    -0.550 OA
ATOM     14  O   UNL     1      48.065  44.630   0.078  1.00  0.00    -0.550 OA
ENDBRANCH  11  12
ENDBRANCH  10  11
ENDBRANCH   9  10
ENDBRANCH   8   9
ENDBRANCH   7   8
ENDBRANCH   6   7
ENDBRANCH   5   6
ENDBRANCH   4   5
ENDBRANCH   3   4
ENDBRANCH   2   3
ENDBRANCH   1   2
BRANCH   1  15
ATOM     15  C   UNL     1      54.734  52.552   5.057  1.00  0.00     0.000 C 
BRANCH  15  16
ATOM     16  C   UNL     1      55.146  53.058   6.451  1.00  0.00     0.000 C 
BRANCH  16  17
ATOM     17  C   UNL     1      54.039  52.875   7.503  1.00  0.00     0.000 C 
BRANCH  17  18
ATOM     18  C   UNL     1      53.743  51.394   7.804  1.00  0.00    -0.000 C 
BRANCH  18  19
ATOM     19  C   UNL     1      52.264  50.989   7.652  1.00  0.00    -0.000 C 
BRANCH  19  20
ATOM     20  C   UNL     1      51.401  52.096   7.022  1.00  0.00    -0.000 C 
BRANCH  20  21
ATOM     21  C   UNL     1      49.908  51.709   6.961  1.00  0.00    -0.000 C 
BRANCH  21  22
ATOM     22  C   UNL     1      49.670  50.203   6.752  1.00  0.00    -0.000 C 
BRANCH  22  23
ATOM     23  C   UNL     1      48.382  49.908   5.965  1.00  0.00    -0.000 C 
BRANCH  23  24
ATOM     24  C   UNL     1      47.568  51.176   5.646  1.00  0.00    -0.000 C 
BRANCH  24  25
ATOM     25  C   UNL     1      47.445  51.515   4.149  1.00  0.00    -0.003 C 
ATOM     26  C   UNL     1      48.654  52.271   3.601  1.00  0.00     0.004 C 
ENDBRANCH  24  25
ENDBRANCH  23  24
ENDBRANCH  22  23
ENDBRANCH  21  22
ENDBRANCH  20  21
ENDBRANCH  19  20
ENDBRANCH  18  19
ENDBRANCH  17  18
ENDBRANCH  16  17
ENDBRANCH  15  16
ENDBRANCH   1  15
TORSDOF 22
ENDMDL
MODEL 2
REMARK VINA RESULT:    -4.532      2.995      7.515
REMARK INTER + INTRA:         -13.374
REMARK INTER:                 -11.275
REMARK INTRA:                  -2.098
REMARK UNBOUND:                -3.012
REMARK SMILES CCCCCCCCCCCCCCCCCCCCCCCC(=O)[O-]
REMARK SMILES IDX 13 1 14 2 15 3 16 4 17 5 18 6 19 7 20 8 21 9 22 10 23 11
REMARK SMILES IDX 24 12 25 13 26 14 12 15 11 16 10 17 9 18 8 19 7 20 6 21 5 22
REMARK SMILES IDX 4 23 3 24 2 25 1 26
REMARK H PARENT
REMARK Flexibility Score: inf
ROOT
ATOM      1  C   UNL     1      49.597  50.908   6.245  1.00  0.00     0.000 C 
ENDROOT
BRANCH   1   2
ATOM      2  C   UNL     1      50.258  51.612   5.048  1.00  0.00     0.000 C 
BRANCH   2   3
ATOM      3  C   UNL     1      51.770  51.312   4.956  1.00  0.00     0.000 C 
BRANCH   3   4
ATOM      4  C   UNL     1      52.093  49.809   4.994  1.00  0.00     0.000 C 
BRANCH   4   5
ATOM      5  C   UNL     1      53.596  49.523   4.830  1.00  0.00     0.000 C 
BRANCH   5   6
ATOM      6  C   UNL     1      54.249  50.410   3.760  1.00  0.00     0.000 C 
BRANCH   6   7
ATOM      7  C   UNL     1      55.676  50.847   4.135  1.00  0.00     0.000 C 
BRANCH   7   8
ATOM      8  C   UNL     1      55.835  52.377   4.189  1.00  0.00     0.000 C 
BRANCH   8   9
ATOM      9  C   UNL     1      54.837  53.102   5.116  1.00  0.00     0.000 C 
BRANCH   9  10
ATOM     10  C   UNL     1      55.156  53.006   6.618  1.00  0.00     0.006 C 
BRANCH  10  11
ATOM     11  C   UNL     1      53.906  52.772   7.476  1.00  0.00     0.053 C 
BRANCH  11  12
ATOM     12  C   UNL     1      53.896  51.379   8.020  1.00  0.00     0.041 C 
ATOM     13  O   UNL     1      52.845  50.687   7.972  1.00  0.00    -0.550 OA
ATOM     14  O   UNL     1      55.061  50.825   8.538  1.00  0.00    -0.550 OA
ENDBRANCH  11  12
ENDBRANCH  10  11
ENDBRANCH   9  10
ENDBRANCH   8   9
ENDBRANCH   7   8
ENDBRANCH   6   7
ENDBRANCH   5   6
ENDBRANCH   4   5
ENDBRANCH   3   4
ENDBRANCH   2   3
ENDBRANCH   1   2
BRANCH   1  15
ATOM     15  C   UNL     1      48.834  49.632   5.847  1.00  0.00     0.000 C 
BRANCH  15  16
ATOM     16  C   UNL     1      47.325  49.826   5.616  1.00  0.00     0.000 C 
BRANCH  16  17
ATOM     17  C   UNL     1      46.963  51.269   5.223  1.00  0.00     0.000 C 
BRANCH  17  18
ATOM     18  C   UNL     1      47.200  51.557   3.729  1.00  0.00    -0.000 C 
BRANCH  18  19
ATOM     19  C   UNL     1      47.319  50.303   2.842  1.00  0.00    -0.000 C 
BRANCH  19  20
ATOM     20  C   UNL     1      48.620  50.270   2.021  1.00  0.00    -0.000 C 
BRANCH  20  21
ATOM     21  C   UNL     1      49.528  49.085   2.414  1.00  0.00    -0.000 C 
BRANCH  21  22
ATOM     22  C   UNL     1      48.756  47.785   2.699  1.00  0.00    -0.000 C 
BRANCH  22  23
ATOM     23  C   UNL     1      47.838  47.370   1.537  1.00  0.00    -0.000 C 
BRANCH  23  24
ATOM     24  C   UNL     1      47.364  45.907   1.638  1.00  0.00    -0.000 C 
BRANCH  24  25
ATOM     25  C   UNL     1      48.459  44.848   1.418  1.00  0.00    -0.003 C 
ATOM     26  C   UNL     1      48.436  44.239   0.017  1.00  0.00     0.004 C 
ENDBRANCH  24  25
ENDBRANCH  23  24
ENDBRANCH  22  23
ENDBRANCH  21  22
ENDBRANCH  20  21
ENDBRANCH  19  20
ENDBRANCH  18  19
ENDBRANCH  17  18
ENDBRANCH  16  17
ENDBRANCH  15  16
ENDBRANCH   1  15
TORSDOF 22
ENDMDL
MODEL 3
REMARK VINA RESULT:    -4.474      2.760      5.798
REMARK INTER + INTRA:         -13.239
REMARK INTER:                 -10.699
REMARK INTRA:                  -2.541
REMARK UNBOUND:                -3.012
REMARK SMILES CCCCCCCCCCCCCCCCCCCCCCCC(=O)[O-]
REMARK SMILES IDX 13 1 14 2 15 3 16 4 17 5 18 6 19 7 20 8 21 9 22 10 23 11
REMARK SMILES IDX 24 12 25 13 26 14 12 15 11 16 10 17 9 18 8 19 7 20 6 21 5 22
REMARK SMILES IDX 4 23 3 24 2 25 1 26
REMARK H PARENT
REMARK Flexibility Score: inf
ROOT
ATOM      1  C   UNL     1      49.574  49.342   2.277  1.00  0.00     0.000 C 
ENDROOT
BRANCH   1   2
ATOM      2  C   UNL     1      50.380  48.634   3.379  1.00  0.00     0.000 C 
BRANCH   2   3
ATOM      3  C   UNL     1      49.652  47.385   3.923  1.00  0.00     0.000 C 
BRANCH   3   4
ATOM      4  C   UNL     1      50.227  46.065   3.383  1.00  0.00     0.000 C 
BRANCH   4   5
ATOM      5  C   UNL     1      49.177  45.225   2.635  1.00  0.00     0.000 C 
BRANCH   5   6
ATOM      6  C   UNL     1      48.060  46.087   2.028  1.00  0.00     0.000 C 
BRANCH   6   7
ATOM      7  C   UNL     1      47.427  45.450   0.779  1.00  0.00     0.000 C 
BRANCH   7   8
ATOM      8  C   UNL     1      48.333  44.388   0.129  1.00  0.00     0.000 C 
BRANCH   8   9
ATOM      9  C   UNL     1      47.634  43.483  -0.907  1.00  0.00     0.000 C 
BRANCH   9  10
ATOM     10  C   UNL     1      48.547  42.949  -2.025  1.00  0.00     0.006 C 
BRANCH  10  11
ATOM     11  C   UNL     1      47.861  41.887  -2.893  1.00  0.00     0.053 C 
BRANCH  11  12
ATOM     12  C   UNL     1      48.873  41.123  -3.686  1.00  0.00     0.041 C 
ATOM     13  O   UNL     1      48.632  39.940  -4.048  1.00  0.00    -0.550 OA
ATOM     14  O   UNL     1      50.063  41.730  -4.068  1.00  0.00    -0.550 OA
ENDBRANCH  11  12
ENDBRANCH  10  11
ENDBRANCH   9  10
ENDBRANCH   8   9
ENDBRANCH   7   8
ENDBRANCH   6   7
ENDBRANCH   5   6
ENDBRANCH   4   5
ENDBRANCH   3   4
ENDBRANCH   2   3
ENDBRANCH   1   2
BRANCH   1  15
ATOM     15  C   UNL     1      48.638  50.435   2.824  1.00  0.00     0.000 C 
BRANCH  15  16
ATOM     16  C   UNL     1      47.267  49.930   3.307  1.00  0.00     0.000 C 
BRANCH  16  17
ATOM     17  C   UNL     1      47.107  50.006   4.834  1.00  0.00     0.000 C 
BRANCH  17  18
ATOM     18  C   UNL     1      48.228  50.818   5.510  1.00  0.00    -0.000 C 
BRANCH  18  19
ATOM     19  C   UNL     1      49.102  50.016   6.493  1.00  0.00    -0.000 C 
BRANCH  19  20
ATOM     20  C   UNL     1      50.411  50.737   6.857  1.00  0.00    -0.000 C 
BRANCH  20  21
ATOM     21  C   UNL     1      50.718  51.909   5.901  1.00  0.00    -0.000 C 
BRANCH  21  22
ATOM     22  C   UNL     1      52.075  51.783   5.186  1.00  0.00    -0.000 C 
BRANCH  22  23
ATOM     23  C   UNL     1      52.726  50.405   5.385  1.00  0.00    -0.000 C 
BRANCH  23  24
ATOM     24  C   UNL     1      53.871  50.131   4.391  1.00  0.00    -0.000 C 
BRANCH  24  25
ATOM     25  C   UNL     1      54.986  51.193   4.368  1.00  0.00    -0.003 C 
ATOM     26  C   UNL     1      56.252  50.720   3.654  1.00  0.00     0.004 C 
ENDBRANCH  24  25
ENDBRANCH  23  24
ENDBRANCH  22  23
ENDBRANCH  21  22
ENDBRANCH  20  21
ENDBRANCH  19  20
ENDBRANCH  18  19
ENDBRANCH  17  18
ENDBRANCH  16  17
ENDBRANCH  15  16
ENDBRANCH   1  15
TORSDOF 22
ENDMDL
MODEL 4
REMARK VINA RESULT:    -4.334      1.431      4.647
REMARK INTER + INTRA:         -12.920
REMARK INTER:                 -11.061
REMARK INTRA:                  -1.859
REMARK UNBOUND:                -3.012
REMARK SMILES CCCCCCCCCCCCCCCCCCCCCCCC(=O)[O-]
REMARK SMILES IDX 13 1 14 2 15 3 16 4 17 5 18 6 19 7 20 8 21 9 22 10 23 11
REMARK SMILES IDX 24 12 25 13 26 14 12 15 11 16 10 17 9 18 8 19 7 20 6 21 5 22
REMARK SMILES IDX 4 23 3 24 2 25 1 26
REMARK H PARENT
REMARK Flexibility Score: inf
ROOT
ATOM      1  C   UNL     1      51.279  49.555   5.571  1.00  0.00     0.000 C 
ENDROOT
BRANCH   1   2
ATOM      2  C   UNL     1      50.657  50.149   6.846  1.00  0.00     0.000 C 
BRANCH   2   3
ATOM      3  C   UNL     1      49.117  50.229   6.762  1.00  0.00     0.000 C 
BRANCH   3   4
ATOM      4  C   UNL     1      48.509  49.210   5.784  1.00  0.00     0.000 C 
BRANCH   4   5
ATOM      5  C   UNL     1      47.246  49.743   5.086  1.00  0.00     0.000 C 
BRANCH   5   6
ATOM      6  C   UNL     1      47.404  51.195   4.613  1.00  0.00     0.000 C 
BRANCH   6   7
ATOM      7  C   UNL     1      47.610  51.309   3.093  1.00  0.00     0.000 C 
BRANCH   7   8
ATOM      8  C   UNL     1      47.219  50.024   2.342  1.00  0.00     0.000 C 
BRANCH   8   9
ATOM      9  C   UNL     1      48.394  49.083   2.005  1.00  0.00     0.000 C 
BRANCH   9  10
ATOM     10  C   UNL     1      48.287  47.668   2.601  1.00  0.00     0.006 C 
BRANCH  10  11
ATOM     11  C   UNL     1      49.575  47.221   3.303  1.00  0.00     0.053 C 
BRANCH  11  12
ATOM     12  C   UNL     1      49.774  45.748   3.147  1.00  0.00     0.041 C 
ATOM     13  O   UNL     1      50.750  45.178   3.702  1.00  0.00    -0.550 OA
ATOM     14  O   UNL     1      48.855  44.993   2.428  1.00  0.00    -0.550 OA
ENDBRANCH  11  12
ENDBRANCH  10  11
ENDBRANCH   9  10
ENDBRANCH   8   9
ENDBRANCH   7   8
ENDBRANCH   6   7
ENDBRANCH   5   6
ENDBRANCH   4   5
ENDBRANCH   3   4
ENDBRANCH   2   3
ENDBRANCH   1   2
BRANCH   1  15
ATOM     15  C   UNL     1      51.558  50.612   4.488  1.00  0.00     0.000 C 
BRANCH  15  16
ATOM     16  C   UNL     1      50.934  51.993   4.757  1.00  0.00     0.000 C 
BRANCH  16  17
ATOM     17  C   UNL     1      51.794  52.865   5.687  1.00  0.00     0.000 C 
BRANCH  17  18
ATOM     18  C   UNL     1      51.127  53.117   7.052  1.00  0.00    -0.000 C 
BRANCH  18  19
ATOM     19  C   UNL     1      52.071  52.992   8.263  1.00  0.00    -0.000 C 
BRANCH  19  20
ATOM     20  C   UNL     1      53.556  53.121   7.882  1.00  0.00    -0.000 C 
BRANCH  20  21
ATOM     21  C   UNL     1      54.307  51.777   7.996  1.00  0.00    -0.000 C 
BRANCH  21  22
ATOM     22  C   UNL     1      55.388  51.581   6.918  1.00  0.00    -0.000 C 
BRANCH  22  23
ATOM     23  C   UNL     1      55.130  52.422   5.657  1.00  0.00    -0.000 C 
BRANCH  23  24
ATOM     24  C   UNL     1      54.987  51.568   4.383  1.00  0.00    -0.000 C 
BRANCH  24  25
ATOM     25  C   UNL     1      56.311  51.068   3.777  1.00  0.00    -0.003 C 
ATOM     26  C   UNL     1      56.253  49.611   3.321  1.00  0.00     0.004 C 
ENDBRANCH  24  25
ENDBRANCH  23  24
ENDBRANCH  22  23
ENDBRANCH  21  22
ENDBRANCH  20  21
ENDBRANCH  19  20
ENDBRANCH  18  19
ENDBRANCH  17  18
ENDBRANCH  16  17
ENDBRANCH  15  16
ENDBRANCH   1  15
TORSDOF 22
ENDMDL
MODEL 5
REMARK VINA RESULT:    -4.293      3.823      6.615
REMARK INTER + INTRA:         -12.826
REMARK INTER:                 -11.385
REMARK INTRA:                  -1.441
REMARK UNBOUND:                -3.012
REMARK SMILES CCCCCCCCCCCCCCCCCCCCCCCC(=O)[O-]
REMARK SMILES IDX 13 1 14 2 15 3 16 4 17 5 18 6 19 7 20 8 21 9 22 10 23 11
REMARK SMILES IDX 24 12 25 13 26 14 12 15 11 16 10 17 9 18 8 19 7 20 6 21 5 22
REMARK SMILES IDX 4 23 3 24 2 25 1 26
REMARK H PARENT
REMARK Flexibility Score: inf
ROOT
ATOM      1  C   UNL     1      50.412  48.588   3.452  1.00  0.00     0.000 C 
ENDROOT
BRANCH   1   2
ATOM      2  C   UNL     1      49.892  47.142   3.505  1.00  0.00     0.000 C 
BRANCH   2   3
ATOM      3  C   UNL     1      48.744  46.897   2.502  1.00  0.00     0.000 C 
BRANCH   3   4
ATOM      4  C   UNL     1      48.539  45.410   2.167  1.00  0.00     0.000 C 
BRANCH   4   5
ATOM      5  C   UNL     1      47.883  45.199   0.792  1.00  0.00     0.000 C 
BRANCH   5   6
ATOM      6  C   UNL     1      48.625  44.158  -0.060  1.00  0.00     0.000 C 
BRANCH   6   7
ATOM      7  C   UNL     1      47.686  43.364  -0.984  1.00  0.00     0.000 C 
BRANCH   7   8
ATOM      8  C   UNL     1      48.414  42.769  -2.203  1.00  0.00     0.000 C 
BRANCH   8   9
ATOM      9  C   UNL     1      47.552  41.846  -3.089  1.00  0.00     0.000 C 
BRANCH   9  10
ATOM     10  C   UNL     1      48.299  41.186  -4.261  1.00  0.00     0.006 C 
BRANCH  10  11
ATOM     11  C   UNL     1      49.776  40.920  -3.950  1.00  0.00     0.053 C 
BRANCH  11  12
ATOM     12  C   UNL     1      50.218  39.629  -4.563  1.00  0.00     0.041 C 
ATOM     13  O   UNL     1      51.376  39.186  -4.341  1.00  0.00    -0.550 OA
ATOM     14  O   UNL     1      49.336  38.889  -5.341  1.00  0.00    -0.550 OA
ENDBRANCH  11  12
ENDBRANCH  10  11
ENDBRANCH   9  10
ENDBRANCH   8   9
ENDBRANCH   7   8
ENDBRANCH   6   7
ENDBRANCH   5   6
ENDBRANCH   4   5
ENDBRANCH   3   4
ENDBRANCH   2   3
ENDBRANCH   1   2
BRANCH   1  15
ATOM     15  C   UNL     1      49.494  49.529   2.651  1.00  0.00     0.000 C 
BRANCH  15  16
ATOM     16  C   UNL     1      48.631  50.474   3.506  1.00  0.00     0.000 C 
BRANCH  16  17
ATOM     17  C   UNL     1      48.729  51.941   3.056  1.00  0.00     0.000 C 
BRANCH  17  18
ATOM     18  C   UNL     1      49.004  52.905   4.225  1.00  0.00    -0.000 C 
BRANCH  18  19
ATOM     19  C   UNL     1      50.487  53.030   4.622  1.00  0.00    -0.000 C 
BRANCH  19  20
ATOM     20  C   UNL     1      50.776  52.494   6.036  1.00  0.00    -0.000 C 
BRANCH  20  21
ATOM     21  C   UNL     1      51.029  50.972   6.043  1.00  0.00    -0.000 C 
BRANCH  21  22
ATOM     22  C   UNL     1      52.183  50.543   6.966  1.00  0.00    -0.000 C 
BRANCH  22  23
ATOM     23  C   UNL     1      53.561  50.680   6.299  1.00  0.00    -0.000 C 
BRANCH  23  24
ATOM     24  C   UNL     1      53.482  50.736   4.761  1.00  0.00    -0.000 C 
BRANCH  24  25
ATOM     25  C   UNL     1      54.692  50.135   4.021  1.00  0.00    -0.003 C 
ATOM     26  C   UNL     1      55.866  51.105   3.901  1.00  0.00     0.004 C 
ENDBRANCH  24  25
ENDBRANCH  23  24
ENDBRANCH  22  23
ENDBRANCH  21  22
ENDBRANCH  20  21
ENDBRANCH  19  20
ENDBRANCH  18  19
ENDBRANCH  17  18
ENDBRANCH  16  17
ENDBRANCH  15  16
ENDBRANCH   1  15
TORSDOF 22
ENDMDL
MODEL 6
REMARK VINA RESULT:    -4.243      2.967      7.081
REMARK INTER + INTRA:         -12.712
REMARK INTER:                 -11.391
REMARK INTRA:                  -1.321
REMARK UNBOUND:                -3.012
REMARK SMILES CCCCCCCCCCCCCCCCCCCCCCCC(=O)[O-]
REMARK SMILES IDX 13 1 14 2 15 3 16 4 17 5 18 6 19 7 20 8 21 9 22 10 23 11
REMARK SMILES IDX 24 12 25 13 26 14 12 15 11 16 10 17 9 18 8 19 7 20 6 21 5 22
REMARK SMILES IDX 4 23 3 24 2 25 1 26
REMARK H PARENT
REMARK Flexibility Score: inf
ROOT
ATOM      1  C   UNL     1      50.948  49.141   4.433  1.00  0.00     0.000 C 
ENDROOT
BRANCH   1   2
ATOM      2  C   UNL     1      51.462  50.581   4.597  1.00  0.00     0.000 C 
BRANCH   2   3
ATOM      3  C   UNL     1      50.388  51.629   4.233  1.00  0.00     0.000 C 
BRANCH   3   4
ATOM      4  C   UNL     1      50.474  52.906   5.087  1.00  0.00     0.000 C 
BRANCH   4   5
ATOM      5  C   UNL     1      51.876  53.125   5.682  1.00  0.00     0.000 C 
BRANCH   5   6
ATOM      6  C   UNL     1      51.917  52.872   7.196  1.00  0.00     0.000 C 
BRANCH   6   7
ATOM      7  C   UNL     1      52.653  51.572   7.564  1.00  0.00     0.000 C 
BRANCH   7   8
ATOM      8  C   UNL     1      54.121  51.568   7.101  1.00  0.00     0.000 C 
BRANCH   8   9
ATOM      9  C   UNL     1      54.615  52.896   6.491  1.00  0.00     0.000 C 
BRANCH   9  10
ATOM     10  C   UNL     1      55.059  52.812   5.021  1.00  0.00     0.006 C 
BRANCH  10  11
ATOM     11  C   UNL     1      54.828  51.425   4.409  1.00  0.00     0.053 C 
BRANCH  11  12
ATOM     12  C   UNL     1      56.120  50.838   3.936  1.00  0.00     0.041 C 
ATOM     13  O   UNL     1      57.213  51.391   4.229  1.00  0.00    -0.550 OA
ATOM     14  O   UNL     1      56.122  49.651   3.213  1.00  0.00    -0.550 OA
ENDBRANCH  11  12
ENDBRANCH  10  11
ENDBRANCH   9  10
ENDBRANCH   8   9
ENDBRANCH   7   8
ENDBRANCH   6   7
ENDBRANCH   5   6
ENDBRANCH   4   5
ENDBRANCH   3   4
ENDBRANCH   2   3
ENDBRANCH   1   2
BRANCH   1  15
ATOM     15  C   UNL     1      49.663  48.865   5.233  1.00  0.00     0.000 C 
BRANCH  15  16
ATOM     16  C   UNL     1      49.280  49.964   6.240  1.00  0.00     0.000 C 
BRANCH  16  17
ATOM     17  C   UNL     1      47.759  50.146   6.374  1.00  0.00     0.000 C 
BRANCH  17  18
ATOM     18  C   UNL     1      47.034  50.119   5.016  1.00  0.00    -0.000 C 
BRANCH  18  19
ATOM     19  C   UNL     1      46.972  51.476   4.290  1.00  0.00    -0.000 C 
BRANCH  19  20
ATOM     20  C   UNL     1      47.215  51.357   2.775  1.00  0.00    -0.000 C 
BRANCH  20  21
ATOM     21  C   UNL     1      46.886  49.947   2.240  1.00  0.00    -0.000 C 
BRANCH  21  22
ATOM     22  C   UNL     1      48.129  49.140   1.827  1.00  0.00    -0.000 C 
BRANCH  22  23
ATOM     23  C   UNL     1      48.152  47.729   2.438  1.00  0.00    -0.000 C 
BRANCH  23  24
ATOM     24  C   UNL     1      47.453  46.679   1.554  1.00  0.00    -0.000 C 
BRANCH  24  25
ATOM     25  C   UNL     1      48.009  45.248   1.672  1.00  0.00    -0.003 C 
ATOM     26  C   UNL     1      49.178  45.135   2.650  1.00  0.00     0.004 C 
ENDBRANCH  24  25
ENDBRANCH  23  24
ENDBRANCH  22  23
ENDBRANCH  21  22
ENDBRANCH  20  21
ENDBRANCH  19  20
ENDBRANCH  18  19
ENDBRANCH  17  18
ENDBRANCH  16  17
ENDBRANCH  15  16
ENDBRANCH   1  15
TORSDOF 22
ENDMDL
MODEL 7
REMARK VINA RESULT:    -4.094      2.954      5.830
REMARK INTER + INTRA:         -12.371
REMARK INTER:                 -10.989
REMARK INTRA:                  -1.382
REMARK UNBOUND:                -3.012
REMARK SMILES CCCCCCCCCCCCCCCCCCCCCCCC(=O)[O-]
REMARK SMILES IDX 13 1 14 2 15 3 16 4 17 5 18 6 19 7 20 8 21 9 22 10 23 11
REMARK SMILES IDX 24 12 25 13 26 14 12 15 11 16 10 17 9 18 8 19 7 20 6 21 5 22
REMARK SMILES IDX 4 23 3 24 2 25 1 26
REMARK H PARENT
REMARK Flexibility Score: inf
ROOT
ATOM      1  C   UNL     1      49.470  50.150   4.132  1.00  0.00     0.000 C 
ENDROOT
BRANCH   1   2
ATOM      2  C   UNL     1      50.321  49.169   3.309  1.00  0.00     0.000 C 
BRANCH   2   3
ATOM      3  C   UNL     1      49.581  47.842   3.033  1.00  0.00     0.000 C 
BRANCH   3   4
ATOM      4  C   UNL     1      48.065  48.021   2.847  1.00  0.00     0.000 C 
BRANCH   4   5
ATOM      5  C   UNL     1      47.517  47.222   1.652  1.00  0.00     0.000 C 
BRANCH   5   6
ATOM      6  C   UNL     1      47.990  45.761   1.656  1.00  0.00     0.000 C 
BRANCH   6   7
ATOM      7  C   UNL     1      47.342  44.921   0.542  1.00  0.00     0.000 C 
BRANCH   7   8
ATOM      8  C   UNL     1      48.371  44.113  -0.268  1.00  0.00     0.000 C 
BRANCH   8   9
ATOM      9  C   UNL     1      47.767  43.073  -1.235  1.00  0.00     0.000 C 
BRANCH   9  10
ATOM     10  C   UNL     1      48.626  42.758  -2.472  1.00  0.00     0.006 C 
BRANCH  10  11
ATOM     11  C   UNL     1      48.194  41.468  -3.181  1.00  0.00     0.053 C 
BRANCH  11  12
ATOM     12  C   UNL     1      49.116  41.160  -4.317  1.00  0.00     0.041 C 
ATOM     13  O   UNL     1      48.760  41.393  -5.503  1.00  0.00    -0.550 OA
ATOM     14  O   UNL     1      50.388  40.659  -4.067  1.00  0.00    -0.550 OA
ENDBRANCH  11  12
ENDBRANCH  10  11
ENDBRANCH   9  10
ENDBRANCH   8   9
ENDBRANCH   7   8
ENDBRANCH   6   7
ENDBRANCH   5   6
ENDBRANCH   4   5
ENDBRANCH   3   4
ENDBRANCH   2   3
ENDBRANCH   1   2
BRANCH   1  15
ATOM     15  C   UNL     1      48.695  51.153   3.259  1.00  0.00     0.000 C 
BRANCH  15  16
ATOM     16  C   UNL     1      49.247  52.590   3.280  1.00  0.00     0.000 C 
BRANCH  16  17
ATOM     17  C   UNL     1      49.481  53.118   4.705  1.00  0.00     0.000 C 
BRANCH  17  18
ATOM     18  C   UNL     1      50.967  53.105   5.108  1.00  0.00    -0.000 C 
BRANCH  18  19
ATOM     19  C   UNL     1      51.229  52.812   6.598  1.00  0.00    -0.000 C 
BRANCH  19  20
ATOM     20  C   UNL     1      51.358  51.308   6.899  1.00  0.00    -0.000 C 
BRANCH  20  21
ATOM     21  C   UNL     1      52.701  50.727   6.409  1.00  0.00    -0.000 C 
BRANCH  21  22
ATOM     22  C   UNL     1      53.913  51.200   7.230  1.00  0.00    -0.000 C 
BRANCH  22  23
ATOM     23  C   UNL     1      54.815  52.174   6.454  1.00  0.00    -0.000 C 
BRANCH  23  24
ATOM     24  C   UNL     1      54.724  51.991   4.927  1.00  0.00    -0.000 C 
BRANCH  24  25
ATOM     25  C   UNL     1      55.981  51.402   4.261  1.00  0.00    -0.003 C 
ATOM     26  C   UNL     1      55.714  50.092   3.522  1.00  0.00     0.004 C 
ENDBRANCH  24  25
ENDBRANCH  23  24
ENDBRANCH  22  23
ENDBRANCH  21  22
ENDBRANCH  20  21
ENDBRANCH  19  20
ENDBRANCH  18  19
ENDBRANCH  17  18
ENDBRANCH  16  17
ENDBRANCH  15  16
ENDBRANCH   1  15
TORSDOF 22
ENDMDL
MODEL 8
REMARK VINA RESULT:    -4.076      4.862     10.629
REMARK INTER + INTRA:         -12.330
REMARK INTER:                 -10.635
REMARK INTRA:                  -1.695
REMARK UNBOUND:                -3.012
REMARK SMILES CCCCCCCCCCCCCCCCCCCCCCCC(=O)[O-]
REMARK SMILES IDX 13 1 14 2 15 3 16 4 17 5 18 6 19 7 20 8 21 9 22 10 23 11
REMARK SMILES IDX 24 12 25 13 26 14 12 15 11 16 10 17 9 18 8 19 7 20 6 21 5 22
REMARK SMILES IDX 4 23 3 24 2 25 1 26
REMARK H PARENT
REMARK Flexibility Score: inf
ROOT
ATOM      1  C   UNL     1      49.152  47.408   3.048  1.00  0.00     0.000 C 
ENDROOT
BRANCH   1   2
ATOM      2  C   UNL     1      48.451  48.683   2.550  1.00  0.00     0.000 C 
BRANCH   2   3
ATOM      3  C   UNL     1      49.441  49.849   2.337  1.00  0.00     0.000 C 
BRANCH   3   4
ATOM      4  C   UNL     1      49.013  51.145   3.045  1.00  0.00     0.000 C 
BRANCH   4   5
ATOM      5  C   UNL     1      49.266  51.100   4.562  1.00  0.00     0.000 C 
BRANCH   5   6
ATOM      6  C   UNL     1      50.741  51.339   4.919  1.00  0.00     0.000 C 
BRANCH   6   7
ATOM      7  C   UNL     1      51.498  50.036   5.230  1.00  0.00     0.000 C 
BRANCH   7   8
ATOM      8  C   UNL     1      52.566  49.703   4.173  1.00  0.00     0.000 C 
BRANCH   8   9
ATOM      9  C   UNL     1      54.018  50.010   4.595  1.00  0.00     0.000 C 
BRANCH   9  10
ATOM     10  C   UNL     1      54.432  51.487   4.477  1.00  0.00     0.006 C 
BRANCH  10  11
ATOM     11  C   UNL     1      55.165  51.999   5.722  1.00  0.00     0.053 C 
BRANCH  11  12
ATOM     12  C   UNL     1      54.290  51.891   6.929  1.00  0.00     0.041 C 
ATOM     13  O   UNL     1      53.267  52.618   7.038  1.00  0.00    -0.550 OA
ATOM     14  O   UNL     1      54.574  50.952   7.915  1.00  0.00    -0.550 OA
ENDBRANCH  11  12
ENDBRANCH  10  11
ENDBRANCH   9  10
ENDBRANCH   8   9
ENDBRANCH   7   8
ENDBRANCH   6   7
ENDBRANCH   5   6
ENDBRANCH   4   5
ENDBRANCH   3   4
ENDBRANCH   2   3
ENDBRANCH   1   2
BRANCH   1  15
ATOM     15  C   UNL     1      48.548  46.120   2.460  1.00  0.00     0.000 C 
BRANCH  15  16
ATOM     16  C   UNL     1      47.269  46.327   1.630  1.00  0.00     0.000 C 
BRANCH  16  17
ATOM     17  C   UNL     1      47.177  45.372   0.428  1.00  0.00     0.000 C 
BRANCH  17  18
ATOM     18  C   UNL     1      48.245  44.263   0.465  1.00  0.00    -0.000 C 
BRANCH  18  19
ATOM     19  C   UNL     1      48.749  43.807  -0.917  1.00  0.00    -0.000 C 
BRANCH  19  20
ATOM     20  C   UNL     1      47.754  42.884  -1.643  1.00  0.00    -0.000 C 
BRANCH  20  21
ATOM     21  C   UNL     1      48.381  42.207  -2.880  1.00  0.00    -0.000 C 
BRANCH  21  22
ATOM     22  C   UNL     1      47.356  41.490  -3.776  1.00  0.00    -0.000 C 
BRANCH  22  23
ATOM     23  C   UNL     1      47.811  41.394  -5.242  1.00  0.00    -0.000 C 
BRANCH  23  24
ATOM     24  C   UNL     1      47.960  39.941  -5.732  1.00  0.00    -0.000 C 
BRANCH  24  25
ATOM     25  C   UNL     1      49.128  39.156  -5.109  1.00  0.00    -0.003 C 
ATOM     26  C   UNL     1      50.500  39.717  -5.484  1.00  0.00     0.004 C 
ENDBRANCH  24  25
ENDBRANCH  23  24
ENDBRANCH  22  23
ENDBRANCH  21  22
ENDBRANCH  20  21
ENDBRANCH  19  20
ENDBRANCH  18  19
ENDBRANCH  17  18
ENDBRANCH  16  17
ENDBRANCH  15  16
ENDBRANCH   1  15
TORSDOF 22
ENDMDL
