MODEL 1
REMARK VINA RESULT:    -3.328      0.000      0.000
REMARK INTER + INTRA:          -4.228
REMARK INTER:                  -4.106
REMARK INTRA:                  -0.122
REMARK UNBOUND:                -0.122
REMARK SMILES CCCCCC(=O)[O-]
REMARK SMILES IDX 4 1 5 2 6 3 7 4 8 5 3 6 2 7 1 8
REMARK H PARENT
REMARK Flexibility Score: inf
ROOT
ATOM      1  C   UNL     1      14.121  34.267  67.231  1.00  0.00     0.006 C 
ENDROOT
BRANCH   1   2
ATOM      2  C   UNL     1      13.889  33.153  68.260  1.00  0.00     0.053 C 
BRANCH   2   3
ATOM      3  C   UNL     1      12.446  32.762  68.342  1.00  0.00     0.041 C 
ATOM      4  O   UNL     1      11.965  32.335  69.424  1.00  0.00    -0.550 OA
ATOM      5  O   UNL     1      11.622  32.902  67.232  1.00  0.00    -0.550 OA
ENDBRANCH   2   3
ENDBRANCH   1   2
BRANCH   1   6
ATOM      6  C   UNL     1      13.756  35.653  67.783  1.00  0.00     0.000 C 
BRANCH   6   7
ATOM      7  C   UNL     1      14.459  36.762  66.993  1.00  0.00    -0.003 C 
ATOM      8  C   UNL     1      15.140  36.205  65.746  1.00  0.00     0.004 C 
ENDBRANCH   6   7
ENDBRANCH   1   6
TORSDOF 4
ENDMDL
MODEL 2
REMARK VINA RESULT:    -3.285      4.521      6.413
REMARK INTER + INTRA:          -4.175
REMARK INTER:                  -4.122
REMARK INTRA:                  -0.054
REMARK UNBOUND:                -0.122
REMARK SMILES CCCCCC(=O)[O-]
REMARK SMILES IDX 4 1 5 2 6 3 7 4 8 5 3 6 2 7 1 8
REMARK H PARENT
REMARK Flexibility Score: inf
ROOT
ATOM      1  C   UNL     1      15.655  30.699  70.753  1.00  0.00     0.006 C 
ENDROOT
BRANCH   1   2
ATOM      2  C   UNL     1      16.014  31.230  69.359  1.00  0.00     0.053 C 
BRANCH   2   3
ATOM      3  C   UNL     1      14.910  32.057  68.777  1.00  0.00     0.041 C 
ATOM      4  O   UNL     1      15.177  33.075  68.086  1.00  0.00    -0.550 OA
ATOM      5  O   UNL     1      13.585  31.685  68.968  1.00  0.00    -0.550 OA
ENDBRANCH   2   3
ENDBRANCH   1   2
BRANCH   1   6
ATOM      6  C   UNL     1      16.876  30.130  71.491  1.00  0.00     0.000 C 
BRANCH   6   7
ATOM      7  C   UNL     1      16.735  28.618  71.701  1.00  0.00    -0.003 C 
ATOM      8  C   UNL     1      16.096  28.305  73.051  1.00  0.00     0.004 C 
ENDBRANCH   6   7
ENDBRANCH   1   6
TORSDOF 4
ENDMDL
MODEL 3
REMARK VINA RESULT:    -3.278      3.024      4.141
REMARK INTER + INTRA:          -4.166
REMARK INTER:                  -3.996
REMARK INTRA:                  -0.171
REMARK UNBOUND:                -0.122
REMARK SMILES CCCCCC(=O)[O-]
REMARK SMILES IDX 4 1 5 2 6 3 7 4 8 5 3 6 2 7 1 8
REMARK H PARENT
REMARK Flexibility Score: inf
ROOT
ATOM      1  C   UNL     1      14.364  33.985  67.102  1.00  0.00     0.006 C 
ENDROOT
BRANCH   1   2
ATOM      2  C   UNL     1      13.713  35.220  67.740  1.00  0.00     0.053 C 
BRANCH   2   3
ATOM      3  C   UNL     1      14.465  36.475  67.417  1.00  0.00     0.041 C 
ATOM      4  O   UNL     1      13.845  37.509  67.056  1.00  0.00    -0.550 OA
ATOM      5  O   UNL     1      15.847  36.512  67.549  1.00  0.00    -0.550 OA
ENDBRANCH   2   3
ENDBRANCH   1   2
BRANCH   1   6
ATOM      6  C   UNL     1      14.671  32.891  68.135  1.00  0.00     0.000 C 
BRANCH   6   7
ATOM      7  C   UNL     1      15.992  32.185  67.811  1.00  0.00    -0.003 C 
ATOM      8  C   UNL     1      16.846  33.020  66.862  1.00  0.00     0.004 C 
ENDBRANCH   6   7
ENDBRANCH   1   6
TORSDOF 4
ENDMDL
MODEL 4
REMARK VINA RESULT:    -3.275      2.175      2.568
REMARK INTER + INTRA:          -4.163
REMARK INTER:                  -4.040
REMARK INTRA:                  -0.123
REMARK UNBOUND:                -0.122
REMARK SMILES CCCCCC(=O)[O-]
REMARK SMILES IDX 4 1 5 2 6 3 7 4 8 5 3 6 2 7 1 8
REMARK H PARENT
REMARK Flexibility Score: inf
ROOT
ATOM      1  C   UNL     1      14.112  34.218  67.157  1.00  0.00     0.006 C 
ENDROOT
BRANCH   1   2
ATOM      2  C   UNL     1      14.007  33.068  68.167  1.00  0.00     0.053 C 
BRANCH   2   3
ATOM      3  C   UNL     1      15.330  32.403  68.393  1.00  0.00     0.041 C 
ATOM      4  O   UNL     1      16.273  32.573  67.577  1.00  0.00    -0.550 OA
ATOM      5  O   UNL     1      15.533  31.623  69.525  1.00  0.00    -0.550 OA
ENDBRANCH   2   3
ENDBRANCH   1   2
BRANCH   1   6
ATOM      6  C   UNL     1      13.818  35.583  67.797  1.00  0.00     0.000 C 
BRANCH   6   7
ATOM      7  C   UNL     1      14.487  36.715  67.010  1.00  0.00    -0.003 C 
ATOM      8  C   UNL     1      15.264  36.171  65.814  1.00  0.00     0.004 C 
ENDBRANCH   6   7
ENDBRANCH   1   6
TORSDOF 4
ENDMDL
MODEL 5
REMARK VINA RESULT:    -3.262     11.651     12.568
REMARK INTER + INTRA:          -4.146
REMARK INTER:                  -3.995
REMARK INTRA:                  -0.152
REMARK UNBOUND:                -0.122
REMARK SMILES CCCCCC(=O)[O-]
REMARK SMILES IDX 4 1 5 2 6 3 7 4 8 5 3 6 2 7 1 8
REMARK H PARENT
REMARK Flexibility Score: inf
ROOT
ATOM      1  C   UNL     1      15.419  42.726  61.168  1.00  0.00     0.006 C 
ENDROOT
BRANCH   1   2
ATOM      2  C   UNL     1      15.093  43.486  59.875  1.00  0.00     0.053 C 
BRANCH   2   3
ATOM      3  C   UNL     1      14.547  44.853  60.155  1.00  0.00     0.041 C 
ATOM      4  O   UNL     1      13.316  45.013  60.361  1.00  0.00    -0.550 OA
ATOM      5  O   UNL     1      15.404  45.945  60.222  1.00  0.00    -0.550 OA
ENDBRANCH   2   3
ENDBRANCH   1   2
BRANCH   1   6
ATOM      6  C   UNL     1      16.813  43.075  61.710  1.00  0.00     0.000 C 
BRANCH   6   7
ATOM      7  C   UNL     1      17.815  43.269  60.566  1.00  0.00    -0.003 C 
ATOM      8  C   UNL     1      19.211  42.805  60.971  1.00  0.00     0.004 C 
ENDBRANCH   6   7
ENDBRANCH   1   6
TORSDOF 4
ENDMDL
MODEL 6
REMARK VINA RESULT:    -3.249     11.860     12.740
REMARK INTER + INTRA:          -4.130
REMARK INTER:                  -3.931
REMARK INTRA:                  -0.199
REMARK UNBOUND:                -0.122
REMARK SMILES CCCCCC(=O)[O-]
REMARK SMILES IDX 4 1 5 2 6 3 7 4 8 5 3 6 2 7 1 8
REMARK H PARENT
REMARK Flexibility Score: inf
ROOT
ATOM      1  C   UNL     1      15.740  44.043  59.875  1.00  0.00     0.006 C 
ENDROOT
BRANCH   1   2
ATOM      2  C   UNL     1      17.214  43.621  59.929  1.00  0.00     0.053 C 
BRANCH   2   3
ATOM      3  C   UNL     1      17.934  44.260  61.077  1.00  0.00     0.041 C 
ATOM      4  O   UNL     1      19.098  43.888  61.381  1.00  0.00    -0.550 OA
ATOM      5  O   UNL     1      17.333  45.289  61.791  1.00  0.00    -0.550 OA
ENDBRANCH   2   3
ENDBRANCH   1   2
BRANCH   1   6
ATOM      6  C   UNL     1      14.790  42.880  60.198  1.00  0.00     0.000 C 
BRANCH   6   7
ATOM      7  C   UNL     1      13.879  43.228  61.380  1.00  0.00    -0.003 C 
ATOM      8  C   UNL     1      13.809  44.737  61.599  1.00  0.00     0.004 C 
ENDBRANCH   6   7
ENDBRANCH   1   6
TORSDOF 4
ENDMDL
MODEL 7
REMARK VINA RESULT:    -3.182     11.174     11.874
REMARK INTER + INTRA:          -4.049
REMARK INTER:                  -3.929
REMARK INTRA:                  -0.120
REMARK UNBOUND:                -0.122
REMARK SMILES CCCCCC(=O)[O-]
REMARK SMILES IDX 4 1 5 2 6 3 7 4 8 5 3 6 2 7 1 8
REMARK H PARENT
REMARK Flexibility Score: inf
ROOT
ATOM      1  C   UNL     1      14.759  42.859  60.688  1.00  0.00     0.006 C 
ENDROOT
BRANCH   1   2
ATOM      2  C   UNL     1      13.736  43.320  61.735  1.00  0.00     0.053 C 
BRANCH   2   3
ATOM      3  C   UNL     1      14.129  44.621  62.363  1.00  0.00     0.041 C 
ATOM      4  O   UNL     1      14.218  44.719  63.615  1.00  0.00    -0.550 OA
ATOM      5  O   UNL     1      14.430  45.718  61.565  1.00  0.00    -0.550 OA
ENDBRANCH   2   3
ENDBRANCH   1   2
BRANCH   1   6
ATOM      6  C   UNL     1      16.193  42.860  61.238  1.00  0.00     0.000 C 
BRANCH   6   7
ATOM      7  C   UNL     1      17.141  43.614  60.299  1.00  0.00    -0.003 C 
ATOM      8  C   UNL     1      18.594  43.453  60.735  1.00  0.00     0.004 C 
ENDBRANCH   6   7
ENDBRANCH   1   6
TORSDOF 4
ENDMDL
MODEL 8
REMARK VINA RESULT:    -3.170      3.054      4.757
REMARK INTER + INTRA:          -4.033
REMARK INTER:                  -3.985
REMARK INTRA:                  -0.047
REMARK UNBOUND:                -0.122
REMARK SMILES CCCCCC(=O)[O-]
REMARK SMILES IDX 4 1 5 2 6 3 7 4 8 5 3 6 2 7 1 8
REMARK H PARENT
REMARK Flexibility Score: inf
ROOT
ATOM      1  C   UNL     1      14.692  33.131  68.081  1.00  0.00     0.006 C 
ENDROOT
BRANCH   1   2
ATOM      2  C   UNL     1      15.341  34.129  67.114  1.00  0.00     0.053 C 
BRANCH   2   3
ATOM      3  C   UNL     1      14.960  35.543  67.432  1.00  0.00     0.041 C 
ATOM      4  O   UNL     1      15.816  36.462  67.355  1.00  0.00    -0.550 OA
ATOM      5  O   UNL     1      13.651  35.849  67.781  1.00  0.00    -0.550 OA
ENDBRANCH   2   3
ENDBRANCH   1   2
BRANCH   1   6
ATOM      6  C   UNL     1      15.662  32.019  68.507  1.00  0.00     0.000 C 
BRANCH   6   7
ATOM      7  C   UNL     1      15.033  31.123  69.580  1.00  0.00    -0.003 C 
ATOM      8  C   UNL     1      16.005  30.874  70.730  1.00  0.00     0.004 C 
ENDBRANCH   6   7
ENDBRANCH   1   6
TORSDOF 4
ENDMDL
