MODEL 1
REMARK VINA RESULT:    -5.698      0.000      0.000
REMARK INTER + INTRA:         -14.323
REMARK INTER:                 -12.359
REMARK INTRA:                  -1.964
REMARK UNBOUND:                -1.964
REMARK SMILES CCCCCCCCCCCCCCCCCCCCCC(=O)[O-]
REMARK SMILES IDX 12 1 11 2 10 3 9 4 8 5 7 6 6 7 5 8 4 9 3 10 2 11 1 12 13 13
REMARK SMILES IDX 14 14 15 15 16 16 17 17 18 18 19 19 20 20 21 21 22 22 23 23
REMARK SMILES IDX 24 24
REMARK H PARENT
REMARK Flexibility Score: inf
ROOT
ATOM      1  C   UNL     1       2.344 -27.999  -0.342  1.00  0.00     0.000 C 
ENDROOT
BRANCH   1   2
ATOM      2  C   UNL     1       1.140 -27.465   0.458  1.00  0.00     0.000 C 
BRANCH   2   3
ATOM      3  C   UNL     1       0.591 -26.110  -0.021  1.00  0.00     0.000 C 
BRANCH   3   4
ATOM      4  C   UNL     1      -0.923 -26.147  -0.291  1.00  0.00    -0.000 C 
BRANCH   4   5
ATOM      5  C   UNL     1      -1.328 -25.336  -1.531  1.00  0.00    -0.000 C 
BRANCH   5   6
ATOM      6  C   UNL     1      -2.042 -24.002  -1.235  1.00  0.00    -0.000 C 
BRANCH   6   7
ATOM      7  C   UNL     1      -2.188 -23.693   0.270  1.00  0.00    -0.000 C 
BRANCH   7   8
ATOM      8  C   UNL     1      -3.656 -23.698   0.731  1.00  0.00    -0.000 C 
BRANCH   8   9
ATOM      9  C   UNL     1      -4.216 -25.128   0.894  1.00  0.00    -0.000 C 
BRANCH   9  10
ATOM     10  C   UNL     1      -5.359 -25.461  -0.080  1.00  0.00    -0.000 C 
BRANCH  10  11
ATOM     11  C   UNL     1      -5.033 -26.643  -1.003  1.00  0.00    -0.003 C 
ATOM     12  C   UNL     1      -4.836 -26.178  -2.443  1.00  0.00     0.004 C 
ENDBRANCH  10  11
ENDBRANCH   9  10
ENDBRANCH   8   9
ENDBRANCH   7   8
ENDBRANCH   6   7
ENDBRANCH   5   6
ENDBRANCH   4   5
ENDBRANCH   3   4
ENDBRANCH   2   3
ENDBRANCH   1   2
BRANCH   1  13
ATOM     13  C   UNL     1       3.329 -28.834   0.504  1.00  0.00     0.000 C 
BRANCH  13  14
ATOM     14  C   UNL     1       2.751 -29.193   1.885  1.00  0.00     0.000 C 
BRANCH  14  15
ATOM     15  C   UNL     1       3.827 -29.223   2.992  1.00  0.00     0.000 C 
BRANCH  15  16
ATOM     16  C   UNL     1       5.072 -30.054   2.633  1.00  0.00     0.000 C 
BRANCH  16  17
ATOM     17  C   UNL     1       6.095 -30.226   3.771  1.00  0.00     0.000 C 
BRANCH  17  18
ATOM     18  C   UNL     1       5.512 -30.747   5.097  1.00  0.00     0.000 C 
BRANCH  18  19
ATOM     19  C   UNL     1       4.820 -32.111   4.954  1.00  0.00     0.000 C 
BRANCH  19  20
ATOM     20  C   UNL     1       3.354 -32.030   5.404  1.00  0.00     0.006 C 
BRANCH  20  21
ATOM     21  C   UNL     1       3.184 -31.209   6.689  1.00  0.00     0.053 C 
BRANCH  21  22
ATOM     22  C   UNL     1       2.090 -30.194   6.561  1.00  0.00     0.041 C 
ATOM     23  O   UNL     1       0.908 -30.561   6.334  1.00  0.00    -0.550 OA
ATOM     24  O   UNL     1       2.373 -28.841   6.712  1.00  0.00    -0.550 OA
ENDBRANCH  21  22
ENDBRANCH  20  21
ENDBRANCH  19  20
ENDBRANCH  18  19
ENDBRANCH  17  18
ENDBRANCH  16  17
ENDBRANCH  15  16
ENDBRANCH  14  15
ENDBRANCH  13  14
ENDBRANCH   1  13
TORSDOF 20
ENDMDL
MODEL 2
REMARK VINA RESULT:    -5.569      1.174      3.085
REMARK INTER + INTRA:         -14.044
REMARK INTER:                 -12.088
REMARK INTRA:                  -1.956
REMARK UNBOUND:                -1.964
REMARK SMILES CCCCCCCCCCCCCCCCCCCCCC(=O)[O-]
REMARK SMILES IDX 12 1 11 2 10 3 9 4 8 5 7 6 6 7 5 8 4 9 3 10 2 11 1 12 13 13
REMARK SMILES IDX 14 14 15 15 16 16 17 17 18 18 19 19 20 20 21 21 22 22 23 23
REMARK SMILES IDX 24 24
REMARK H PARENT
REMARK Flexibility Score: inf
ROOT
ATOM      1  C   UNL     1      -1.227 -26.537  -0.096  1.00  0.00     0.000 C 
ENDROOT
BRANCH   1   2
ATOM      2  C   UNL     1      -0.989 -25.462  -1.175  1.00  0.00     0.000 C 
BRANCH   2   3
ATOM      3  C   UNL     1      -1.974 -24.281  -1.143  1.00  0.00     0.000 C 
BRANCH   3   4
ATOM      4  C   UNL     1      -2.010 -23.579   0.226  1.00  0.00    -0.000 C 
BRANCH   4   5
ATOM      5  C   UNL     1      -3.438 -23.391   0.762  1.00  0.00    -0.000 C 
BRANCH   5   6
ATOM      6  C   UNL     1      -4.138 -24.684   1.223  1.00  0.00    -0.000 C 
BRANCH   6   7
ATOM      7  C   UNL     1      -5.268 -25.151   0.282  1.00  0.00    -0.000 C 
BRANCH   7   8
ATOM      8  C   UNL     1      -4.955 -26.503  -0.384  1.00  0.00    -0.000 C 
BRANCH   8   9
ATOM      9  C   UNL     1      -4.905 -26.403  -1.924  1.00  0.00    -0.000 C 
BRANCH   9  10
ATOM     10  C   UNL     1      -5.414 -25.060  -2.475  1.00  0.00    -0.000 C 
BRANCH  10  11
ATOM     11  C   UNL     1      -6.837 -25.148  -3.041  1.00  0.00    -0.003 C 
ATOM     12  C   UNL     1      -6.922 -24.498  -4.420  1.00  0.00     0.004 C 
ENDBRANCH  10  11
ENDBRANCH   9  10
ENDBRANCH   8   9
ENDBRANCH   7   8
ENDBRANCH   6   7
ENDBRANCH   5   6
ENDBRANCH   4   5
ENDBRANCH   3   4
ENDBRANCH   2   3
ENDBRANCH   1   2
BRANCH   1  13
ATOM     13  C   UNL     1       0.058 -27.278   0.333  1.00  0.00     0.000 C 
BRANCH  13  14
ATOM     14  C   UNL     1       1.135 -27.262  -0.767  1.00  0.00     0.000 C 
BRANCH  14  15
ATOM     15  C   UNL     1       2.524 -27.692  -0.248  1.00  0.00     0.000 C 
BRANCH  15  16
ATOM     16  C   UNL     1       2.472 -28.698   0.916  1.00  0.00     0.000 C 
BRANCH  16  17
ATOM     17  C   UNL     1       3.843 -29.174   1.432  1.00  0.00     0.000 C 
BRANCH  17  18
ATOM     18  C   UNL     1       3.787 -30.267   2.515  1.00  0.00     0.000 C 
BRANCH  18  19
ATOM     19  C   UNL     1       4.853 -30.086   3.606  1.00  0.00     0.000 C 
BRANCH  19  20
ATOM     20  C   UNL     1       4.199 -29.877   4.980  1.00  0.00     0.006 C 
BRANCH  20  21
ATOM     21  C   UNL     1       2.804 -30.511   5.063  1.00  0.00     0.053 C 
BRANCH  21  22
ATOM     22  C   UNL     1       2.013 -29.968   6.213  1.00  0.00     0.041 C 
ATOM     23  O   UNL     1       2.366 -28.900   6.777  1.00  0.00    -0.550 OA
ATOM     24  O   UNL     1       0.873 -30.632   6.650  1.00  0.00    -0.550 OA
ENDBRANCH  21  22
ENDBRANCH  20  21
ENDBRANCH  19  20
ENDBRANCH  18  19
ENDBRANCH  17  18
ENDBRANCH  16  17
ENDBRANCH  15  16
ENDBRANCH  14  15
ENDBRANCH  13  14
ENDBRANCH   1  13
TORSDOF 20
ENDMDL
MODEL 3
REMARK VINA RESULT:    -5.477      0.928      2.193
REMARK INTER + INTRA:         -13.844
REMARK INTER:                 -11.922
REMARK INTRA:                  -1.923
REMARK UNBOUND:                -1.964
REMARK SMILES CCCCCCCCCCCCCCCCCCCCCC(=O)[O-]
REMARK SMILES IDX 12 1 11 2 10 3 9 4 8 5 7 6 6 7 5 8 4 9 3 10 2 11 1 12 13 13
REMARK SMILES IDX 14 14 15 15 16 16 17 17 18 18 19 19 20 20 21 21 22 22 23 23
REMARK SMILES IDX 24 24
REMARK H PARENT
REMARK Flexibility Score: inf
ROOT
ATOM      1  C   UNL     1       2.786 -29.278   1.452  1.00  0.00     0.000 C 
ENDROOT
BRANCH   1   2
ATOM      2  C   UNL     1       3.365 -28.540   0.229  1.00  0.00     0.000 C 
BRANCH   2   3
ATOM      3  C   UNL     1       2.317 -27.970  -0.742  1.00  0.00     0.000 C 
BRANCH   3   4
ATOM      4  C   UNL     1       0.965 -27.699  -0.059  1.00  0.00    -0.000 C 
BRANCH   4   5
ATOM      5  C   UNL     1       0.524 -26.231  -0.170  1.00  0.00    -0.000 C 
BRANCH   5   6
ATOM      6  C   UNL     1      -0.983 -26.018  -0.409  1.00  0.00    -0.000 C 
BRANCH   6   7
ATOM      7  C   UNL     1      -1.302 -24.923  -1.449  1.00  0.00    -0.000 C 
BRANCH   7   8
ATOM      8  C   UNL     1      -2.640 -24.217  -1.166  1.00  0.00    -0.000 C 
BRANCH   8   9
ATOM      9  C   UNL     1      -2.860 -23.956   0.339  1.00  0.00    -0.000 C 
BRANCH   9  10
ATOM     10  C   UNL     1      -4.244 -24.393   0.849  1.00  0.00    -0.000 C 
BRANCH  10  11
ATOM     11  C   UNL     1      -4.849 -25.539   0.027  1.00  0.00    -0.003 C 
ATOM     12  C   UNL     1      -4.418 -26.896   0.575  1.00  0.00     0.004 C 
ENDBRANCH  10  11
ENDBRANCH   9  10
ENDBRANCH   8   9
ENDBRANCH   7   8
ENDBRANCH   6   7
ENDBRANCH   5   6
ENDBRANCH   4   5
ENDBRANCH   3   4
ENDBRANCH   2   3
ENDBRANCH   1   2
BRANCH   1  13
ATOM     13  C   UNL     1       3.727 -29.280   2.677  1.00  0.00     0.000 C 
BRANCH  13  14
ATOM     14  C   UNL     1       5.137 -29.789   2.327  1.00  0.00     0.000 C 
BRANCH  14  15
ATOM     15  C   UNL     1       5.989 -30.095   3.577  1.00  0.00     0.000 C 
BRANCH  15  16
ATOM     16  C   UNL     1       6.526 -31.537   3.630  1.00  0.00     0.000 C 
BRANCH  16  17
ATOM     17  C   UNL     1       5.562 -32.614   3.098  1.00  0.00     0.000 C 
BRANCH  17  18
ATOM     18  C   UNL     1       4.337 -32.889   3.991  1.00  0.00     0.000 C 
BRANCH  18  19
ATOM     19  C   UNL     1       4.691 -32.989   5.482  1.00  0.00     0.000 C 
BRANCH  19  20
ATOM     20  C   UNL     1       3.655 -32.247   6.340  1.00  0.00     0.006 C 
BRANCH  20  21
ATOM     21  C   UNL     1       2.528 -31.639   5.496  1.00  0.00     0.053 C 
BRANCH  21  22
ATOM     22  C   UNL     1       2.096 -30.304   6.021  1.00  0.00     0.041 C 
ATOM     23  O   UNL     1       2.928 -29.365   6.124  1.00  0.00    -0.550 OA
ATOM     24  O   UNL     1       0.771 -30.092   6.379  1.00  0.00    -0.550 OA
ENDBRANCH  21  22
ENDBRANCH  20  21
ENDBRANCH  19  20
ENDBRANCH  18  19
ENDBRANCH  17  18
ENDBRANCH  16  17
ENDBRANCH  15  16
ENDBRANCH  14  15
ENDBRANCH  13  14
ENDBRANCH   1  13
TORSDOF 20
ENDMDL
MODEL 4
REMARK VINA RESULT:    -5.457      2.292      3.680
REMARK INTER + INTRA:         -13.801
REMARK INTER:                 -11.983
REMARK INTRA:                  -1.818
REMARK UNBOUND:                -1.964
REMARK SMILES CCCCCCCCCCCCCCCCCCCCCC(=O)[O-]
REMARK SMILES IDX 12 1 11 2 10 3 9 4 8 5 7 6 6 7 5 8 4 9 3 10 2 11 1 12 13 13
REMARK SMILES IDX 14 14 15 15 16 16 17 17 18 18 19 19 20 20 21 21 22 22 23 23
REMARK SMILES IDX 24 24
REMARK H PARENT
REMARK Flexibility Score: inf
ROOT
ATOM      1  C   UNL     1       3.873 -29.228   1.726  1.00  0.00     0.000 C 
ENDROOT
BRANCH   1   2
ATOM      2  C   UNL     1       2.530 -28.488   1.568  1.00  0.00     0.000 C 
BRANCH   2   3
ATOM      3  C   UNL     1       2.166 -28.104   0.123  1.00  0.00     0.000 C 
BRANCH   3   4
ATOM      4  C   UNL     1       0.672 -27.778  -0.043  1.00  0.00    -0.000 C 
BRANCH   4   5
ATOM      5  C   UNL     1       0.430 -26.438  -0.755  1.00  0.00    -0.000 C 
BRANCH   5   6
ATOM      6  C   UNL     1      -0.966 -25.823  -0.534  1.00  0.00    -0.000 C 
BRANCH   6   7
ATOM      7  C   UNL     1      -1.312 -24.687  -1.519  1.00  0.00    -0.000 C 
BRANCH   7   8
ATOM      8  C   UNL     1      -2.819 -24.382  -1.558  1.00  0.00    -0.000 C 
BRANCH   8   9
ATOM      9  C   UNL     1      -3.666 -25.528  -0.963  1.00  0.00    -0.000 C 
BRANCH   9  10
ATOM     10  C   UNL     1      -4.752 -25.052   0.018  1.00  0.00    -0.000 C 
BRANCH  10  11
ATOM     11  C   UNL     1      -4.174 -24.519   1.336  1.00  0.00    -0.003 C 
ATOM     12  C   UNL     1      -4.650 -23.095   1.609  1.00  0.00     0.004 C 
ENDBRANCH  10  11
ENDBRANCH   9  10
ENDBRANCH   8   9
ENDBRANCH   7   8
ENDBRANCH   6   7
ENDBRANCH   5   6
ENDBRANCH   4   5
ENDBRANCH   3   4
ENDBRANCH   2   3
ENDBRANCH   1   2
BRANCH   1  13
ATOM     13  C   UNL     1       4.212 -29.591   3.188  1.00  0.00     0.000 C 
BRANCH  13  14
ATOM     14  C   UNL     1       2.955 -29.923   4.012  1.00  0.00     0.000 C 
BRANCH  14  15
ATOM     15  C   UNL     1       3.136 -29.635   5.518  1.00  0.00     0.000 C 
BRANCH  15  16
ATOM     16  C   UNL     1       3.110 -30.895   6.402  1.00  0.00     0.000 C 
BRANCH  16  17
ATOM     17  C   UNL     1       3.155 -32.232   5.638  1.00  0.00     0.000 C 
BRANCH  17  18
ATOM     18  C   UNL     1       4.478 -33.010   5.765  1.00  0.00     0.000 C 
BRANCH  18  19
ATOM     19  C   UNL     1       5.630 -32.367   4.979  1.00  0.00     0.000 C 
BRANCH  19  20
ATOM     20  C   UNL     1       6.677 -31.771   5.932  1.00  0.00     0.006 C 
BRANCH  20  21
ATOM     21  C   UNL     1       6.877 -30.267   5.708  1.00  0.00     0.053 C 
BRANCH  21  22
ATOM     22  C   UNL     1       8.003 -29.989   4.761  1.00  0.00     0.041 C 
ATOM     23  O   UNL     1       9.197 -30.078   5.151  1.00  0.00    -0.550 OA
ATOM     24  O   UNL     1       7.736 -29.651   3.440  1.00  0.00    -0.550 OA
ENDBRANCH  21  22
ENDBRANCH  20  21
ENDBRANCH  19  20
ENDBRANCH  18  19
ENDBRANCH  17  18
ENDBRANCH  16  17
ENDBRANCH  15  16
ENDBRANCH  14  15
ENDBRANCH  13  14
ENDBRANCH   1  13
TORSDOF 20
ENDMDL
MODEL 5
REMARK VINA RESULT:    -5.386      2.151      3.255
REMARK INTER + INTRA:         -13.648
REMARK INTER:                 -11.499
REMARK INTRA:                  -2.149
REMARK UNBOUND:                -1.964
REMARK SMILES CCCCCCCCCCCCCCCCCCCCCC(=O)[O-]
REMARK SMILES IDX 12 1 11 2 10 3 9 4 8 5 7 6 6 7 5 8 4 9 3 10 2 11 1 12 13 13
REMARK SMILES IDX 14 14 15 15 16 16 17 17 18 18 19 19 20 20 21 21 22 22 23 23
REMARK SMILES IDX 24 24
REMARK H PARENT
REMARK Flexibility Score: inf
ROOT
ATOM      1  C   UNL     1       0.187 -27.408  -0.081  1.00  0.00     0.000 C 
ENDROOT
BRANCH   1   2
ATOM      2  C   UNL     1      -0.694 -26.143  -0.041  1.00  0.00     0.000 C 
BRANCH   2   3
ATOM      3  C   UNL     1      -0.970 -25.501  -1.411  1.00  0.00     0.000 C 
BRANCH   3   4
ATOM      4  C   UNL     1      -1.879 -24.263  -1.311  1.00  0.00    -0.000 C 
BRANCH   4   5
ATOM      5  C   UNL     1      -1.572 -23.397  -0.078  1.00  0.00    -0.000 C 
BRANCH   5   6
ATOM      6  C   UNL     1      -2.768 -23.153   0.862  1.00  0.00    -0.000 C 
BRANCH   6   7
ATOM      7  C   UNL     1      -3.994 -24.039   0.555  1.00  0.00    -0.000 C 
BRANCH   7   8
ATOM      8  C   UNL     1      -3.998 -25.340   1.377  1.00  0.00    -0.000 C 
BRANCH   8   9
ATOM      9  C   UNL     1      -4.407 -26.567   0.533  1.00  0.00    -0.000 C 
BRANCH   9  10
ATOM     10  C   UNL     1      -5.480 -26.262  -0.526  1.00  0.00    -0.000 C 
BRANCH  10  11
ATOM     11  C   UNL     1      -5.019 -26.584  -1.953  1.00  0.00    -0.003 C 
ATOM     12  C   UNL     1      -5.061 -25.341  -2.838  1.00  0.00     0.004 C 
ENDBRANCH  10  11
ENDBRANCH   9  10
ENDBRANCH   8   9
ENDBRANCH   7   8
ENDBRANCH   6   7
ENDBRANCH   5   6
ENDBRANCH   4   5
ENDBRANCH   3   4
ENDBRANCH   2   3
ENDBRANCH   1   2
BRANCH   1  13
ATOM     13  C   UNL     1       1.647 -27.160   0.358  1.00  0.00     0.000 C 
BRANCH  13  14
ATOM     14  C   UNL     1       2.626 -28.160  -0.282  1.00  0.00     0.000 C 
BRANCH  14  15
ATOM     15  C   UNL     1       3.437 -28.954   0.764  1.00  0.00     0.000 C 
BRANCH  15  16
ATOM     16  C   UNL     1       2.942 -28.770   2.210  1.00  0.00     0.000 C 
BRANCH  16  17
ATOM     17  C   UNL     1       3.100 -30.004   3.118  1.00  0.00     0.000 C 
BRANCH  17  18
ATOM     18  C   UNL     1       3.505 -29.694   4.572  1.00  0.00     0.000 C 
BRANCH  18  19
ATOM     19  C   UNL     1       4.417 -30.768   5.182  1.00  0.00     0.000 C 
BRANCH  19  20
ATOM     20  C   UNL     1       5.874 -30.283   5.235  1.00  0.00     0.006 C 
BRANCH  20  21
ATOM     21  C   UNL     1       6.800 -31.123   4.347  1.00  0.00     0.053 C 
BRANCH  21  22
ATOM     22  C   UNL     1       7.308 -30.341   3.175  1.00  0.00     0.041 C 
ATOM     23  O   UNL     1       6.517 -29.644   2.487  1.00  0.00    -0.550 OA
ATOM     24  O   UNL     1       8.660 -30.364   2.855  1.00  0.00    -0.550 OA
ENDBRANCH  21  22
ENDBRANCH  20  21
ENDBRANCH  19  20
ENDBRANCH  18  19
ENDBRANCH  17  18
ENDBRANCH  16  17
ENDBRANCH  15  16
ENDBRANCH  14  15
ENDBRANCH  13  14
ENDBRANCH   1  13
TORSDOF 20
ENDMDL
MODEL 6
REMARK VINA RESULT:    -5.358      2.150      3.656
REMARK INTER + INTRA:         -13.585
REMARK INTER:                 -11.629
REMARK INTRA:                  -1.956
REMARK UNBOUND:                -1.964
REMARK SMILES CCCCCCCCCCCCCCCCCCCCCC(=O)[O-]
REMARK SMILES IDX 12 1 11 2 10 3 9 4 8 5 7 6 6 7 5 8 4 9 3 10 2 11 1 12 13 13
REMARK SMILES IDX 14 14 15 15 16 16 17 17 18 18 19 19 20 20 21 21 22 22 23 23
REMARK SMILES IDX 24 24
REMARK H PARENT
REMARK Flexibility Score: inf
ROOT
ATOM      1  C   UNL     1      -0.418 -25.650  -0.194  1.00  0.00     0.000 C 
ENDROOT
BRANCH   1   2
ATOM      2  C   UNL     1      -1.205 -25.171  -1.431  1.00  0.00     0.000 C 
BRANCH   2   3
ATOM      3  C   UNL     1      -2.199 -24.027  -1.165  1.00  0.00     0.000 C 
BRANCH   3   4
ATOM      4  C   UNL     1      -2.368 -23.729   0.336  1.00  0.00    -0.000 C 
BRANCH   4   5
ATOM      5  C   UNL     1      -3.834 -23.492   0.734  1.00  0.00    -0.000 C 
BRANCH   5   6
ATOM      6  C   UNL     1      -4.621 -24.763   1.108  1.00  0.00    -0.000 C 
BRANCH   6   7
ATOM      7  C   UNL     1      -3.731 -26.000   1.353  1.00  0.00    -0.000 C 
BRANCH   7   8
ATOM      8  C   UNL     1      -3.936 -27.090   0.286  1.00  0.00    -0.000 C 
BRANCH   8   9
ATOM      9  C   UNL     1      -5.140 -26.794  -0.633  1.00  0.00    -0.000 C 
BRANCH   9  10
ATOM     10  C   UNL     1      -4.746 -26.433  -2.076  1.00  0.00    -0.000 C 
BRANCH  10  11
ATOM     11  C   UNL     1      -5.947 -26.383  -3.029  1.00  0.00    -0.003 C 
ATOM     12  C   UNL     1      -6.742 -27.685  -2.981  1.00  0.00     0.004 C 
ENDBRANCH  10  11
ENDBRANCH   9  10
ENDBRANCH   8   9
ENDBRANCH   7   8
ENDBRANCH   6   7
ENDBRANCH   5   6
ENDBRANCH   4   5
ENDBRANCH   3   4
ENDBRANCH   2   3
ENDBRANCH   1   2
BRANCH   1  13
ATOM     13  C   UNL     1       0.111 -27.095  -0.318  1.00  0.00     0.000 C 
BRANCH  13  14
ATOM     14  C   UNL     1       1.515 -27.149  -0.946  1.00  0.00     0.000 C 
BRANCH  14  15
ATOM     15  C   UNL     1       2.514 -27.972  -0.104  1.00  0.00     0.000 C 
BRANCH  15  16
ATOM     16  C   UNL     1       1.997 -28.337   1.299  1.00  0.00     0.000 C 
BRANCH  16  17
ATOM     17  C   UNL     1       2.600 -29.617   1.908  1.00  0.00     0.000 C 
BRANCH  17  18
ATOM     18  C   UNL     1       3.641 -29.382   3.018  1.00  0.00     0.000 C 
BRANCH  18  19
ATOM     19  C   UNL     1       5.065 -29.773   2.597  1.00  0.00     0.000 C 
BRANCH  19  20
ATOM     20  C   UNL     1       5.646 -30.829   3.550  1.00  0.00     0.006 C 
BRANCH  20  21
ATOM     21  C   UNL     1       5.504 -30.423   5.023  1.00  0.00     0.053 C 
BRANCH  21  22
ATOM     22  C   UNL     1       6.748 -30.718   5.804  1.00  0.00     0.041 C 
ATOM     23  O   UNL     1       6.931 -31.862   6.296  1.00  0.00    -0.550 OA
ATOM     24  O   UNL     1       7.714 -29.734   5.974  1.00  0.00    -0.550 OA
ENDBRANCH  21  22
ENDBRANCH  20  21
ENDBRANCH  19  20
ENDBRANCH  18  19
ENDBRANCH  17  18
ENDBRANCH  16  17
ENDBRANCH  15  16
ENDBRANCH  14  15
ENDBRANCH  13  14
ENDBRANCH   1  13
TORSDOF 20
ENDMDL
MODEL 7
REMARK VINA RESULT:    -5.344      1.118      1.723
REMARK INTER + INTRA:         -13.555
REMARK INTER:                 -11.935
REMARK INTRA:                  -1.620
REMARK UNBOUND:                -1.964
REMARK SMILES CCCCCCCCCCCCCCCCCCCCCC(=O)[O-]
REMARK SMILES IDX 12 1 11 2 10 3 9 4 8 5 7 6 6 7 5 8 4 9 3 10 2 11 1 12 13 13
REMARK SMILES IDX 14 14 15 15 16 16 17 17 18 18 19 19 20 20 21 21 22 22 23 23
REMARK SMILES IDX 24 24
REMARK H PARENT
REMARK Flexibility Score: inf
ROOT
ATOM      1  C   UNL     1       2.223 -27.249  -0.951  1.00  0.00     0.000 C 
ENDROOT
BRANCH   1   2
ATOM      2  C   UNL     1       0.934 -26.674  -0.331  1.00  0.00     0.000 C 
BRANCH   2   3
ATOM      3  C   UNL     1       0.011 -25.938  -1.318  1.00  0.00     0.000 C 
BRANCH   3   4
ATOM      4  C   UNL     1      -1.361 -25.602  -0.706  1.00  0.00    -0.000 C 
BRANCH   4   5
ATOM      5  C   UNL     1      -1.815 -26.632   0.340  1.00  0.00    -0.000 C 
BRANCH   5   6
ATOM      6  C   UNL     1      -3.341 -26.770   0.501  1.00  0.00    -0.000 C 
BRANCH   6   7
ATOM      7  C   UNL     1      -3.994 -25.611   1.284  1.00  0.00    -0.000 C 
BRANCH   7   8
ATOM      8  C   UNL     1      -5.076 -24.886   0.464  1.00  0.00    -0.000 C 
BRANCH   8   9
ATOM      9  C   UNL     1      -5.529 -25.704  -0.765  1.00  0.00    -0.000 C 
BRANCH   9  10
ATOM     10  C   UNL     1      -5.025 -25.141  -2.104  1.00  0.00    -0.000 C 
BRANCH  10  11
ATOM     11  C   UNL     1      -6.101 -25.149  -3.198  1.00  0.00    -0.003 C 
ATOM     12  C   UNL     1      -7.470 -25.494  -2.621  1.00  0.00     0.004 C 
ENDBRANCH  10  11
ENDBRANCH   9  10
ENDBRANCH   8   9
ENDBRANCH   7   8
ENDBRANCH   6   7
ENDBRANCH   5   6
ENDBRANCH   4   5
ENDBRANCH   3   4
ENDBRANCH   2   3
ENDBRANCH   1   2
BRANCH   1  13
ATOM     13  C   UNL     1       2.918 -28.305  -0.066  1.00  0.00     0.000 C 
BRANCH  13  14
ATOM     14  C   UNL     1       2.040 -28.739   1.122  1.00  0.00     0.000 C 
BRANCH  14  15
ATOM     15  C   UNL     1       2.840 -28.880   2.435  1.00  0.00     0.000 C 
BRANCH  15  16
ATOM     16  C   UNL     1       3.710 -30.148   2.504  1.00  0.00     0.000 C 
BRANCH  16  17
ATOM     17  C   UNL     1       5.201 -29.905   2.803  1.00  0.00     0.000 C 
BRANCH  17  18
ATOM     18  C   UNL     1       5.767 -30.709   3.988  1.00  0.00     0.000 C 
BRANCH  18  19
ATOM     19  C   UNL     1       4.850 -31.861   4.424  1.00  0.00     0.000 C 
BRANCH  19  20
ATOM     20  C   UNL     1       4.288 -31.611   5.831  1.00  0.00     0.006 C 
BRANCH  20  21
ATOM     21  C   UNL     1       2.755 -31.679   5.866  1.00  0.00     0.053 C 
BRANCH  21  22
ATOM     22  C   UNL     1       2.144 -30.337   6.131  1.00  0.00     0.041 C 
ATOM     23  O   UNL     1       0.932 -30.246   6.455  1.00  0.00    -0.550 OA
ATOM     24  O   UNL     1       2.920 -29.188   6.039  1.00  0.00    -0.550 OA
ENDBRANCH  21  22
ENDBRANCH  20  21
ENDBRANCH  19  20
ENDBRANCH  18  19
ENDBRANCH  17  18
ENDBRANCH  16  17
ENDBRANCH  15  16
ENDBRANCH  14  15
ENDBRANCH  13  14
ENDBRANCH   1  13
TORSDOF 20
ENDMDL
MODEL 8
REMARK VINA RESULT:    -5.312      3.912     10.267
REMARK INTER + INTRA:         -13.486
REMARK INTER:                 -11.400
REMARK INTRA:                  -2.086
REMARK UNBOUND:                -1.964
REMARK SMILES CCCCCCCCCCCCCCCCCCCCCC(=O)[O-]
REMARK SMILES IDX 12 1 11 2 10 3 9 4 8 5 7 6 6 7 5 8 4 9 3 10 2 11 1 12 13 13
REMARK SMILES IDX 14 14 15 15 16 16 17 17 18 18 19 19 20 20 21 21 22 22 23 23
REMARK SMILES IDX 24 24
REMARK H PARENT
REMARK Flexibility Score: inf
ROOT
ATOM      1  C   UNL     1       0.640 -26.227   0.140  1.00  0.00     0.000 C 
ENDROOT
BRANCH   1   2
ATOM      2  C   UNL     1       1.550 -26.725  -1.001  1.00  0.00     0.000 C 
BRANCH   2   3
ATOM      3  C   UNL     1       2.166 -28.117  -0.779  1.00  0.00     0.000 C 
BRANCH   3   4
ATOM      4  C   UNL     1       2.645 -28.328   0.668  1.00  0.00    -0.000 C 
BRANCH   4   5
ATOM      5  C   UNL     1       4.035 -28.979   0.746  1.00  0.00    -0.000 C 
BRANCH   5   6
ATOM      6  C   UNL     1       4.396 -29.585   2.117  1.00  0.00    -0.000 C 
BRANCH   6   7
ATOM      7  C   UNL     1       3.394 -29.235   3.237  1.00  0.00    -0.000 C 
BRANCH   7   8
ATOM      8  C   UNL     1       3.099 -30.434   4.155  1.00  0.00    -0.000 C 
BRANCH   8   9
ATOM      9  C   UNL     1       3.812 -31.721   3.688  1.00  0.00    -0.000 C 
BRANCH   9  10
ATOM     10  C   UNL     1       4.903 -32.212   4.656  1.00  0.00    -0.000 C 
BRANCH  10  11
ATOM     11  C   UNL     1       5.268 -31.171   5.722  1.00  0.00    -0.003 C 
ATOM     12  C   UNL     1       6.539 -30.416   5.343  1.00  0.00     0.004 C 
ENDBRANCH  10  11
ENDBRANCH   9  10
ENDBRANCH   8   9
ENDBRANCH   7   8
ENDBRANCH   6   7
ENDBRANCH   5   6
ENDBRANCH   4   5
ENDBRANCH   3   4
ENDBRANCH   2   3
ENDBRANCH   1   2
BRANCH   1  13
ATOM     13  C   UNL     1      -0.864 -26.264  -0.206  1.00  0.00     0.000 C 
BRANCH  13  14
ATOM     14  C   UNL     1      -1.182 -25.500  -1.503  1.00  0.00     0.000 C 
BRANCH  14  15
ATOM     15  C   UNL     1      -1.689 -24.065  -1.242  1.00  0.00     0.000 C 
BRANCH  15  16
ATOM     16  C   UNL     1      -2.189 -23.831   0.195  1.00  0.00     0.000 C 
BRANCH  16  17
ATOM     17  C   UNL     1      -3.691 -24.088   0.416  1.00  0.00     0.000 C 
BRANCH  17  18
ATOM     18  C   UNL     1      -4.024 -25.364   1.212  1.00  0.00     0.000 C 
BRANCH  18  19
ATOM     19  C   UNL     1      -4.661 -26.461   0.347  1.00  0.00     0.000 C 
BRANCH  19  20
ATOM     20  C   UNL     1      -5.454 -25.848  -0.817  1.00  0.00     0.006 C 
BRANCH  20  21
ATOM     21  C   UNL     1      -4.853 -26.207  -2.182  1.00  0.00     0.053 C 
BRANCH  21  22
ATOM     22  C   UNL     1      -5.154 -25.165  -3.215  1.00  0.00     0.041 C 
ATOM     23  O   UNL     1      -4.666 -24.009  -3.110  1.00  0.00    -0.550 OA
ATOM     24  O   UNL     1      -5.959 -25.475  -4.305  1.00  0.00    -0.550 OA
ENDBRANCH  21  22
ENDBRANCH  20  21
ENDBRANCH  19  20
ENDBRANCH  18  19
ENDBRANCH  17  18
ENDBRANCH  16  17
ENDBRANCH  15  16
ENDBRANCH  14  15
ENDBRANCH  13  14
ENDBRANCH   1  13
TORSDOF 20
ENDMDL
MODEL 9
REMARK VINA RESULT:    -5.294      4.258      6.089
REMARK INTER + INTRA:         -13.448
REMARK INTER:                 -11.885
REMARK INTRA:                  -1.563
REMARK UNBOUND:                -1.964
REMARK SMILES CCCCCCCCCCCCCCCCCCCCCC(=O)[O-]
REMARK SMILES IDX 12 1 11 2 10 3 9 4 8 5 7 6 6 7 5 8 4 9 3 10 2 11 1 12 13 13
REMARK SMILES IDX 14 14 15 15 16 16 17 17 18 18 19 19 20 20 21 21 22 22 23 23
REMARK SMILES IDX 24 24
REMARK H PARENT
REMARK Flexibility Score: inf
ROOT
ATOM      1  C   UNL     1       3.758 -29.246   1.319  1.00  0.00     0.000 C 
ENDROOT
BRANCH   1   2
ATOM      2  C   UNL     1       2.534 -28.537   0.707  1.00  0.00     0.000 C 
BRANCH   2   3
ATOM      3  C   UNL     1       2.729 -28.033  -0.734  1.00  0.00     0.000 C 
BRANCH   3   4
ATOM      4  C   UNL     1       1.691 -26.969  -1.133  1.00  0.00    -0.000 C 
BRANCH   4   5
ATOM      5  C   UNL     1       0.865 -26.465   0.061  1.00  0.00    -0.000 C 
BRANCH   5   6
ATOM      6  C   UNL     1      -0.652 -26.367  -0.189  1.00  0.00    -0.000 C 
BRANCH   6   7
ATOM      7  C   UNL     1      -1.125 -24.964  -0.623  1.00  0.00    -0.000 C 
BRANCH   7   8
ATOM      8  C   UNL     1      -2.194 -25.021  -1.729  1.00  0.00    -0.000 C 
BRANCH   8   9
ATOM      9  C   UNL     1      -3.576 -25.448  -1.188  1.00  0.00    -0.000 C 
BRANCH   9  10
ATOM     10  C   UNL     1      -4.302 -24.343  -0.401  1.00  0.00    -0.000 C 
BRANCH  10  11
ATOM     11  C   UNL     1      -4.195 -24.522   1.118  1.00  0.00    -0.003 C 
ATOM     12  C   UNL     1      -4.817 -23.341   1.857  1.00  0.00     0.004 C 
ENDBRANCH  10  11
ENDBRANCH   9  10
ENDBRANCH   8   9
ENDBRANCH   7   8
ENDBRANCH   6   7
ENDBRANCH   5   6
ENDBRANCH   4   5
ENDBRANCH   3   4
ENDBRANCH   2   3
ENDBRANCH   1   2
BRANCH   1  13
ATOM     13  C   UNL     1       3.729 -29.312   2.861  1.00  0.00     0.000 C 
BRANCH  13  14
ATOM     14  C   UNL     1       5.031 -29.890   3.444  1.00  0.00     0.000 C 
BRANCH  14  15
ATOM     15  C   UNL     1       5.991 -30.416   2.355  1.00  0.00     0.000 C 
BRANCH  15  16
ATOM     16  C   UNL     1       7.275 -29.582   2.197  1.00  0.00     0.000 C 
BRANCH  16  17
ATOM     17  C   UNL     1       7.912 -29.618   0.796  1.00  0.00     0.000 C 
BRANCH  17  18
ATOM     18  C   UNL     1       7.643 -28.377  -0.075  1.00  0.00     0.000 C 
BRANCH  18  19
ATOM     19  C   UNL     1       6.335 -28.475  -0.873  1.00  0.00     0.000 C 
BRANCH  19  20
ATOM     20  C   UNL     1       6.577 -28.169  -2.359  1.00  0.00     0.006 C 
BRANCH  20  21
ATOM     21  C   UNL     1       6.257 -26.711  -2.712  1.00  0.00     0.053 C 
BRANCH  21  22
ATOM     22  C   UNL     1       7.461 -25.986  -3.231  1.00  0.00     0.041 C 
ATOM     23  O   UNL     1       8.612 -26.461  -3.052  1.00  0.00    -0.550 OA
ATOM     24  O   UNL     1       7.310 -24.795  -3.931  1.00  0.00    -0.550 OA
ENDBRANCH  21  22
ENDBRANCH  20  21
ENDBRANCH  19  20
ENDBRANCH  18  19
ENDBRANCH  17  18
ENDBRANCH  16  17
ENDBRANCH  15  16
ENDBRANCH  14  15
ENDBRANCH  13  14
ENDBRANCH   1  13
TORSDOF 20
ENDMDL
