MODEL 1
REMARK VINA RESULT:    20.121      0.000      0.000
REMARK INTER + INTRA:          49.455
REMARK INTER:                  50.704
REMARK INTRA:                  -1.249
REMARK UNBOUND:                -1.249
REMARK SMILES CCCCCCCCCCCCCCCCCCCCCCCCCCCC(=O)[O-]
REMARK SMILES IDX 15 1 16 2 17 3 18 4 19 5 20 6 21 7 22 8 23 9 24 10 25 11
REMARK SMILES IDX 26 12 27 13 28 14 29 15 30 16 14 17 13 18 12 19 11 20 10 21
REMARK SMILES IDX 9 22 8 23 7 24 6 25 5 26 4 27 3 28 2 29 1 30
REMARK H PARENT
REMARK Flexibility Score: inf
ROOT
ATOM      1  C   UNL     1     -31.895  12.359  19.096  1.00  0.00     0.000 C 
ENDROOT
BRANCH   1   2
ATOM      2  C   UNL     1     -33.345  12.027  19.484  1.00  0.00     0.000 C 
BRANCH   2   3
ATOM      3  C   UNL     1     -33.645  10.518  19.414  1.00  0.00     0.000 C 
BRANCH   3   4
ATOM      4  C   UNL     1     -34.434  10.015  20.635  1.00  0.00     0.000 C 
BRANCH   4   5
ATOM      5  C   UNL     1     -33.741  10.346  21.967  1.00  0.00     0.000 C 
BRANCH   5   6
ATOM      6  C   UNL     1     -34.496  11.412  22.779  1.00  0.00     0.000 C 
BRANCH   6   7
ATOM      7  C   UNL     1     -33.829  11.715  24.130  1.00  0.00     0.000 C 
BRANCH   7   8
ATOM      8  C   UNL     1     -34.552  10.992  25.273  1.00  0.00     0.000 C 
BRANCH   8   9
ATOM      9  C   UNL     1     -33.559  10.217  26.153  1.00  0.00     0.000 C 
BRANCH   9  10
ATOM     10  C   UNL     1     -34.198   8.966  26.791  1.00  0.00     0.000 C 
BRANCH  10  11
ATOM     11  C   UNL     1     -34.997   8.108  25.795  1.00  0.00     0.000 C 
BRANCH  11  12
ATOM     12  C   UNL     1     -34.153   6.991  25.159  1.00  0.00     0.006 C 
BRANCH  12  13
ATOM     13  C   UNL     1     -34.994   6.055  24.284  1.00  0.00     0.053 C 
BRANCH  13  14
ATOM     14  C   UNL     1     -35.019   6.505  22.855  1.00  0.00     0.041 C 
ATOM     15  O   UNL     1     -34.005   7.051  22.345  1.00  0.00    -0.550 OA
ATOM     16  O   UNL     1     -36.157   6.308  22.082  1.00  0.00    -0.550 OA
ENDBRANCH  13  14
ENDBRANCH  12  13
ENDBRANCH  11  12
ENDBRANCH  10  11
ENDBRANCH   9  10
ENDBRANCH   8   9
ENDBRANCH   7   8
ENDBRANCH   6   7
ENDBRANCH   5   6
ENDBRANCH   4   5
ENDBRANCH   3   4
ENDBRANCH   2   3
ENDBRANCH   1   2
BRANCH   1  17
ATOM     17  C   UNL     1     -31.635  12.208  17.590  1.00  0.00     0.000 C 
BRANCH  17  18
ATOM     18  C   UNL     1     -32.559  13.122  16.776  1.00  0.00     0.000 C 
BRANCH  18  19
ATOM     19  C   UNL     1     -33.949  12.490  16.611  1.00  0.00     0.000 C 
BRANCH  19  20
ATOM     20  C   UNL     1     -35.088  13.467  16.941  1.00  0.00     0.000 C 
BRANCH  20  21
ATOM     21  C   UNL     1     -34.577  14.807  17.501  1.00  0.00     0.000 C 
BRANCH  21  22
ATOM     22  C   UNL     1     -34.939  15.997  16.599  1.00  0.00    -0.000 C 
BRANCH  22  23
ATOM     23  C   UNL     1     -35.115  17.306  17.390  1.00  0.00    -0.000 C 
BRANCH  23  24
ATOM     24  C   UNL     1     -36.094  17.165  18.568  1.00  0.00    -0.000 C 
BRANCH  24  25
ATOM     25  C   UNL     1     -37.548  16.845  18.169  1.00  0.00    -0.000 C 
BRANCH  25  26
ATOM     26  C   UNL     1     -37.894  15.355  18.306  1.00  0.00    -0.000 C 
BRANCH  26  27
ATOM     27  C   UNL     1     -39.099  15.155  19.236  1.00  0.00    -0.000 C 
BRANCH  27  28
ATOM     28  C   UNL     1     -40.273  16.088  18.896  1.00  0.00    -0.000 C 
BRANCH  28  29
ATOM     29  C   UNL     1     -40.654  16.040  17.409  1.00  0.00    -0.003 C 
ATOM     30  C   UNL     1     -40.846  17.445  16.847  1.00  0.00     0.004 C 
ENDBRANCH  28  29
ENDBRANCH  27  28
ENDBRANCH  26  27
ENDBRANCH  25  26
ENDBRANCH  24  25
ENDBRANCH  23  24
ENDBRANCH  22  23
ENDBRANCH  21  22
ENDBRANCH  20  21
ENDBRANCH  19  20
ENDBRANCH  18  19
ENDBRANCH  17  18
ENDBRANCH   1  17
TORSDOF 26
ENDMDL
MODEL 2
REMARK VINA RESULT:    20.356      3.383      9.788
REMARK INTER + INTRA:          50.046
REMARK INTER:                  51.237
REMARK INTRA:                  -1.191
REMARK UNBOUND:                -1.249
REMARK SMILES CCCCCCCCCCCCCCCCCCCCCCCCCCCC(=O)[O-]
REMARK SMILES IDX 15 1 16 2 17 3 18 4 19 5 20 6 21 7 22 8 23 9 24 10 25 11
REMARK SMILES IDX 26 12 27 13 28 14 29 15 30 16 14 17 13 18 12 19 11 20 10 21
REMARK SMILES IDX 9 22 8 23 7 24 6 25 5 26 4 27 3 28 2 29 1 30
REMARK H PARENT
REMARK Flexibility Score: inf
ROOT
ATOM      1  C   UNL     1     -32.523  11.806  19.829  1.00  0.00     0.000 C 
ENDROOT
BRANCH   1   2
ATOM      2  C   UNL     1     -32.518  11.987  18.302  1.00  0.00     0.000 C 
BRANCH   2   3
ATOM      3  C   UNL     1     -33.654  11.211  17.612  1.00  0.00     0.000 C 
BRANCH   3   4
ATOM      4  C   UNL     1     -34.475  12.093  16.654  1.00  0.00     0.000 C 
BRANCH   4   5
ATOM      5  C   UNL     1     -33.887  13.505  16.497  1.00  0.00     0.000 C 
BRANCH   5   6
ATOM      6  C   UNL     1     -34.702  14.572  17.246  1.00  0.00     0.000 C 
BRANCH   6   7
ATOM      7  C   UNL     1     -35.040  15.788  16.368  1.00  0.00     0.000 C 
BRANCH   7   8
ATOM      8  C   UNL     1     -35.072  17.075  17.204  1.00  0.00     0.000 C 
BRANCH   8   9
ATOM      9  C   UNL     1     -35.791  16.846  18.542  1.00  0.00     0.000 C 
BRANCH   9  10
ATOM     10  C   UNL     1     -37.314  17.067  18.431  1.00  0.00     0.000 C 
BRANCH  10  11
ATOM     11  C   UNL     1     -38.074  15.846  17.886  1.00  0.00     0.000 C 
BRANCH  11  12
ATOM     12  C   UNL     1     -39.160  15.340  18.850  1.00  0.00     0.006 C 
BRANCH  12  13
ATOM     13  C   UNL     1     -40.447  16.169  18.761  1.00  0.00     0.053 C 
BRANCH  13  14
ATOM     14  C   UNL     1     -40.717  16.626  17.359  1.00  0.00     0.041 C 
ATOM     15  O   UNL     1     -40.646  17.848  17.067  1.00  0.00    -0.550 OA
ATOM     16  O   UNL     1     -41.032  15.698  16.374  1.00  0.00    -0.550 OA
ENDBRANCH  13  14
ENDBRANCH  12  13
ENDBRANCH  11  12
ENDBRANCH  10  11
ENDBRANCH   9  10
ENDBRANCH   8   9
ENDBRANCH   7   8
ENDBRANCH   6   7
ENDBRANCH   5   6
ENDBRANCH   4   5
ENDBRANCH   3   4
ENDBRANCH   2   3
ENDBRANCH   1   2
BRANCH   1  17
ATOM     17  C   UNL     1     -33.940  11.645  20.402  1.00  0.00     0.000 C 
BRANCH  17  18
ATOM     18  C   UNL     1     -34.367  10.173  20.408  1.00  0.00     0.000 C 
BRANCH  18  19
ATOM     19  C   UNL     1     -33.546   9.366  21.426  1.00  0.00     0.000 C 
BRANCH  19  20
ATOM     20  C   UNL     1     -34.412   8.417  22.268  1.00  0.00     0.000 C 
BRANCH  20  21
ATOM     21  C   UNL     1     -33.899   6.966  22.245  1.00  0.00     0.000 C 
BRANCH  21  22
ATOM     22  C   UNL     1     -34.996   5.949  22.591  1.00  0.00    -0.000 C 
BRANCH  22  23
ATOM     23  C   UNL     1     -35.508   6.100  24.035  1.00  0.00    -0.000 C 
BRANCH  23  24
ATOM     24  C   UNL     1     -34.439   6.655  24.993  1.00  0.00    -0.000 C 
BRANCH  24  25
ATOM     25  C   UNL     1     -34.705   8.084  25.504  1.00  0.00    -0.000 C 
BRANCH  25  26
ATOM     26  C   UNL     1     -33.828   8.466  26.705  1.00  0.00    -0.000 C 
BRANCH  26  27
ATOM     27  C   UNL     1     -33.272   9.889  26.547  1.00  0.00    -0.000 C 
BRANCH  27  28
ATOM     28  C   UNL     1     -34.248  10.830  25.821  1.00  0.00    -0.000 C 
BRANCH  28  29
ATOM     29  C   UNL     1     -33.656  11.412  24.529  1.00  0.00    -0.003 C 
ATOM     30  C   UNL     1     -34.756  11.919  23.602  1.00  0.00     0.004 C 
ENDBRANCH  28  29
ENDBRANCH  27  28
ENDBRANCH  26  27
ENDBRANCH  25  26
ENDBRANCH  24  25
ENDBRANCH  23  24
ENDBRANCH  22  23
ENDBRANCH  21  22
ENDBRANCH  20  21
ENDBRANCH  19  20
ENDBRANCH  18  19
ENDBRANCH  17  18
ENDBRANCH   1  17
TORSDOF 26
ENDMDL
MODEL 3
REMARK VINA RESULT:    20.610      1.336      2.021
REMARK INTER + INTRA:          50.687
REMARK INTER:                  52.738
REMARK INTRA:                  -2.051
REMARK UNBOUND:                -1.249
REMARK SMILES CCCCCCCCCCCCCCCCCCCCCCCCCCCC(=O)[O-]
REMARK SMILES IDX 15 1 16 2 17 3 18 4 19 5 20 6 21 7 22 8 23 9 24 10 25 11
REMARK SMILES IDX 26 12 27 13 28 14 29 15 30 16 14 17 13 18 12 19 11 20 10 21
REMARK SMILES IDX 9 22 8 23 7 24 6 25 5 26 4 27 3 28 2 29 1 30
REMARK H PARENT
REMARK Flexibility Score: inf
ROOT
ATOM      1  C   UNL     1     -32.113  11.825  18.011  1.00  0.00     0.000 C 
ENDROOT
BRANCH   1   2
ATOM      2  C   UNL     1     -32.753  11.857  19.408  1.00  0.00     0.000 C 
BRANCH   2   3
ATOM      3  C   UNL     1     -33.390  10.510  19.797  1.00  0.00     0.000 C 
BRANCH   3   4
ATOM      4  C   UNL     1     -34.172  10.587  21.120  1.00  0.00     0.000 C 
BRANCH   4   5
ATOM      5  C   UNL     1     -34.301  12.025  21.651  1.00  0.00     0.000 C 
BRANCH   5   6
ATOM      6  C   UNL     1     -34.603  12.074  23.158  1.00  0.00     0.000 C 
BRANCH   6   7
ATOM      7  C   UNL     1     -33.774  11.062  23.965  1.00  0.00     0.000 C 
BRANCH   7   8
ATOM      8  C   UNL     1     -33.982  11.260  25.471  1.00  0.00     0.000 C 
BRANCH   8   9
ATOM      9  C   UNL     1     -33.365  10.102  26.272  1.00  0.00     0.000 C 
BRANCH   9  10
ATOM     10  C   UNL     1     -34.434   9.117  26.789  1.00  0.00     0.000 C 
BRANCH  10  11
ATOM     11  C   UNL     1     -34.231   7.675  26.294  1.00  0.00     0.000 C 
BRANCH  11  12
ATOM     12  C   UNL     1     -35.161   7.308  25.127  1.00  0.00     0.006 C 
BRANCH  12  13
ATOM     13  C   UNL     1     -34.630   6.124  24.311  1.00  0.00     0.053 C 
BRANCH  13  14
ATOM     14  C   UNL     1     -34.595   6.431  22.845  1.00  0.00     0.041 C 
ATOM     15  O   UNL     1     -35.140   5.651  22.021  1.00  0.00    -0.550 OA
ATOM     16  O   UNL     1     -33.973   7.588  22.391  1.00  0.00    -0.550 OA
ENDBRANCH  13  14
ENDBRANCH  12  13
ENDBRANCH  11  12
ENDBRANCH  10  11
ENDBRANCH   9  10
ENDBRANCH   8   9
ENDBRANCH   7   8
ENDBRANCH   6   7
ENDBRANCH   5   6
ENDBRANCH   4   5
ENDBRANCH   3   4
ENDBRANCH   2   3
ENDBRANCH   1   2
BRANCH   1  17
ATOM     17  C   UNL     1     -32.832  12.740  17.008  1.00  0.00     0.000 C 
BRANCH  17  18
ATOM     18  C   UNL     1     -33.752  13.732  17.729  1.00  0.00     0.000 C 
BRANCH  18  19
ATOM     19  C   UNL     1     -35.003  14.032  16.889  1.00  0.00     0.000 C 
BRANCH  19  20
ATOM     20  C   UNL     1     -34.748  15.084  15.800  1.00  0.00     0.000 C 
BRANCH  20  21
ATOM     21  C   UNL     1     -35.251  16.484  16.196  1.00  0.00     0.000 C 
BRANCH  21  22
ATOM     22  C   UNL     1     -34.635  16.980  17.512  1.00  0.00    -0.000 C 
BRANCH  22  23
ATOM     23  C   UNL     1     -35.691  17.522  18.492  1.00  0.00    -0.000 C 
BRANCH  23  24
ATOM     24  C   UNL     1     -37.118  17.059  18.149  1.00  0.00    -0.000 C 
BRANCH  24  25
ATOM     25  C   UNL     1     -37.552  15.742  18.822  1.00  0.00    -0.000 C 
BRANCH  25  26
ATOM     26  C   UNL     1     -39.029  15.400  18.578  1.00  0.00    -0.000 C 
BRANCH  26  27
ATOM     27  C   UNL     1     -39.512  14.323  19.560  1.00  0.00    -0.000 C 
BRANCH  27  28
ATOM     28  C   UNL     1     -40.425  13.280  18.896  1.00  0.00    -0.000 C 
BRANCH  28  29
ATOM     29  C   UNL     1     -40.265  11.880  19.506  1.00  0.00    -0.003 C 
ATOM     30  C   UNL     1     -39.768  10.883  18.465  1.00  0.00     0.004 C 
ENDBRANCH  28  29
ENDBRANCH  27  28
ENDBRANCH  26  27
ENDBRANCH  25  26
ENDBRANCH  24  25
ENDBRANCH  23  24
ENDBRANCH  22  23
ENDBRANCH  21  22
ENDBRANCH  20  21
ENDBRANCH  19  20
ENDBRANCH  18  19
ENDBRANCH  17  18
ENDBRANCH   1  17
TORSDOF 26
ENDMDL
MODEL 4
REMARK VINA RESULT:    20.821      1.949      3.285
REMARK INTER + INTRA:          51.219
REMARK INTER:                  52.714
REMARK INTRA:                  -1.495
REMARK UNBOUND:                -1.249
REMARK SMILES CCCCCCCCCCCCCCCCCCCCCCCCCCCC(=O)[O-]
REMARK SMILES IDX 15 1 16 2 17 3 18 4 19 5 20 6 21 7 22 8 23 9 24 10 25 11
REMARK SMILES IDX 26 12 27 13 28 14 29 15 30 16 14 17 13 18 12 19 11 20 10 21
REMARK SMILES IDX 9 22 8 23 7 24 6 25 5 26 4 27 3 28 2 29 1 30
REMARK H PARENT
REMARK Flexibility Score: inf
ROOT
ATOM      1  C   UNL     1     -33.162  11.367  19.406  1.00  0.00     0.000 C 
ENDROOT
BRANCH   1   2
ATOM      2  C   UNL     1     -33.993  11.821  20.617  1.00  0.00     0.000 C 
BRANCH   2   3
ATOM      3  C   UNL     1     -34.038  10.761  21.733  1.00  0.00     0.000 C 
BRANCH   3   4
ATOM      4  C   UNL     1     -33.973   9.325  21.187  1.00  0.00     0.000 C 
BRANCH   4   5
ATOM      5  C   UNL     1     -33.627   8.292  22.272  1.00  0.00     0.000 C 
BRANCH   5   6
ATOM      6  C   UNL     1     -34.297   6.929  22.027  1.00  0.00     0.000 C 
BRANCH   6   7
ATOM      7  C   UNL     1     -34.605   6.174  23.330  1.00  0.00     0.000 C 
BRANCH   7   8
ATOM      8  C   UNL     1     -35.675   6.907  24.149  1.00  0.00     0.000 C 
BRANCH   8   9
ATOM      9  C   UNL     1     -35.088   7.456  25.458  1.00  0.00     0.000 C 
BRANCH   9  10
ATOM     10  C   UNL     1     -36.035   8.463  26.144  1.00  0.00     0.000 C 
BRANCH  10  11
ATOM     11  C   UNL     1     -35.436   9.872  26.282  1.00  0.00     0.000 C 
BRANCH  11  12
ATOM     12  C   UNL     1     -34.332  10.156  25.250  1.00  0.00     0.006 C 
BRANCH  12  13
ATOM     13  C   UNL     1     -33.103  10.819  25.882  1.00  0.00     0.053 C 
BRANCH  13  14
ATOM     14  C   UNL     1     -32.712  10.153  27.166  1.00  0.00     0.041 C 
ATOM     15  O   UNL     1     -32.187  10.824  28.093  1.00  0.00    -0.550 OA
ATOM     16  O   UNL     1     -32.941   8.794  27.344  1.00  0.00    -0.550 OA
ENDBRANCH  13  14
ENDBRANCH  12  13
ENDBRANCH  11  12
ENDBRANCH  10  11
ENDBRANCH   9  10
ENDBRANCH   8   9
ENDBRANCH   7   8
ENDBRANCH   6   7
ENDBRANCH   5   6
ENDBRANCH   4   5
ENDBRANCH   3   4
ENDBRANCH   2   3
ENDBRANCH   1   2
BRANCH   1  17
ATOM     17  C   UNL     1     -32.566  12.545  18.620  1.00  0.00     0.000 C 
BRANCH  17  18
ATOM     18  C   UNL     1     -32.744  12.347  17.111  1.00  0.00     0.000 C 
BRANCH  18  19
ATOM     19  C   UNL     1     -34.138  12.808  16.657  1.00  0.00     0.000 C 
BRANCH  19  20
ATOM     20  C   UNL     1     -34.579  14.114  17.333  1.00  0.00     0.000 C 
BRANCH  20  21
ATOM     21  C   UNL     1     -35.508  14.960  16.444  1.00  0.00     0.000 C 
BRANCH  21  22
ATOM     22  C   UNL     1     -35.076  16.432  16.375  1.00  0.00    -0.000 C 
BRANCH  22  23
ATOM     23  C   UNL     1     -34.393  16.909  17.669  1.00  0.00    -0.000 C 
BRANCH  23  24
ATOM     24  C   UNL     1     -35.389  17.468  18.700  1.00  0.00    -0.000 C 
BRANCH  24  25
ATOM     25  C   UNL     1     -36.849  17.547  18.214  1.00  0.00    -0.000 C 
BRANCH  25  26
ATOM     26  C   UNL     1     -37.683  16.321  18.613  1.00  0.00    -0.000 C 
BRANCH  26  27
ATOM     27  C   UNL     1     -38.964  16.231  17.770  1.00  0.00    -0.000 C 
BRANCH  27  28
ATOM     28  C   UNL     1     -40.073  15.422  18.460  1.00  0.00    -0.000 C 
BRANCH  28  29
ATOM     29  C   UNL     1     -39.524  14.427  19.493  1.00  0.00    -0.003 C 
ATOM     30  C   UNL     1     -40.044  13.019  19.227  1.00  0.00     0.004 C 
ENDBRANCH  28  29
ENDBRANCH  27  28
ENDBRANCH  26  27
ENDBRANCH  25  26
ENDBRANCH  24  25
ENDBRANCH  23  24
ENDBRANCH  22  23
ENDBRANCH  21  22
ENDBRANCH  20  21
ENDBRANCH  19  20
ENDBRANCH  18  19
ENDBRANCH  17  18
ENDBRANCH   1  17
TORSDOF 26
ENDMDL
MODEL 5
REMARK VINA RESULT:    20.880      1.969      3.300
REMARK INTER + INTRA:          51.369
REMARK INTER:                  52.402
REMARK INTRA:                  -1.033
REMARK UNBOUND:                -1.249
REMARK SMILES CCCCCCCCCCCCCCCCCCCCCCCCCCCC(=O)[O-]
REMARK SMILES IDX 15 1 16 2 17 3 18 4 19 5 20 6 21 7 22 8 23 9 24 10 25 11
REMARK SMILES IDX 26 12 27 13 28 14 29 15 30 16 14 17 13 18 12 19 11 20 10 21
REMARK SMILES IDX 9 22 8 23 7 24 6 25 5 26 4 27 3 28 2 29 1 30
REMARK H PARENT
REMARK Flexibility Score: inf
ROOT
ATOM      1  C   UNL     1     -31.568  12.395  17.671  1.00  0.00     0.000 C 
ENDROOT
BRANCH   1   2
ATOM      2  C   UNL     1     -32.192  12.421  19.076  1.00  0.00     0.000 C 
BRANCH   2   3
ATOM      3  C   UNL     1     -33.316  11.382  19.242  1.00  0.00     0.000 C 
BRANCH   3   4
ATOM      4  C   UNL     1     -33.998  11.464  20.618  1.00  0.00     0.000 C 
BRANCH   4   5
ATOM      5  C   UNL     1     -34.172  10.086  21.279  1.00  0.00     0.000 C 
BRANCH   5   6
ATOM      6  C   UNL     1     -32.996   9.138  20.988  1.00  0.00     0.000 C 
BRANCH   6   7
ATOM      7  C   UNL     1     -33.115   7.798  21.731  1.00  0.00     0.000 C 
BRANCH   7   8
ATOM      8  C   UNL     1     -34.444   7.709  22.492  1.00  0.00     0.000 C 
BRANCH   8   9
ATOM      9  C   UNL     1     -34.690   6.282  23.009  1.00  0.00     0.000 C 
BRANCH   9  10
ATOM     10  C   UNL     1     -35.158   6.268  24.479  1.00  0.00     0.000 C 
BRANCH  10  11
ATOM     11  C   UNL     1     -34.465   7.324  25.355  1.00  0.00     0.000 C 
BRANCH  11  12
ATOM     12  C   UNL     1     -35.445   8.362  25.927  1.00  0.00     0.006 C 
BRANCH  12  13
ATOM     13  C   UNL     1     -34.844   9.772  25.961  1.00  0.00     0.053 C 
BRANCH  13  14
ATOM     14  C   UNL     1     -33.416   9.755  26.416  1.00  0.00     0.041 C 
ATOM     15  O   UNL     1     -32.560  10.478  25.842  1.00  0.00    -0.550 OA
ATOM     16  O   UNL     1     -33.035   8.953  27.485  1.00  0.00    -0.550 OA
ENDBRANCH  13  14
ENDBRANCH  12  13
ENDBRANCH  11  12
ENDBRANCH  10  11
ENDBRANCH   9  10
ENDBRANCH   8   9
ENDBRANCH   7   8
ENDBRANCH   6   7
ENDBRANCH   5   6
ENDBRANCH   4   5
ENDBRANCH   3   4
ENDBRANCH   2   3
ENDBRANCH   1   2
BRANCH   1  17
ATOM     17  C   UNL     1     -32.429  13.120  16.626  1.00  0.00     0.000 C 
BRANCH  17  18
ATOM     18  C   UNL     1     -33.918  13.030  16.981  1.00  0.00     0.000 C 
BRANCH  18  19
ATOM     19  C   UNL     1     -34.566  14.422  16.988  1.00  0.00     0.000 C 
BRANCH  19  20
ATOM     20  C   UNL     1     -35.139  14.803  18.361  1.00  0.00     0.000 C 
BRANCH  20  21
ATOM     21  C   UNL     1     -34.657  16.182  18.845  1.00  0.00     0.000 C 
BRANCH  21  22
ATOM     22  C   UNL     1     -35.169  17.328  17.960  1.00  0.00    -0.000 C 
BRANCH  22  23
ATOM     23  C   UNL     1     -36.635  17.691  18.251  1.00  0.00    -0.000 C 
BRANCH  23  24
ATOM     24  C   UNL     1     -37.633  16.707  17.614  1.00  0.00    -0.000 C 
BRANCH  24  25
ATOM     25  C   UNL     1     -38.424  15.845  18.616  1.00  0.00    -0.000 C 
BRANCH  25  26
ATOM     26  C   UNL     1     -39.932  15.817  18.326  1.00  0.00    -0.000 C 
BRANCH  26  27
ATOM     27  C   UNL     1     -40.599  14.612  19.005  1.00  0.00    -0.000 C 
BRANCH  27  28
ATOM     28  C   UNL     1     -39.618  13.455  19.257  1.00  0.00    -0.000 C 
BRANCH  28  29
ATOM     29  C   UNL     1     -40.333  12.135  19.579  1.00  0.00    -0.003 C 
ATOM     30  C   UNL     1     -39.872  11.020  18.646  1.00  0.00     0.004 C 
ENDBRANCH  28  29
ENDBRANCH  27  28
ENDBRANCH  26  27
ENDBRANCH  25  26
ENDBRANCH  24  25
ENDBRANCH  23  24
ENDBRANCH  22  23
ENDBRANCH  21  22
ENDBRANCH  20  21
ENDBRANCH  19  20
ENDBRANCH  18  19
ENDBRANCH  17  18
ENDBRANCH   1  17
TORSDOF 26
ENDMDL
MODEL 6
REMARK VINA RESULT:    21.035      1.616      2.731
REMARK INTER + INTRA:          51.758
REMARK INTER:                  49.851
REMARK INTRA:                   1.907
REMARK UNBOUND:                -1.249
REMARK SMILES CCCCCCCCCCCCCCCCCCCCCCCCCCCC(=O)[O-]
REMARK SMILES IDX 15 1 16 2 17 3 18 4 19 5 20 6 21 7 22 8 23 9 24 10 25 11
REMARK SMILES IDX 26 12 27 13 28 14 29 15 30 16 14 17 13 18 12 19 11 20 10 21
REMARK SMILES IDX 9 22 8 23 7 24 6 25 5 26 4 27 3 28 2 29 1 30
REMARK H PARENT
REMARK Flexibility Score: inf
ROOT
ATOM      1  C   UNL     1     -33.583  11.963  19.213  1.00  0.00     0.000 C 
ENDROOT
BRANCH   1   2
ATOM      2  C   UNL     1     -33.826  12.300  20.693  1.00  0.00     0.000 C 
BRANCH   2   3
ATOM      3  C   UNL     1     -34.015  11.043  21.562  1.00  0.00     0.000 C 
BRANCH   3   4
ATOM      4  C   UNL     1     -34.093   9.754  20.726  1.00  0.00     0.000 C 
BRANCH   4   5
ATOM      5  C   UNL     1     -34.782   8.601  21.475  1.00  0.00     0.000 C 
BRANCH   5   6
ATOM      6  C   UNL     1     -33.820   7.839  22.402  1.00  0.00     0.000 C 
BRANCH   6   7
ATOM      7  C   UNL     1     -34.330   6.435  22.765  1.00  0.00     0.000 C 
BRANCH   7   8
ATOM      8  C   UNL     1     -35.525   6.516  23.722  1.00  0.00     0.000 C 
BRANCH   8   9
ATOM      9  C   UNL     1     -35.065   6.824  25.156  1.00  0.00     0.000 C 
BRANCH   9  10
ATOM     10  C   UNL     1     -33.628   6.331  25.425  1.00  0.00     0.000 C 
BRANCH  10  11
ATOM     11  C   UNL     1     -32.921   7.090  26.560  1.00  0.00     0.000 C 
BRANCH  11  12
ATOM     12  C   UNL     1     -33.722   8.305  27.055  1.00  0.00     0.006 C 
BRANCH  12  13
ATOM     13  C   UNL     1     -33.278   9.608  26.379  1.00  0.00     0.053 C 
BRANCH  13  14
ATOM     14  C   UNL     1     -34.432  10.327  25.749  1.00  0.00     0.041 C 
ATOM     15  O   UNL     1     -34.226  11.240  24.908  1.00  0.00    -0.550 OA
ATOM     16  O   UNL     1     -35.736   9.976  26.079  1.00  0.00    -0.550 OA
ENDBRANCH  13  14
ENDBRANCH  12  13
ENDBRANCH  11  12
ENDBRANCH  10  11
ENDBRANCH   9  10
ENDBRANCH   8   9
ENDBRANCH   7   8
ENDBRANCH   6   7
ENDBRANCH   5   6
ENDBRANCH   4   5
ENDBRANCH   3   4
ENDBRANCH   2   3
ENDBRANCH   1   2
BRANCH   1  17
ATOM     17  C   UNL     1     -32.126  12.194  18.783  1.00  0.00     0.000 C 
BRANCH  17  18
ATOM     18  C   UNL     1     -32.054  12.741  17.353  1.00  0.00     0.000 C 
BRANCH  18  19
ATOM     19  C   UNL     1     -33.455  12.842  16.732  1.00  0.00     0.000 C 
BRANCH  19  20
ATOM     20  C   UNL     1     -34.316  13.934  17.385  1.00  0.00     0.000 C 
BRANCH  20  21
ATOM     21  C   UNL     1     -35.052  14.807  16.353  1.00  0.00     0.000 C 
BRANCH  21  22
ATOM     22  C   UNL     1     -34.974  16.304  16.687  1.00  0.00    -0.000 C 
BRANCH  22  23
ATOM     23  C   UNL     1     -35.384  16.608  18.139  1.00  0.00    -0.000 C 
BRANCH  23  24
ATOM     24  C   UNL     1     -36.701  17.400  18.235  1.00  0.00    -0.000 C 
BRANCH  24  25
ATOM     25  C   UNL     1     -37.980  16.545  18.147  1.00  0.00    -0.000 C 
BRANCH  25  26
ATOM     26  C   UNL     1     -38.039  15.441  19.212  1.00  0.00    -0.000 C 
BRANCH  26  27
ATOM     27  C   UNL     1     -39.387  14.706  19.165  1.00  0.00    -0.000 C 
BRANCH  27  28
ATOM     28  C   UNL     1     -40.453  15.471  18.365  1.00  0.00    -0.000 C 
BRANCH  28  29
ATOM     29  C   UNL     1     -39.862  16.637  17.558  1.00  0.00    -0.003 C 
ATOM     30  C   UNL     1     -40.957  17.410  16.831  1.00  0.00     0.004 C 
ENDBRANCH  28  29
ENDBRANCH  27  28
ENDBRANCH  26  27
ENDBRANCH  25  26
ENDBRANCH  24  25
ENDBRANCH  23  24
ENDBRANCH  22  23
ENDBRANCH  21  22
ENDBRANCH  20  21
ENDBRANCH  19  20
ENDBRANCH  18  19
ENDBRANCH  17  18
ENDBRANCH   1  17
TORSDOF 26
ENDMDL
MODEL 7
REMARK VINA RESULT:    21.157      4.881      7.552
REMARK INTER + INTRA:          52.066
REMARK INTER:                  51.448
REMARK INTRA:                   0.618
REMARK UNBOUND:                -1.249
REMARK SMILES CCCCCCCCCCCCCCCCCCCCCCCCCCCC(=O)[O-]
REMARK SMILES IDX 15 1 16 2 17 3 18 4 19 5 20 6 21 7 22 8 23 9 24 10 25 11
REMARK SMILES IDX 26 12 27 13 28 14 29 15 30 16 14 17 13 18 12 19 11 20 10 21
REMARK SMILES IDX 9 22 8 23 7 24 6 25 5 26 4 27 3 28 2 29 1 30
REMARK H PARENT
REMARK Flexibility Score: inf
ROOT
ATOM      1  C   UNL     1     -33.289  11.373  18.426  1.00  0.00     0.000 C 
ENDROOT
BRANCH   1   2
ATOM      2  C   UNL     1     -32.128  12.372  18.571  1.00  0.00     0.000 C 
BRANCH   2   3
ATOM      3  C   UNL     1     -31.182  12.358  17.356  1.00  0.00     0.000 C 
BRANCH   3   4
ATOM      4  C   UNL     1     -29.964  13.278  17.546  1.00  0.00     0.000 C 
BRANCH   4   5
ATOM      5  C   UNL     1     -28.801  12.925  16.604  1.00  0.00     0.000 C 
BRANCH   5   6
ATOM      6  C   UNL     1     -28.343  14.123  15.755  1.00  0.00     0.000 C 
BRANCH   6   7
ATOM      7  C   UNL     1     -27.806  15.285  16.606  1.00  0.00     0.000 C 
BRANCH   7   8
ATOM      8  C   UNL     1     -26.991  14.762  17.796  1.00  0.00     0.000 C 
BRANCH   8   9
ATOM      9  C   UNL     1     -25.868  15.742  18.169  1.00  0.00     0.000 C 
BRANCH   9  10
ATOM     10  C   UNL     1     -26.278  16.689  19.317  1.00  0.00     0.000 C 
BRANCH  10  11
ATOM     11  C   UNL     1     -26.210  16.034  20.706  1.00  0.00     0.000 C 
BRANCH  11  12
ATOM     12  C   UNL     1     -26.803  16.921  21.814  1.00  0.00     0.006 C 
BRANCH  12  13
ATOM     13  C   UNL     1     -27.944  16.226  22.566  1.00  0.00     0.053 C 
BRANCH  13  14
ATOM     14  C   UNL     1     -27.980  14.755  22.283  1.00  0.00     0.041 C 
ATOM     15  O   UNL     1     -26.913  14.130  22.045  1.00  0.00    -0.550 OA
ATOM     16  O   UNL     1     -29.191  14.073  22.296  1.00  0.00    -0.550 OA
ENDBRANCH  13  14
ENDBRANCH  12  13
ENDBRANCH  11  12
ENDBRANCH  10  11
ENDBRANCH   9  10
ENDBRANCH   8   9
ENDBRANCH   7   8
ENDBRANCH   6   7
ENDBRANCH   5   6
ENDBRANCH   4   5
ENDBRANCH   3   4
ENDBRANCH   2   3
ENDBRANCH   1   2
BRANCH   1  17
ATOM     17  C   UNL     1     -34.391  11.878  17.482  1.00  0.00     0.000 C 
BRANCH  17  18
ATOM     18  C   UNL     1     -33.946  13.145  16.742  1.00  0.00     0.000 C 
BRANCH  18  19
ATOM     19  C   UNL     1     -35.112  14.135  16.598  1.00  0.00     0.000 C 
BRANCH  19  20
ATOM     20  C   UNL     1     -34.691  15.589  16.858  1.00  0.00     0.000 C 
BRANCH  20  21
ATOM     21  C   UNL     1     -34.967  16.038  18.304  1.00  0.00     0.000 C 
BRANCH  21  22
ATOM     22  C   UNL     1     -35.358  17.521  18.394  1.00  0.00    -0.000 C 
BRANCH  22  23
ATOM     23  C   UNL     1     -36.845  17.760  18.076  1.00  0.00    -0.000 C 
BRANCH  23  24
ATOM     24  C   UNL     1     -37.613  16.457  17.793  1.00  0.00    -0.000 C 
BRANCH  24  25
ATOM     25  C   UNL     1     -38.088  15.698  19.048  1.00  0.00    -0.000 C 
BRANCH  25  26
ATOM     26  C   UNL     1     -39.616  15.682  19.198  1.00  0.00    -0.000 C 
BRANCH  26  27
ATOM     27  C   UNL     1     -40.199  14.346  18.715  1.00  0.00    -0.000 C 
BRANCH  27  28
ATOM     28  C   UNL     1     -39.814  13.167  19.622  1.00  0.00    -0.000 C 
BRANCH  28  29
ATOM     29  C   UNL     1     -40.621  11.897  19.316  1.00  0.00    -0.003 C 
ATOM     30  C   UNL     1     -39.771  10.873  18.572  1.00  0.00     0.004 C 
ENDBRANCH  28  29
ENDBRANCH  27  28
ENDBRANCH  26  27
ENDBRANCH  25  26
ENDBRANCH  24  25
ENDBRANCH  23  24
ENDBRANCH  22  23
ENDBRANCH  21  22
ENDBRANCH  20  21
ENDBRANCH  19  20
ENDBRANCH  18  19
ENDBRANCH  17  18
ENDBRANCH   1  17
TORSDOF 26
ENDMDL
MODEL 8
REMARK VINA RESULT:    21.381      4.290      7.488
REMARK INTER + INTRA:          52.630
REMARK INTER:                  50.656
REMARK INTRA:                   1.974
REMARK UNBOUND:                -1.249
REMARK SMILES CCCCCCCCCCCCCCCCCCCCCCCCCCCC(=O)[O-]
REMARK SMILES IDX 15 1 16 2 17 3 18 4 19 5 20 6 21 7 22 8 23 9 24 10 25 11
REMARK SMILES IDX 26 12 27 13 28 14 29 15 30 16 14 17 13 18 12 19 11 20 10 21
REMARK SMILES IDX 9 22 8 23 7 24 6 25 5 26 4 27 3 28 2 29 1 30
REMARK H PARENT
REMARK Flexibility Score: inf
ROOT
ATOM      1  C   UNL     1     -33.380  11.367  17.808  1.00  0.00     0.000 C 
ENDROOT
BRANCH   1   2
ATOM      2  C   UNL     1     -32.705  12.573  17.135  1.00  0.00     0.000 C 
BRANCH   2   3
ATOM      3  C   UNL     1     -31.289  12.249  16.624  1.00  0.00     0.000 C 
BRANCH   3   4
ATOM      4  C   UNL     1     -30.208  13.119  17.288  1.00  0.00     0.000 C 
BRANCH   4   5
ATOM      5  C   UNL     1     -28.804  12.860  16.718  1.00  0.00     0.000 C 
BRANCH   5   6
ATOM      6  C   UNL     1     -28.300  14.015  15.836  1.00  0.00     0.000 C 
BRANCH   6   7
ATOM      7  C   UNL     1     -27.855  15.238  16.654  1.00  0.00     0.000 C 
BRANCH   7   8
ATOM      8  C   UNL     1     -27.043  14.809  17.883  1.00  0.00     0.000 C 
BRANCH   8   9
ATOM      9  C   UNL     1     -25.842  15.742  18.105  1.00  0.00     0.000 C 
BRANCH   9  10
ATOM     10  C   UNL     1     -26.027  16.646  19.342  1.00  0.00     0.000 C 
BRANCH  10  11
ATOM     11  C   UNL     1     -26.356  15.868  20.627  1.00  0.00     0.000 C 
BRANCH  11  12
ATOM     12  C   UNL     1     -26.755  16.785  21.795  1.00  0.00     0.006 C 
BRANCH  12  13
ATOM     13  C   UNL     1     -27.868  16.178  22.656  1.00  0.00     0.053 C 
BRANCH  13  14
ATOM     14  C   UNL     1     -28.028  14.710  22.402  1.00  0.00     0.041 C 
ATOM     15  O   UNL     1     -29.178  14.206  22.303  1.00  0.00    -0.550 OA
ATOM     16  O   UNL     1     -26.907  13.901  22.258  1.00  0.00    -0.550 OA
ENDBRANCH  13  14
ENDBRANCH  12  13
ENDBRANCH  11  12
ENDBRANCH  10  11
ENDBRANCH   9  10
ENDBRANCH   8   9
ENDBRANCH   7   8
ENDBRANCH   6   7
ENDBRANCH   5   6
ENDBRANCH   4   5
ENDBRANCH   3   4
ENDBRANCH   2   3
ENDBRANCH   1   2
BRANCH   1  17
ATOM     17  C   UNL     1     -32.908  11.155  19.255  1.00  0.00     0.000 C 
BRANCH  17  18
ATOM     18  C   UNL     1     -33.969  11.628  20.255  1.00  0.00     0.000 C 
BRANCH  18  19
ATOM     19  C   UNL     1     -34.038  13.162  20.299  1.00  0.00     0.000 C 
BRANCH  19  20
ATOM     20  C   UNL     1     -34.224  13.787  18.909  1.00  0.00     0.000 C 
BRANCH  20  21
ATOM     21  C   UNL     1     -34.886  15.176  18.966  1.00  0.00     0.000 C 
BRANCH  21  22
ATOM     22  C   UNL     1     -34.822  15.914  17.620  1.00  0.00    -0.000 C 
BRANCH  22  23
ATOM     23  C   UNL     1     -35.157  17.410  17.749  1.00  0.00    -0.000 C 
BRANCH  23  24
ATOM     24  C   UNL     1     -36.625  17.662  18.140  1.00  0.00    -0.000 C 
BRANCH  24  25
ATOM     25  C   UNL     1     -37.417  16.400  18.534  1.00  0.00    -0.000 C 
BRANCH  25  26
ATOM     26  C   UNL     1     -38.405  15.946  17.450  1.00  0.00    -0.000 C 
BRANCH  26  27
ATOM     27  C   UNL     1     -39.842  16.344  17.816  1.00  0.00    -0.000 C 
BRANCH  27  28
ATOM     28  C   UNL     1     -40.433  15.471  18.934  1.00  0.00    -0.000 C 
BRANCH  28  29
ATOM     29  C   UNL     1     -39.449  14.401  19.430  1.00  0.00    -0.003 C 
ATOM     30  C   UNL     1     -40.024  13.000  19.247  1.00  0.00     0.004 C 
ENDBRANCH  28  29
ENDBRANCH  27  28
ENDBRANCH  26  27
ENDBRANCH  25  26
ENDBRANCH  24  25
ENDBRANCH  23  24
ENDBRANCH  22  23
ENDBRANCH  21  22
ENDBRANCH  20  21
ENDBRANCH  19  20
ENDBRANCH  18  19
ENDBRANCH  17  18
ENDBRANCH   1  17
TORSDOF 26
ENDMDL
MODEL 9
REMARK VINA RESULT:    21.795      4.251      7.513
REMARK INTER + INTRA:          53.673
REMARK INTER:                  53.556
REMARK INTRA:                   0.117
REMARK UNBOUND:                -1.249
REMARK SMILES CCCCCCCCCCCCCCCCCCCCCCCCCCCC(=O)[O-]
REMARK SMILES IDX 15 1 16 2 17 3 18 4 19 5 20 6 21 7 22 8 23 9 24 10 25 11
REMARK SMILES IDX 26 12 27 13 28 14 29 15 30 16 14 17 13 18 12 19 11 20 10 21
REMARK SMILES IDX 9 22 8 23 7 24 6 25 5 26 4 27 3 28 2 29 1 30
REMARK H PARENT
REMARK Flexibility Score: inf
ROOT
ATOM      1  C   UNL     1     -32.911  12.121  19.572  1.00  0.00     0.000 C 
ENDROOT
BRANCH   1   2
ATOM      2  C   UNL     1     -31.780  11.615  18.662  1.00  0.00     0.000 C 
BRANCH   2   3
ATOM      3  C   UNL     1     -30.886  12.756  18.142  1.00  0.00     0.000 C 
BRANCH   3   4
ATOM      4  C   UNL     1     -30.219  12.416  16.798  1.00  0.00     0.000 C 
BRANCH   4   5
ATOM      5  C   UNL     1     -28.800  12.997  16.676  1.00  0.00     0.000 C 
BRANCH   5   6
ATOM      6  C   UNL     1     -28.739  14.220  15.746  1.00  0.00     0.000 C 
BRANCH   6   7
ATOM      7  C   UNL     1     -27.874  15.357  16.314  1.00  0.00     0.000 C 
BRANCH   7   8
ATOM      8  C   UNL     1     -26.899  14.827  17.373  1.00  0.00     0.000 C 
BRANCH   8   9
ATOM      9  C   UNL     1     -26.450  15.950  18.321  1.00  0.00     0.000 C 
BRANCH   9  10
ATOM     10  C   UNL     1     -25.361  15.480  19.308  1.00  0.00     0.000 C 
BRANCH  10  11
ATOM     11  C   UNL     1     -25.845  15.400  20.765  1.00  0.00     0.000 C 
BRANCH  11  12
ATOM     12  C   UNL     1     -26.795  16.549  21.142  1.00  0.00     0.006 C 
BRANCH  12  13
ATOM     13  C   UNL     1     -27.401  16.367  22.538  1.00  0.00     0.053 C 
BRANCH  13  14
ATOM     14  C   UNL     1     -28.279  15.154  22.608  1.00  0.00     0.041 C 
ATOM     15  O   UNL     1     -29.473  15.258  22.996  1.00  0.00    -0.550 OA
ATOM     16  O   UNL     1     -27.783  13.912  22.230  1.00  0.00    -0.550 OA
ENDBRANCH  13  14
ENDBRANCH  12  13
ENDBRANCH  11  12
ENDBRANCH  10  11
ENDBRANCH   9  10
ENDBRANCH   8   9
ENDBRANCH   7   8
ENDBRANCH   6   7
ENDBRANCH   5   6
ENDBRANCH   4   5
ENDBRANCH   3   4
ENDBRANCH   2   3
ENDBRANCH   1   2
BRANCH   1  17
ATOM     17  C   UNL     1     -33.756  10.979  20.159  1.00  0.00     0.000 C 
BRANCH  17  18
ATOM     18  C   UNL     1     -34.588  10.293  19.069  1.00  0.00     0.000 C 
BRANCH  18  19
ATOM     19  C   UNL     1     -34.025  10.601  17.673  1.00  0.00     0.000 C 
BRANCH  19  20
ATOM     20  C   UNL     1     -34.835  11.675  16.931  1.00  0.00     0.000 C 
BRANCH  20  21
ATOM     21  C   UNL     1     -33.954  12.816  16.391  1.00  0.00     0.000 C 
BRANCH  21  22
ATOM     22  C   UNL     1     -34.253  14.161  17.070  1.00  0.00    -0.000 C 
BRANCH  22  23
ATOM     23  C   UNL     1     -35.408  14.921  16.394  1.00  0.00    -0.000 C 
BRANCH  23  24
ATOM     24  C   UNL     1     -35.157  16.438  16.311  1.00  0.00    -0.000 C 
BRANCH  24  25
ATOM     25  C   UNL     1     -34.814  17.113  17.653  1.00  0.00    -0.000 C 
BRANCH  25  26
ATOM     26  C   UNL     1     -35.806  16.765  18.773  1.00  0.00    -0.000 C 
BRANCH  26  27
ATOM     27  C   UNL     1     -37.254  16.881  18.277  1.00  0.00    -0.000 C 
BRANCH  27  28
ATOM     28  C   UNL     1     -38.041  15.570  18.428  1.00  0.00    -0.000 C 
BRANCH  28  29
ATOM     29  C   UNL     1     -39.557  15.797  18.518  1.00  0.00    -0.003 C 
ATOM     30  C   UNL     1     -40.060  16.614  17.333  1.00  0.00     0.004 C 
ENDBRANCH  28  29
ENDBRANCH  27  28
ENDBRANCH  26  27
ENDBRANCH  25  26
ENDBRANCH  24  25
ENDBRANCH  23  24
ENDBRANCH  22  23
ENDBRANCH  21  22
ENDBRANCH  20  21
ENDBRANCH  19  20
ENDBRANCH  18  19
ENDBRANCH  17  18
ENDBRANCH   1  17
TORSDOF 26
ENDMDL
