MODEL 1
REMARK VINA RESULT:    -4.326      0.000      0.000
REMARK INTER + INTRA:          -6.188
REMARK INTER:                  -5.844
REMARK INTRA:                  -0.344
REMARK UNBOUND:                -0.344
REMARK SMILES CCCCCCC=CC(=O)[O-]
REMARK SMILES IDX 5 1 6 2 7 3 8 4 9 5 10 6 11 7 4 8 3 9 2 10 1 11
REMARK H PARENT
REMARK Flexibility Score: inf
ROOT
ATOM      1  C   UNL     1      15.649  14.003  38.201  1.00  0.00     0.004 C 
ENDROOT
BRANCH   1   2
ATOM      2  C   UNL     1      14.774  13.616  37.001  1.00  0.00     0.027 C 
BRANCH   2   3
ATOM      3  C   UNL     1      14.373  12.167  37.061  1.00  0.00    -0.025 C 
ATOM      4  C   UNL     1      13.887  11.440  36.043  1.00  0.00     0.020 C 
BRANCH   4   5
ATOM      5  C   UNL     1      13.606  11.919  34.672  1.00  0.00     0.064 C 
ATOM      6  O   UNL     1      14.277  11.451  33.715  1.00  0.00    -0.545 OA
ATOM      7  O   UNL     1      12.611  12.848  34.400  1.00  0.00    -0.545 OA
ENDBRANCH   4   5
ENDBRANCH   2   3
ENDBRANCH   1   2
BRANCH   1   8
ATOM      8  C   UNL     1      14.805  14.125  39.478  1.00  0.00     0.000 C 
BRANCH   8   9
ATOM      9  C   UNL     1      15.659  14.123  40.756  1.00  0.00    -0.000 C 
BRANCH   9  10
ATOM     10  C   UNL     1      16.754  13.046  40.734  1.00  0.00    -0.003 C 
ATOM     11  C   UNL     1      18.009  13.524  41.459  1.00  0.00     0.004 C 
ENDBRANCH   9  10
ENDBRANCH   8   9
ENDBRANCH   1   8
TORSDOF 6
ENDMDL
MODEL 2
REMARK VINA RESULT:    -4.137      1.017      1.253
REMARK INTER + INTRA:          -5.932
REMARK INTER:                  -5.550
REMARK INTRA:                  -0.382
REMARK UNBOUND:                -0.344
REMARK SMILES CCCCCCC=CC(=O)[O-]
REMARK SMILES IDX 5 1 6 2 7 3 8 4 9 5 10 6 11 7 4 8 3 9 2 10 1 11
REMARK H PARENT
REMARK Flexibility Score: inf
ROOT
ATOM      1  C   UNL     1      15.937  13.040  38.451  1.00  0.00     0.004 C 
ENDROOT
BRANCH   1   2
ATOM      2  C   UNL     1      15.601  13.607  37.065  1.00  0.00     0.027 C 
BRANCH   2   3
ATOM      3  C   UNL     1      14.121  13.558  36.798  1.00  0.00    -0.025 C 
ATOM      4  C   UNL     1      13.492  12.679  36.003  1.00  0.00     0.020 C 
BRANCH   4   5
ATOM      5  C   UNL     1      14.120  11.610  35.196  1.00  0.00     0.064 C 
ATOM      6  O   UNL     1      14.321  10.487  35.727  1.00  0.00    -0.545 OA
ATOM      7  O   UNL     1      14.473  11.796  33.866  1.00  0.00    -0.545 OA
ENDBRANCH   4   5
ENDBRANCH   2   3
ENDBRANCH   1   2
BRANCH   1   8
ATOM      8  C   UNL     1      15.306  13.894  39.560  1.00  0.00     0.000 C 
BRANCH   8   9
ATOM      9  C   UNL     1      16.257  14.123  40.745  1.00  0.00    -0.000 C 
BRANCH   9  10
ATOM     10  C   UNL     1      17.284  12.992  40.908  1.00  0.00    -0.003 C 
ATOM     11  C   UNL     1      18.477  13.450  41.741  1.00  0.00     0.004 C 
ENDBRANCH   9  10
ENDBRANCH   8   9
ENDBRANCH   1   8
TORSDOF 6
ENDMDL
MODEL 3
REMARK VINA RESULT:    -4.123      1.113      1.537
REMARK INTER + INTRA:          -5.912
REMARK INTER:                  -5.756
REMARK INTRA:                  -0.157
REMARK UNBOUND:                -0.344
REMARK SMILES CCCCCCC=CC(=O)[O-]
REMARK SMILES IDX 5 1 6 2 7 3 8 4 9 5 10 6 11 7 4 8 3 9 2 10 1 11
REMARK H PARENT
REMARK Flexibility Score: inf
ROOT
ATOM      1  C   UNL     1      15.654  13.021  37.957  1.00  0.00     0.004 C 
ENDROOT
BRANCH   1   2
ATOM      2  C   UNL     1      14.267  13.294  37.361  1.00  0.00     0.027 C 
BRANCH   2   3
ATOM      3  C   UNL     1      14.366  13.732  35.925  1.00  0.00    -0.025 C 
ATOM      4  C   UNL     1      14.165  12.957  34.847  1.00  0.00     0.020 C 
BRANCH   4   5
ATOM      5  C   UNL     1      13.849  11.512  34.847  1.00  0.00     0.064 C 
ATOM      6  O   UNL     1      12.922  11.093  34.105  1.00  0.00    -0.545 OA
ATOM      7  O   UNL     1      14.556  10.598  35.616  1.00  0.00    -0.545 OA
ENDBRANCH   4   5
ENDBRANCH   2   3
ENDBRANCH   1   2
BRANCH   1   8
ATOM      8  C   UNL     1      16.051  14.124  38.949  1.00  0.00     0.000 C 
BRANCH   8   9
ATOM      9  C   UNL     1      15.995  13.655  40.411  1.00  0.00    -0.000 C 
BRANCH   9  10
ATOM     10  C   UNL     1      17.207  14.125  41.230  1.00  0.00    -0.003 C 
ATOM     11  C   UNL     1      18.173  12.973  41.492  1.00  0.00     0.004 C 
ENDBRANCH   9  10
ENDBRANCH   8   9
ENDBRANCH   1   8
TORSDOF 6
ENDMDL
MODEL 4
REMARK VINA RESULT:    -3.807      3.807      6.089
REMARK INTER + INTRA:          -5.486
REMARK INTER:                  -5.096
REMARK INTRA:                  -0.390
REMARK UNBOUND:                -0.344
REMARK SMILES CCCCCCC=CC(=O)[O-]
REMARK SMILES IDX 5 1 6 2 7 3 8 4 9 5 10 6 11 7 4 8 3 9 2 10 1 11
REMARK H PARENT
REMARK Flexibility Score: inf
ROOT
ATOM      1  C   UNL     1      15.616  13.661  37.208  1.00  0.00     0.004 C 
ENDROOT
BRANCH   1   2
ATOM      2  C   UNL     1      16.030  13.000  38.529  1.00  0.00     0.027 C 
BRANCH   2   3
ATOM      3  C   UNL     1      15.658  13.856  39.710  1.00  0.00    -0.025 C 
ATOM      4  C   UNL     1      16.344  13.956  40.859  1.00  0.00     0.020 C 
BRANCH   4   5
ATOM      5  C   UNL     1      17.575  13.219  41.219  1.00  0.00     0.064 C 
ATOM      6  O   UNL     1      18.645  13.862  41.376  1.00  0.00    -0.545 OA
ATOM      7  O   UNL     1      17.584  11.844  41.416  1.00  0.00    -0.545 OA
ENDBRANCH   4   5
ENDBRANCH   2   3
ENDBRANCH   1   2
BRANCH   1   8
ATOM      8  C   UNL     1      14.122  13.443  36.930  1.00  0.00     0.000 C 
BRANCH   8   9
ATOM      9  C   UNL     1      13.750  11.956  36.822  1.00  0.00    -0.000 C 
BRANCH   9  10
ATOM     10  C   UNL     1      14.457  11.253  35.654  1.00  0.00    -0.003 C 
ATOM     11  C   UNL     1      13.922  11.744  34.312  1.00  0.00     0.004 C 
ENDBRANCH   9  10
ENDBRANCH   8   9
ENDBRANCH   1   8
TORSDOF 6
ENDMDL
MODEL 5
REMARK VINA RESULT:    -3.338      1.545      2.569
REMARK INTER + INTRA:          -4.852
REMARK INTER:                  -4.556
REMARK INTRA:                  -0.297
REMARK UNBOUND:                -0.344
REMARK SMILES CCCCCCC=CC(=O)[O-]
REMARK SMILES IDX 5 1 6 2 7 3 8 4 9 5 10 6 11 7 4 8 3 9 2 10 1 11
REMARK H PARENT
REMARK Flexibility Score: inf
ROOT
ATOM      1  C   UNL     1      16.062  14.125  40.444  1.00  0.00     0.004 C 
ENDROOT
BRANCH   1   2
ATOM      2  C   UNL     1      15.139  13.772  39.270  1.00  0.00     0.027 C 
BRANCH   2   3
ATOM      3  C   UNL     1      15.882  13.028  38.194  1.00  0.00    -0.025 C 
ATOM      4  C   UNL     1      15.366  12.596  37.032  1.00  0.00     0.020 C 
BRANCH   4   5
ATOM      5  C   UNL     1      13.961  12.724  36.589  1.00  0.00     0.064 C 
ATOM      6  O   UNL     1      13.566  13.827  36.131  1.00  0.00    -0.545 OA
ATOM      7  O   UNL     1      13.069  11.661  36.638  1.00  0.00    -0.545 OA
ENDBRANCH   4   5
ENDBRANCH   2   3
ENDBRANCH   1   2
BRANCH   1   8
ATOM      8  C   UNL     1      17.418  13.419  40.306  1.00  0.00     0.000 C 
BRANCH   8   9
ATOM      9  C   UNL     1      17.915  12.824  41.633  1.00  0.00    -0.000 C 
BRANCH   9  10
ATOM     10  C   UNL     1      18.945  13.721  42.334  1.00  0.00    -0.003 C 
ATOM     11  C   UNL     1      19.273  13.194  43.729  1.00  0.00     0.004 C 
ENDBRANCH   9  10
ENDBRANCH   8   9
ENDBRANCH   1   8
TORSDOF 6
ENDMDL
MODEL 6
REMARK VINA RESULT:    -3.162      4.727      6.804
REMARK INTER + INTRA:          -4.614
REMARK INTER:                  -4.398
REMARK INTRA:                  -0.216
REMARK UNBOUND:                -0.344
REMARK SMILES CCCCCCC=CC(=O)[O-]
REMARK SMILES IDX 5 1 6 2 7 3 8 4 9 5 10 6 11 7 4 8 3 9 2 10 1 11
REMARK H PARENT
REMARK Flexibility Score: inf
ROOT
ATOM      1  C   UNL     1      15.137  13.825  39.987  1.00  0.00     0.004 C 
ENDROOT
BRANCH   1   2
ATOM      2  C   UNL     1      16.416  14.095  40.790  1.00  0.00     0.027 C 
BRANCH   2   3
ATOM      3  C   UNL     1      17.285  12.869  40.862  1.00  0.00    -0.025 C 
ATOM      4  C   UNL     1      18.324  12.686  41.693  1.00  0.00     0.020 C 
BRANCH   4   5
ATOM      5  C   UNL     1      18.852  13.659  42.673  1.00  0.00     0.064 C 
ATOM      6  O   UNL     1      20.009  14.125  42.504  1.00  0.00    -0.545 OA
ATOM      7  O   UNL     1      18.106  14.096  43.759  1.00  0.00    -0.545 OA
ENDBRANCH   4   5
ENDBRANCH   2   3
ENDBRANCH   1   2
BRANCH   1   8
ATOM      8  C   UNL     1      15.386  14.002  38.482  1.00  0.00     0.000 C 
BRANCH   8   9
ATOM      9  C   UNL     1      15.631  12.668  37.761  1.00  0.00    -0.000 C 
BRANCH   9  10
ATOM     10  C   UNL     1      14.849  12.554  36.444  1.00  0.00    -0.003 C 
ATOM     11  C   UNL     1      13.512  11.850  36.660  1.00  0.00     0.004 C 
ENDBRANCH   9  10
ENDBRANCH   8   9
ENDBRANCH   1   8
TORSDOF 6
ENDMDL
MODEL 7
REMARK VINA RESULT:    -2.315     20.023     22.116
REMARK INTER + INTRA:          -3.470
REMARK INTER:                  -3.883
REMARK INTRA:                   0.413
REMARK UNBOUND:                -0.344
REMARK SMILES CCCCCCC=CC(=O)[O-]
REMARK SMILES IDX 5 1 6 2 7 3 8 4 9 5 10 6 11 7 4 8 3 9 2 10 1 11
REMARK H PARENT
REMARK Flexibility Score: inf
ROOT
ATOM      1  C   UNL     1       7.117  -2.643  24.946  1.00  0.00     0.004 C 
ENDROOT
BRANCH   1   2
ATOM      2  C   UNL     1       6.723  -1.182  25.199  1.00  0.00     0.027 C 
BRANCH   2   3
ATOM      3  C   UNL     1       7.377  -0.258  24.208  1.00  0.00    -0.025 C 
ATOM      4  C   UNL     1       8.678  -0.251  23.875  1.00  0.00     0.020 C 
BRANCH   4   5
ATOM      5  C   UNL     1       9.738  -1.114  24.440  1.00  0.00     0.064 C 
ATOM      6  O   UNL     1       9.832  -2.303  24.037  1.00  0.00    -0.545 OA
ATOM      7  O   UNL     1      10.649  -0.650  25.379  1.00  0.00    -0.545 OA
ENDBRANCH   4   5
ENDBRANCH   2   3
ENDBRANCH   1   2
BRANCH   1   8
ATOM      8  C   UNL     1       6.216  -3.276  23.876  1.00  0.00     0.000 C 
BRANCH   8   9
ATOM      9  C   UNL     1       4.776  -2.740  23.921  1.00  0.00    -0.000 C 
BRANCH   9  10
ATOM     10  C   UNL     1       3.727  -3.861  23.875  1.00  0.00    -0.003 C 
ATOM     11  C   UNL     1       4.389  -5.235  23.906  1.00  0.00     0.004 C 
ENDBRANCH   9  10
ENDBRANCH   8   9
ENDBRANCH   1   8
TORSDOF 6
ENDMDL
MODEL 8
REMARK VINA RESULT:    -1.966     19.570     22.135
REMARK INTER + INTRA:          -2.999
REMARK INTER:                  -3.137
REMARK INTRA:                   0.138
REMARK UNBOUND:                -0.344
REMARK SMILES CCCCCCC=CC(=O)[O-]
REMARK SMILES IDX 5 1 6 2 7 3 8 4 9 5 10 6 11 7 4 8 3 9 2 10 1 11
REMARK H PARENT
REMARK Flexibility Score: inf
ROOT
ATOM      1  C   UNL     1       7.533  -1.386  24.529  1.00  0.00     0.004 C 
ENDROOT
BRANCH   1   2
ATOM      2  C   UNL     1       6.214  -2.160  24.641  1.00  0.00     0.027 C 
BRANCH   2   3
ATOM      3  C   UNL     1       6.390  -3.601  24.246  1.00  0.00    -0.025 C 
ATOM      4  C   UNL     1       5.408  -4.453  23.908  1.00  0.00     0.020 C 
BRANCH   4   5
ATOM      5  C   UNL     1       3.957  -4.166  23.894  1.00  0.00     0.064 C 
ATOM      6  O   UNL     1       3.575  -2.967  23.875  1.00  0.00    -0.545 OA
ATOM      7  O   UNL     1       3.003  -5.174  23.875  1.00  0.00    -0.545 OA
ENDBRANCH   4   5
ENDBRANCH   2   3
ENDBRANCH   1   2
BRANCH   1   8
ATOM      8  C   UNL     1       8.697  -2.332  24.200  1.00  0.00     0.000 C 
BRANCH   8   9
ATOM      9  C   UNL     1      10.032  -1.590  24.024  1.00  0.00    -0.000 C 
BRANCH   9  10
ATOM     10  C   UNL     1      10.263  -0.523  25.104  1.00  0.00    -0.003 C 
ATOM     11  C   UNL     1      11.314  -0.980  26.111  1.00  0.00     0.004 C 
ENDBRANCH   9  10
ENDBRANCH   8   9
ENDBRANCH   1   8
TORSDOF 6
ENDMDL
