MODEL 1
REMARK VINA RESULT:    -3.560      0.000      0.000
REMARK INTER + INTRA:          -5.384
REMARK INTER:                  -5.432
REMARK INTRA:                   0.048
REMARK UNBOUND:                 0.048
REMARK SMILES CC1=CCC[C@H](C)C(=O)C[C@@H](C(C)C)C(=O)C1
REMARK SMILES IDX 8 1 9 2 6 3 7 4 5 5 4 6 3 7 2 8 1 9 10 11 11 12 15 13 16 14
REMARK SMILES IDX 17 15 12 17 13 18 14 19
REMARK H PARENT
REMARK Flexibility Score: 70.00
ROOT
ATOM      1  C   UNL     1      21.058  26.004  40.418  1.00  0.00     0.136 C 
ATOM      2  O   UNL     1      20.652  26.577  39.418  1.00  0.00    -0.299 OA
ENDROOT
BRANCH   1   3
ATOM      3  C   UNL     1      22.323  25.169  40.312  1.00  0.00     0.053 C 
ATOM      4  C   UNL     1      22.430  24.497  38.937  1.00  0.00     0.016 C 
BRANCH   3   5
ATOM      5  C   UNL     1      23.585  25.997  40.623  1.00  0.00     0.015 C 
BRANCH   5   6
ATOM      6  C   UNL     1      23.743  26.286  42.133  1.00  0.00     0.028 C 
BRANCH   6   7
ATOM      7  C   UNL     1      24.151  27.719  42.370  1.00  0.00    -0.028 C 
ATOM      8  C   UNL     1      23.332  28.706  42.805  1.00  0.00    -0.070 CG0
ATOM      9  C   UNL     1      23.902  30.098  42.912  1.00  0.00     0.039 C 
ATOM     10  G   UNL     1      21.886  28.473  43.216  1.00  0.00     0.000 G0
ENDBRANCH   6   7
ENDBRANCH   5   6
ENDBRANCH   3   5
ENDBRANCH   1   3
BRANCH   1  11
ATOM     11  C   UNL     1      20.287  26.167  41.713  1.00  0.00     0.087 C 
BRANCH  11  12
ATOM     12  C   UNL     1      19.697  27.590  41.933  1.00  0.00     0.066 C 
BRANCH  12  13
ATOM     13  C   UNL     1      20.808  28.611  42.165  1.00  0.00     0.140 C 
ATOM     14  O   UNL     1      20.868  29.581  41.423  1.00  0.00    -0.299 OA
BRANCH  13  15
ATOM     15  C   UNL     1      21.869  28.487  43.243  1.00  0.00     0.106 CG0
ATOM     16  G   UNL     1      23.306  28.682  42.782  1.00  0.00     0.000 G0
ENDBRANCH  13  15
ENDBRANCH  12  13
BRANCH  12  17
ATOM     17  C   UNL     1      18.687  27.613  43.123  1.00  0.00    -0.006 C 
ATOM     18  C   UNL     1      18.088  29.017  43.327  1.00  0.00     0.008 C 
ATOM     19  C   UNL     1      17.537  26.608  42.929  1.00  0.00     0.008 C 
ENDBRANCH  12  17
ENDBRANCH  11  12
ENDBRANCH   1  11
TORSDOF 1
ENDMDL
MODEL 2
REMARK VINA RESULT:    -3.428      2.495      5.562
REMARK INTER + INTRA:          -5.184
REMARK INTER:                  -5.032
REMARK INTRA:                  -0.152
REMARK UNBOUND:                 0.048
REMARK SMILES CC1=CCC[C@H](C)C(=O)C[C@@H](C(C)C)C(=O)C1
REMARK SMILES IDX 8 1 9 2 6 3 7 4 5 5 4 6 3 7 2 8 1 9 10 11 11 12 15 13 16 14
REMARK SMILES IDX 17 15 12 17 13 18 14 19
REMARK H PARENT
REMARK Flexibility Score: 70.00
ROOT
ATOM      1  C   UNL     1      19.220  27.773  43.495  1.00  0.00     0.136 C 
ATOM      2  O   UNL     1      19.890  28.570  44.135  1.00  0.00    -0.299 OA
ENDROOT
BRANCH   1   3
ATOM      3  C   UNL     1      17.714  27.973  43.438  1.00  0.00     0.053 C 
ATOM      4  C   UNL     1      17.350  29.462  43.506  1.00  0.00     0.016 C 
BRANCH   3   5
ATOM      5  C   UNL     1      17.093  27.307  42.195  1.00  0.00     0.015 C 
BRANCH   5   6
ATOM      6  C   UNL     1      17.004  28.271  40.991  1.00  0.00     0.028 C 
BRANCH   6   7
ATOM      7  C   UNL     1      17.257  27.543  39.695  1.00  0.00    -0.028 C 
ATOM      8  C   UNL     1      18.458  27.436  39.077  1.00  0.00    -0.070 CG0
ATOM      9  C   UNL     1      18.505  26.731  37.746  1.00  0.00     0.039 C 
ATOM     10  G   UNL     1      19.755  27.963  39.673  1.00  0.00     0.000 G0
ENDBRANCH   6   7
ENDBRANCH   5   6
ENDBRANCH   3   5
ENDBRANCH   1   3
BRANCH   1  11
ATOM     11  C   UNL     1      19.926  26.637  42.783  1.00  0.00     0.087 C 
BRANCH  11  12
ATOM     12  C   UNL     1      21.078  27.089  41.840  1.00  0.00     0.066 C 
BRANCH  12  13
ATOM     13  C   UNL     1      20.663  26.970  40.375  1.00  0.00     0.140 C 
ATOM     14  O   UNL     1      21.090  26.026  39.727  1.00  0.00    -0.299 OA
BRANCH  13  15
ATOM     15  C   UNL     1      19.776  27.970  39.656  1.00  0.00     0.106 CG0
ATOM     16  G   UNL     1      18.466  27.421  39.110  1.00  0.00     0.000 G0
ENDBRANCH  13  15
ENDBRANCH  12  13
BRANCH  12  17
ATOM     17  C   UNL     1      22.383  26.271  42.097  1.00  0.00    -0.006 C 
ATOM     18  C   UNL     1      23.641  27.130  41.873  1.00  0.00     0.008 C 
ATOM     19  C   UNL     1      22.431  25.686  43.520  1.00  0.00     0.008 C 
ENDBRANCH  12  17
ENDBRANCH  11  12
ENDBRANCH   1  11
TORSDOF 1
ENDMDL
MODEL 3
REMARK VINA RESULT:    -3.402      1.924      2.441
REMARK INTER + INTRA:          -5.144
REMARK INTER:                  -4.840
REMARK INTRA:                  -0.304
REMARK UNBOUND:                 0.048
REMARK SMILES CC1=CCC[C@H](C)C(=O)C[C@@H](C(C)C)C(=O)C1
REMARK SMILES IDX 8 1 9 2 6 3 7 4 5 5 4 6 3 7 2 8 1 9 10 11 11 12 15 13 16 14
REMARK SMILES IDX 17 15 12 17 13 18 14 19
REMARK H PARENT
REMARK Flexibility Score: 70.00
ROOT
ATOM      1  C   UNL     1      19.193  26.873  39.792  1.00  0.00     0.136 C 
ATOM      2  O   UNL     1      18.178  26.963  39.118  1.00  0.00    -0.299 OA
ENDROOT
BRANCH   1   3
ATOM      3  C   UNL     1      20.520  27.265  39.164  1.00  0.00     0.053 C 
ATOM      4  C   UNL     1      20.659  26.679  37.753  1.00  0.00     0.016 C 
BRANCH   3   5
ATOM      5  C   UNL     1      20.721  28.792  39.152  1.00  0.00     0.015 C 
BRANCH   5   6
ATOM      6  C   UNL     1      21.807  29.252  40.150  1.00  0.00     0.028 C 
BRANCH   6   7
ATOM      7  C   UNL     1      22.735  28.115  40.502  1.00  0.00    -0.028 C 
ATOM      8  C   UNL     1      22.847  27.544  41.725  1.00  0.00    -0.070 CG0
ATOM      9  C   UNL     1      23.885  26.465  41.906  1.00  0.00     0.039 C 
ATOM     10  G   UNL     1      21.964  27.917  42.907  1.00  0.00     0.000 G0
ENDBRANCH   6   7
ENDBRANCH   5   6
ENDBRANCH   3   5
ENDBRANCH   1   3
BRANCH   1  11
ATOM     11  C   UNL     1      19.073  26.388  41.224  1.00  0.00     0.087 C 
BRANCH  11  12
ATOM     12  C   UNL     1      19.376  27.474  42.296  1.00  0.00     0.066 C 
BRANCH  12  13
ATOM     13  C   UNL     1      20.665  27.153  43.048  1.00  0.00     0.140 C 
ATOM     14  O   UNL     1      20.656  26.223  43.842  1.00  0.00    -0.299 OA
BRANCH  13  15
ATOM     15  C   UNL     1      21.956  27.936  42.901  1.00  0.00     0.106 CG0
ATOM     16  G   UNL     1      22.840  27.541  41.727  1.00  0.00     0.000 G0
ENDBRANCH  13  15
ENDBRANCH  12  13
BRANCH  12  17
ATOM     17  C   UNL     1      18.191  27.633  43.301  1.00  0.00    -0.006 C 
ATOM     18  C   UNL     1      17.975  29.107  43.689  1.00  0.00     0.008 C 
ATOM     19  C   UNL     1      16.873  27.070  42.740  1.00  0.00     0.008 C 
ENDBRANCH  12  17
ENDBRANCH  11  12
ENDBRANCH   1  11
TORSDOF 1
ENDMDL
MODEL 4
REMARK VINA RESULT:    -3.334      3.033      5.537
REMARK INTER + INTRA:          -5.041
REMARK INTER:                  -4.700
REMARK INTRA:                  -0.340
REMARK UNBOUND:                 0.048
REMARK SMILES CC1=CCC[C@H](C)C(=O)C[C@@H](C(C)C)C(=O)C1
REMARK SMILES IDX 8 1 9 2 6 3 7 4 5 5 4 6 3 7 2 8 1 9 10 11 11 12 15 13 16 14
REMARK SMILES IDX 17 15 12 17 13 18 14 19
REMARK H PARENT
REMARK Flexibility Score: 70.00
ROOT
ATOM      1  C   UNL     1      20.749  27.045  41.693  1.00  0.00     0.136 C 
ATOM      2  O   UNL     1      21.514  27.994  41.607  1.00  0.00    -0.299 OA
ENDROOT
BRANCH   1   3
ATOM      3  C   UNL     1      20.204  26.675  43.063  1.00  0.00     0.053 C 
ATOM      4  C   UNL     1      21.302  26.082  43.955  1.00  0.00     0.016 C 
BRANCH   3   5
ATOM      5  C   UNL     1      19.517  27.871  43.750  1.00  0.00     0.015 C 
BRANCH   5   6
ATOM      6  C   UNL     1      18.082  28.107  43.229  1.00  0.00     0.028 C 
BRANCH   6   7
ATOM      7  C   UNL     1      17.388  26.798  42.943  1.00  0.00    -0.028 C 
ATOM      8  C   UNL     1      16.888  26.421  41.742  1.00  0.00    -0.070 CG0
ATOM      9  C   UNL     1      16.160  25.103  41.665  1.00  0.00     0.039 C 
ATOM     10  G   UNL     1      17.052  27.244  40.472  1.00  0.00     0.000 G0
ENDBRANCH   6   7
ENDBRANCH   5   6
ENDBRANCH   3   5
ENDBRANCH   1   3
BRANCH   1  11
ATOM     11  C   UNL     1      20.374  26.297  40.430  1.00  0.00     0.087 C 
BRANCH  11  12
ATOM     12  C   UNL     1      19.543  27.132  39.413  1.00  0.00     0.066 C 
BRANCH  12  13
ATOM     13  C   UNL     1      18.074  26.720  39.440  1.00  0.00     0.140 C 
ATOM     14  O   UNL     1      17.674  25.944  38.583  1.00  0.00    -0.299 OA
BRANCH  13  15
ATOM     15  C   UNL     1      17.061  27.237  40.444  1.00  0.00     0.106 CG0
ATOM     16  G   UNL     1      16.905  26.411  41.713  1.00  0.00     0.000 G0
ENDBRANCH  13  15
ENDBRANCH  12  13
BRANCH  12  17
ATOM     17  C   UNL     1      20.112  27.002  37.965  1.00  0.00    -0.006 C 
ATOM     18  C   UNL     1      20.385  28.383  37.340  1.00  0.00     0.008 C 
ATOM     19  C   UNL     1      21.410  26.176  37.922  1.00  0.00     0.008 C 
ENDBRANCH  12  17
ENDBRANCH  11  12
ENDBRANCH   1  11
TORSDOF 1
ENDMDL
MODEL 5
REMARK VINA RESULT:    -3.255      1.711      1.927
REMARK INTER + INTRA:          -4.920
REMARK INTER:                  -4.637
REMARK INTRA:                  -0.282
REMARK UNBOUND:                 0.048
REMARK SMILES CC1=CCC[C@H](C)C(=O)C[C@@H](C(C)C)C(=O)C1
REMARK SMILES IDX 8 1 9 2 6 3 7 4 5 5 4 6 3 7 2 8 1 9 10 11 11 12 15 13 16 14
REMARK SMILES IDX 17 15 12 17 13 18 14 19
REMARK H PARENT
REMARK Flexibility Score: 70.00
ROOT
ATOM      1  C   UNL     1      20.772  26.374  39.600  1.00  0.00     0.136 C 
ATOM      2  O   UNL     1      19.914  26.486  38.737  1.00  0.00    -0.299 OA
ENDROOT
BRANCH   1   3
ATOM      3  C   UNL     1      22.220  26.635  39.220  1.00  0.00     0.053 C 
ATOM      4  C   UNL     1      22.728  25.587  38.222  1.00  0.00     0.016 C 
BRANCH   3   5
ATOM      5  C   UNL     1      22.424  28.062  38.677  1.00  0.00     0.015 C 
BRANCH   5   6
ATOM      6  C   UNL     1      22.897  29.047  39.770  1.00  0.00     0.028 C 
BRANCH   6   7
ATOM      7  C   UNL     1      24.022  28.455  40.582  1.00  0.00    -0.028 C 
ATOM      8  C   UNL     1      23.971  28.177  41.907  1.00  0.00    -0.070 CG0
ATOM      9  C   UNL     1      25.223  27.655  42.565  1.00  0.00     0.039 C 
ATOM     10  G   UNL     1      22.713  28.337  42.748  1.00  0.00     0.000 G0
ENDBRANCH   6   7
ENDBRANCH   5   6
ENDBRANCH   3   5
ENDBRANCH   1   3
BRANCH   1  11
ATOM     11  C   UNL     1      20.346  25.996  41.004  1.00  0.00     0.087 C 
BRANCH  11  12
ATOM     12  C   UNL     1      20.405  27.165  42.029  1.00  0.00     0.066 C 
BRANCH  12  13
ATOM     13  C   UNL     1      21.739  27.174  42.770  1.00  0.00     0.140 C 
ATOM     14  O   UNL     1      22.041  26.192  43.432  1.00  0.00    -0.299 OA
BRANCH  13  15
ATOM     15  C   UNL     1      22.708  28.342  42.767  1.00  0.00     0.106 CG0
ATOM     16  G   UNL     1      23.958  28.164  41.917  1.00  0.00     0.000 G0
ENDBRANCH  13  15
ENDBRANCH  12  13
BRANCH  12  17
ATOM     17  C   UNL     1      19.224  27.094  43.049  1.00  0.00    -0.006 C 
ATOM     18  C   UNL     1      19.002  28.446  43.751  1.00  0.00     0.008 C 
ATOM     19  C   UNL     1      17.905  26.661  42.382  1.00  0.00     0.008 C 
ENDBRANCH  12  17
ENDBRANCH  11  12
ENDBRANCH   1  11
TORSDOF 1
ENDMDL
MODEL 6
REMARK VINA RESULT:    -3.233      2.307      3.788
REMARK INTER + INTRA:          -4.886
REMARK INTER:                  -4.814
REMARK INTRA:                  -0.071
REMARK UNBOUND:                 0.048
REMARK SMILES CC1=CCC[C@H](C)C(=O)C[C@@H](C(C)C)C(=O)C1
REMARK SMILES IDX 8 1 9 2 6 3 7 4 5 5 4 6 3 7 2 8 1 9 10 11 11 12 15 13 16 14
REMARK SMILES IDX 17 15 12 17 13 18 14 19
REMARK H PARENT
REMARK Flexibility Score: 70.00
ROOT
ATOM      1  C   UNL     1      22.676  27.835  41.993  1.00  0.00     0.136 C 
ATOM      2  O   UNL     1      23.591  28.387  41.402  1.00  0.00    -0.299 OA
ENDROOT
BRANCH   1   3
ATOM      3  C   UNL     1      22.790  26.347  42.278  1.00  0.00     0.053 C 
ATOM      4  C   UNL     1      22.164  25.992  43.633  1.00  0.00     0.016 C 
BRANCH   3   5
ATOM      5  C   UNL     1      22.180  25.497  41.146  1.00  0.00     0.015 C 
BRANCH   5   6
ATOM      6  C   UNL     1      22.353  26.153  39.758  1.00  0.00     0.028 C 
BRANCH   6   7
ATOM      7  C   UNL     1      21.082  26.053  38.950  1.00  0.00    -0.028 C 
ATOM      8  C   UNL     1      20.216  27.068  38.722  1.00  0.00    -0.070 CG0
ATOM      9  C   UNL     1      18.957  26.760  37.952  1.00  0.00     0.039 C 
ATOM     10  G   UNL     1      20.466  28.499  39.175  1.00  0.00     0.000 G0
ENDBRANCH   6   7
ENDBRANCH   5   6
ENDBRANCH   3   5
ENDBRANCH   1   3
BRANCH   1  11
ATOM     11  C   UNL     1      21.483  28.665  42.424  1.00  0.00     0.087 C 
BRANCH  11  12
ATOM     12  C   UNL     1      20.128  28.204  41.815  1.00  0.00     0.066 C 
BRANCH  12  13
ATOM     13  C   UNL     1      19.854  28.916  40.492  1.00  0.00     0.140 C 
ATOM     14  O   UNL     1      19.072  29.857  40.491  1.00  0.00    -0.299 OA
BRANCH  13  15
ATOM     15  C   UNL     1      20.464  28.512  39.163  1.00  0.00     0.106 CG0
ATOM     16  G   UNL     1      20.221  27.073  38.733  1.00  0.00     0.000 G0
ENDBRANCH  13  15
ENDBRANCH  12  13
BRANCH  12  17
ATOM     17  C   UNL     1      18.945  28.438  42.807  1.00  0.00    -0.006 C 
ATOM     18  C   UNL     1      17.871  27.342  42.673  1.00  0.00     0.008 C 
ATOM     19  C   UNL     1      19.416  28.492  44.271  1.00  0.00     0.008 C 
ENDBRANCH  12  17
ENDBRANCH  11  12
ENDBRANCH   1  11
TORSDOF 1
ENDMDL
MODEL 7
REMARK VINA RESULT:    -3.168      2.276      3.937
REMARK INTER + INTRA:          -4.787
REMARK INTER:                  -4.487
REMARK INTRA:                  -0.299
REMARK UNBOUND:                 0.048
REMARK SMILES CC1=CCC[C@H](C)C(=O)C[C@@H](C(C)C)C(=O)C1
REMARK SMILES IDX 8 1 9 2 6 3 7 4 5 5 4 6 3 7 2 8 1 9 10 11 11 12 15 13 16 14
REMARK SMILES IDX 17 15 12 17 13 18 14 19
REMARK H PARENT
REMARK Flexibility Score: 70.00
ROOT
ATOM      1  C   UNL     1      20.005  28.342  43.264  1.00  0.00     0.136 C 
ATOM      2  O   UNL     1      19.455  28.528  44.339  1.00  0.00    -0.299 OA
ENDROOT
BRANCH   1   3
ATOM      3  C   UNL     1      21.503  28.087  43.250  1.00  0.00     0.053 C 
ATOM      4  C   UNL     1      21.810  26.586  43.315  1.00  0.00     0.016 C 
BRANCH   3   5
ATOM      5  C   UNL     1      22.185  28.740  42.032  1.00  0.00     0.015 C 
BRANCH   5   6
ATOM      6  C   UNL     1      22.871  27.704  41.114  1.00  0.00     0.028 C 
BRANCH   6   7
ATOM      7  C   UNL     1      22.331  27.785  39.708  1.00  0.00    -0.028 C 
ATOM      8  C   UNL     1      21.304  27.050  39.219  1.00  0.00    -0.070 CG0
ATOM      9  C   UNL     1      20.951  27.216  37.763  1.00  0.00     0.039 C 
ATOM     10  G   UNL     1      20.478  26.097  40.070  1.00  0.00     0.000 G0
ENDBRANCH   6   7
ENDBRANCH   5   6
ENDBRANCH   3   5
ENDBRANCH   1   3
BRANCH   1  11
ATOM     11  C   UNL     1      19.162  28.361  42.004  1.00  0.00     0.087 C 
BRANCH  11  12
ATOM     12  C   UNL     1      18.501  26.996  41.654  1.00  0.00     0.066 C 
BRANCH  12  13
ATOM     13  C   UNL     1      19.033  26.456  40.329  1.00  0.00     0.140 C 
ATOM     14  O   UNL     1      18.240  26.279  39.416  1.00  0.00    -0.299 OA
BRANCH  13  15
ATOM     15  C   UNL     1      20.484  26.089  40.078  1.00  0.00     0.106 CG0
ATOM     16  G   UNL     1      21.270  27.056  39.205  1.00  0.00     0.000 G0
ENDBRANCH  13  15
ENDBRANCH  12  13
BRANCH  12  17
ATOM     17  C   UNL     1      16.944  27.111  41.603  1.00  0.00    -0.006 C 
ATOM     18  C   UNL     1      16.272  26.055  42.500  1.00  0.00     0.008 C 
ATOM     19  C   UNL     1      16.450  28.506  42.025  1.00  0.00     0.008 C 
ENDBRANCH  12  17
ENDBRANCH  11  12
ENDBRANCH   1  11
TORSDOF 1
ENDMDL
MODEL 8
REMARK VINA RESULT:    -3.139      3.518      6.776
REMARK INTER + INTRA:          -4.742
REMARK INTER:                  -4.468
REMARK INTRA:                  -0.274
REMARK UNBOUND:                 0.048
REMARK SMILES CC1=CCC[C@H](C)C(=O)C[C@@H](C(C)C)C(=O)C1
REMARK SMILES IDX 8 1 9 2 6 3 7 4 5 5 4 6 3 7 2 8 1 9 10 11 11 12 15 13 16 14
REMARK SMILES IDX 17 15 12 17 13 18 14 19
REMARK H PARENT
REMARK Flexibility Score: 70.00
ROOT
ATOM      1  C   UNL     1      16.530  28.336  43.094  1.00  0.00     0.136 C 
ATOM      2  O   UNL     1      16.721  29.485  43.463  1.00  0.00    -0.299 OA
ENDROOT
BRANCH   1   3
ATOM      3  C   UNL     1      15.146  27.955  42.594  1.00  0.00     0.053 C 
ATOM      4  C   UNL     1      14.066  28.320  43.620  1.00  0.00     0.016 C 
BRANCH   3   5
ATOM      5  C   UNL     1      14.839  28.581  41.220  1.00  0.00     0.015 C 
BRANCH   5   6
ATOM      6  C   UNL     1      14.903  27.548  40.073  1.00  0.00     0.028 C 
BRANCH   6   7
ATOM      7  C   UNL     1      15.052  26.148  40.614  1.00  0.00    -0.028 C 
ATOM      8  C   UNL     1      16.179  25.399  40.553  1.00  0.00    -0.070 CG0
ATOM      9  C   UNL     1      16.117  23.989  41.083  1.00  0.00     0.039 C 
ATOM     10  G   UNL     1      17.501  25.920  40.008  1.00  0.00     0.000 G0
ENDBRANCH   6   7
ENDBRANCH   5   6
ENDBRANCH   3   5
ENDBRANCH   1   3
BRANCH   1  11
ATOM     11  C   UNL     1      17.685  27.356  43.141  1.00  0.00     0.087 C 
BRANCH  11  12
ATOM     12  C   UNL     1      18.655  27.450  41.928  1.00  0.00     0.066 C 
BRANCH  12  13
ATOM     13  C   UNL     1      18.587  26.185  41.075  1.00  0.00     0.140 C 
ATOM     14  O   UNL     1      19.457  25.339  41.223  1.00  0.00    -0.299 OA
BRANCH  13  15
ATOM     15  C   UNL     1      17.523  25.921  40.026  1.00  0.00     0.106 CG0
ATOM     16  G   UNL     1      16.190  25.405  40.549  1.00  0.00     0.000 G0
ENDBRANCH  13  15
ENDBRANCH  12  13
BRANCH  12  17
ATOM     17  C   UNL     1      20.125  27.710  42.388  1.00  0.00    -0.006 C 
ATOM     18  C   UNL     1      20.729  28.937  41.680  1.00  0.00     0.008 C 
ATOM     19  C   UNL     1      20.230  27.916  43.910  1.00  0.00     0.008 C 
ENDBRANCH  12  17
ENDBRANCH  11  12
ENDBRANCH   1  11
TORSDOF 1
ENDMDL
MODEL 9
REMARK VINA RESULT:    -3.105      2.426      5.296
REMARK INTER + INTRA:          -4.691
REMARK INTER:                  -4.304
REMARK INTRA:                  -0.386
REMARK UNBOUND:                 0.048
REMARK SMILES CC1=CCC[C@H](C)C(=O)C[C@@H](C(C)C)C(=O)C1
REMARK SMILES IDX 8 1 9 2 6 3 7 4 5 5 4 6 3 7 2 8 1 9 10 11 11 12 15 13 16 14
REMARK SMILES IDX 17 15 12 17 13 18 14 19
REMARK H PARENT
REMARK Flexibility Score: 70.00
ROOT
ATOM      1  C   UNL     1      21.723  26.223  42.502  1.00  0.00     0.136 C 
ATOM      2  O   UNL     1      22.808  25.772  42.835  1.00  0.00    -0.299 OA
ENDROOT
BRANCH   1   3
ATOM      3  C   UNL     1      21.109  27.331  43.340  1.00  0.00     0.053 C 
ATOM      4  C   UNL     1      21.225  28.689  42.635  1.00  0.00     0.016 C 
BRANCH   3   5
ATOM      5  C   UNL     1      19.646  27.025  43.715  1.00  0.00     0.015 C 
BRANCH   5   6
ATOM      6  C   UNL     1      18.645  27.952  42.991  1.00  0.00     0.028 C 
BRANCH   6   7
ATOM      7  C   UNL     1      17.689  27.155  42.137  1.00  0.00    -0.028 C 
ATOM      8  C   UNL     1      17.717  27.086  40.785  1.00  0.00    -0.070 CG0
ATOM      9  C   UNL     1      16.632  26.295  40.098  1.00  0.00     0.039 C 
ATOM     10  G   UNL     1      18.799  27.737  39.936  1.00  0.00     0.000 G0
ENDBRANCH   6   7
ENDBRANCH   5   6
ENDBRANCH   3   5
ENDBRANCH   1   3
BRANCH   1  11
ATOM     11  C   UNL     1      21.054  25.663  41.262  1.00  0.00     0.087 C 
BRANCH  11  12
ATOM     12  C   UNL     1      21.212  26.549  39.993  1.00  0.00     0.066 C 
BRANCH  12  13
ATOM     13  C   UNL     1      19.857  26.823  39.345  1.00  0.00     0.140 C 
ATOM     14  O   UNL     1      19.608  26.287  38.275  1.00  0.00    -0.299 OA
BRANCH  13  15
ATOM     15  C   UNL     1      18.805  27.747  39.929  1.00  0.00     0.106 CG0
ATOM     16  G   UNL     1      17.722  27.077  40.762  1.00  0.00     0.000 G0
ENDBRANCH  13  15
ENDBRANCH  12  13
BRANCH  12  17
ATOM     17  C   UNL     1      22.181  25.896  38.956  1.00  0.00    -0.006 C 
ATOM     18  C   UNL     1      23.547  26.608  38.935  1.00  0.00     0.008 C 
ATOM     19  C   UNL     1      22.409  24.400  39.236  1.00  0.00     0.008 C 
ENDBRANCH  12  17
ENDBRANCH  11  12
ENDBRANCH   1  11
TORSDOF 1
ENDMDL
