MODEL 1
REMARK VINA RESULT:    -2.822      0.000      0.000
REMARK INTER + INTRA:          -3.661
REMARK INTER:                  -3.481
REMARK INTRA:                  -0.180
REMARK UNBOUND:                -0.180
REMARK SMILES CCCCCC(=O)[O-]
REMARK SMILES IDX 4 1 5 2 6 3 7 4 8 5 3 6 2 7 1 8
REMARK H PARENT
REMARK Flexibility Score: inf
ROOT
ATOM      1  C   UNL     1     -26.269  18.898 -38.485  1.00  0.00     0.006 C 
ENDROOT
BRANCH   1   2
ATOM      2  C   UNL     1     -27.582  19.093 -39.248  1.00  0.00     0.053 C 
BRANCH   2   3
ATOM      3  C   UNL     1     -27.838  20.547 -39.489  1.00  0.00     0.041 C 
ATOM      4  O   UNL     1     -26.905  21.383 -39.365  1.00  0.00    -0.550 OA
ATOM      5  O   UNL     1     -29.119  20.985 -39.802  1.00  0.00    -0.550 OA
ENDBRANCH   2   3
ENDBRANCH   1   2
BRANCH   1   6
ATOM      6  C   UNL     1     -26.528  18.340 -37.077  1.00  0.00     0.000 C 
BRANCH   6   7
ATOM      7  C   UNL     1     -25.588  18.942 -36.022  1.00  0.00    -0.003 C 
ATOM      8  C   UNL     1     -25.109  20.346 -36.388  1.00  0.00     0.004 C 
ENDBRANCH   6   7
ENDBRANCH   1   6
TORSDOF 4
ENDMDL
MODEL 2
REMARK VINA RESULT:    -2.812      9.996     10.669
REMARK INTER + INTRA:          -3.649
REMARK INTER:                  -3.544
REMARK INTRA:                  -0.105
REMARK UNBOUND:                -0.180
REMARK SMILES CCCCCC(=O)[O-]
REMARK SMILES IDX 4 1 5 2 6 3 7 4 8 5 3 6 2 7 1 8
REMARK H PARENT
REMARK Flexibility Score: inf
ROOT
ATOM      1  C   UNL     1     -24.349  25.891 -29.674  1.00  0.00     0.006 C 
ENDROOT
BRANCH   1   2
ATOM      2  C   UNL     1     -23.961  24.608 -30.413  1.00  0.00     0.053 C 
BRANCH   2   3
ATOM      3  C   UNL     1     -23.883  23.457 -29.460  1.00  0.00     0.041 C 
ATOM      4  O   UNL     1     -22.974  22.595 -29.581  1.00  0.00    -0.550 OA
ATOM      5  O   UNL     1     -24.845  23.310 -28.467  1.00  0.00    -0.550 OA
ENDBRANCH   2   3
ENDBRANCH   1   2
BRANCH   1   6
ATOM      6  C   UNL     1     -24.474  27.071 -30.650  1.00  0.00     0.000 C 
BRANCH   6   7
ATOM      7  C   UNL     1     -23.790  26.797 -31.997  1.00  0.00    -0.003 C 
ATOM      8  C   UNL     1     -24.251  27.750 -33.100  1.00  0.00     0.004 C 
ENDBRANCH   6   7
ENDBRANCH   1   6
TORSDOF 4
ENDMDL
MODEL 3
REMARK VINA RESULT:    -2.800     11.987     13.049
REMARK INTER + INTRA:          -3.635
REMARK INTER:                  -3.516
REMARK INTRA:                  -0.118
REMARK UNBOUND:                -0.180
REMARK SMILES CCCCCC(=O)[O-]
REMARK SMILES IDX 4 1 5 2 6 3 7 4 8 5 3 6 2 7 1 8
REMARK H PARENT
REMARK Flexibility Score: inf
ROOT
ATOM      1  C   UNL     1     -20.676  29.756 -41.047  1.00  0.00     0.006 C 
ENDROOT
BRANCH   1   2
ATOM      2  C   UNL     1     -20.506  30.408 -42.422  1.00  0.00     0.053 C 
BRANCH   2   3
ATOM      3  C   UNL     1     -19.519  31.530 -42.352  1.00  0.00     0.041 C 
ATOM      4  O   UNL     1     -19.441  32.240 -41.316  1.00  0.00    -0.550 OA
ATOM      5  O   UNL     1     -18.719  31.822 -43.450  1.00  0.00    -0.550 OA
ENDBRANCH   2   3
ENDBRANCH   1   2
BRANCH   1   6
ATOM      6  C   UNL     1     -22.116  29.256 -40.849  1.00  0.00     0.000 C 
BRANCH   6   7
ATOM      7  C   UNL     1     -22.920  29.242 -42.158  1.00  0.00    -0.003 C 
ATOM      8  C   UNL     1     -24.297  28.597 -42.000  1.00  0.00     0.004 C 
ENDBRANCH   6   7
ENDBRANCH   1   6
TORSDOF 4
ENDMDL
MODEL 4
REMARK VINA RESULT:    -2.797     13.112     14.175
REMARK INTER + INTRA:          -3.631
REMARK INTER:                  -3.566
REMARK INTRA:                  -0.065
REMARK UNBOUND:                -0.180
REMARK SMILES CCCCCC(=O)[O-]
REMARK SMILES IDX 4 1 5 2 6 3 7 4 8 5 3 6 2 7 1 8
REMARK H PARENT
REMARK Flexibility Score: inf
ROOT
ATOM      1  C   UNL     1     -20.646  30.860 -41.937  1.00  0.00     0.006 C 
ENDROOT
BRANCH   1   2
ATOM      2  C   UNL     1     -19.291  30.518 -42.562  1.00  0.00     0.053 C 
BRANCH   2   3
ATOM      3  C   UNL     1     -18.495  31.762 -42.804  1.00  0.00     0.041 C 
ATOM      4  O   UNL     1     -18.317  32.182 -43.977  1.00  0.00    -0.550 OA
ATOM      5  O   UNL     1     -17.909  32.430 -41.735  1.00  0.00    -0.550 OA
ENDBRANCH   2   3
ENDBRANCH   1   2
BRANCH   1   6
ATOM      6  C   UNL     1     -21.785  30.117 -42.653  1.00  0.00     0.000 C 
BRANCH   6   7
ATOM      7  C   UNL     1     -23.104  30.164 -41.868  1.00  0.00    -0.003 C 
ATOM      8  C   UNL     1     -23.588  31.590 -41.607  1.00  0.00     0.004 C 
ENDBRANCH   6   7
ENDBRANCH   1   6
TORSDOF 4
ENDMDL
MODEL 5
REMARK VINA RESULT:    -2.769     10.032     11.541
REMARK INTER + INTRA:          -3.597
REMARK INTER:                  -3.328
REMARK INTRA:                  -0.269
REMARK UNBOUND:                -0.180
REMARK SMILES CCCCCC(=O)[O-]
REMARK SMILES IDX 4 1 5 2 6 3 7 4 8 5 3 6 2 7 1 8
REMARK H PARENT
REMARK Flexibility Score: inf
ROOT
ATOM      1  C   UNL     1     -23.747  19.462 -26.193  1.00  0.00     0.006 C 
ENDROOT
BRANCH   1   2
ATOM      2  C   UNL     1     -24.520  19.971 -27.412  1.00  0.00     0.053 C 
BRANCH   2   3
ATOM      3  C   UNL     1     -23.705  19.806 -28.656  1.00  0.00     0.041 C 
ATOM      4  O   UNL     1     -22.610  20.414 -28.780  1.00  0.00    -0.550 OA
ATOM      5  O   UNL     1     -24.179  19.020 -29.699  1.00  0.00    -0.550 OA
ENDBRANCH   2   3
ENDBRANCH   1   2
BRANCH   1   6
ATOM      6  C   UNL     1     -23.714  17.926 -26.165  1.00  0.00     0.000 C 
BRANCH   6   7
ATOM      7  C   UNL     1     -22.285  17.365 -26.221  1.00  0.00    -0.003 C 
ATOM      8  C   UNL     1     -21.217  18.454 -26.115  1.00  0.00     0.004 C 
ENDBRANCH   6   7
ENDBRANCH   1   6
TORSDOF 4
ENDMDL
MODEL 6
REMARK VINA RESULT:    -2.749     10.055     10.761
REMARK INTER + INTRA:          -3.571
REMARK INTER:                  -3.494
REMARK INTRA:                  -0.077
REMARK UNBOUND:                -0.180
REMARK SMILES CCCCCC(=O)[O-]
REMARK SMILES IDX 4 1 5 2 6 3 7 4 8 5 3 6 2 7 1 8
REMARK H PARENT
REMARK Flexibility Score: inf
ROOT
ATOM      1  C   UNL     1     -24.232  24.052 -29.865  1.00  0.00     0.006 C 
ENDROOT
BRANCH   1   2
ATOM      2  C   UNL     1     -24.786  23.174 -28.739  1.00  0.00     0.053 C 
BRANCH   2   3
ATOM      3  C   UNL     1     -24.100  21.845 -28.726  1.00  0.00     0.041 C 
ATOM      4  O   UNL     1     -24.508  20.929 -27.964  1.00  0.00    -0.550 OA
ATOM      5  O   UNL     1     -22.978  21.633 -29.519  1.00  0.00    -0.550 OA
ENDBRANCH   2   3
ENDBRANCH   1   2
BRANCH   1   6
ATOM      6  C   UNL     1     -23.929  25.471 -29.357  1.00  0.00     0.000 C 
BRANCH   6   7
ATOM      7  C   UNL     1     -24.659  26.555 -30.164  1.00  0.00    -0.003 C 
ATOM      8  C   UNL     1     -24.094  26.724 -31.574  1.00  0.00     0.004 C 
ENDBRANCH   6   7
ENDBRANCH   1   6
TORSDOF 4
ENDMDL
MODEL 7
REMARK VINA RESULT:    -2.747     11.630     12.565
REMARK INTER + INTRA:          -3.569
REMARK INTER:                  -3.464
REMARK INTRA:                  -0.104
REMARK UNBOUND:                -0.180
REMARK SMILES CCCCCC(=O)[O-]
REMARK SMILES IDX 4 1 5 2 6 3 7 4 8 5 3 6 2 7 1 8
REMARK H PARENT
REMARK Flexibility Score: inf
ROOT
ATOM      1  C   UNL     1     -31.688  30.297 -34.684  1.00  0.00     0.006 C 
ENDROOT
BRANCH   1   2
ATOM      2  C   UNL     1     -30.386  30.065 -33.912  1.00  0.00     0.053 C 
BRANCH   2   3
ATOM      3  C   UNL     1     -29.505  31.272 -33.994  1.00  0.00     0.041 C 
ATOM      4  O   UNL     1     -29.126  31.851 -32.944  1.00  0.00    -0.550 OA
ATOM      5  O   UNL     1     -29.144  31.785 -35.234  1.00  0.00    -0.550 OA
ENDBRANCH   2   3
ENDBRANCH   1   2
BRANCH   1   6
ATOM      6  C   UNL     1     -32.256  28.971 -35.215  1.00  0.00     0.000 C 
BRANCH   6   7
ATOM      7  C   UNL     1     -33.750  28.802 -34.902  1.00  0.00    -0.003 C 
ATOM      8  C   UNL     1     -34.212  29.672 -33.733  1.00  0.00     0.004 C 
ENDBRANCH   6   7
ENDBRANCH   1   6
TORSDOF 4
ENDMDL
MODEL 8
REMARK VINA RESULT:    -2.731     11.023     11.900
REMARK INTER + INTRA:          -3.550
REMARK INTER:                  -3.440
REMARK INTRA:                  -0.110
REMARK UNBOUND:                -0.180
REMARK SMILES CCCCCC(=O)[O-]
REMARK SMILES IDX 4 1 5 2 6 3 7 4 8 5 3 6 2 7 1 8
REMARK H PARENT
REMARK Flexibility Score: inf
ROOT
ATOM      1  C   UNL     1     -21.787  29.245 -40.961  1.00  0.00     0.006 C 
ENDROOT
BRANCH   1   2
ATOM      2  C   UNL     1     -22.620  29.278 -42.245  1.00  0.00     0.053 C 
BRANCH   2   3
ATOM      3  C   UNL     1     -24.081  29.280 -41.922  1.00  0.00     0.041 C 
ATOM      4  O   UNL     1     -24.747  28.214 -41.993  1.00  0.00    -0.550 OA
ATOM      5  O   UNL     1     -24.718  30.470 -41.591  1.00  0.00    -0.550 OA
ENDBRANCH   2   3
ENDBRANCH   1   2
BRANCH   1   6
ATOM      6  C   UNL     1     -20.529  30.117 -41.099  1.00  0.00     0.000 C 
BRANCH   6   7
ATOM      7  C   UNL     1     -20.182  30.424 -42.564  1.00  0.00    -0.003 C 
ATOM      8  C   UNL     1     -19.114  31.508 -42.705  1.00  0.00     0.004 C 
ENDBRANCH   6   7
ENDBRANCH   1   6
TORSDOF 4
ENDMDL
MODEL 9
REMARK VINA RESULT:    -2.710      2.069      3.668
REMARK INTER + INTRA:          -3.524
REMARK INTER:                  -3.253
REMARK INTRA:                  -0.270
REMARK UNBOUND:                -0.180
REMARK SMILES CCCCCC(=O)[O-]
REMARK SMILES IDX 4 1 5 2 6 3 7 4 8 5 3 6 2 7 1 8
REMARK H PARENT
REMARK Flexibility Score: inf
ROOT
ATOM      1  C   UNL     1     -26.610  18.413 -37.020  1.00  0.00     0.006 C 
ENDROOT
BRANCH   1   2
ATOM      2  C   UNL     1     -25.513  19.012 -36.136  1.00  0.00     0.053 C 
BRANCH   2   3
ATOM      3  C   UNL     1     -25.527  20.506 -36.223  1.00  0.00     0.041 C 
ATOM      4  O   UNL     1     -26.571  21.147 -35.936  1.00  0.00    -0.550 OA
ATOM      5  O   UNL     1     -24.400  21.187 -36.668  1.00  0.00    -0.550 OA
ENDBRANCH   2   3
ENDBRANCH   1   2
BRANCH   1   6
ATOM      6  C   UNL     1     -26.366  18.744 -38.500  1.00  0.00     0.000 C 
BRANCH   6   7
ATOM      7  C   UNL     1     -27.570  19.436 -39.156  1.00  0.00    -0.003 C 
ATOM      8  C   UNL     1     -27.289  20.894 -39.519  1.00  0.00     0.004 C 
ENDBRANCH   6   7
ENDBRANCH   1   6
TORSDOF 4
ENDMDL
