MODEL 1
REMARK VINA RESULT:    -8.549      0.000      0.000
REMARK INTER + INTRA:         -16.871
REMARK INTER:                 -14.046
REMARK INTRA:                  -2.824
REMARK UNBOUND:                -2.824
REMARK SMILES C[C@H]1O[C@H](OC[C@@H]2O[C@@H](Oc3c(-c4ccc(O)c(O)c4)oc4cc(O)cc(O)c4c3=O)[C@@H](O)[C@H](O)[C@@H]2O)[C@@H](O)[C@@H](O)[C@@H]1O
REMARK SMILES IDX 7 1 36 2 34 3 32 4 9 5 8 6 6 7 5 8 4 9 1 10 2 11 42 12 3 13
REMARK SMILES IDX 40 14 38 15 43 16 41 18 39 20 37 22 35 24 10 26 11 27 12 28
REMARK SMILES IDX 30 29 21 30 29 31 31 32 22 33 27 34 23 35 26 36 24 37 13 38
REMARK SMILES IDX 20 39 14 40 18 41 15 42 16 43 19 44 17 46 28 48 25 50 33 52
REMARK H PARENT 43 17 41 19 39 21 37 23 35 25 19 45 17 47 28 49 25 51 33 53
REMARK Flexibility Score: inf
ROOT
ATOM      1  C   UNL     1      16.232 -40.884  26.091  1.00  0.00     0.180 C 
ATOM      2  C   UNL     1      15.324 -41.260  24.867  1.00  0.00     0.177 C 
ATOM      3  C   UNL     1      13.886 -40.713  25.071  1.00  0.00     0.180 C 
ATOM      4  C   UNL     1      13.399 -40.789  26.567  1.00  0.00     0.214 C 
ATOM      5  C   UNL     1      14.353 -41.657  27.377  1.00  0.00     0.339 C 
ATOM      6  O   UNL     1      15.651 -41.082  27.391  1.00  0.00    -0.332 OA
ENDROOT
BRANCH   1   7
ATOM      7  C   UNL     1      17.635 -41.591  26.110  1.00  0.00     0.198 C 
BRANCH   7   8
ATOM      8  O   UNL     1      17.934 -41.964  27.443  1.00  0.00    -0.347 OA
BRANCH   8   9
ATOM      9  C   UNL     1      18.841 -41.106  28.133  1.00  0.00     0.281 C 
ATOM     10  C   UNL     1      19.635 -37.994  28.855  1.00  0.00     0.041 C 
ATOM     11  C   UNL     1      18.333 -38.730  28.473  1.00  0.00     0.150 C 
ATOM     12  C   UNL     1      17.405 -39.037  29.700  1.00  0.00     0.174 C 
ATOM     13  O   UNL     1      18.620 -39.796  27.581  1.00  0.00    -0.344 OA
ATOM     14  C   UNL     1      17.460 -40.522  30.156  1.00  0.00     0.179 C 
ATOM     15  C   UNL     1      18.732 -41.218  29.685  1.00  0.00     0.202 C 
BRANCH  12  16
ATOM     16  O   UNL     1      16.085 -38.654  29.440  1.00  0.00    -0.388 OA
ATOM     17  H   UNL     1      16.118 -37.860  28.846  1.00  0.00     0.211 HD
ENDBRANCH  12  16
BRANCH  14  18
ATOM     18  O   UNL     1      17.385 -40.599  31.534  1.00  0.00    -0.387 OA
ATOM     19  H   UNL     1      16.449 -40.765  31.792  1.00  0.00     0.211 HD
ENDBRANCH  14  18
BRANCH  15  20
ATOM     20  O   UNL     1      19.855 -40.707  30.366  1.00  0.00    -0.385 OA
ATOM     21  H   UNL     1      19.607 -39.834  30.739  1.00  0.00     0.211 HD
ENDBRANCH  15  20
ENDBRANCH   8   9
ENDBRANCH   7   8
ENDBRANCH   1   7
BRANCH   2  22
ATOM     22  O   UNL     1      15.297 -42.657  24.701  1.00  0.00    -0.387 OA
ATOM     23  H   UNL     1      15.926 -43.050  25.370  1.00  0.00     0.211 HD
ENDBRANCH   2  22
BRANCH   3  24
ATOM     24  O   UNL     1      12.981 -41.430  24.277  1.00  0.00    -0.387 OA
ATOM     25  H   UNL     1      12.095 -41.018  24.410  1.00  0.00     0.211 HD
ENDBRANCH   3  24
BRANCH   5  26
ATOM     26  O   UNL     1      13.943 -41.855  28.753  1.00  0.00    -0.454 OA
BRANCH  26  27
ATOM     27  C   UNL     1      13.246 -43.016  29.159  1.00  0.00     0.214 A 
ATOM     28  C   UNL     1      13.787 -44.285  28.940  1.00  0.00     0.180 A 
ATOM     29  C   UNL     1      11.935 -42.942  29.721  1.00  0.00     0.239 A 
ATOM     30  O   UNL     1      12.974 -45.330  28.814  1.00  0.00    -0.452 OA
ATOM     31  C   UNL     1      11.175 -44.133  29.798  1.00  0.00     0.111 A 
ATOM     32  O   UNL     1      11.470 -41.854  30.155  1.00  0.00    -0.285 OA
ATOM     33  C   UNL     1      11.692 -45.288  29.178  1.00  0.00     0.146 A 
ATOM     34  C   UNL     1       9.898 -44.243  30.446  1.00  0.00     0.134 A 
ATOM     35  C   UNL     1      10.910 -46.440  29.045  1.00  0.00     0.094 A 
ATOM     36  C   UNL     1       9.147 -45.423  30.327  1.00  0.00     0.093 A 
ATOM     37  C   UNL     1       9.644 -46.529  29.625  1.00  0.00     0.123 A 
BRANCH  28  38
ATOM     38  C   UNL     1      15.196 -44.582  29.249  1.00  0.00     0.025 A 
ATOM     39  C   UNL     1      15.677 -44.131  30.502  1.00  0.00     0.062 A 
ATOM     40  C   UNL     1      16.084 -45.162  28.344  1.00  0.00     0.016 A 
ATOM     41  C   UNL     1      17.038 -44.207  30.812  1.00  0.00     0.158 A 
ATOM     42  C   UNL     1      17.450 -45.273  28.674  1.00  0.00     0.051 A 
ATOM     43  C   UNL     1      17.934 -44.762  29.893  1.00  0.00     0.157 A 
BRANCH  41  44
ATOM     44  O   UNL     1      17.493 -43.655  32.006  1.00  0.00    -0.504 OA
ATOM     45  H   UNL     1      18.466 -43.729  32.266  1.00  0.00     0.293 HD
ENDBRANCH  41  44
BRANCH  43  46
ATOM     46  O   UNL     1      19.297 -44.864  30.194  1.00  0.00    -0.504 OA
ATOM     47  H   UNL     1      19.647 -44.858  31.159  1.00  0.00     0.293 HD
ENDBRANCH  43  46
ENDBRANCH  28  38
BRANCH  34  48
ATOM     48  O   UNL     1       9.367 -43.227  31.256  1.00  0.00    -0.507 OA
ATOM     49  H   UNL     1       9.442 -43.198  32.271  1.00  0.00     0.293 HD
ENDBRANCH  34  48
BRANCH  37  50
ATOM     50  O   UNL     1       8.913 -47.715  29.540  1.00  0.00    -0.508 OA
ATOM     51  H   UNL     1       9.356 -48.604  29.797  1.00  0.00     0.293 HD
ENDBRANCH  37  50
ENDBRANCH  26  27
ENDBRANCH   5  26
BRANCH   4  52
ATOM     52  O   UNL     1      13.371 -39.487  27.130  1.00  0.00    -0.384 OA
ATOM     53  H   UNL     1      14.293 -39.092  27.062  1.00  0.00     0.211 HD
ENDBRANCH   4  52
TORSDOF 16
ENDMDL
MODEL 2
REMARK VINA RESULT:    -8.031      1.999      6.604
REMARK INTER + INTRA:         -16.019
REMARK INTER:                 -12.679
REMARK INTRA:                  -3.341
REMARK UNBOUND:                -2.824
REMARK SMILES C[C@H]1O[C@H](OC[C@@H]2O[C@@H](Oc3c(-c4ccc(O)c(O)c4)oc4cc(O)cc(O)c4c3=O)[C@@H](O)[C@H](O)[C@@H]2O)[C@@H](O)[C@@H](O)[C@@H]1O
REMARK SMILES IDX 7 1 36 2 34 3 32 4 9 5 8 6 6 7 5 8 4 9 1 10 2 11 42 12 3 13
REMARK SMILES IDX 40 14 38 15 43 16 41 18 39 20 37 22 35 24 10 26 11 27 12 28
REMARK SMILES IDX 30 29 21 30 29 31 31 32 22 33 27 34 23 35 26 36 24 37 13 38
REMARK SMILES IDX 20 39 14 40 18 41 15 42 16 43 19 44 17 46 28 48 25 50 33 52
REMARK H PARENT 43 17 41 19 39 21 37 23 35 25 19 45 17 47 28 49 25 51 33 53
REMARK Flexibility Score: inf
ROOT
ATOM      1  C   UNL     1      12.298 -42.504  28.979  1.00  0.00     0.180 C 
ATOM      2  C   UNL     1      11.392 -43.406  28.067  1.00  0.00     0.177 C 
ATOM      3  C   UNL     1      11.600 -44.904  28.409  1.00  0.00     0.180 C 
ATOM      4  C   UNL     1      13.092 -45.258  28.770  1.00  0.00     0.214 C 
ATOM      5  C   UNL     1      14.002 -44.096  28.397  1.00  0.00     0.339 C 
ATOM      6  O   UNL     1      13.657 -42.940  29.144  1.00  0.00    -0.332 OA
ENDROOT
BRANCH   1   7
ATOM      7  C   UNL     1      12.355 -40.992  28.558  1.00  0.00     0.198 C 
BRANCH   7   8
ATOM      8  O   UNL     1      13.530 -40.781  27.795  1.00  0.00    -0.347 OA
BRANCH   8   9
ATOM      9  C   UNL     1      13.477 -39.693  26.874  1.00  0.00     0.281 C 
ATOM     10  C   UNL     1      15.189 -37.787  24.805  1.00  0.00     0.041 C 
ATOM     11  C   UNL     1      15.348 -39.220  25.358  1.00  0.00     0.150 C 
ATOM     12  C   UNL     1      14.897 -40.334  24.350  1.00  0.00     0.174 C 
ATOM     13  O   UNL     1      14.845 -39.288  26.683  1.00  0.00    -0.344 OA
ATOM     14  C   UNL     1      13.511 -40.948  24.692  1.00  0.00     0.179 C 
ATOM     15  C   UNL     1      12.679 -40.025  25.576  1.00  0.00     0.202 C 
BRANCH  12  16
ATOM     16  O   UNL     1      15.865 -41.338  24.246  1.00  0.00    -0.388 OA
ATOM     17  H   UNL     1      15.682 -42.003  24.960  1.00  0.00     0.211 HD
ENDBRANCH  12  16
BRANCH  14  18
ATOM     18  O   UNL     1      12.811 -41.215  23.530  1.00  0.00    -0.387 OA
ATOM     19  H   UNL     1      13.426 -41.620  22.875  1.00  0.00     0.211 HD
ENDBRANCH  14  18
BRANCH  15  20
ATOM     20  O   UNL     1      12.275 -38.885  24.855  1.00  0.00    -0.385 OA
ATOM     21  H   UNL     1      11.438 -38.560  25.253  1.00  0.00     0.211 HD
ENDBRANCH  15  20
ENDBRANCH   8   9
ENDBRANCH   7   8
ENDBRANCH   1   7
BRANCH   2  22
ATOM     22  O   UNL     1      11.690 -43.168  26.712  1.00  0.00    -0.387 OA
ATOM     23  H   UNL     1      11.750 -42.179  26.588  1.00  0.00     0.211 HD
ENDBRANCH   2  22
BRANCH   3  24
ATOM     24  O   UNL     1      11.207 -45.705  27.328  1.00  0.00    -0.387 OA
ATOM     25  H   UNL     1      10.375 -46.161  27.598  1.00  0.00     0.211 HD
ENDBRANCH   3  24
BRANCH   5  26
ATOM     26  O   UNL     1      15.411 -44.359  28.616  1.00  0.00    -0.454 OA
BRANCH  26  27
ATOM     27  C   UNL     1      16.354 -43.311  28.716  1.00  0.00     0.214 A 
ATOM     28  C   UNL     1      16.719 -42.798  29.963  1.00  0.00     0.180 A 
ATOM     29  C   UNL     1      16.898 -42.681  27.556  1.00  0.00     0.239 A 
ATOM     30  O   UNL     1      17.146 -41.541  30.054  1.00  0.00    -0.452 OA
ATOM     31  C   UNL     1      17.568 -41.445  27.720  1.00  0.00     0.111 A 
ATOM     32  O   UNL     1      16.802 -43.214  26.417  1.00  0.00    -0.285 OA
ATOM     33  C   UNL     1      17.527 -40.836  28.989  1.00  0.00     0.146 A 
ATOM     34  C   UNL     1      18.272 -40.756  26.674  1.00  0.00     0.134 A 
ATOM     35  C   UNL     1      17.995 -39.531  29.171  1.00  0.00     0.094 A 
ATOM     36  C   UNL     1      18.763 -39.460  26.893  1.00  0.00     0.093 A 
ATOM     37  C   UNL     1      18.628 -38.835  28.140  1.00  0.00     0.123 A 
BRANCH  28  38
ATOM     38  C   UNL     1      17.042 -43.685  31.093  1.00  0.00     0.025 A 
ATOM     39  C   UNL     1      18.403 -44.045  31.244  1.00  0.00     0.062 A 
ATOM     40  C   UNL     1      16.084 -44.267  31.923  1.00  0.00     0.016 A 
ATOM     41  C   UNL     1      18.784 -45.019  32.173  1.00  0.00     0.158 A 
ATOM     42  C   UNL     1      16.474 -45.220  32.884  1.00  0.00     0.051 A 
ATOM     43  C   UNL     1      17.819 -45.624  32.985  1.00  0.00     0.157 A 
BRANCH  41  44
ATOM     44  O   UNL     1      20.113 -45.429  32.219  1.00  0.00    -0.504 OA
ATOM     45  H   UNL     1      20.740 -45.053  32.916  1.00  0.00     0.293 HD
ENDBRANCH  41  44
BRANCH  43  46
ATOM     46  O   UNL     1      18.183 -46.587  33.933  1.00  0.00    -0.504 OA
ATOM     47  H   UNL     1      19.110 -47.028  33.938  1.00  0.00     0.293 HD
ENDBRANCH  43  46
ENDBRANCH  28  38
BRANCH  34  48
ATOM     48  O   UNL     1      18.546 -41.341  25.428  1.00  0.00    -0.507 OA
ATOM     49  H   UNL     1      18.265 -40.950  24.531  1.00  0.00     0.293 HD
ENDBRANCH  34  48
BRANCH  37  50
ATOM     50  O   UNL     1      19.151 -37.562  28.367  1.00  0.00    -0.508 OA
ATOM     51  H   UNL     1      20.131 -37.459  28.654  1.00  0.00     0.293 HD
ENDBRANCH  37  50
ENDBRANCH  26  27
ENDBRANCH   5  26
BRANCH   4  52
ATOM     52  O   UNL     1      13.205 -45.503  30.163  1.00  0.00    -0.384 OA
ATOM     53  H   UNL     1      12.822 -46.412  30.358  1.00  0.00     0.211 HD
ENDBRANCH   4  52
TORSDOF 16
ENDMDL
MODEL 3
REMARK VINA RESULT:    -7.978      2.228      5.937
REMARK INTER + INTRA:         -15.933
REMARK INTER:                 -13.105
REMARK INTRA:                  -2.829
REMARK UNBOUND:                -2.824
REMARK SMILES C[C@H]1O[C@H](OC[C@@H]2O[C@@H](Oc3c(-c4ccc(O)c(O)c4)oc4cc(O)cc(O)c4c3=O)[C@@H](O)[C@H](O)[C@@H]2O)[C@@H](O)[C@@H](O)[C@@H]1O
REMARK SMILES IDX 7 1 36 2 34 3 32 4 9 5 8 6 6 7 5 8 4 9 1 10 2 11 42 12 3 13
REMARK SMILES IDX 40 14 38 15 43 16 41 18 39 20 37 22 35 24 10 26 11 27 12 28
REMARK SMILES IDX 30 29 21 30 29 31 31 32 22 33 27 34 23 35 26 36 24 37 13 38
REMARK SMILES IDX 20 39 14 40 18 41 15 42 16 43 19 44 17 46 28 48 25 50 33 52
REMARK H PARENT 43 17 41 19 39 21 37 23 35 25 19 45 17 47 28 49 25 51 33 53
REMARK Flexibility Score: inf
ROOT
ATOM      1  C   UNL     1      16.889 -40.976  28.094  1.00  0.00     0.180 C 
ATOM      2  C   UNL     1      18.161 -41.777  27.644  1.00  0.00     0.177 C 
ATOM      3  C   UNL     1      18.255 -41.820  26.096  1.00  0.00     0.180 C 
ATOM      4  C   UNL     1      16.852 -41.953  25.392  1.00  0.00     0.214 C 
ATOM      5  C   UNL     1      15.789 -42.309  26.423  1.00  0.00     0.339 C 
ATOM      6  O   UNL     1      15.673 -41.274  27.388  1.00  0.00    -0.332 OA
ENDROOT
BRANCH   1   7
ATOM      7  C   UNL     1      16.558 -41.075  29.627  1.00  0.00     0.198 C 
BRANCH   7   8
ATOM      8  O   UNL     1      15.420 -41.901  29.790  1.00  0.00    -0.347 OA
BRANCH   8   9
ATOM      9  C   UNL     1      15.678 -43.212  30.291  1.00  0.00     0.281 C 
ATOM     10  C   UNL     1      17.520 -45.042  32.315  1.00  0.00     0.041 C 
ATOM     11  C   UNL     1      17.089 -43.561  32.268  1.00  0.00     0.150 C 
ATOM     12  C   UNL     1      15.912 -43.220  33.248  1.00  0.00     0.174 C 
ATOM     13  O   UNL     1      16.969 -43.131  30.921  1.00  0.00    -0.344 OA
ATOM     14  C   UNL     1      14.540 -43.069  32.532  1.00  0.00     0.179 C 
ATOM     15  C   UNL     1      14.522 -43.769  31.178  1.00  0.00     0.202 C 
BRANCH  12  16
ATOM     16  O   UNL     1      16.200 -42.076  33.999  1.00  0.00    -0.388 OA
ATOM     17  H   UNL     1      15.435 -41.924  34.614  1.00  0.00     0.211 HD
ENDBRANCH  12  16
BRANCH  14  18
ATOM     18  O   UNL     1      13.533 -43.589  33.324  1.00  0.00    -0.387 OA
ATOM     19  H   UNL     1      12.682 -43.529  32.833  1.00  0.00     0.211 HD
ENDBRANCH  14  18
BRANCH  15  20
ATOM     20  O   UNL     1      14.564 -45.167  31.344  1.00  0.00    -0.385 OA
ATOM     21  H   UNL     1      14.405 -45.360  32.293  1.00  0.00     0.211 HD
ENDBRANCH  15  20
ENDBRANCH   8   9
ENDBRANCH   7   8
ENDBRANCH   1   7
BRANCH   2  22
ATOM     22  O   UNL     1      18.115 -43.083  28.168  1.00  0.00    -0.387 OA
ATOM     23  H   UNL     1      18.337 -43.711  27.425  1.00  0.00     0.211 HD
ENDBRANCH   2  22
BRANCH   3  24
ATOM     24  O   UNL     1      19.055 -42.897  25.691  1.00  0.00    -0.387 OA
ATOM     25  H   UNL     1      19.749 -43.014  26.382  1.00  0.00     0.211 HD
ENDBRANCH   3  24
BRANCH   5  26
ATOM     26  O   UNL     1      14.474 -42.534  25.858  1.00  0.00    -0.454 OA
BRANCH  26  27
ATOM     27  C   UNL     1      13.298 -42.373  26.627  1.00  0.00     0.214 A 
ATOM     28  C   UNL     1      12.461 -41.273  26.427  1.00  0.00     0.180 A 
ATOM     29  C   UNL     1      12.972 -43.270  27.690  1.00  0.00     0.239 A 
ATOM     30  O   UNL     1      11.707 -40.834  27.431  1.00  0.00    -0.452 OA
ATOM     31  C   UNL     1      11.978 -42.873  28.616  1.00  0.00     0.111 A 
ATOM     32  O   UNL     1      13.536 -44.393  27.794  1.00  0.00    -0.285 OA
ATOM     33  C   UNL     1      11.481 -41.559  28.527  1.00  0.00     0.146 A 
ATOM     34  C   UNL     1      11.455 -43.712  29.658  1.00  0.00     0.134 A 
ATOM     35  C   UNL     1      10.649 -41.039  29.524  1.00  0.00     0.094 A 
ATOM     36  C   UNL     1      10.593 -43.176  30.627  1.00  0.00     0.093 A 
ATOM     37  C   UNL     1      10.185 -41.837  30.571  1.00  0.00     0.123 A 
BRANCH  28  38
ATOM     38  C   UNL     1      12.069 -40.844  25.074  1.00  0.00     0.025 A 
ATOM     39  C   UNL     1      12.888 -39.866  24.459  1.00  0.00     0.062 A 
ATOM     40  C   UNL     1      10.897 -41.254  24.438  1.00  0.00     0.016 A 
ATOM     41  C   UNL     1      12.501 -39.268  23.255  1.00  0.00     0.158 A 
ATOM     42  C   UNL     1      10.529 -40.677  23.206  1.00  0.00     0.051 A 
ATOM     43  C   UNL     1      11.312 -39.657  22.633  1.00  0.00     0.157 A 
BRANCH  41  44
ATOM     44  O   UNL     1      13.272 -38.233  22.735  1.00  0.00    -0.504 OA
ATOM     45  H   UNL     1      13.129 -37.282  23.046  1.00  0.00     0.293 HD
ENDBRANCH  41  44
BRANCH  43  46
ATOM     46  O   UNL     1      10.918 -39.084  21.418  1.00  0.00    -0.504 OA
ATOM     47  H   UNL     1      10.375 -38.214  21.374  1.00  0.00     0.293 HD
ENDBRANCH  43  46
ENDBRANCH  28  38
BRANCH  34  48
ATOM     48  O   UNL     1      11.725 -45.088  29.734  1.00  0.00    -0.507 OA
ATOM     49  H   UNL     1      11.107 -45.818  29.388  1.00  0.00     0.293 HD
ENDBRANCH  34  48
BRANCH  37  50
ATOM     50  O   UNL     1       9.298 -41.315  31.514  1.00  0.00    -0.508 OA
ATOM     51  H   UNL     1       9.276 -41.707  32.461  1.00  0.00     0.293 HD
ENDBRANCH  37  50
ENDBRANCH  26  27
ENDBRANCH   5  26
BRANCH   4  52
ATOM     52  O   UNL     1      16.503 -40.723  24.777  1.00  0.00    -0.384 OA
ATOM     53  H   UNL     1      15.562 -40.796  24.433  1.00  0.00     0.211 HD
ENDBRANCH   4  52
TORSDOF 16
ENDMDL
MODEL 4
REMARK VINA RESULT:    -7.957      2.179      7.400
REMARK INTER + INTRA:         -15.898
REMARK INTER:                 -12.592
REMARK INTRA:                  -3.305
REMARK UNBOUND:                -2.824
REMARK SMILES C[C@H]1O[C@H](OC[C@@H]2O[C@@H](Oc3c(-c4ccc(O)c(O)c4)oc4cc(O)cc(O)c4c3=O)[C@@H](O)[C@H](O)[C@@H]2O)[C@@H](O)[C@@H](O)[C@@H]1O
REMARK SMILES IDX 7 1 36 2 34 3 32 4 9 5 8 6 6 7 5 8 4 9 1 10 2 11 42 12 3 13
REMARK SMILES IDX 40 14 38 15 43 16 41 18 39 20 37 22 35 24 10 26 11 27 12 28
REMARK SMILES IDX 30 29 21 30 29 31 31 32 22 33 27 34 23 35 26 36 24 37 13 38
REMARK SMILES IDX 20 39 14 40 18 41 15 42 16 43 19 44 17 46 28 48 25 50 33 52
REMARK H PARENT 43 17 41 19 39 21 37 23 35 25 19 45 17 47 28 49 25 51 33 53
REMARK Flexibility Score: inf
ROOT
ATOM      1  C   UNL     1      13.422 -43.092  32.125  1.00  0.00     0.180 C 
ATOM      2  C   UNL     1      14.302 -44.373  32.351  1.00  0.00     0.177 C 
ATOM      3  C   UNL     1      15.627 -44.001  33.066  1.00  0.00     0.180 C 
ATOM      4  C   UNL     1      16.215 -42.614  32.602  1.00  0.00     0.214 C 
ATOM      5  C   UNL     1      15.489 -42.138  31.352  1.00  0.00     0.339 C 
ATOM      6  O   UNL     1      14.112 -41.933  31.630  1.00  0.00    -0.332 OA
ENDROOT
BRANCH   1   7
ATOM      7  C   UNL     1      12.174 -43.308  31.194  1.00  0.00     0.198 C 
BRANCH   7   8
ATOM      8  O   UNL     1      12.632 -43.571  29.880  1.00  0.00    -0.347 OA
BRANCH   8   9
ATOM      9  C   UNL     1      11.615 -43.828  28.914  1.00  0.00     0.281 C 
ATOM     10  C   UNL     1       9.040 -42.597  27.273  1.00  0.00     0.041 C 
ATOM     11  C   UNL     1      10.302 -42.001  27.934  1.00  0.00     0.150 C 
ATOM     12  C   UNL     1      11.437 -41.647  26.912  1.00  0.00     0.174 C 
ATOM     13  O   UNL     1      10.658 -42.766  29.076  1.00  0.00    -0.344 OA
ATOM     14  C   UNL     1      12.601 -42.678  26.904  1.00  0.00     0.179 C 
ATOM     15  C   UNL     1      12.173 -44.027  27.472  1.00  0.00     0.202 C 
BRANCH  12  16
ATOM     16  O   UNL     1      11.929 -40.357  27.136  1.00  0.00    -0.388 OA
ATOM     17  H   UNL     1      12.835 -40.448  27.532  1.00  0.00     0.211 HD
ENDBRANCH  12  16
BRANCH  14  18
ATOM     18  O   UNL     1      13.066 -42.856  25.614  1.00  0.00    -0.387 OA
ATOM     19  H   UNL     1      14.050 -42.823  25.625  1.00  0.00     0.211 HD
ENDBRANCH  14  18
BRANCH  15  20
ATOM     20  O   UNL     1      11.269 -44.665  26.600  1.00  0.00    -0.385 OA
ATOM     21  H   UNL     1      10.543 -44.033  26.408  1.00  0.00     0.211 HD
ENDBRANCH  15  20
ENDBRANCH   8   9
ENDBRANCH   7   8
ENDBRANCH   1   7
BRANCH   2  22
ATOM     22  O   UNL     1      14.570 -44.993  31.116  1.00  0.00    -0.387 OA
ATOM     23  H   UNL     1      14.311 -45.954  31.201  1.00  0.00     0.211 HD
ENDBRANCH   2  22
BRANCH   3  24
ATOM     24  O   UNL     1      16.594 -44.988  32.835  1.00  0.00    -0.387 OA
ATOM     25  H   UNL     1      16.882 -44.892  31.897  1.00  0.00     0.211 HD
ENDBRANCH   3  24
BRANCH   5  26
ATOM     26  O   UNL     1      16.016 -40.907  30.799  1.00  0.00    -0.454 OA
BRANCH  26  27
ATOM     27  C   UNL     1      16.593 -40.860  29.509  1.00  0.00     0.214 A 
ATOM     28  C   UNL     1      17.963 -41.071  29.333  1.00  0.00     0.180 A 
ATOM     29  C   UNL     1      15.824 -40.508  28.358  1.00  0.00     0.239 A 
ATOM     30  O   UNL     1      18.580 -40.526  28.288  1.00  0.00    -0.452 OA
ATOM     31  C   UNL     1      16.516 -40.163  27.173  1.00  0.00     0.111 A 
ATOM     32  O   UNL     1      14.563 -40.522  28.386  1.00  0.00    -0.285 OA
ATOM     33  C   UNL     1      17.917 -40.037  27.240  1.00  0.00     0.146 A 
ATOM     34  C   UNL     1      15.886 -39.909  25.907  1.00  0.00     0.134 A 
ATOM     35  C   UNL     1      18.640 -39.509  26.166  1.00  0.00     0.094 A 
ATOM     36  C   UNL     1      16.641 -39.413  24.833  1.00  0.00     0.093 A 
ATOM     37  C   UNL     1      18.021 -39.207  24.952  1.00  0.00     0.123 A 
BRANCH  28  38
ATOM     38  C   UNL     1      18.658 -42.185  30.000  1.00  0.00     0.025 A 
ATOM     39  C   UNL     1      18.195 -43.489  29.703  1.00  0.00     0.062 A 
ATOM     40  C   UNL     1      19.642 -42.013  30.975  1.00  0.00     0.016 A 
ATOM     41  C   UNL     1      18.670 -44.594  30.417  1.00  0.00     0.158 A 
ATOM     42  C   UNL     1      20.147 -43.132  31.666  1.00  0.00     0.051 A 
ATOM     43  C   UNL     1      19.635 -44.419  31.414  1.00  0.00     0.157 A 
BRANCH  41  44
ATOM     44  O   UNL     1      18.114 -45.846  30.176  1.00  0.00    -0.504 OA
ATOM     45  H   UNL     1      17.412 -45.964  29.459  1.00  0.00     0.293 HD
ENDBRANCH  41  44
BRANCH  43  46
ATOM     46  O   UNL     1      20.136 -45.515  32.125  1.00  0.00    -0.504 OA
ATOM     47  H   UNL     1      21.074 -45.514  32.544  1.00  0.00     0.293 HD
ENDBRANCH  43  46
ENDBRANCH  28  38
BRANCH  34  48
ATOM     48  O   UNL     1      14.531 -40.184  25.663  1.00  0.00    -0.507 OA
ATOM     49  H   UNL     1      13.887 -39.549  25.197  1.00  0.00     0.293 HD
ENDBRANCH  34  48
BRANCH  37  50
ATOM     50  O   UNL     1      18.776 -38.750  23.871  1.00  0.00    -0.508 OA
ATOM     51  H   UNL     1      18.302 -38.372  23.044  1.00  0.00     0.293 HD
ENDBRANCH  37  50
ENDBRANCH  26  27
ENDBRANCH   5  26
BRANCH   4  52
ATOM     52  O   UNL     1      16.044 -41.651  33.629  1.00  0.00    -0.384 OA
ATOM     53  H   UNL     1      15.875 -42.135  34.494  1.00  0.00     0.211 HD
ENDBRANCH   4  52
TORSDOF 16
ENDMDL
MODEL 5
REMARK VINA RESULT:    -7.941      1.797      5.889
REMARK INTER + INTRA:         -15.871
REMARK INTER:                 -12.965
REMARK INTRA:                  -2.906
REMARK UNBOUND:                -2.824
REMARK SMILES C[C@H]1O[C@H](OC[C@@H]2O[C@@H](Oc3c(-c4ccc(O)c(O)c4)oc4cc(O)cc(O)c4c3=O)[C@@H](O)[C@H](O)[C@@H]2O)[C@@H](O)[C@@H](O)[C@@H]1O
REMARK SMILES IDX 7 1 36 2 34 3 32 4 9 5 8 6 6 7 5 8 4 9 1 10 2 11 42 12 3 13
REMARK SMILES IDX 40 14 38 15 43 16 41 18 39 20 37 22 35 24 10 26 11 27 12 28
REMARK SMILES IDX 30 29 21 30 29 31 31 32 22 33 27 34 23 35 26 36 24 37 13 38
REMARK SMILES IDX 20 39 14 40 18 41 15 42 16 43 19 44 17 46 28 48 25 50 33 52
REMARK H PARENT 43 17 41 19 39 21 37 23 35 25 19 45 17 47 28 49 25 51 33 53
REMARK Flexibility Score: inf
ROOT
ATOM      1  C   UNL     1      16.614 -43.838  30.594  1.00  0.00     0.180 C 
ATOM      2  C   UNL     1      15.558 -43.345  31.646  1.00  0.00     0.177 C 
ATOM      3  C   UNL     1      14.252 -44.176  31.532  1.00  0.00     0.180 C 
ATOM      4  C   UNL     1      13.886 -44.558  30.048  1.00  0.00     0.214 C 
ATOM      5  C   UNL     1      14.748 -43.756  29.082  1.00  0.00     0.339 C 
ATOM      6  O   UNL     1      16.119 -44.073  29.266  1.00  0.00    -0.332 OA
ENDROOT
BRANCH   1   7
ATOM      7  C   UNL     1      17.878 -42.915  30.450  1.00  0.00     0.198 C 
BRANCH   7   8
ATOM      8  O   UNL     1      17.639 -41.983  29.411  1.00  0.00    -0.347 OA
BRANCH   8   9
ATOM      9  C   UNL     1      17.953 -40.626  29.718  1.00  0.00     0.281 C 
ATOM     10  C   UNL     1      19.640 -37.947  28.814  1.00  0.00     0.041 C 
ATOM     11  C   UNL     1      19.066 -39.178  28.079  1.00  0.00     0.150 C 
ATOM     12  C   UNL     1      17.722 -38.887  27.327  1.00  0.00     0.174 C 
ATOM     13  O   UNL     1      19.114 -40.316  28.927  1.00  0.00    -0.344 OA
ATOM     14  C   UNL     1      16.470 -39.436  28.068  1.00  0.00     0.179 C 
ATOM     15  C   UNL     1      16.739 -39.662  29.552  1.00  0.00     0.202 C 
BRANCH  12  16
ATOM     16  O   UNL     1      17.765 -39.373  26.016  1.00  0.00    -0.388 OA
ATOM     17  H   UNL     1      18.046 -38.623  25.429  1.00  0.00     0.211 HD
ENDBRANCH  12  16
BRANCH  14  18
ATOM     18  O   UNL     1      15.412 -38.557  27.927  1.00  0.00    -0.387 OA
ATOM     19  H   UNL     1      14.570 -39.052  28.051  1.00  0.00     0.211 HD
ENDBRANCH  14  18
BRANCH  15  20
ATOM     20  O   UNL     1      16.902 -38.431  30.217  1.00  0.00    -0.385 OA
ATOM     21  H   UNL     1      16.421 -37.747  29.703  1.00  0.00     0.211 HD
ENDBRANCH  15  20
ENDBRANCH   8   9
ENDBRANCH   7   8
ENDBRANCH   1   7
BRANCH   2  22
ATOM     22  O   UNL     1      15.287 -41.979  31.448  1.00  0.00    -0.387 OA
ATOM     23  H   UNL     1      15.619 -41.736  30.538  1.00  0.00     0.211 HD
ENDBRANCH   2  22
BRANCH   3  24
ATOM     24  O   UNL     1      13.178 -43.463  32.081  1.00  0.00    -0.387 OA
ATOM     25  H   UNL     1      12.810 -44.016  32.809  1.00  0.00     0.211 HD
ENDBRANCH   3  24
BRANCH   5  26
ATOM     26  O   UNL     1      14.427 -43.978  27.686  1.00  0.00    -0.454 OA
BRANCH  26  27
ATOM     27  C   UNL     1      13.667 -43.046  26.942  1.00  0.00     0.214 A 
ATOM     28  C   UNL     1      12.290 -43.218  26.780  1.00  0.00     0.180 A 
ATOM     29  C   UNL     1      14.284 -41.955  26.258  1.00  0.00     0.239 A 
ATOM     30  O   UNL     1      11.689 -42.707  25.709  1.00  0.00    -0.452 OA
ATOM     31  C   UNL     1      13.527 -41.266  25.281  1.00  0.00     0.111 A 
ATOM     32  O   UNL     1      15.464 -41.599  26.526  1.00  0.00    -0.285 OA
ATOM     33  C   UNL     1      12.267 -41.791  24.932  1.00  0.00     0.146 A 
ATOM     34  C   UNL     1      13.962 -40.078  24.602  1.00  0.00     0.134 A 
ATOM     35  C   UNL     1      11.556 -41.279  23.842  1.00  0.00     0.094 A 
ATOM     36  C   UNL     1      13.212 -39.563  23.533  1.00  0.00     0.093 A 
ATOM     37  C   UNL     1      12.006 -40.158  23.142  1.00  0.00     0.123 A 
BRANCH  28  38
ATOM     38  C   UNL     1      11.422 -43.567  27.917  1.00  0.00     0.025 A 
ATOM     39  C   UNL     1      11.259 -42.576  28.916  1.00  0.00     0.062 A 
ATOM     40  C   UNL     1      10.868 -44.832  28.112  1.00  0.00     0.016 A 
ATOM     41  C   UNL     1      10.602 -42.874  30.114  1.00  0.00     0.158 A 
ATOM     42  C   UNL     1      10.173 -45.118  29.303  1.00  0.00     0.051 A 
ATOM     43  C   UNL     1      10.071 -44.151  30.321  1.00  0.00     0.157 A 
BRANCH  41  44
ATOM     44  O   UNL     1      10.555 -41.911  31.118  1.00  0.00    -0.504 OA
ATOM     45  H   UNL     1      11.408 -41.507  31.478  1.00  0.00     0.293 HD
ENDBRANCH  41  44
BRANCH  43  46
ATOM     46  O   UNL     1       9.394 -44.461  31.506  1.00  0.00    -0.504 OA
ATOM     47  H   UNL     1       9.725 -44.146  32.425  1.00  0.00     0.293 HD
ENDBRANCH  43  46
ENDBRANCH  28  38
BRANCH  34  48
ATOM     48  O   UNL     1      15.101 -39.355  24.990  1.00  0.00    -0.507 OA
ATOM     49  H   UNL     1      15.965 -39.774  25.327  1.00  0.00     0.293 HD
ENDBRANCH  34  48
BRANCH  37  50
ATOM     50  O   UNL     1      11.242 -39.623  22.105  1.00  0.00    -0.508 OA
ATOM     51  H   UNL     1      11.366 -38.640  21.839  1.00  0.00     0.293 HD
ENDBRANCH  37  50
ENDBRANCH  26  27
ENDBRANCH   5  26
BRANCH   4  52
ATOM     52  O   UNL     1      14.120 -45.941  29.835  1.00  0.00    -0.384 OA
ATOM     53  H   UNL     1      13.288 -46.347  29.444  1.00  0.00     0.211 HD
ENDBRANCH   4  52
TORSDOF 16
ENDMDL
MODEL 6
REMARK VINA RESULT:    -7.911      2.113      5.934
REMARK INTER + INTRA:         -15.823
REMARK INTER:                 -13.383
REMARK INTRA:                  -2.440
REMARK UNBOUND:                -2.824
REMARK SMILES C[C@H]1O[C@H](OC[C@@H]2O[C@@H](Oc3c(-c4ccc(O)c(O)c4)oc4cc(O)cc(O)c4c3=O)[C@@H](O)[C@H](O)[C@@H]2O)[C@@H](O)[C@@H](O)[C@@H]1O
REMARK SMILES IDX 7 1 36 2 34 3 32 4 9 5 8 6 6 7 5 8 4 9 1 10 2 11 42 12 3 13
REMARK SMILES IDX 40 14 38 15 43 16 41 18 39 20 37 22 35 24 10 26 11 27 12 28
REMARK SMILES IDX 30 29 21 30 29 31 31 32 22 33 27 34 23 35 26 36 24 37 13 38
REMARK SMILES IDX 20 39 14 40 18 41 15 42 16 43 19 44 17 46 28 48 25 50 33 52
REMARK H PARENT 43 17 41 19 39 21 37 23 35 25 19 45 17 47 28 49 25 51 33 53
REMARK Flexibility Score: inf
ROOT
ATOM      1  C   UNL     1      16.937 -40.996  28.062  1.00  0.00     0.180 C 
ATOM      2  C   UNL     1      18.193 -41.817  27.602  1.00  0.00     0.177 C 
ATOM      3  C   UNL     1      18.299 -41.823  26.054  1.00  0.00     0.180 C 
ATOM      4  C   UNL     1      16.898 -41.904  25.336  1.00  0.00     0.214 C 
ATOM      5  C   UNL     1      15.819 -42.259  26.349  1.00  0.00     0.339 C 
ATOM      6  O   UNL     1      15.720 -41.246  27.339  1.00  0.00    -0.332 OA
ENDROOT
BRANCH   1   7
ATOM      7  C   UNL     1      16.591 -41.125  29.589  1.00  0.00     0.198 C 
BRANCH   7   8
ATOM      8  O   UNL     1      17.775 -41.451  30.293  1.00  0.00    -0.347 OA
BRANCH   8   9
ATOM      9  C   UNL     1      17.594 -42.230  31.475  1.00  0.00     0.281 C 
ATOM     10  C   UNL     1      16.166 -44.886  32.795  1.00  0.00     0.041 C 
ATOM     11  C   UNL     1      16.615 -44.478  31.376  1.00  0.00     0.150 C 
ATOM     12  C   UNL     1      17.977 -45.122  30.941  1.00  0.00     0.174 C 
ATOM     13  O   UNL     1      16.463 -43.078  31.202  1.00  0.00    -0.344 OA
ATOM     14  C   UNL     1      19.174 -44.133  31.007  1.00  0.00     0.179 C 
ATOM     15  C   UNL     1      18.894 -42.957  31.936  1.00  0.00     0.202 C 
BRANCH  12  16
ATOM     16  O   UNL     1      17.880 -45.688  29.665  1.00  0.00    -0.388 OA
ATOM     17  H   UNL     1      18.555 -46.414  29.610  1.00  0.00     0.211 HD
ENDBRANCH  12  16
BRANCH  14  18
ATOM     18  O   UNL     1      20.310 -44.792  31.439  1.00  0.00    -0.387 OA
ATOM     19  H   UNL     1      20.684 -44.306  32.210  1.00  0.00     0.211 HD
ENDBRANCH  14  18
BRANCH  15  20
ATOM     20  O   UNL     1      18.852 -43.388  33.277  1.00  0.00    -0.385 OA
ATOM     21  H   UNL     1      18.019 -43.053  33.673  1.00  0.00     0.211 HD
ENDBRANCH  15  20
ENDBRANCH   8   9
ENDBRANCH   7   8
ENDBRANCH   1   7
BRANCH   2  22
ATOM     22  O   UNL     1      18.110 -43.134  28.092  1.00  0.00    -0.387 OA
ATOM     23  H   UNL     1      18.539 -43.732  27.417  1.00  0.00     0.211 HD
ENDBRANCH   2  22
BRANCH   3  24
ATOM     24  O   UNL     1      19.075 -42.910  25.628  1.00  0.00    -0.387 OA
ATOM     25  H   UNL     1      18.959 -42.977  24.651  1.00  0.00     0.211 HD
ENDBRANCH   3  24
BRANCH   5  26
ATOM     26  O   UNL     1      14.503 -42.437  25.768  1.00  0.00    -0.454 OA
BRANCH  26  27
ATOM     27  C   UNL     1      13.326 -42.309  26.542  1.00  0.00     0.214 A 
ATOM     28  C   UNL     1      12.462 -41.229  26.349  1.00  0.00     0.180 A 
ATOM     29  C   UNL     1      13.026 -43.217  27.602  1.00  0.00     0.239 A 
ATOM     30  O   UNL     1      11.700 -40.812  27.357  1.00  0.00    -0.452 OA
ATOM     31  C   UNL     1      12.026 -42.849  28.533  1.00  0.00     0.111 A 
ATOM     32  O   UNL     1      13.618 -44.326  27.699  1.00  0.00    -0.285 OA
ATOM     33  C   UNL     1      11.496 -41.547  28.451  1.00  0.00     0.146 A 
ATOM     34  C   UNL     1      11.527 -43.705  29.573  1.00  0.00     0.134 A 
ATOM     35  C   UNL     1      10.655 -41.052  29.453  1.00  0.00     0.094 A 
ATOM     36  C   UNL     1      10.656 -43.194  30.548  1.00  0.00     0.093 A 
ATOM     37  C   UNL     1      10.214 -41.866  30.498  1.00  0.00     0.123 A 
BRANCH  28  38
ATOM     38  C   UNL     1      12.055 -40.804  24.999  1.00  0.00     0.025 A 
ATOM     39  C   UNL     1      12.835 -39.790  24.393  1.00  0.00     0.062 A 
ATOM     40  C   UNL     1      10.899 -41.253  24.359  1.00  0.00     0.016 A 
ATOM     41  C   UNL     1      12.427 -39.197  23.194  1.00  0.00     0.158 A 
ATOM     42  C   UNL     1      10.510 -40.681  23.131  1.00  0.00     0.051 A 
ATOM     43  C   UNL     1      11.254 -39.627  22.567  1.00  0.00     0.157 A 
BRANCH  41  44
ATOM     44  O   UNL     1      13.158 -38.130  22.683  1.00  0.00    -0.504 OA
ATOM     45  H   UNL     1      13.243 -37.270  23.207  1.00  0.00     0.293 HD
ENDBRANCH  41  44
BRANCH  43  46
ATOM     46  O   UNL     1      10.839 -39.059  21.357  1.00  0.00    -0.504 OA
ATOM     47  H   UNL     1      10.724 -39.615  20.501  1.00  0.00     0.293 HD
ENDBRANCH  43  46
ENDBRANCH  28  38
BRANCH  34  48
ATOM     48  O   UNL     1      11.832 -45.074  29.643  1.00  0.00    -0.507 OA
ATOM     49  H   UNL     1      11.367 -45.797  29.099  1.00  0.00     0.293 HD
ENDBRANCH  34  48
BRANCH  37  50
ATOM     50  O   UNL     1       9.318 -41.370  31.446  1.00  0.00    -0.508 OA
ATOM     51  H   UNL     1       9.665 -41.064  32.362  1.00  0.00     0.293 HD
ENDBRANCH  37  50
ENDBRANCH  26  27
ENDBRANCH   5  26
BRANCH   4  52
ATOM     52  O   UNL     1      16.586 -40.651  24.749  1.00  0.00    -0.384 OA
ATOM     53  H   UNL     1      16.263 -40.033  25.474  1.00  0.00     0.211 HD
ENDBRANCH   4  52
TORSDOF 16
ENDMDL
MODEL 7
REMARK VINA RESULT:    -7.867      2.189      7.129
REMARK INTER + INTRA:         -15.750
REMARK INTER:                 -12.801
REMARK INTRA:                  -2.949
REMARK UNBOUND:                -2.824
REMARK SMILES C[C@H]1O[C@H](OC[C@@H]2O[C@@H](Oc3c(-c4ccc(O)c(O)c4)oc4cc(O)cc(O)c4c3=O)[C@@H](O)[C@H](O)[C@@H]2O)[C@@H](O)[C@@H](O)[C@@H]1O
REMARK SMILES IDX 7 1 36 2 34 3 32 4 9 5 8 6 6 7 5 8 4 9 1 10 2 11 42 12 3 13
REMARK SMILES IDX 40 14 38 15 43 16 41 18 39 20 37 22 35 24 10 26 11 27 12 28
REMARK SMILES IDX 30 29 21 30 29 31 31 32 22 33 27 34 23 35 26 36 24 37 13 38
REMARK SMILES IDX 20 39 14 40 18 41 15 42 16 43 19 44 17 46 28 48 25 50 33 52
REMARK H PARENT 43 17 41 19 39 21 37 23 35 25 19 45 17 47 28 49 25 51 33 53
REMARK Flexibility Score: inf
ROOT
ATOM      1  C   UNL     1      12.029 -43.539  29.422  1.00  0.00     0.180 C 
ATOM      2  C   UNL     1      11.117 -43.181  30.648  1.00  0.00     0.177 C 
ATOM      3  C   UNL     1      10.016 -42.171  30.229  1.00  0.00     0.180 C 
ATOM      4  C   UNL     1      10.517 -41.107  29.180  1.00  0.00     0.214 C 
ATOM      5  C   UNL     1      12.035 -41.160  29.076  1.00  0.00     0.339 C 
ATOM      6  O   UNL     1      12.453 -42.433  28.608  1.00  0.00    -0.332 OA
ENDROOT
BRANCH   1   7
ATOM      7  C   UNL     1      13.321 -44.358  29.781  1.00  0.00     0.198 C 
BRANCH   7   8
ATOM      8  O   UNL     1      14.364 -43.447  30.078  1.00  0.00    -0.347 OA
BRANCH   8   9
ATOM      9  C   UNL     1      15.539 -44.022  30.646  1.00  0.00     0.281 C 
ATOM     10  C   UNL     1      18.804 -43.772  30.990  1.00  0.00     0.041 C 
ATOM     11  C   UNL     1      17.653 -42.778  30.724  1.00  0.00     0.150 C 
ATOM     12  C   UNL     1      17.210 -41.977  31.997  1.00  0.00     0.174 C 
ATOM     13  O   UNL     1      16.639 -43.405  29.953  1.00  0.00    -0.344 OA
ATOM     14  C   UNL     1      15.882 -42.495  32.618  1.00  0.00     0.179 C 
ATOM     15  C   UNL     1      15.578 -43.930  32.202  1.00  0.00     0.202 C 
BRANCH  12  16
ATOM     16  O   UNL     1      17.120 -40.609  31.724  1.00  0.00    -0.388 OA
ATOM     17  H   UNL     1      16.699 -40.175  32.511  1.00  0.00     0.211 HD
ENDBRANCH  12  16
BRANCH  14  18
ATOM     18  O   UNL     1      15.945 -42.426  33.997  1.00  0.00    -0.387 OA
ATOM     19  H   UNL     1      16.759 -42.890  34.301  1.00  0.00     0.211 HD
ENDBRANCH  14  18
BRANCH  15  20
ATOM     20  O   UNL     1      16.494 -44.820  32.796  1.00  0.00    -0.385 OA
ATOM     21  H   UNL     1      16.712 -44.475  33.689  1.00  0.00     0.211 HD
ENDBRANCH  15  20
ENDBRANCH   8   9
ENDBRANCH   7   8
ENDBRANCH   1   7
BRANCH   2  22
ATOM     22  O   UNL     1      11.900 -42.646  31.688  1.00  0.00    -0.387 OA
ATOM     23  H   UNL     1      11.512 -41.759  31.930  1.00  0.00     0.211 HD
ENDBRANCH   2  22
BRANCH   3  24
ATOM     24  O   UNL     1       9.535 -41.488  31.353  1.00  0.00    -0.387 OA
ATOM     25  H   UNL     1       9.855 -40.558  31.282  1.00  0.00     0.211 HD
ENDBRANCH   3  24
BRANCH   5  26
ATOM     26  O   UNL     1      12.599 -40.158  28.194  1.00  0.00    -0.454 OA
BRANCH  26  27
ATOM     27  C   UNL     1      13.810 -40.380  27.497  1.00  0.00     0.214 A 
ATOM     28  C   UNL     1      13.798 -40.814  26.170  1.00  0.00     0.180 A 
ATOM     29  C   UNL     1      15.077 -40.258  28.144  1.00  0.00     0.239 A 
ATOM     30  O   UNL     1      14.829 -41.512  25.700  1.00  0.00    -0.452 OA
ATOM     31  C   UNL     1      16.211 -40.805  27.496  1.00  0.00     0.111 A 
ATOM     32  O   UNL     1      15.192 -39.666  29.250  1.00  0.00    -0.285 OA
ATOM     33  C   UNL     1      16.002 -41.568  26.332  1.00  0.00     0.146 A 
ATOM     34  C   UNL     1      17.563 -40.653  27.957  1.00  0.00     0.134 A 
ATOM     35  C   UNL     1      17.048 -42.297  25.756  1.00  0.00     0.094 A 
ATOM     36  C   UNL     1      18.601 -41.369  27.340  1.00  0.00     0.093 A 
ATOM     37  C   UNL     1      18.354 -42.197  26.238  1.00  0.00     0.123 A 
BRANCH  28  38
ATOM     38  C   UNL     1      12.912 -40.196  25.168  1.00  0.00     0.025 A 
ATOM     39  C   UNL     1      12.511 -41.017  24.087  1.00  0.00     0.062 A 
ATOM     40  C   UNL     1      12.560 -38.847  25.171  1.00  0.00     0.016 A 
ATOM     41  C   UNL     1      11.820 -40.474  22.999  1.00  0.00     0.158 A 
ATOM     42  C   UNL     1      11.830 -38.310  24.092  1.00  0.00     0.051 A 
ATOM     43  C   UNL     1      11.492 -39.115  22.988  1.00  0.00     0.157 A 
BRANCH  41  44
ATOM     44  O   UNL     1      11.537 -41.285  21.904  1.00  0.00    -0.504 OA
ATOM     45  H   UNL     1      11.505 -40.894  20.973  1.00  0.00     0.293 HD
ENDBRANCH  41  44
BRANCH  43  46
ATOM     46  O   UNL     1      10.784 -38.558  21.916  1.00  0.00    -0.504 OA
ATOM     47  H   UNL     1       9.766 -38.426  21.942  1.00  0.00     0.293 HD
ENDBRANCH  43  46
ENDBRANCH  28  38
BRANCH  34  48
ATOM     48  O   UNL     1      17.921 -39.768  28.986  1.00  0.00    -0.507 OA
ATOM     49  H   UNL     1      18.833 -39.744  29.437  1.00  0.00     0.293 HD
ENDBRANCH  34  48
BRANCH  37  50
ATOM     50  O   UNL     1      19.393 -42.878  25.602  1.00  0.00    -0.508 OA
ATOM     51  H   UNL     1      19.545 -42.746  24.596  1.00  0.00     0.293 HD
ENDBRANCH  37  50
ENDBRANCH  26  27
ENDBRANCH   5  26
BRANCH   4  52
ATOM     52  O   UNL     1       9.959 -41.387  27.906  1.00  0.00    -0.384 OA
ATOM     53  H   UNL     1      10.010 -40.553  27.347  1.00  0.00     0.211 HD
ENDBRANCH   4  52
TORSDOF 16
ENDMDL
MODEL 8
REMARK VINA RESULT:    -7.843      2.068      5.451
REMARK INTER + INTRA:         -15.710
REMARK INTER:                 -12.312
REMARK INTRA:                  -3.398
REMARK UNBOUND:                -2.824
REMARK SMILES C[C@H]1O[C@H](OC[C@@H]2O[C@@H](Oc3c(-c4ccc(O)c(O)c4)oc4cc(O)cc(O)c4c3=O)[C@@H](O)[C@H](O)[C@@H]2O)[C@@H](O)[C@@H](O)[C@@H]1O
REMARK SMILES IDX 7 1 36 2 34 3 32 4 9 5 8 6 6 7 5 8 4 9 1 10 2 11 42 12 3 13
REMARK SMILES IDX 40 14 38 15 43 16 41 18 39 20 37 22 35 24 10 26 11 27 12 28
REMARK SMILES IDX 30 29 21 30 29 31 31 32 22 33 27 34 23 35 26 36 24 37 13 38
REMARK SMILES IDX 20 39 14 40 18 41 15 42 16 43 19 44 17 46 28 48 25 50 33 52
REMARK H PARENT 43 17 41 19 39 21 37 23 35 25 19 45 17 47 28 49 25 51 33 53
REMARK Flexibility Score: inf
ROOT
ATOM      1  C   UNL     1      13.533 -40.300  26.511  1.00  0.00     0.180 C 
ATOM      2  C   UNL     1      12.113 -40.875  26.164  1.00  0.00     0.177 C 
ATOM      3  C   UNL     1      11.081 -40.454  27.243  1.00  0.00     0.180 C 
ATOM      4  C   UNL     1      11.678 -40.436  28.701  1.00  0.00     0.214 C 
ATOM      5  C   UNL     1      13.034 -41.129  28.711  1.00  0.00     0.339 C 
ATOM      6  O   UNL     1      13.949 -40.432  27.880  1.00  0.00    -0.332 OA
ENDROOT
BRANCH   1   7
ATOM      7  C   UNL     1      14.703 -40.863  25.626  1.00  0.00     0.198 C 
BRANCH   7   8
ATOM      8  O   UNL     1      14.893 -42.230  25.946  1.00  0.00    -0.347 OA
BRANCH   8   9
ATOM      9  C   UNL     1      16.045 -42.842  25.370  1.00  0.00     0.281 C 
ATOM     10  C   UNL     1      19.218 -42.471  24.574  1.00  0.00     0.041 C 
ATOM     11  C   UNL     1      18.273 -41.845  25.622  1.00  0.00     0.150 C 
ATOM     12  C   UNL     1      18.450 -42.443  27.061  1.00  0.00     0.174 C 
ATOM     13  O   UNL     1      16.956 -41.761  25.100  1.00  0.00    -0.344 OA
ATOM     14  C   UNL     1      17.325 -43.442  27.454  1.00  0.00     0.179 C 
ATOM     15  C   UNL     1      16.614 -44.012  26.231  1.00  0.00     0.202 C 
BRANCH  12  16
ATOM     16  O   UNL     1      18.557 -41.428  28.017  1.00  0.00    -0.388 OA
ATOM     17  H   UNL     1      19.389 -40.922  27.822  1.00  0.00     0.211 HD
ENDBRANCH  12  16
BRANCH  14  18
ATOM     18  O   UNL     1      17.853 -44.482  28.196  1.00  0.00    -0.387 OA
ATOM     19  H   UNL     1      17.459 -45.328  27.881  1.00  0.00     0.211 HD
ENDBRANCH  14  18
BRANCH  15  20
ATOM     20  O   UNL     1      17.472 -44.871  25.517  1.00  0.00    -0.385 OA
ATOM     21  H   UNL     1      17.861 -44.357  24.776  1.00  0.00     0.211 HD
ENDBRANCH  15  20
ENDBRANCH   8   9
ENDBRANCH   7   8
ENDBRANCH   1   7
BRANCH   2  22
ATOM     22  O   UNL     1      12.175 -42.277  26.067  1.00  0.00    -0.387 OA
ATOM     23  H   UNL     1      12.970 -42.504  25.508  1.00  0.00     0.211 HD
ENDBRANCH   2  22
BRANCH   3  24
ATOM     24  O   UNL     1       9.984 -41.326  27.227  1.00  0.00    -0.387 OA
ATOM     25  H   UNL     1       9.186 -40.778  27.036  1.00  0.00     0.211 HD
ENDBRANCH   3  24
BRANCH   5  26
ATOM     26  O   UNL     1      13.628 -41.236  30.029  1.00  0.00    -0.454 OA
BRANCH  26  27
ATOM     27  C   UNL     1      14.401 -42.360  30.404  1.00  0.00     0.214 A 
ATOM     28  C   UNL     1      13.785 -43.566  30.745  1.00  0.00     0.180 A 
ATOM     29  C   UNL     1      15.821 -42.279  30.537  1.00  0.00     0.239 A 
ATOM     30  O   UNL     1      14.403 -44.405  31.573  1.00  0.00    -0.452 OA
ATOM     31  C   UNL     1      16.487 -43.323  31.222  1.00  0.00     0.111 A 
ATOM     32  O   UNL     1      16.470 -41.317  30.044  1.00  0.00    -0.285 OA
ATOM     33  C   UNL     1      15.700 -44.298  31.864  1.00  0.00     0.146 A 
ATOM     34  C   UNL     1      17.914 -43.447  31.327  1.00  0.00     0.134 A 
ATOM     35  C   UNL     1      16.282 -45.240  32.718  1.00  0.00     0.094 A 
ATOM     36  C   UNL     1      18.476 -44.423  32.165  1.00  0.00     0.093 A 
ATOM     37  C   UNL     1      17.668 -45.325  32.868  1.00  0.00     0.123 A 
BRANCH  28  38
ATOM     38  C   UNL     1      12.700 -44.132  29.925  1.00  0.00     0.025 A 
ATOM     39  C   UNL     1      11.388 -44.010  30.442  1.00  0.00     0.062 A 
ATOM     40  C   UNL     1      12.911 -44.866  28.758  1.00  0.00     0.016 A 
ATOM     41  C   UNL     1      10.317 -44.667  29.829  1.00  0.00     0.158 A 
ATOM     42  C   UNL     1      11.824 -45.496  28.120  1.00  0.00     0.051 A 
ATOM     43  C   UNL     1      10.532 -45.427  28.675  1.00  0.00     0.157 A 
BRANCH  41  44
ATOM     44  O   UNL     1       9.061 -44.617  30.425  1.00  0.00    -0.504 OA
ATOM     45  H   UNL     1       8.353 -45.295  30.184  1.00  0.00     0.293 HD
ENDBRANCH  41  44
BRANCH  43  46
ATOM     46  O   UNL     1       9.469 -46.076  28.036  1.00  0.00    -0.504 OA
ATOM     47  H   UNL     1       9.188 -45.850  27.075  1.00  0.00     0.293 HD
ENDBRANCH  43  46
ENDBRANCH  28  38
BRANCH  34  48
ATOM     48  O   UNL     1      18.803 -42.657  30.581  1.00  0.00    -0.507 OA
ATOM     49  H   UNL     1      19.631 -43.010  30.107  1.00  0.00     0.293 HD
ENDBRANCH  34  48
BRANCH  37  50
ATOM     50  O   UNL     1      18.229 -46.320  33.670  1.00  0.00    -0.508 OA
ATOM     51  H   UNL     1      17.616 -46.960  34.188  1.00  0.00     0.293 HD
ENDBRANCH  37  50
ENDBRANCH  26  27
ENDBRANCH   5  26
BRANCH   4  52
ATOM     52  O   UNL     1      11.841 -39.097  29.138  1.00  0.00    -0.384 OA
ATOM     53  H   UNL     1      11.510 -38.484  28.413  1.00  0.00     0.211 HD
ENDBRANCH   4  52
TORSDOF 16
ENDMDL
MODEL 9
REMARK VINA RESULT:    -7.749      2.246      6.927
REMARK INTER + INTRA:         -15.556
REMARK INTER:                 -12.459
REMARK INTRA:                  -3.097
REMARK UNBOUND:                -2.824
REMARK SMILES C[C@H]1O[C@H](OC[C@@H]2O[C@@H](Oc3c(-c4ccc(O)c(O)c4)oc4cc(O)cc(O)c4c3=O)[C@@H](O)[C@H](O)[C@@H]2O)[C@@H](O)[C@@H](O)[C@@H]1O
REMARK SMILES IDX 7 1 36 2 34 3 32 4 9 5 8 6 6 7 5 8 4 9 1 10 2 11 42 12 3 13
REMARK SMILES IDX 40 14 38 15 43 16 41 18 39 20 37 22 35 24 10 26 11 27 12 28
REMARK SMILES IDX 30 29 21 30 29 31 31 32 22 33 27 34 23 35 26 36 24 37 13 38
REMARK SMILES IDX 20 39 14 40 18 41 15 42 16 43 19 44 17 46 28 48 25 50 33 52
REMARK H PARENT 43 17 41 19 39 21 37 23 35 25 19 45 17 47 28 49 25 51 33 53
REMARK Flexibility Score: inf
ROOT
ATOM      1  C   UNL     1      10.506 -42.698  28.097  1.00  0.00     0.180 C 
ATOM      2  C   UNL     1      10.857 -44.224  27.993  1.00  0.00     0.177 C 
ATOM      3  C   UNL     1      11.508 -44.722  29.310  1.00  0.00     0.180 C 
ATOM      4  C   UNL     1      12.461 -43.656  29.973  1.00  0.00     0.214 C 
ATOM      5  C   UNL     1      12.731 -42.524  28.990  1.00  0.00     0.339 C 
ATOM      6  O   UNL     1      11.522 -41.855  28.666  1.00  0.00    -0.332 OA
ENDROOT
BRANCH   1   7
ATOM      7  C   UNL     1      10.069 -42.030  26.743  1.00  0.00     0.198 C 
BRANCH   7   8
ATOM      8  O   UNL     1      11.222 -41.838  25.943  1.00  0.00    -0.347 OA
BRANCH   8   9
ATOM      9  C   UNL     1      11.416 -40.513  25.452  1.00  0.00     0.281 C 
ATOM     10  C   UNL     1      13.609 -38.163  24.743  1.00  0.00     0.041 C 
ATOM     11  C   UNL     1      13.647 -39.704  24.826  1.00  0.00     0.150 C 
ATOM     12  C   UNL     1      13.580 -40.408  23.426  1.00  0.00     0.174 C 
ATOM     13  O   UNL     1      12.757 -40.158  25.835  1.00  0.00    -0.344 OA
ATOM     14  C   UNL     1      12.182 -41.009  23.106  1.00  0.00     0.179 C 
ATOM     15  C   UNL     1      11.079 -40.364  23.937  1.00  0.00     0.202 C 
BRANCH  12  16
ATOM     16  O   UNL     1      14.571 -41.388  23.309  1.00  0.00    -0.388 OA
ATOM     17  H   UNL     1      14.117 -42.269  23.279  1.00  0.00     0.211 HD
ENDBRANCH  12  16
BRANCH  14  18
ATOM     18  O   UNL     1      11.893 -40.847  21.764  1.00  0.00    -0.387 OA
ATOM     19  H   UNL     1      12.447 -41.471  21.242  1.00  0.00     0.211 HD
ENDBRANCH  14  18
BRANCH  15  20
ATOM     20  O   UNL     1      10.874 -39.030  23.534  1.00  0.00    -0.385 OA
ATOM     21  H   UNL     1      10.284 -38.605  24.194  1.00  0.00     0.211 HD
ENDBRANCH  15  20
ENDBRANCH   8   9
ENDBRANCH   7   8
ENDBRANCH   1   7
BRANCH   2  22
ATOM     22  O   UNL     1      11.722 -44.444  26.906  1.00  0.00    -0.387 OA
ATOM     23  H   UNL     1      12.393 -43.705  26.903  1.00  0.00     0.211 HD
ENDBRANCH   2  22
BRANCH   3  24
ATOM     24  O   UNL     1      12.250 -45.887  29.072  1.00  0.00    -0.387 OA
ATOM     25  H   UNL     1      11.604 -46.630  29.013  1.00  0.00     0.211 HD
ENDBRANCH   3  24
BRANCH   5  26
ATOM     26  O   UNL     1      13.667 -41.532  29.480  1.00  0.00    -0.454 OA
BRANCH  26  27
ATOM     27  C   UNL     1      14.970 -41.885  29.900  1.00  0.00     0.214 A 
ATOM     28  C   UNL     1      16.019 -41.957  28.981  1.00  0.00     0.180 A 
ATOM     29  C   UNL     1      15.243 -42.265  31.249  1.00  0.00     0.239 A 
ATOM     30  O   UNL     1      17.049 -42.763  29.226  1.00  0.00    -0.452 OA
ATOM     31  C   UNL     1      16.471 -42.912  31.524  1.00  0.00     0.111 A 
ATOM     32  O   UNL     1      14.426 -42.017  32.176  1.00  0.00    -0.285 OA
ATOM     33  C   UNL     1      17.282 -43.281  30.432  1.00  0.00     0.146 A 
ATOM     34  C   UNL     1      16.941 -43.242  32.841  1.00  0.00     0.134 A 
ATOM     35  C   UNL     1      18.405 -44.093  30.617  1.00  0.00     0.094 A 
ATOM     36  C   UNL     1      18.092 -44.029  33.001  1.00  0.00     0.093 A 
ATOM     37  C   UNL     1      18.832 -44.463  31.894  1.00  0.00     0.123 A 
BRANCH  28  38
ATOM     38  C   UNL     1      16.236 -40.900  27.979  1.00  0.00     0.025 A 
ATOM     39  C   UNL     1      16.551 -41.327  26.667  1.00  0.00     0.062 A 
ATOM     40  C   UNL     1      16.264 -39.538  28.281  1.00  0.00     0.016 A 
ATOM     41  C   UNL     1      16.947 -40.404  25.693  1.00  0.00     0.158 A 
ATOM     42  C   UNL     1      16.626 -38.607  27.288  1.00  0.00     0.051 A 
ATOM     43  C   UNL     1      17.004 -39.043  26.003  1.00  0.00     0.157 A 
BRANCH  41  44
ATOM     44  O   UNL     1      17.356 -40.869  24.447  1.00  0.00    -0.504 OA
ATOM     45  H   UNL     1      17.122 -41.805  24.148  1.00  0.00     0.293 HD
ENDBRANCH  41  44
BRANCH  43  46
ATOM     46  O   UNL     1      17.379 -38.102  25.037  1.00  0.00    -0.504 OA
ATOM     47  H   UNL     1      16.820 -37.263  24.843  1.00  0.00     0.293 HD
ENDBRANCH  43  46
ENDBRANCH  28  38
BRANCH  34  48
ATOM     48  O   UNL     1      16.325 -42.765  34.009  1.00  0.00    -0.507 OA
ATOM     49  H   UNL     1      16.752 -42.776  34.933  1.00  0.00     0.293 HD
ENDBRANCH  34  48
BRANCH  37  50
ATOM     50  O   UNL     1      19.997 -45.214  32.056  1.00  0.00    -0.508 OA
ATOM     51  H   UNL     1      20.025 -46.185  31.726  1.00  0.00     0.293 HD
ENDBRANCH  37  50
ENDBRANCH  26  27
ENDBRANCH   5  26
BRANCH   4  52
ATOM     52  O   UNL     1      11.850 -43.121  31.135  1.00  0.00    -0.384 OA
ATOM     53  H   UNL     1      12.521 -42.541  31.609  1.00  0.00     0.211 HD
ENDBRANCH   4  52
TORSDOF 16
ENDMDL
