MODEL 1
REMARK VINA RESULT:    -5.489      0.000      0.000
REMARK INTER + INTRA:          -9.210
REMARK INTER:                  -8.378
REMARK INTRA:                  -0.833
REMARK UNBOUND:                -0.833
REMARK SMILES CC(=O)CCC=C(C)CCC=C(C)CCC=C(C)C
REMARK SMILES IDX 10 1 11 2 12 3 13 4 14 5 15 6 16 7 18 8 17 9 19 10 9 11 7 12
REMARK SMILES IDX 6 13 8 14 5 15 4 16 2 17 3 18 1 19
REMARK H PARENT
REMARK Flexibility Score: inf
ROOT
ATOM      1  C   UNL     1      -6.954   2.368   6.019  1.00  0.00     0.032 C 
ENDROOT
BRANCH   1   2
ATOM      2  C   UNL     1      -5.695   2.306   6.845  1.00  0.00    -0.028 C 
ATOM      3  C   UNL     1      -5.414   3.136   7.876  1.00  0.00    -0.077 C 
ATOM      4  C   UNL     1      -6.391   4.195   8.336  1.00  0.00     0.039 C 
BRANCH   3   5
ATOM      5  C   UNL     1      -4.093   2.988   8.604  1.00  0.00     0.034 C 
BRANCH   5   6
ATOM      6  C   UNL     1      -4.123   3.655   9.986  1.00  0.00     0.032 C 
BRANCH   6   7
ATOM      7  C   UNL     1      -2.735   3.987  10.480  1.00  0.00    -0.028 C 
ATOM      8  C   UNL     1      -3.512   5.892  11.908  1.00  0.00     0.039 C 
ATOM      9  C   UNL     1      -2.453   4.961  11.373  1.00  0.00    -0.080 C 
ATOM     10  C   UNL     1      -1.029   5.180  11.817  1.00  0.00     0.039 C 
ENDBRANCH   6   7
ENDBRANCH   5   6
ENDBRANCH   3   5
ENDBRANCH   1   2
BRANCH   1  11
ATOM     11  C   UNL     1      -7.691   1.024   6.049  1.00  0.00     0.034 C 
BRANCH  11  12
ATOM     12  C   UNL     1      -9.119   1.204   6.512  1.00  0.00    -0.077 C 
ATOM     13  C   UNL     1     -10.073   0.370   6.038  1.00  0.00    -0.028 C 
ATOM     14  C   UNL     1      -9.438   2.310   7.490  1.00  0.00     0.039 C 
BRANCH  13  15
ATOM     15  C   UNL     1     -11.546   0.465   6.362  1.00  0.00     0.035 C 
BRANCH  15  16
ATOM     16  C   UNL     1     -12.399  -0.047   5.197  1.00  0.00     0.079 C 
BRANCH  16  17
ATOM     17  C   UNL     1     -13.220  -1.244   5.598  1.00  0.00     0.130 C 
ATOM     18  O   UNL     1     -14.150  -1.103   6.378  1.00  0.00    -0.300 OA
ATOM     19  C   UNL     1     -12.923  -2.610   5.055  1.00  0.00     0.087 C 
ENDBRANCH  16  17
ENDBRANCH  15  16
ENDBRANCH  13  15
ENDBRANCH  11  12
ENDBRANCH   1  11
TORSDOF 9
ENDMDL
MODEL 2
REMARK VINA RESULT:    -5.468      4.384      9.657
REMARK INTER + INTRA:          -9.178
REMARK INTER:                  -7.551
REMARK INTRA:                  -1.627
REMARK UNBOUND:                -0.833
REMARK SMILES CC(=O)CCC=C(C)CCC=C(C)CCC=C(C)C
REMARK SMILES IDX 10 1 11 2 12 3 13 4 14 5 15 6 16 7 18 8 17 9 19 10 9 11 7 12
REMARK SMILES IDX 6 13 8 14 5 15 4 16 2 17 3 18 1 19
REMARK H PARENT
REMARK Flexibility Score: inf
ROOT
ATOM      1  C   UNL     1      -6.470   4.872  10.534  1.00  0.00     0.032 C 
ENDROOT
BRANCH   1   2
ATOM      2  C   UNL     1      -6.156   4.396   9.139  1.00  0.00    -0.028 C 
ATOM      3  C   UNL     1      -5.031   3.729   8.793  1.00  0.00    -0.077 C 
ATOM      4  C   UNL     1      -3.986   3.345   9.815  1.00  0.00     0.039 C 
BRANCH   3   5
ATOM      5  C   UNL     1      -4.823   3.337   7.344  1.00  0.00     0.034 C 
BRANCH   5   6
ATOM      6  C   UNL     1      -6.147   3.278   6.570  1.00  0.00     0.032 C 
BRANCH   6   7
ATOM      7  C   UNL     1      -6.608   1.857   6.352  1.00  0.00    -0.028 C 
ATOM      8  C   UNL     1      -8.837   2.232   7.431  1.00  0.00     0.039 C 
ATOM      9  C   UNL     1      -7.828   1.386   6.697  1.00  0.00    -0.080 C 
ATOM     10  C   UNL     1      -8.187  -0.047   6.400  1.00  0.00     0.039 C 
ENDBRANCH   6   7
ENDBRANCH   5   6
ENDBRANCH   3   5
ENDBRANCH   1   2
BRANCH   1  11
ATOM     11  C   UNL     1      -6.277   6.389  10.648  1.00  0.00     0.034 C 
BRANCH  11  12
ATOM     12  C   UNL     1      -4.846   6.723  11.005  1.00  0.00    -0.077 C 
ATOM     13  C   UNL     1      -4.293   6.154  12.100  1.00  0.00    -0.028 C 
ATOM     14  C   UNL     1      -4.078   7.684  10.129  1.00  0.00     0.039 C 
BRANCH  13  15
ATOM     15  C   UNL     1      -2.900   6.437  12.614  1.00  0.00     0.035 C 
BRANCH  15  16
ATOM     16  C   UNL     1      -1.961   5.260  12.337  1.00  0.00     0.079 C 
BRANCH  16  17
ATOM     17  C   UNL     1      -1.176   4.878  13.564  1.00  0.00     0.130 C 
ATOM     18  O   UNL     1      -0.616   3.793  13.607  1.00  0.00    -0.300 OA
ATOM     19  C   UNL     1      -1.062   5.806  14.736  1.00  0.00     0.087 C 
ENDBRANCH  16  17
ENDBRANCH  15  16
ENDBRANCH  13  15
ENDBRANCH  11  12
ENDBRANCH   1  11
TORSDOF 9
ENDMDL
MODEL 3
REMARK VINA RESULT:    -5.440      3.836     10.130
REMARK INTER + INTRA:          -9.135
REMARK INTER:                  -8.333
REMARK INTRA:                  -0.802
REMARK UNBOUND:                -0.833
REMARK SMILES CC(=O)CCC=C(C)CCC=C(C)CCC=C(C)C
REMARK SMILES IDX 10 1 11 2 12 3 13 4 14 5 15 6 16 7 18 8 17 9 19 10 9 11 7 12
REMARK SMILES IDX 6 13 8 14 5 15 4 16 2 17 3 18 1 19
REMARK H PARENT
REMARK Flexibility Score: inf
ROOT
ATOM      1  C   UNL     1      -5.198   3.548   7.600  1.00  0.00     0.032 C 
ENDROOT
BRANCH   1   2
ATOM      2  C   UNL     1      -5.876   2.340   7.006  1.00  0.00    -0.028 C 
ATOM      3  C   UNL     1      -7.211   2.224   6.825  1.00  0.00    -0.077 C 
ATOM      4  C   UNL     1      -8.162   3.350   7.161  1.00  0.00     0.039 C 
BRANCH   3   5
ATOM      5  C   UNL     1      -7.768   0.938   6.248  1.00  0.00     0.034 C 
BRANCH   5   6
ATOM      6  C   UNL     1      -8.969   1.196   5.326  1.00  0.00     0.032 C 
BRANCH   6   7
ATOM      7  C   UNL     1      -9.981   0.077   5.395  1.00  0.00    -0.028 C 
ATOM      8  C   UNL     1     -11.535   1.344   6.897  1.00  0.00     0.039 C 
ATOM      9  C   UNL     1     -11.154   0.146   6.063  1.00  0.00    -0.080 C 
ATOM     10  C   UNL     1     -12.101  -1.026   6.035  1.00  0.00     0.039 C 
ENDBRANCH   6   7
ENDBRANCH   5   6
ENDBRANCH   3   5
ENDBRANCH   1   2
BRANCH   1  11
ATOM     11  C   UNL     1      -4.127   3.128   8.613  1.00  0.00     0.034 C 
BRANCH  11  12
ATOM     12  C   UNL     1      -3.690   4.307   9.454  1.00  0.00    -0.077 C 
ATOM     13  C   UNL     1      -2.907   4.087  10.535  1.00  0.00    -0.028 C 
ATOM     14  C   UNL     1      -4.143   5.694   9.063  1.00  0.00     0.039 C 
BRANCH  13  15
ATOM     15  C   UNL     1      -2.444   5.154  11.501  1.00  0.00     0.035 C 
BRANCH  15  16
ATOM     16  C   UNL     1      -1.030   4.858  12.010  1.00  0.00     0.079 C 
BRANCH  16  17
ATOM     17  C   UNL     1      -1.004   4.701  13.508  1.00  0.00     0.130 C 
ATOM     18  O   UNL     1      -0.949   3.582  13.994  1.00  0.00    -0.300 OA
ATOM     19  C   UNL     1      -1.038   5.894  14.417  1.00  0.00     0.087 C 
ENDBRANCH  16  17
ENDBRANCH  15  16
ENDBRANCH  13  15
ENDBRANCH  11  12
ENDBRANCH   1  11
TORSDOF 9
ENDMDL
MODEL 4
REMARK VINA RESULT:    -5.429      7.998     12.283
REMARK INTER + INTRA:          -9.118
REMARK INTER:                  -8.146
REMARK INTRA:                  -0.972
REMARK UNBOUND:                -0.833
REMARK SMILES CC(=O)CCC=C(C)CCC=C(C)CCC=C(C)C
REMARK SMILES IDX 10 1 11 2 12 3 13 4 14 5 15 6 16 7 18 8 17 9 19 10 9 11 7 12
REMARK SMILES IDX 6 13 8 14 5 15 4 16 2 17 3 18 1 19
REMARK H PARENT
REMARK Flexibility Score: inf
ROOT
ATOM      1  C   UNL     1       0.424   5.245  16.827  1.00  0.00     0.032 C 
ENDROOT
BRANCH   1   2
ATOM      2  C   UNL     1       0.104   4.565  18.133  1.00  0.00    -0.028 C 
ATOM      3  C   UNL     1      -0.280   3.273  18.249  1.00  0.00    -0.077 C 
ATOM      4  C   UNL     1      -0.374   2.358  17.050  1.00  0.00     0.039 C 
BRANCH   3   5
ATOM      5  C   UNL     1      -0.606   2.721  19.622  1.00  0.00     0.034 C 
BRANCH   5   6
ATOM      6  C   UNL     1      -1.886   1.873  19.610  1.00  0.00     0.032 C 
BRANCH   6   7
ATOM      7  C   UNL     1      -1.830   0.758  20.628  1.00  0.00    -0.028 C 
ATOM      8  C   UNL     1      -1.500  -1.030  18.905  1.00  0.00     0.039 C 
ATOM      9  C   UNL     1      -1.617  -0.543  20.327  1.00  0.00    -0.080 C 
ATOM     10  C   UNL     1      -1.551  -1.565  21.433  1.00  0.00     0.039 C 
ENDBRANCH   6   7
ENDBRANCH   5   6
ENDBRANCH   3   5
ENDBRANCH   1   2
BRANCH   1  11
ATOM     11  C   UNL     1      -0.768   6.079  16.341  1.00  0.00     0.034 C 
BRANCH  11  12
ATOM     12  C   UNL     1      -0.641   6.390  14.867  1.00  0.00    -0.077 C 
ATOM     13  C   UNL     1      -1.070   5.478  13.964  1.00  0.00    -0.028 C 
ATOM     14  C   UNL     1      -0.039   7.710  14.445  1.00  0.00     0.039 C 
BRANCH  13  15
ATOM     15  C   UNL     1      -0.954   5.623  12.464  1.00  0.00     0.035 C 
BRANCH  15  16
ATOM     16  C   UNL     1      -1.542   4.404  11.747  1.00  0.00     0.079 C 
BRANCH  16  17
ATOM     17  C   UNL     1      -2.844   4.738  11.068  1.00  0.00     0.130 C 
ATOM     18  O   UNL     1      -3.574   3.834  10.688  1.00  0.00    -0.300 OA
ATOM     19  C   UNL     1      -3.268   6.160  10.853  1.00  0.00     0.087 C 
ENDBRANCH  16  17
ENDBRANCH  15  16
ENDBRANCH  13  15
ENDBRANCH  11  12
ENDBRANCH   1  11
TORSDOF 9
ENDMDL
MODEL 5
REMARK VINA RESULT:    -5.398      2.391      4.735
REMARK INTER + INTRA:          -9.071
REMARK INTER:                  -7.901
REMARK INTRA:                  -1.171
REMARK UNBOUND:                -0.833
REMARK SMILES CC(=O)CCC=C(C)CCC=C(C)CCC=C(C)C
REMARK SMILES IDX 10 1 11 2 12 3 13 4 14 5 15 6 16 7 18 8 17 9 19 10 9 11 7 12
REMARK SMILES IDX 6 13 8 14 5 15 4 16 2 17 3 18 1 19
REMARK H PARENT
REMARK Flexibility Score: inf
ROOT
ATOM      1  C   UNL     1      -4.080   3.673  10.140  1.00  0.00     0.032 C 
ENDROOT
BRANCH   1   2
ATOM      2  C   UNL     1      -3.039   4.741  10.354  1.00  0.00    -0.028 C 
ATOM      3  C   UNL     1      -3.194   5.808  11.171  1.00  0.00    -0.077 C 
ATOM      4  C   UNL     1      -4.439   5.999  12.005  1.00  0.00     0.039 C 
BRANCH   3   5
ATOM      5  C   UNL     1      -2.078   6.829  11.269  1.00  0.00     0.034 C 
BRANCH   5   6
ATOM      6  C   UNL     1      -0.839   6.258  11.972  1.00  0.00     0.032 C 
BRANCH   6   7
ATOM      7  C   UNL     1      -0.785   6.656  13.428  1.00  0.00    -0.028 C 
ATOM      8  C   UNL     1      -1.041   4.306  14.257  1.00  0.00     0.039 C 
ATOM      9  C   UNL     1      -0.834   5.786  14.461  1.00  0.00    -0.080 C 
ATOM     10  C   UNL     1      -0.740   6.298  15.876  1.00  0.00     0.039 C 
ENDBRANCH   6   7
ENDBRANCH   5   6
ENDBRANCH   3   5
ENDBRANCH   1   2
BRANCH   1  11
ATOM     11  C   UNL     1      -4.451   3.563   8.656  1.00  0.00     0.034 C 
BRANCH  11  12
ATOM     12  C   UNL     1      -5.940   3.737   8.460  1.00  0.00    -0.077 C 
ATOM     13  C   UNL     1      -6.538   3.135   7.406  1.00  0.00    -0.028 C 
ATOM     14  C   UNL     1      -6.717   4.579   9.445  1.00  0.00     0.039 C 
BRANCH  13  15
ATOM     15  C   UNL     1      -8.000   3.266   7.048  1.00  0.00     0.035 C 
BRANCH  15  16
ATOM     16  C   UNL     1      -8.796   2.050   7.530  1.00  0.00     0.079 C 
BRANCH  16  17
ATOM     17  C   UNL     1      -8.607   0.868   6.617  1.00  0.00     0.130 C 
ATOM     18  O   UNL     1      -7.669   0.108   6.803  1.00  0.00    -0.300 OA
ATOM     19  C   UNL     1      -9.551   0.600   5.483  1.00  0.00     0.087 C 
ENDBRANCH  16  17
ENDBRANCH  15  16
ENDBRANCH  13  15
ENDBRANCH  11  12
ENDBRANCH   1  11
TORSDOF 9
ENDMDL
MODEL 6
REMARK VINA RESULT:    -5.386      7.049     12.603
REMARK INTER + INTRA:          -9.053
REMARK INTER:                  -7.899
REMARK INTRA:                  -1.154
REMARK UNBOUND:                -0.833
REMARK SMILES CC(=O)CCC=C(C)CCC=C(C)CCC=C(C)C
REMARK SMILES IDX 10 1 11 2 12 3 13 4 14 5 15 6 16 7 18 8 17 9 19 10 9 11 7 12
REMARK SMILES IDX 6 13 8 14 5 15 4 16 2 17 3 18 1 19
REMARK H PARENT
REMARK Flexibility Score: inf
ROOT
ATOM      1  C   UNL     1      -0.056   6.671  15.702  1.00  0.00     0.032 C 
ENDROOT
BRANCH   1   2
ATOM      2  C   UNL     1      -1.182   6.754  14.704  1.00  0.00    -0.028 C 
ATOM      3  C   UNL     1      -1.570   5.736  13.902  1.00  0.00    -0.077 C 
ATOM      4  C   UNL     1      -0.924   4.372  13.975  1.00  0.00     0.039 C 
BRANCH   3   5
ATOM      5  C   UNL     1      -2.698   5.964  12.915  1.00  0.00     0.034 C 
BRANCH   5   6
ATOM      6  C   UNL     1      -2.232   5.790  11.463  1.00  0.00     0.032 C 
BRANCH   6   7
ATOM      7  C   UNL     1      -2.827   4.556  10.826  1.00  0.00    -0.028 C 
ATOM      8  C   UNL     1      -3.974   5.839   9.006  1.00  0.00     0.039 C 
ATOM      9  C   UNL     1      -3.577   4.561   9.700  1.00  0.00    -0.080 C 
ATOM     10  C   UNL     1      -4.092   3.261   9.139  1.00  0.00     0.039 C 
ENDBRANCH   6   7
ENDBRANCH   5   6
ENDBRANCH   3   5
ENDBRANCH   1   2
BRANCH   1  11
ATOM     11  C   UNL     1      -0.550   7.023  17.110  1.00  0.00     0.034 C 
BRANCH  11  12
ATOM     12  C   UNL     1      -0.368   5.854  18.052  1.00  0.00    -0.077 C 
ATOM     13  C   UNL     1       0.157   4.702  17.574  1.00  0.00    -0.028 C 
ATOM     14  C   UNL     1      -0.778   6.006  19.498  1.00  0.00     0.039 C 
BRANCH  13  15
ATOM     15  C   UNL     1       0.341   3.435  18.377  1.00  0.00     0.035 C 
BRANCH  15  16
ATOM     16  C   UNL     1      -0.432   2.269  17.751  1.00  0.00     0.079 C 
BRANCH  16  17
ATOM     17  C   UNL     1      -0.936   1.314  18.800  1.00  0.00     0.130 C 
ATOM     18  O   UNL     1      -0.593   0.142  18.761  1.00  0.00    -0.300 OA
ATOM     19  C   UNL     1      -1.849   1.773  19.898  1.00  0.00     0.087 C 
ENDBRANCH  16  17
ENDBRANCH  15  16
ENDBRANCH  13  15
ENDBRANCH  11  12
ENDBRANCH   1  11
TORSDOF 9
ENDMDL
MODEL 7
REMARK VINA RESULT:    -5.361      4.796     10.648
REMARK INTER + INTRA:          -9.015
REMARK INTER:                  -8.101
REMARK INTRA:                  -0.914
REMARK UNBOUND:                -0.833
REMARK SMILES CC(=O)CCC=C(C)CCC=C(C)CCC=C(C)C
REMARK SMILES IDX 10 1 11 2 12 3 13 4 14 5 15 6 16 7 18 8 17 9 19 10 9 11 7 12
REMARK SMILES IDX 6 13 8 14 5 15 4 16 2 17 3 18 1 19
REMARK H PARENT
REMARK Flexibility Score: inf
ROOT
ATOM      1  C   UNL     1      -4.107   3.584  10.037  1.00  0.00     0.032 C 
ENDROOT
BRANCH   1   2
ATOM      2  C   UNL     1      -4.279   3.100   8.620  1.00  0.00    -0.028 C 
ATOM      3  C   UNL     1      -4.960   3.768   7.661  1.00  0.00    -0.077 C 
ATOM      4  C   UNL     1      -5.580   5.122   7.919  1.00  0.00     0.039 C 
BRANCH   3   5
ATOM      5  C   UNL     1      -5.087   3.152   6.282  1.00  0.00     0.034 C 
BRANCH   5   6
ATOM      6  C   UNL     1      -6.010   1.925   6.286  1.00  0.00     0.032 C 
BRANCH   6   7
ATOM      7  C   UNL     1      -7.429   2.290   6.649  1.00  0.00    -0.028 C 
ATOM      8  C   UNL     1      -8.261  -0.067   6.480  1.00  0.00     0.039 C 
ATOM      9  C   UNL     1      -8.439   1.401   6.779  1.00  0.00    -0.080 C 
ATOM     10  C   UNL     1      -9.811   1.880   7.178  1.00  0.00     0.039 C 
ENDBRANCH   6   7
ENDBRANCH   5   6
ENDBRANCH   3   5
ENDBRANCH   1   2
BRANCH   1  11
ATOM     11  C   UNL     1      -2.623   3.787  10.366  1.00  0.00     0.034 C 
BRANCH  11  12
ATOM     12  C   UNL     1      -2.436   4.954  11.308  1.00  0.00    -0.077 C 
ATOM     13  C   UNL     1      -1.316   5.013  12.066  1.00  0.00    -0.028 C 
ATOM     14  C   UNL     1      -3.504   6.020  11.376  1.00  0.00     0.039 C 
BRANCH  13  15
ATOM     15  C   UNL     1      -1.020   6.082  13.092  1.00  0.00     0.035 C 
BRANCH  15  16
ATOM     16  C   UNL     1      -1.434   5.627  14.495  1.00  0.00     0.079 C 
BRANCH  16  17
ATOM     17  C   UNL     1      -0.417   6.032  15.529  1.00  0.00     0.130 C 
ATOM     18  O   UNL     1      -0.006   7.182  15.552  1.00  0.00    -0.300 OA
ATOM     19  C   UNL     1       0.100   5.051  16.539  1.00  0.00     0.087 C 
ENDBRANCH  16  17
ENDBRANCH  15  16
ENDBRANCH  13  15
ENDBRANCH  11  12
ENDBRANCH   1  11
TORSDOF 9
ENDMDL
MODEL 8
REMARK VINA RESULT:    -5.325      2.324      5.192
REMARK INTER + INTRA:          -8.960
REMARK INTER:                  -8.035
REMARK INTRA:                  -0.925
REMARK UNBOUND:                -0.833
REMARK SMILES CC(=O)CCC=C(C)CCC=C(C)CCC=C(C)C
REMARK SMILES IDX 10 1 11 2 12 3 13 4 14 5 15 6 16 7 18 8 17 9 19 10 9 11 7 12
REMARK SMILES IDX 6 13 8 14 5 15 4 16 2 17 3 18 1 19
REMARK H PARENT
REMARK Flexibility Score: inf
ROOT
ATOM      1  C   UNL     1     -11.890   0.139   6.084  1.00  0.00     0.032 C 
ENDROOT
BRANCH   1   2
ATOM      2  C   UNL     1     -10.401  -0.064   5.973  1.00  0.00    -0.028 C 
ATOM      3  C   UNL     1      -9.473   0.802   6.441  1.00  0.00    -0.077 C 
ATOM      4  C   UNL     1      -9.860   2.060   7.184  1.00  0.00     0.039 C 
BRANCH   3   5
ATOM      5  C   UNL     1      -8.004   0.493   6.232  1.00  0.00     0.034 C 
BRANCH   5   6
ATOM      6  C   UNL     1      -7.213   1.736   5.801  1.00  0.00     0.032 C 
BRANCH   6   7
ATOM      7  C   UNL     1      -5.964   1.922   6.630  1.00  0.00    -0.028 C 
ATOM      8  C   UNL     1      -6.699   4.132   7.553  1.00  0.00     0.039 C 
ATOM      9  C   UNL     1      -5.740   2.972   7.451  1.00  0.00    -0.080 C 
ATOM     10  C   UNL     1      -4.466   3.034   8.255  1.00  0.00     0.039 C 
ENDBRANCH   6   7
ENDBRANCH   5   6
ENDBRANCH   3   5
ENDBRANCH   1   2
BRANCH   1  11
ATOM     11  C   UNL     1     -12.578  -0.130   4.741  1.00  0.00     0.034 C 
BRANCH  11  12
ATOM     12  C   UNL     1     -13.849  -0.925   4.937  1.00  0.00    -0.077 C 
ATOM     13  C   UNL     1     -13.915  -1.818   5.951  1.00  0.00    -0.028 C 
ATOM     14  C   UNL     1     -15.008  -0.698   3.995  1.00  0.00     0.039 C 
BRANCH  13  15
ATOM     15  C   UNL     1     -15.091  -2.724   6.232  1.00  0.00     0.035 C 
BRANCH  15  16
ATOM     16  C   UNL     1     -14.654  -4.191   6.292  1.00  0.00     0.079 C 
BRANCH  16  17
ATOM     17  C   UNL     1     -14.775  -4.748   7.686  1.00  0.00     0.130 C 
ATOM     18  O   UNL     1     -14.465  -4.052   8.641  1.00  0.00    -0.300 OA
ATOM     19  C   UNL     1     -15.274  -6.141   7.928  1.00  0.00     0.087 C 
ENDBRANCH  16  17
ENDBRANCH  15  16
ENDBRANCH  13  15
ENDBRANCH  11  12
ENDBRANCH   1  11
TORSDOF 9
ENDMDL
MODEL 9
REMARK VINA RESULT:    -5.269      4.465     10.207
REMARK INTER + INTRA:          -8.873
REMARK INTER:                  -7.583
REMARK INTRA:                  -1.291
REMARK UNBOUND:                -0.833
REMARK SMILES CC(=O)CCC=C(C)CCC=C(C)CCC=C(C)C
REMARK SMILES IDX 10 1 11 2 12 3 13 4 14 5 15 6 16 7 18 8 17 9 19 10 9 11 7 12
REMARK SMILES IDX 6 13 8 14 5 15 4 16 2 17 3 18 1 19
REMARK H PARENT
REMARK Flexibility Score: inf
ROOT
ATOM      1  C   UNL     1      -3.591   6.761   9.171  1.00  0.00     0.032 C 
ENDROOT
BRANCH   1   2
ATOM      2  C   UNL     1      -4.993   6.209   9.147  1.00  0.00    -0.028 C 
ATOM      3  C   UNL     1      -5.301   4.898   9.269  1.00  0.00    -0.077 C 
ATOM      4  C   UNL     1      -4.240   3.847   9.501  1.00  0.00     0.039 C 
BRANCH   3   5
ATOM      5  C   UNL     1      -6.754   4.472   9.192  1.00  0.00     0.034 C 
BRANCH   5   6
ATOM      6  C   UNL     1      -7.283   4.498   7.751  1.00  0.00     0.032 C 
BRANCH   6   7
ATOM      7  C   UNL     1      -7.998   3.216   7.392  1.00  0.00    -0.028 C 
ATOM      8  C   UNL     1      -5.924   2.096   6.542  1.00  0.00     0.039 C 
ATOM      9  C   UNL     1      -7.392   2.118   6.887  1.00  0.00    -0.080 C 
ATOM     10  C   UNL     1      -8.206   0.883   6.597  1.00  0.00     0.039 C 
ENDBRANCH   6   7
ENDBRANCH   5   6
ENDBRANCH   3   5
ENDBRANCH   1   2
BRANCH   1  11
ATOM     11  C   UNL     1      -3.313   7.483  10.496  1.00  0.00     0.034 C 
BRANCH  11  12
ATOM     12  C   UNL     1      -2.994   6.492  11.592  1.00  0.00    -0.077 C 
ATOM     13  C   UNL     1      -1.812   5.834  11.558  1.00  0.00    -0.028 C 
ATOM     14  C   UNL     1      -4.004   6.264  12.692  1.00  0.00     0.039 C 
BRANCH  13  15
ATOM     15  C   UNL     1      -1.381   4.775  12.546  1.00  0.00     0.035 C 
BRANCH  15  16
ATOM     16  C   UNL     1      -0.956   5.404  13.877  1.00  0.00     0.079 C 
BRANCH  16  17
ATOM     17  C   UNL     1      -0.746   4.359  14.940  1.00  0.00     0.130 C 
ATOM     18  O   UNL     1      -1.143   3.219  14.750  1.00  0.00    -0.300 OA
ATOM     19  C   UNL     1      -0.056   4.687  16.230  1.00  0.00     0.087 C 
ENDBRANCH  16  17
ENDBRANCH  15  16
ENDBRANCH  13  15
ENDBRANCH  11  12
ENDBRANCH   1  11
TORSDOF 9
ENDMDL
