MODEL 1
REMARK VINA RESULT:    -4.718      0.000      0.000
REMARK INTER + INTRA:          -8.188
REMARK INTER:                  -7.339
REMARK INTRA:                  -0.849
REMARK UNBOUND:                -0.849
REMARK SMILES COc1cc(CNC(=O)CCCCC=CC(C)C)ccc1O
REMARK SMILES IDX 11 1 12 2 13 3 14 4 15 5 16 6 17 7 18 8 10 9 8 10 9 11 7 12
REMARK SMILES IDX 6 14 5 15 4 16 19 17 3 18 20 19 21 20 2 21 1 22 22 23
REMARK H PARENT 7 13 22 24
REMARK Flexibility Score: inf
ROOT
ATOM      1  C   UNL     1       1.242   9.586 -17.244  1.00  0.00     0.010 C 
ENDROOT
BRANCH   1   2
ATOM      2  C   UNL     1       0.731  10.228 -18.550  1.00  0.00     0.005 C 
BRANCH   2   3
ATOM      3  C   UNL     1       0.074   9.245 -19.538  1.00  0.00     0.027 C 
BRANCH   3   4
ATOM      4  C   UNL     1       0.666   9.248 -20.929  1.00  0.00    -0.031 C 
ATOM      5  C   UNL     1       1.722   8.545 -21.397  1.00  0.00    -0.028 C 
BRANCH   5   6
ATOM      6  C   UNL     1       2.553   7.471 -20.714  1.00  0.00     0.005 C 
ATOM      7  C   UNL     1       3.536   8.081 -19.709  1.00  0.00     0.012 C 
ATOM      8  C   UNL     1       3.223   6.458 -21.648  1.00  0.00     0.012 C 
ENDBRANCH   5   6
ENDBRANCH   3   4
ENDBRANCH   2   3
ENDBRANCH   1   2
BRANCH   1   9
ATOM      9  C   UNL     1       0.129   9.000 -16.360  1.00  0.00     0.100 C 
BRANCH   9  10
ATOM     10  C   UNL     1       0.448   9.136 -14.899  1.00  0.00     0.220 C 
ATOM     11  O   UNL     1       1.019  10.181 -14.485  1.00  0.00    -0.275 OA
ATOM     12  N   UNL     1       0.076   8.102 -13.977  1.00  0.00    -0.352 N 
ATOM     13  H   UNL     1      -0.420   7.254 -14.334  1.00  0.00     0.163 HD
BRANCH  12  14
ATOM     14  C   UNL     1       0.353   8.191 -12.546  1.00  0.00     0.151 C 
BRANCH  14  15
ATOM     15  C   UNL     1       1.254   7.063 -12.118  1.00  0.00    -0.025 A 
ATOM     16  C   UNL     1       1.869   7.097 -10.858  1.00  0.00     0.056 A 
ATOM     17  C   UNL     1       1.462   5.959 -12.959  1.00  0.00     0.009 A 
ATOM     18  C   UNL     1       2.697   6.037 -10.437  1.00  0.00     0.160 A 
ATOM     19  C   UNL     1       2.282   4.907 -12.548  1.00  0.00     0.050 A 
ATOM     20  C   UNL     1       2.900   4.943 -11.291  1.00  0.00     0.157 A 
BRANCH  18  21
ATOM     21  O   UNL     1       3.331   6.035  -9.184  1.00  0.00    -0.493 OA
ATOM     22  C   UNL     1       3.423   7.167  -8.326  1.00  0.00     0.278 C 
ENDBRANCH  18  21
BRANCH  20  23
ATOM     23  O   UNL     1       3.719   3.892 -10.880  1.00  0.00    -0.504 OA
ATOM     24  H   UNL     1       3.660   2.976 -11.310  1.00  0.00     0.293 HD
ENDBRANCH  20  23
ENDBRANCH  14  15
ENDBRANCH  12  14
ENDBRANCH   9  10
ENDBRANCH   1   9
TORSDOF 10
ENDMDL
MODEL 2
REMARK VINA RESULT:    -2.914      2.156      3.478
REMARK INTER + INTRA:          -5.381
REMARK INTER:                  -4.878
REMARK INTRA:                  -0.503
REMARK UNBOUND:                -0.849
REMARK SMILES COc1cc(CNC(=O)CCCCC=CC(C)C)ccc1O
REMARK SMILES IDX 11 1 12 2 13 3 14 4 15 5 16 6 17 7 18 8 10 9 8 10 9 11 7 12
REMARK SMILES IDX 6 14 5 15 4 16 19 17 3 18 20 19 21 20 2 21 1 22 22 23
REMARK H PARENT 7 13 22 24
REMARK Flexibility Score: inf
ROOT
ATOM      1  C   UNL     1       2.095   8.295 -19.238  1.00  0.00     0.010 C 
ENDROOT
BRANCH   1   2
ATOM      2  C   UNL     1       2.262   9.603 -20.038  1.00  0.00     0.005 C 
BRANCH   2   3
ATOM      3  C   UNL     1       1.711   9.555 -21.476  1.00  0.00     0.027 C 
BRANCH   3   4
ATOM      4  C   UNL     1       0.511  10.438 -21.730  1.00  0.00    -0.031 C 
ATOM      5  C   UNL     1      -0.125  10.679 -22.899  1.00  0.00    -0.028 C 
BRANCH   5   6
ATOM      6  C   UNL     1       0.094  10.060 -24.270  1.00  0.00     0.005 C 
ATOM      7  C   UNL     1      -0.071   8.537 -24.227  1.00  0.00     0.012 C 
ATOM      8  C   UNL     1       1.373  10.490 -24.995  1.00  0.00     0.012 C 
ENDBRANCH   5   6
ENDBRANCH   3   4
ENDBRANCH   2   3
ENDBRANCH   1   2
BRANCH   1   9
ATOM      9  C   UNL     1       0.694   8.107 -18.636  1.00  0.00     0.100 C 
BRANCH   9  10
ATOM     10  C   UNL     1       0.559   8.799 -17.310  1.00  0.00     0.220 C 
ATOM     11  O   UNL     1       0.353  10.043 -17.280  1.00  0.00    -0.275 OA
ATOM     12  N   UNL     1       0.629   8.047 -16.090  1.00  0.00    -0.352 N 
ATOM     13  H   UNL     1       0.774   7.014 -16.135  1.00  0.00     0.163 HD
BRANCH  12  14
ATOM     14  C   UNL     1       0.493   8.672 -14.776  1.00  0.00     0.151 C 
BRANCH  14  15
ATOM     15  C   UNL     1       0.914   7.711 -13.697  1.00  0.00    -0.025 A 
ATOM     16  C   UNL     1       0.622   6.344 -13.822  1.00  0.00     0.056 A 
ATOM     17  C   UNL     1       1.626   8.165 -12.577  1.00  0.00     0.009 A 
ATOM     18  C   UNL     1       1.029   5.431 -12.829  1.00  0.00     0.160 A 
ATOM     19  C   UNL     1       2.031   7.265 -11.589  1.00  0.00     0.050 A 
ATOM     20  C   UNL     1       1.735   5.901 -11.712  1.00  0.00     0.157 A 
BRANCH  18  21
ATOM     21  O   UNL     1       0.755   4.058 -12.917  1.00  0.00    -0.493 OA
ATOM     22  C   UNL     1       1.378   3.169 -13.839  1.00  0.00     0.278 C 
ENDBRANCH  18  21
BRANCH  20  23
ATOM     23  O   UNL     1       2.141   5.003 -10.725  1.00  0.00    -0.504 OA
ATOM     24  H   UNL     1       3.110   4.722 -10.632  1.00  0.00     0.293 HD
ENDBRANCH  20  23
ENDBRANCH  14  15
ENDBRANCH  12  14
ENDBRANCH   9  10
ENDBRANCH   1   9
TORSDOF 10
ENDMDL
MODEL 3
REMARK VINA RESULT:    -2.789     10.683     13.096
REMARK INTER + INTRA:          -5.187
REMARK INTER:                  -4.689
REMARK INTRA:                  -0.498
REMARK UNBOUND:                -0.849
REMARK SMILES COc1cc(CNC(=O)CCCCC=CC(C)C)ccc1O
REMARK SMILES IDX 11 1 12 2 13 3 14 4 15 5 16 6 17 7 18 8 10 9 8 10 9 11 7 12
REMARK SMILES IDX 6 14 5 15 4 16 19 17 3 18 20 19 21 20 2 21 1 22 22 23
REMARK H PARENT 7 13 22 24
REMARK Flexibility Score: inf
ROOT
ATOM      1  C   UNL     1       7.221  -2.764 -13.878  1.00  0.00     0.010 C 
ENDROOT
BRANCH   1   2
ATOM      2  C   UNL     1       8.243  -1.610 -13.881  1.00  0.00     0.005 C 
BRANCH   2   3
ATOM      3  C   UNL     1       8.112  -0.635 -15.067  1.00  0.00     0.027 C 
BRANCH   3   4
ATOM      4  C   UNL     1       9.364  -0.469 -15.898  1.00  0.00    -0.031 C 
ATOM      5  C   UNL     1       9.546   0.283 -17.007  1.00  0.00    -0.028 C 
BRANCH   5   6
ATOM      6  C   UNL     1       8.600   1.265 -17.680  1.00  0.00     0.005 C 
ATOM      7  C   UNL     1       8.198   2.395 -16.727  1.00  0.00     0.012 C 
ATOM      8  C   UNL     1       7.394   0.642 -18.391  1.00  0.00     0.012 C 
ENDBRANCH   5   6
ENDBRANCH   3   4
ENDBRANCH   2   3
ENDBRANCH   1   2
BRANCH   1   9
ATOM      9  C   UNL     1       5.822  -2.357 -13.389  1.00  0.00     0.100 C 
BRANCH   9  10
ATOM     10  C   UNL     1       4.816  -3.452 -13.601  1.00  0.00     0.220 C 
ATOM     11  O   UNL     1       3.627  -3.152 -13.893  1.00  0.00    -0.275 OA
ATOM     12  N   UNL     1       5.213  -4.827 -13.505  1.00  0.00    -0.352 N 
ATOM     13  H   UNL     1       6.208  -5.058 -13.287  1.00  0.00     0.163 HD
BRANCH  12  14
ATOM     14  C   UNL     1       4.276  -5.929 -13.712  1.00  0.00     0.151 C 
BRANCH  14  15
ATOM     15  C   UNL     1       4.046  -6.668 -12.421  1.00  0.00    -0.025 A 
ATOM     16  C   UNL     1       2.883  -6.428 -11.674  1.00  0.00     0.056 A 
ATOM     17  C   UNL     1       4.973  -7.619 -11.970  1.00  0.00     0.009 A 
ATOM     18  C   UNL     1       2.646  -7.129 -10.474  1.00  0.00     0.160 A 
ATOM     19  C   UNL     1       4.744  -8.316 -10.781  1.00  0.00     0.050 A 
ATOM     20  C   UNL     1       3.584  -8.073 -10.033  1.00  0.00     0.157 A 
BRANCH  18  21
ATOM     21  O   UNL     1       1.495  -6.916  -9.698  1.00  0.00    -0.493 OA
ATOM     22  C   UNL     1       0.283  -7.650  -9.838  1.00  0.00     0.278 C 
ENDBRANCH  18  21
BRANCH  20  23
ATOM     23  O   UNL     1       3.356  -8.769  -8.846  1.00  0.00    -0.504 OA
ATOM     24  H   UNL     1       2.649  -9.492  -8.785  1.00  0.00     0.293 HD
ENDBRANCH  20  23
ENDBRANCH  14  15
ENDBRANCH  12  14
ENDBRANCH   9  10
ENDBRANCH   1   9
TORSDOF 10
ENDMDL
MODEL 4
REMARK VINA RESULT:    -2.691     10.870     13.454
REMARK INTER + INTRA:          -5.034
REMARK INTER:                  -4.583
REMARK INTRA:                  -0.452
REMARK UNBOUND:                -0.849
REMARK SMILES COc1cc(CNC(=O)CCCCC=CC(C)C)ccc1O
REMARK SMILES IDX 11 1 12 2 13 3 14 4 15 5 16 6 17 7 18 8 10 9 8 10 9 11 7 12
REMARK SMILES IDX 6 14 5 15 4 16 19 17 3 18 20 19 21 20 2 21 1 22 22 23
REMARK H PARENT 7 13 22 24
REMARK Flexibility Score: inf
ROOT
ATOM      1  C   UNL     1       8.013  -2.333 -13.896  1.00  0.00     0.010 C 
ENDROOT
BRANCH   1   2
ATOM      2  C   UNL     1       8.086  -0.823 -14.199  1.00  0.00     0.005 C 
BRANCH   2   3
ATOM      3  C   UNL     1       8.740  -0.465 -15.547  1.00  0.00     0.027 C 
BRANCH   3   4
ATOM      4  C   UNL     1       7.791   0.077 -16.592  1.00  0.00    -0.031 C 
ATOM      5  C   UNL     1       7.863   1.246 -17.269  1.00  0.00    -0.028 C 
BRANCH   5   6
ATOM      6  C   UNL     1       8.958   2.301 -17.273  1.00  0.00     0.005 C 
ATOM      7  C   UNL     1      10.347   1.663 -17.384  1.00  0.00     0.012 C 
ATOM      8  C   UNL     1       8.879   3.340 -16.150  1.00  0.00     0.012 C 
ENDBRANCH   5   6
ENDBRANCH   3   4
ENDBRANCH   2   3
ENDBRANCH   1   2
BRANCH   1   9
ATOM      9  C   UNL     1       9.279  -3.111 -14.291  1.00  0.00     0.100 C 
BRANCH   9  10
ATOM     10  C   UNL     1       9.159  -4.572 -13.967  1.00  0.00     0.220 C 
ATOM     11  O   UNL     1      10.087  -5.357 -14.304  1.00  0.00    -0.275 OA
ATOM     12  N   UNL     1       8.018  -5.064 -13.252  1.00  0.00    -0.352 N 
ATOM     13  H   UNL     1       7.272  -4.395 -12.958  1.00  0.00     0.163 HD
BRANCH  12  14
ATOM     14  C   UNL     1       7.860  -6.475 -12.903  1.00  0.00     0.151 C 
BRANCH  14  15
ATOM     15  C   UNL     1       6.474  -6.727 -12.372  1.00  0.00    -0.025 A 
ATOM     16  C   UNL     1       5.368  -6.119 -12.983  1.00  0.00     0.056 A 
ATOM     17  C   UNL     1       6.275  -7.591 -11.285  1.00  0.00     0.009 A 
ATOM     18  C   UNL     1       4.064  -6.365 -12.509  1.00  0.00     0.160 A 
ATOM     19  C   UNL     1       4.985  -7.837 -10.809  1.00  0.00     0.050 A 
ATOM     20  C   UNL     1       3.880  -7.226 -11.417  1.00  0.00     0.157 A 
BRANCH  18  21
ATOM     21  O   UNL     1       2.931  -5.775 -13.092  1.00  0.00    -0.493 OA
ATOM     22  C   UNL     1       2.972  -4.856 -14.179  1.00  0.00     0.278 C 
ENDBRANCH  18  21
BRANCH  20  23
ATOM     23  O   UNL     1       2.592  -7.473 -10.943  1.00  0.00    -0.504 OA
ATOM     24  H   UNL     1       2.389  -8.272 -10.354  1.00  0.00     0.293 HD
ENDBRANCH  20  23
ENDBRANCH  14  15
ENDBRANCH  12  14
ENDBRANCH   9  10
ENDBRANCH   1   9
TORSDOF 10
ENDMDL
MODEL 5
REMARK VINA RESULT:    -2.344     11.138     13.662
REMARK INTER + INTRA:          -4.495
REMARK INTER:                  -4.258
REMARK INTRA:                  -0.237
REMARK UNBOUND:                -0.849
REMARK SMILES COc1cc(CNC(=O)CCCCC=CC(C)C)ccc1O
REMARK SMILES IDX 11 1 12 2 13 3 14 4 15 5 16 6 17 7 18 8 10 9 8 10 9 11 7 12
REMARK SMILES IDX 6 14 5 15 4 16 19 17 3 18 20 19 21 20 2 21 1 22 22 23
REMARK H PARENT 7 13 22 24
REMARK Flexibility Score: inf
ROOT
ATOM      1  C   UNL     1       7.985  -2.588 -14.074  1.00  0.00     0.010 C 
ENDROOT
BRANCH   1   2
ATOM      2  C   UNL     1       8.272  -1.078 -13.943  1.00  0.00     0.005 C 
BRANCH   2   3
ATOM      3  C   UNL     1       8.241  -0.297 -15.271  1.00  0.00     0.027 C 
BRANCH   3   4
ATOM      4  C   UNL     1       9.465  -0.468 -16.142  1.00  0.00    -0.031 C 
ATOM      5  C   UNL     1       9.769   0.161 -17.299  1.00  0.00    -0.028 C 
BRANCH   5   6
ATOM      6  C   UNL     1       9.047   1.295 -18.008  1.00  0.00     0.005 C 
ATOM      7  C   UNL     1       9.116   2.594 -17.197  1.00  0.00     0.012 C 
ATOM      8  C   UNL     1       7.626   0.978 -18.486  1.00  0.00     0.012 C 
ENDBRANCH   5   6
ENDBRANCH   3   4
ENDBRANCH   2   3
ENDBRANCH   1   2
BRANCH   1   9
ATOM      9  C   UNL     1       9.247  -3.452 -14.226  1.00  0.00     0.100 C 
BRANCH   9  10
ATOM     10  C   UNL     1       9.003  -4.873 -13.806  1.00  0.00     0.220 C 
ATOM     11  O   UNL     1       9.882  -5.746 -14.041  1.00  0.00    -0.275 OA
ATOM     12  N   UNL     1       7.797  -5.228 -13.116  1.00  0.00    -0.352 N 
ATOM     13  H   UNL     1       7.091  -4.486 -12.907  1.00  0.00     0.163 HD
BRANCH  12  14
ATOM     14  C   UNL     1       7.517  -6.593 -12.677  1.00  0.00     0.151 C 
BRANCH  14  15
ATOM     15  C   UNL     1       6.067  -6.732 -12.299  1.00  0.00    -0.025 A 
ATOM     16  C   UNL     1       5.708  -7.453 -11.150  1.00  0.00     0.056 A 
ATOM     17  C   UNL     1       5.067  -6.121 -13.071  1.00  0.00     0.009 A 
ATOM     18  C   UNL     1       4.356  -7.572 -10.773  1.00  0.00     0.160 A 
ATOM     19  C   UNL     1       3.725  -6.237 -12.703  1.00  0.00     0.050 A 
ATOM     20  C   UNL     1       3.367  -6.961 -11.558  1.00  0.00     0.157 A 
BRANCH  18  21
ATOM     21  O   UNL     1       3.957  -8.286  -9.632  1.00  0.00    -0.493 OA
ATOM     22  C   UNL     1       3.288  -7.709  -8.515  1.00  0.00     0.278 C 
ENDBRANCH  18  21
BRANCH  20  23
ATOM     23  O   UNL     1       2.027  -7.076 -11.191  1.00  0.00    -0.504 OA
ATOM     24  H   UNL     1       1.612  -6.459 -10.503  1.00  0.00     0.293 HD
ENDBRANCH  20  23
ENDBRANCH  14  15
ENDBRANCH  12  14
ENDBRANCH   9  10
ENDBRANCH   1   9
TORSDOF 10
ENDMDL
MODEL 6
REMARK VINA RESULT:    -1.919     10.638     13.004
REMARK INTER + INTRA:          -3.834
REMARK INTER:                  -3.744
REMARK INTRA:                  -0.090
REMARK UNBOUND:                -0.849
REMARK SMILES COc1cc(CNC(=O)CCCCC=CC(C)C)ccc1O
REMARK SMILES IDX 11 1 12 2 13 3 14 4 15 5 16 6 17 7 18 8 10 9 8 10 9 11 7 12
REMARK SMILES IDX 6 14 5 15 4 16 19 17 3 18 20 19 21 20 2 21 1 22 22 23
REMARK H PARENT 7 13 22 24
REMARK Flexibility Score: inf
ROOT
ATOM      1  C   UNL     1       9.089  -0.471 -15.238  1.00  0.00     0.010 C 
ENDROOT
BRANCH   1   2
ATOM      2  C   UNL     1       9.295  -1.100 -16.631  1.00  0.00     0.005 C 
BRANCH   2   3
ATOM      3  C   UNL     1       9.535  -0.087 -17.768  1.00  0.00     0.027 C 
BRANCH   3   4
ATOM      4  C   UNL     1      10.415   1.086 -17.402  1.00  0.00    -0.031 C 
ATOM      5  C   UNL     1      10.049   2.353 -17.104  1.00  0.00    -0.028 C 
BRANCH   5   6
ATOM      6  C   UNL     1       8.661   2.949 -16.936  1.00  0.00     0.005 C 
ATOM      7  C   UNL     1       8.622   3.958 -15.783  1.00  0.00     0.012 C 
ATOM      8  C   UNL     1       7.510   1.940 -16.870  1.00  0.00     0.012 C 
ENDBRANCH   5   6
ENDBRANCH   3   4
ENDBRANCH   2   3
ENDBRANCH   1   2
BRANCH   1   9
ATOM      9  C   UNL     1       8.103  -1.241 -14.345  1.00  0.00     0.100 C 
BRANCH   9  10
ATOM     10  C   UNL     1       8.687  -2.535 -13.857  1.00  0.00     0.220 C 
ATOM     11  O   UNL     1       9.875  -2.558 -13.435  1.00  0.00    -0.275 OA
ATOM     12  N   UNL     1       7.890  -3.728 -13.839  1.00  0.00    -0.352 N 
ATOM     13  H   UNL     1       6.900  -3.685 -14.167  1.00  0.00     0.163 HD
BRANCH  12  14
ATOM     14  C   UNL     1       8.407  -5.009 -13.363  1.00  0.00     0.151 C 
BRANCH  14  15
ATOM     15  C   UNL     1       7.282  -5.866 -12.847  1.00  0.00    -0.025 A 
ATOM     16  C   UNL     1       6.013  -5.786 -13.440  1.00  0.00     0.056 A 
ATOM     17  C   UNL     1       7.498  -6.768 -11.795  1.00  0.00     0.009 A 
ATOM     18  C   UNL     1       4.957  -6.598 -12.980  1.00  0.00     0.160 A 
ATOM     19  C   UNL     1       6.455  -7.574 -11.335  1.00  0.00     0.050 A 
ATOM     20  C   UNL     1       5.186  -7.491 -11.923  1.00  0.00     0.157 A 
BRANCH  18  21
ATOM     21  O   UNL     1       3.673  -6.547 -13.546  1.00  0.00    -0.493 OA
ATOM     22  C   UNL     1       3.059  -5.363 -14.044  1.00  0.00     0.278 C 
ENDBRANCH  18  21
BRANCH  20  23
ATOM     23  O   UNL     1       4.145  -8.297 -11.463  1.00  0.00    -0.504 OA
ATOM     24  H   UNL     1       4.314  -9.235 -11.119  1.00  0.00     0.293 HD
ENDBRANCH  20  23
ENDBRANCH  14  15
ENDBRANCH  12  14
ENDBRANCH   9  10
ENDBRANCH   1   9
TORSDOF 10
ENDMDL
MODEL 7
REMARK VINA RESULT:    -1.816     10.937     15.093
REMARK INTER + INTRA:          -3.674
REMARK INTER:                  -3.056
REMARK INTRA:                  -0.618
REMARK UNBOUND:                -0.849
REMARK SMILES COc1cc(CNC(=O)CCCCC=CC(C)C)ccc1O
REMARK SMILES IDX 11 1 12 2 13 3 14 4 15 5 16 6 17 7 18 8 10 9 8 10 9 11 7 12
REMARK SMILES IDX 6 14 5 15 4 16 19 17 3 18 20 19 21 20 2 21 1 22 22 23
REMARK H PARENT 7 13 22 24
REMARK Flexibility Score: inf
ROOT
ATOM      1  C   UNL     1       7.230  -6.019 -12.754  1.00  0.00     0.010 C 
ENDROOT
BRANCH   1   2
ATOM      2  C   UNL     1       5.977  -6.848 -12.406  1.00  0.00     0.005 C 
BRANCH   2   3
ATOM      3  C   UNL     1       6.174  -7.870 -11.270  1.00  0.00     0.027 C 
BRANCH   3   4
ATOM      4  C   UNL     1       5.034  -8.846 -11.084  1.00  0.00    -0.031 C 
ATOM      5  C   UNL     1       3.835  -8.636 -10.496  1.00  0.00    -0.028 C 
BRANCH   5   6
ATOM      6  C   UNL     1       3.228  -7.352  -9.955  1.00  0.00     0.005 C 
ATOM      7  C   UNL     1       3.702  -7.071  -8.525  1.00  0.00     0.012 C 
ATOM      8  C   UNL     1       1.709  -7.222 -10.104  1.00  0.00     0.012 C 
ENDBRANCH   5   6
ENDBRANCH   3   4
ENDBRANCH   2   3
ENDBRANCH   1   2
BRANCH   1   9
ATOM      9  C   UNL     1       6.926  -4.717 -13.512  1.00  0.00     0.100 C 
BRANCH   9  10
ATOM     10  C   UNL     1       8.166  -3.902 -13.741  1.00  0.00     0.220 C 
ATOM     11  O   UNL     1       9.279  -4.486 -13.840  1.00  0.00    -0.275 OA
ATOM     12  N   UNL     1       8.081  -2.477 -13.878  1.00  0.00    -0.352 N 
ATOM     13  H   UNL     1       7.147  -2.013 -13.819  1.00  0.00     0.163 HD
BRANCH  12  14
ATOM     14  C   UNL     1       9.256  -1.641 -14.112  1.00  0.00     0.151 C 
BRANCH  14  15
ATOM     15  C   UNL     1       9.108  -0.883 -15.404  1.00  0.00    -0.025 A 
ATOM     16  C   UNL     1       8.534   0.398 -15.403  1.00  0.00     0.056 A 
ATOM     17  C   UNL     1       9.565  -1.434 -16.610  1.00  0.00     0.009 A 
ATOM     18  C   UNL     1       8.408   1.127 -16.603  1.00  0.00     0.160 A 
ATOM     19  C   UNL     1       9.442  -0.717 -17.802  1.00  0.00     0.050 A 
ATOM     20  C   UNL     1       8.865   0.560 -17.802  1.00  0.00     0.157 A 
BRANCH  18  21
ATOM     21  O   UNL     1       7.840   2.409 -16.643  1.00  0.00    -0.493 OA
ATOM     22  C   UNL     1       8.511   3.601 -16.246  1.00  0.00     0.278 C 
ENDBRANCH  18  21
BRANCH  20  23
ATOM     23  O   UNL     1       8.743   1.276 -18.992  1.00  0.00    -0.504 OA
ATOM     24  H   UNL     1       8.034   1.990 -19.110  1.00  0.00     0.293 HD
ENDBRANCH  20  23
ENDBRANCH  14  15
ENDBRANCH  12  14
ENDBRANCH   9  10
ENDBRANCH   1   9
TORSDOF 10
ENDMDL
