MODEL 1
REMARK VINA RESULT:    -7.133      0.000      0.000
REMARK INTER + INTRA:         -11.293
REMARK INTER:                 -10.052
REMARK INTRA:                  -1.241
REMARK UNBOUND:                -1.241
REMARK SMILES COc1c(O[C@@H]2O[C@@H](C(=O)[O-])[C@@H](O)[C@@H](O)[C@@H]2O)cc(O)c2c(=O)cc(-c3ccccc3)oc12
REMARK SMILES IDX 5 1 6 2 8 3 12 4 7 5 14 6 16 7 9 8 10 9 11 10 13 11 15 13
REMARK SMILES IDX 17 15 4 17 3 18 18 19 33 20 19 21 21 22 32 23 22 24 25 25
REMARK SMILES IDX 24 26 23 27 2 28 1 29 20 30 26 32 27 33 31 34 28 35 30 36
REMARK SMILES IDX 29 37
REMARK H PARENT 13 12 15 14 17 16 20 31
REMARK Flexibility Score: inf
ROOT
ATOM      1  O   UNL     1      -2.121  -1.149  23.970  1.00  0.00    -0.458 OA
ENDROOT
BRANCH   1   2
ATOM      2  C   UNL     1      -1.961  -1.897  25.185  1.00  0.00     0.339 C 
ATOM      3  C   UNL     1       0.360  -1.533  25.171  1.00  0.00     0.199 C 
ATOM      4  C   UNL     1       0.690  -3.018  24.898  1.00  0.00     0.180 C 
ATOM      5  O   UNL     1      -0.845  -1.404  25.914  1.00  0.00    -0.328 OA
ATOM      6  C   UNL     1      -0.485  -3.668  24.146  1.00  0.00     0.181 C 
ATOM      7  C   UNL     1      -1.797  -3.412  24.909  1.00  0.00     0.214 C 
BRANCH   3   8
ATOM      8  C   UNL     1       1.475  -0.869  25.926  1.00  0.00     0.073 C 
ATOM      9  O   UNL     1       2.652  -1.317  25.856  1.00  0.00    -0.547 OA
ATOM     10  O   UNL     1       1.215   0.252  26.704  1.00  0.00    -0.547 OA
ENDBRANCH   3   8
BRANCH   4  11
ATOM     11  O   UNL     1       0.921  -3.691  26.112  1.00  0.00    -0.387 OA
ATOM     12  H   UNL     1       0.123  -4.255  26.287  1.00  0.00     0.211 HD
ENDBRANCH   4  11
BRANCH   6  13
ATOM     13  O   UNL     1      -0.258  -5.048  24.016  1.00  0.00    -0.387 OA
ATOM     14  H   UNL     1      -0.998  -5.411  23.463  1.00  0.00     0.211 HD
ENDBRANCH   6  13
BRANCH   7  15
ATOM     15  O   UNL     1      -2.879  -3.912  24.169  1.00  0.00    -0.384 OA
ATOM     16  H   UNL     1      -2.603  -3.897  23.216  1.00  0.00     0.211 HD
ENDBRANCH   7  15
ENDBRANCH   1   2
BRANCH   1  17
ATOM     17  C   UNL     1      -3.259  -0.418  23.586  1.00  0.00     0.172 A 
ATOM     18  C   UNL     1      -3.534  -0.309  22.219  1.00  0.00     0.205 A 
ATOM     19  C   UNL     1      -4.093   0.205  24.523  1.00  0.00     0.097 A 
ATOM     20  C   UNL     1      -4.692   0.388  21.790  1.00  0.00     0.188 A 
ATOM     21  C   UNL     1      -5.215   0.929  24.122  1.00  0.00     0.134 A 
ATOM     22  C   UNL     1      -5.563   0.985  22.745  1.00  0.00     0.111 A 
ATOM     23  O   UNL     1      -4.969   0.480  20.492  1.00  0.00    -0.452 OA
ATOM     24  C   UNL     1      -6.753   1.574  22.256  1.00  0.00     0.197 A 
ATOM     25  C   UNL     1      -6.041   1.093  20.004  1.00  0.00     0.138 A 
ATOM     26  C   UNL     1      -6.976   1.645  20.884  1.00  0.00     0.100 A 
ATOM     27  O   UNL     1      -7.647   2.009  23.028  1.00  0.00    -0.289 OA
BRANCH  18  28
ATOM     28  O   UNL     1      -2.623  -0.930  21.342  1.00  0.00    -0.490 OA
ATOM     29  C   UNL     1      -1.715  -0.278  20.463  1.00  0.00     0.278 C 
ENDBRANCH  18  28
BRANCH  21  30
ATOM     30  O   UNL     1      -5.919   1.597  25.128  1.00  0.00    -0.507 OA
ATOM     31  H   UNL     1      -6.329   2.515  25.023  1.00  0.00     0.293 HD
ENDBRANCH  21  30
BRANCH  25  32
ATOM     32  C   UNL     1      -6.232   1.154  18.534  1.00  0.00     0.017 A 
ATOM     33  C   UNL     1      -5.340   0.476  17.684  1.00  0.00     0.012 A 
ATOM     34  C   UNL     1      -7.279   1.904  17.963  1.00  0.00     0.012 A 
ATOM     35  C   UNL     1      -5.499   0.533  16.297  1.00  0.00     0.001 A 
ATOM     36  C   UNL     1      -7.433   1.959  16.573  1.00  0.00     0.001 A 
ATOM     37  C   UNL     1      -6.545   1.274  15.741  1.00  0.00     0.000 A 
ENDBRANCH  25  32
ENDBRANCH   1  17
TORSDOF 9
ENDMDL
MODEL 2
REMARK VINA RESULT:    -6.589      2.708      5.189
REMARK INTER + INTRA:         -10.527
REMARK INTER:                  -9.232
REMARK INTRA:                  -1.296
REMARK UNBOUND:                -1.241
REMARK SMILES COc1c(O[C@@H]2O[C@@H](C(=O)[O-])[C@@H](O)[C@@H](O)[C@@H]2O)cc(O)c2c(=O)cc(-c3ccccc3)oc12
REMARK SMILES IDX 5 1 6 2 8 3 12 4 7 5 14 6 16 7 9 8 10 9 11 10 13 11 15 13
REMARK SMILES IDX 17 15 4 17 3 18 18 19 33 20 19 21 21 22 32 23 22 24 25 25
REMARK SMILES IDX 24 26 23 27 2 28 1 29 20 30 26 32 27 33 31 34 28 35 30 36
REMARK SMILES IDX 29 37
REMARK H PARENT 13 12 15 14 17 16 20 31
REMARK Flexibility Score: inf
ROOT
ATOM      1  O   UNL     1       0.673  -2.320  25.234  1.00  0.00    -0.458 OA
ENDROOT
BRANCH   1   2
ATOM      2  C   UNL     1       0.278  -3.391  26.104  1.00  0.00     0.339 C 
ATOM      3  C   UNL     1      -0.573  -1.874  27.683  1.00  0.00     0.199 C 
ATOM      4  C   UNL     1       0.516  -2.202  28.729  1.00  0.00     0.180 C 
ATOM      5  O   UNL     1      -0.857  -3.003  26.867  1.00  0.00    -0.328 OA
ATOM      6  C   UNL     1       1.785  -2.684  28.006  1.00  0.00     0.181 C 
ATOM      7  C   UNL     1       1.432  -3.828  27.039  1.00  0.00     0.214 C 
BRANCH   3   8
ATOM      8  C   UNL     1      -1.838  -1.422  28.353  1.00  0.00     0.073 C 
ATOM      9  O   UNL     1      -2.952  -1.560  27.778  1.00  0.00    -0.547 OA
ATOM     10  O   UNL     1      -1.787  -0.855  29.620  1.00  0.00    -0.547 OA
ENDBRANCH   3   8
BRANCH   4  11
ATOM     11  O   UNL     1       0.052  -3.197  29.610  1.00  0.00    -0.387 OA
ATOM     12  H   UNL     1       0.787  -3.856  29.715  1.00  0.00     0.211 HD
ENDBRANCH   4  11
BRANCH   6  13
ATOM     13  O   UNL     1       2.732  -3.117  28.949  1.00  0.00    -0.387 OA
ATOM     14  H   UNL     1       3.531  -2.538  28.843  1.00  0.00     0.211 HD
ENDBRANCH   6  13
BRANCH   7  15
ATOM     15  O   UNL     1       2.569  -4.193  26.303  1.00  0.00    -0.384 OA
ATOM     16  H   UNL     1       2.481  -3.765  25.411  1.00  0.00     0.211 HD
ENDBRANCH   7  15
ENDBRANCH   1   2
BRANCH   1  17
ATOM     17  C   UNL     1       0.500  -2.272  23.840  1.00  0.00     0.172 A 
ATOM     18  C   UNL     1      -0.627  -1.606  23.344  1.00  0.00     0.205 A 
ATOM     19  C   UNL     1       1.403  -2.878  22.958  1.00  0.00     0.097 A 
ATOM     20  C   UNL     1      -0.819  -1.502  21.944  1.00  0.00     0.188 A 
ATOM     21  C   UNL     1       1.212  -2.824  21.578  1.00  0.00     0.134 A 
ATOM     22  C   UNL     1       0.122  -2.082  21.046  1.00  0.00     0.111 A 
ATOM     23  O   UNL     1      -1.878  -0.854  21.466  1.00  0.00    -0.452 OA
ATOM     24  C   UNL     1      -0.076  -1.851  19.664  1.00  0.00     0.197 A 
ATOM     25  C   UNL     1      -2.125  -0.689  20.171  1.00  0.00     0.138 A 
ATOM     26  C   UNL     1      -1.211  -1.173  19.231  1.00  0.00     0.100 A 
ATOM     27  O   UNL     1       0.769  -2.209  18.802  1.00  0.00    -0.289 OA
BRANCH  18  28
ATOM     28  O   UNL     1      -1.505  -1.059  24.299  1.00  0.00    -0.490 OA
ATOM     29  C   UNL     1      -2.869  -1.408  24.494  1.00  0.00     0.278 C 
ENDBRANCH  18  28
BRANCH  21  30
ATOM     30  O   UNL     1       2.112  -3.549  20.793  1.00  0.00    -0.507 OA
ATOM     31  H   UNL     1       2.405  -4.496  20.991  1.00  0.00     0.293 HD
ENDBRANCH  21  30
BRANCH  25  32
ATOM     32  C   UNL     1      -3.354   0.030  19.755  1.00  0.00     0.017 A 
ATOM     33  C   UNL     1      -3.320   1.425  19.573  1.00  0.00     0.012 A 
ATOM     34  C   UNL     1      -4.571  -0.652  19.563  1.00  0.00     0.012 A 
ATOM     35  C   UNL     1      -4.473   2.119  19.193  1.00  0.00     0.001 A 
ATOM     36  C   UNL     1      -5.722   0.048  19.184  1.00  0.00     0.001 A 
ATOM     37  C   UNL     1      -5.673   1.431  18.998  1.00  0.00     0.000 A 
ENDBRANCH  25  32
ENDBRANCH   1  17
TORSDOF 9
ENDMDL
MODEL 3
REMARK VINA RESULT:    -6.540      1.375      2.312
REMARK INTER + INTRA:         -10.457
REMARK INTER:                  -9.110
REMARK INTRA:                  -1.347
REMARK UNBOUND:                -1.241
REMARK SMILES COc1c(O[C@@H]2O[C@@H](C(=O)[O-])[C@@H](O)[C@@H](O)[C@@H]2O)cc(O)c2c(=O)cc(-c3ccccc3)oc12
REMARK SMILES IDX 5 1 6 2 8 3 12 4 7 5 14 6 16 7 9 8 10 9 11 10 13 11 15 13
REMARK SMILES IDX 17 15 4 17 3 18 18 19 33 20 19 21 21 22 32 23 22 24 25 25
REMARK SMILES IDX 24 26 23 27 2 28 1 29 20 30 26 32 27 33 31 34 28 35 30 36
REMARK SMILES IDX 29 37
REMARK H PARENT 13 12 15 14 17 16 20 31
REMARK Flexibility Score: inf
ROOT
ATOM      1  O   UNL     1      -1.780  -1.635  23.554  1.00  0.00    -0.458 OA
ENDROOT
BRANCH   1   2
ATOM      2  C   UNL     1      -0.511  -1.161  24.028  1.00  0.00     0.339 C 
ATOM      3  C   UNL     1       0.598  -3.001  23.079  1.00  0.00     0.199 C 
ATOM      4  C   UNL     1       0.969  -3.609  24.450  1.00  0.00     0.180 C 
ATOM      5  O   UNL     1       0.523  -1.583  23.150  1.00  0.00    -0.328 OA
ATOM      6  C   UNL     1      -0.071  -3.171  25.497  1.00  0.00     0.181 C 
ATOM      7  C   UNL     1      -0.221  -1.639  25.472  1.00  0.00     0.214 C 
BRANCH   3   8
ATOM      8  C   UNL     1       1.604  -3.388  22.035  1.00  0.00     0.073 C 
ATOM      9  O   UNL     1       1.506  -2.949  20.856  1.00  0.00    -0.547 OA
ATOM     10  O   UNL     1       2.659  -4.230  22.365  1.00  0.00    -0.547 OA
ENDBRANCH   3   8
BRANCH   4  11
ATOM     11  O   UNL     1       2.254  -3.182  24.834  1.00  0.00    -0.387 OA
ATOM     12  H   UNL     1       2.271  -2.194  24.738  1.00  0.00     0.211 HD
ENDBRANCH   4  11
BRANCH   6  13
ATOM     13  O   UNL     1       0.331  -3.601  26.772  1.00  0.00    -0.387 OA
ATOM     14  H   UNL     1      -0.207  -4.406  26.988  1.00  0.00     0.211 HD
ENDBRANCH   6  13
BRANCH   7  15
ATOM     15  O   UNL     1      -1.245  -1.251  26.349  1.00  0.00    -0.384 OA
ATOM     16  H   UNL     1      -1.377  -0.275  26.218  1.00  0.00     0.211 HD
ENDBRANCH   7  15
ENDBRANCH   1   2
BRANCH   1  17
ATOM     17  C   UNL     1      -2.911  -0.850  23.272  1.00  0.00     0.172 A 
ATOM     18  C   UNL     1      -3.243  -0.641  21.929  1.00  0.00     0.205 A 
ATOM     19  C   UNL     1      -3.685  -0.271  24.285  1.00  0.00     0.097 A 
ATOM     20  C   UNL     1      -4.397   0.114  21.602  1.00  0.00     0.188 A 
ATOM     21  C   UNL     1      -4.802   0.509  23.986  1.00  0.00     0.134 A 
ATOM     22  C   UNL     1      -5.208   0.667  22.633  1.00  0.00     0.111 A 
ATOM     23  O   UNL     1      -4.728   0.300  20.326  1.00  0.00    -0.452 OA
ATOM     24  C   UNL     1      -6.400   1.319  22.239  1.00  0.00     0.197 A 
ATOM     25  C   UNL     1      -5.802   0.974  19.930  1.00  0.00     0.138 A 
ATOM     26  C   UNL     1      -6.681   1.489  20.886  1.00  0.00     0.100 A 
ATOM     27  O   UNL     1      -7.246   1.724  23.078  1.00  0.00    -0.289 OA
BRANCH  18  28
ATOM     28  O   UNL     1      -2.390  -1.225  20.973  1.00  0.00    -0.490 OA
ATOM     29  C   UNL     1      -1.353  -0.572  20.252  1.00  0.00     0.278 C 
ENDBRANCH  18  28
BRANCH  21  30
ATOM     30  O   UNL     1      -5.441   1.126  25.065  1.00  0.00    -0.507 OA
ATOM     31  H   UNL     1      -6.437   1.282  25.123  1.00  0.00     0.293 HD
ENDBRANCH  21  30
BRANCH  25  32
ATOM     32  C   UNL     1      -6.056   1.140  18.478  1.00  0.00     0.017 A 
ATOM     33  C   UNL     1      -7.108   1.965  18.041  1.00  0.00     0.012 A 
ATOM     34  C   UNL     1      -5.279   0.464  17.517  1.00  0.00     0.012 A 
ATOM     35  C   UNL     1      -7.368   2.124  16.677  1.00  0.00     0.001 A 
ATOM     36  C   UNL     1      -5.544   0.624  16.153  1.00  0.00     0.001 A 
ATOM     37  C   UNL     1      -6.586   1.453  15.733  1.00  0.00     0.000 A 
ENDBRANCH  25  32
ENDBRANCH   1  17
TORSDOF 9
ENDMDL
MODEL 4
REMARK VINA RESULT:    -6.443      2.439      4.901
REMARK INTER + INTRA:         -10.321
REMARK INTER:                  -8.757
REMARK INTRA:                  -1.565
REMARK UNBOUND:                -1.241
REMARK SMILES COc1c(O[C@@H]2O[C@@H](C(=O)[O-])[C@@H](O)[C@@H](O)[C@@H]2O)cc(O)c2c(=O)cc(-c3ccccc3)oc12
REMARK SMILES IDX 5 1 6 2 8 3 12 4 7 5 14 6 16 7 9 8 10 9 11 10 13 11 15 13
REMARK SMILES IDX 17 15 4 17 3 18 18 19 33 20 19 21 21 22 32 23 22 24 25 25
REMARK SMILES IDX 24 26 23 27 2 28 1 29 20 30 26 32 27 33 31 34 28 35 30 36
REMARK SMILES IDX 29 37
REMARK H PARENT 13 12 15 14 17 16 20 31
REMARK Flexibility Score: inf
ROOT
ATOM      1  O   UNL     1      -0.240  -2.266  25.570  1.00  0.00    -0.458 OA
ENDROOT
BRANCH   1   2
ATOM      2  C   UNL     1       0.407  -1.393  26.508  1.00  0.00     0.339 C 
ATOM      3  C   UNL     1       1.031  -3.210  27.860  1.00  0.00     0.199 C 
ATOM      4  C   UNL     1       0.089  -2.801  29.014  1.00  0.00     0.180 C 
ATOM      5  O   UNL     1       1.484  -2.071  27.140  1.00  0.00    -0.328 OA
ATOM      6  C   UNL     1      -1.101  -2.010  28.442  1.00  0.00     0.181 C 
ATOM      7  C   UNL     1      -0.584  -0.853  27.568  1.00  0.00     0.214 C 
BRANCH   3   8
ATOM      8  C   UNL     1       2.218  -3.965  28.382  1.00  0.00     0.073 C 
ATOM      9  O   UNL     1       3.125  -4.358  27.598  1.00  0.00    -0.547 OA
ATOM     10  O   UNL     1       2.329  -4.230  29.742  1.00  0.00    -0.547 OA
ENDBRANCH   3   8
BRANCH   4  11
ATOM     11  O   UNL     1       0.788  -2.016  29.950  1.00  0.00    -0.387 OA
ATOM     12  H   UNL     1       0.113  -1.631  30.567  1.00  0.00     0.211 HD
ENDBRANCH   4  11
BRANCH   6  13
ATOM     13  O   UNL     1      -1.889  -1.514  29.493  1.00  0.00    -0.387 OA
ATOM     14  H   UNL     1      -2.117  -0.575  29.265  1.00  0.00     0.211 HD
ENDBRANCH   6  13
BRANCH   7  15
ATOM     15  O   UNL     1      -1.668  -0.199  26.962  1.00  0.00    -0.384 OA
ATOM     16  H   UNL     1      -2.492  -0.581  27.363  1.00  0.00     0.211 HD
ENDBRANCH   7  15
ENDBRANCH   1   2
BRANCH   1  17
ATOM     17  C   UNL     1      -0.252  -2.125  24.172  1.00  0.00     0.172 A 
ATOM     18  C   UNL     1      -1.402  -1.593  23.579  1.00  0.00     0.205 A 
ATOM     19  C   UNL     1       0.833  -2.513  23.376  1.00  0.00     0.097 A 
ATOM     20  C   UNL     1      -1.441  -1.398  22.175  1.00  0.00     0.188 A 
ATOM     21  C   UNL     1       0.801  -2.369  21.990  1.00  0.00     0.134 A 
ATOM     22  C   UNL     1      -0.322  -1.754  21.372  1.00  0.00     0.111 A 
ATOM     23  O   UNL     1      -2.525  -0.876  21.608  1.00  0.00    -0.452 OA
ATOM     24  C   UNL     1      -0.388  -1.438  19.994  1.00  0.00     0.197 A 
ATOM     25  C   UNL     1      -2.640  -0.639  20.305  1.00  0.00     0.138 A 
ATOM     26  C   UNL     1      -1.557  -0.901  19.463  1.00  0.00     0.100 A 
ATOM     27  O   UNL     1       0.599  -1.592  19.228  1.00  0.00    -0.289 OA
BRANCH  18  28
ATOM     28  O   UNL     1      -2.462  -1.265  24.446  1.00  0.00    -0.490 OA
ATOM     29  C   UNL     1      -3.619  -2.051  24.705  1.00  0.00     0.278 C 
ENDBRANCH  18  28
BRANCH  21  30
ATOM     30  O   UNL     1       1.891  -2.884  21.283  1.00  0.00    -0.507 OA
ATOM     31  H   UNL     1       1.890  -3.774  20.804  1.00  0.00     0.293 HD
ENDBRANCH  21  30
BRANCH  25  32
ATOM     32  C   UNL     1      -3.909  -0.077  19.782  1.00  0.00     0.017 A 
ATOM     33  C   UNL     1      -5.072  -0.124  20.572  1.00  0.00     0.012 A 
ATOM     34  C   UNL     1      -3.984   0.484  18.492  1.00  0.00     0.012 A 
ATOM     35  C   UNL     1      -6.279   0.392  20.089  1.00  0.00     0.001 A 
ATOM     36  C   UNL     1      -5.194   0.996  18.013  1.00  0.00     0.001 A 
ATOM     37  C   UNL     1      -6.340   0.951  18.810  1.00  0.00     0.000 A 
ENDBRANCH  25  32
ENDBRANCH   1  17
TORSDOF 9
ENDMDL
MODEL 5
REMARK VINA RESULT:    -6.295      2.639      9.722
REMARK INTER + INTRA:         -10.112
REMARK INTER:                  -8.609
REMARK INTRA:                  -1.503
REMARK UNBOUND:                -1.241
REMARK SMILES COc1c(O[C@@H]2O[C@@H](C(=O)[O-])[C@@H](O)[C@@H](O)[C@@H]2O)cc(O)c2c(=O)cc(-c3ccccc3)oc12
REMARK SMILES IDX 5 1 6 2 8 3 12 4 7 5 14 6 16 7 9 8 10 9 11 10 13 11 15 13
REMARK SMILES IDX 17 15 4 17 3 18 18 19 33 20 19 21 21 22 32 23 22 24 25 25
REMARK SMILES IDX 24 26 23 27 2 28 1 29 20 30 26 32 27 33 31 34 28 35 30 36
REMARK SMILES IDX 29 37
REMARK H PARENT 13 12 15 14 17 16 20 31
REMARK Flexibility Score: inf
ROOT
ATOM      1  O   UNL     1      -2.715  -0.775  23.184  1.00  0.00    -0.458 OA
ENDROOT
BRANCH   1   2
ATOM      2  C   UNL     1      -4.004  -1.373  22.986  1.00  0.00     0.339 C 
ATOM      3  C   UNL     1      -4.383  -0.065  21.072  1.00  0.00     0.199 C 
ATOM      4  C   UNL     1      -5.511   0.756  21.736  1.00  0.00     0.180 C 
ATOM      5  O   UNL     1      -4.328  -1.383  21.603  1.00  0.00    -0.328 OA
ATOM      6  C   UNL     1      -5.283   0.791  23.258  1.00  0.00     0.181 C 
ATOM      7  C   UNL     1      -5.107  -0.642  23.791  1.00  0.00     0.214 C 
BRANCH   3   8
ATOM      8  C   UNL     1      -4.584  -0.142  19.586  1.00  0.00     0.073 C 
ATOM      9  O   UNL     1      -5.500  -0.859  19.099  1.00  0.00    -0.547 OA
ATOM     10  O   UNL     1      -3.760   0.586  18.736  1.00  0.00    -0.547 OA
ENDBRANCH   3   8
BRANCH   4  11
ATOM     11  O   UNL     1      -6.761   0.179  21.445  1.00  0.00    -0.387 OA
ATOM     12  H   UNL     1      -6.613  -0.797  21.344  1.00  0.00     0.211 HD
ENDBRANCH   4  11
BRANCH   6  13
ATOM     13  O   UNL     1      -6.375   1.414  23.885  1.00  0.00    -0.387 OA
ATOM     14  H   UNL     1      -6.981   0.692  24.195  1.00  0.00     0.211 HD
ENDBRANCH   6  13
BRANCH   7  15
ATOM     15  O   UNL     1      -4.794  -0.602  25.158  1.00  0.00    -0.384 OA
ATOM     16  H   UNL     1      -4.904  -1.527  25.503  1.00  0.00     0.211 HD
ENDBRANCH   7  15
ENDBRANCH   1   2
BRANCH   1  17
ATOM     17  C   UNL     1      -1.505  -1.455  23.403  1.00  0.00     0.172 A 
ATOM     18  C   UNL     1      -1.137  -1.725  24.726  1.00  0.00     0.205 A 
ATOM     19  C   UNL     1      -0.670  -1.845  22.348  1.00  0.00     0.097 A 
ATOM     20  C   UNL     1       0.057  -2.443  24.989  1.00  0.00     0.188 A 
ATOM     21  C   UNL     1       0.529  -2.516  22.585  1.00  0.00     0.134 A 
ATOM     22  C   UNL     1       0.884  -2.875  23.914  1.00  0.00     0.111 A 
ATOM     23  O   UNL     1       0.402  -2.718  26.244  1.00  0.00    -0.452 OA
ATOM     24  C   UNL     1       2.004  -3.675  24.241  1.00  0.00     0.197 A 
ATOM     25  C   UNL     1       1.490  -3.404  26.580  1.00  0.00     0.138 A 
ATOM     26  C   UNL     1       2.315  -3.918  25.576  1.00  0.00     0.100 A 
ATOM     27  O   UNL     1       2.718  -4.215  23.356  1.00  0.00    -0.289 OA
BRANCH  18  28
ATOM     28  O   UNL     1      -2.012  -1.264  25.728  1.00  0.00    -0.490 OA
ATOM     29  C   UNL     1      -1.809  -0.145  26.581  1.00  0.00     0.278 C 
ENDBRANCH  18  28
BRANCH  21  30
ATOM     30  O   UNL     1       1.336  -2.765  21.472  1.00  0.00    -0.507 OA
ATOM     31  H   UNL     1       1.919  -2.072  21.025  1.00  0.00     0.293 HD
ENDBRANCH  21  30
BRANCH  25  32
ATOM     32  C   UNL     1       1.788  -3.628  28.016  1.00  0.00     0.017 A 
ATOM     33  C   UNL     1       1.013  -2.985  28.999  1.00  0.00     0.012 A 
ATOM     34  C   UNL     1       2.853  -4.454  28.422  1.00  0.00     0.012 A 
ATOM     35  C   UNL     1       1.287  -3.176  30.356  1.00  0.00     0.001 A 
ATOM     36  C   UNL     1       3.125  -4.641  29.782  1.00  0.00     0.001 A 
ATOM     37  C   UNL     1       2.343  -4.004  30.748  1.00  0.00     0.000 A 
ENDBRANCH  25  32
ENDBRANCH   1  17
TORSDOF 9
ENDMDL
MODEL 6
REMARK VINA RESULT:    -6.116      1.266      2.153
REMARK INTER + INTRA:          -9.860
REMARK INTER:                  -8.692
REMARK INTRA:                  -1.168
REMARK UNBOUND:                -1.241
REMARK SMILES COc1c(O[C@@H]2O[C@@H](C(=O)[O-])[C@@H](O)[C@@H](O)[C@@H]2O)cc(O)c2c(=O)cc(-c3ccccc3)oc12
REMARK SMILES IDX 5 1 6 2 8 3 12 4 7 5 14 6 16 7 9 8 10 9 11 10 13 11 15 13
REMARK SMILES IDX 17 15 4 17 3 18 18 19 33 20 19 21 21 22 32 23 22 24 25 25
REMARK SMILES IDX 24 26 23 27 2 28 1 29 20 30 26 32 27 33 31 34 28 35 30 36
REMARK SMILES IDX 29 37
REMARK H PARENT 13 12 15 14 17 16 20 31
REMARK Flexibility Score: inf
ROOT
ATOM      1  O   UNL     1      -2.147  -1.298  23.806  1.00  0.00    -0.458 OA
ENDROOT
BRANCH   1   2
ATOM      2  C   UNL     1      -2.160  -2.600  24.410  1.00  0.00     0.339 C 
ATOM      3  C   UNL     1      -1.892  -1.675  26.552  1.00  0.00     0.199 C 
ATOM      4  C   UNL     1      -0.468  -2.246  26.728  1.00  0.00     0.180 C 
ATOM      5  O   UNL     1      -2.685  -2.519  25.728  1.00  0.00    -0.328 OA
ATOM      6  C   UNL     1       0.182  -2.421  25.344  1.00  0.00     0.181 C 
ATOM      7  C   UNL     1      -0.749  -3.238  24.431  1.00  0.00     0.214 C 
BRANCH   3   8
ATOM      8  C   UNL     1      -2.569  -1.512  27.882  1.00  0.00     0.073 C 
ATOM      9  O   UNL     1      -3.814  -1.320  27.949  1.00  0.00    -0.547 OA
ATOM     10  O   UNL     1      -1.824  -1.579  29.053  1.00  0.00    -0.547 OA
ENDBRANCH   3   8
BRANCH   4  11
ATOM     11  O   UNL     1      -0.524  -3.482  27.398  1.00  0.00    -0.387 OA
ATOM     12  H   UNL     1       0.393  -3.861  27.384  1.00  0.00     0.211 HD
ENDBRANCH   4  11
BRANCH   6  13
ATOM     13  O   UNL     1       1.421  -3.069  25.481  1.00  0.00    -0.387 OA
ATOM     14  H   UNL     1       1.946  -2.550  26.145  1.00  0.00     0.211 HD
ENDBRANCH   6  13
BRANCH   7  15
ATOM     15  O   UNL     1      -0.205  -3.305  23.140  1.00  0.00    -0.384 OA
ATOM     16  H   UNL     1       0.504  -2.611  23.093  1.00  0.00     0.211 HD
ENDBRANCH   7  15
ENDBRANCH   1   2
BRANCH   1  17
ATOM     17  C   UNL     1      -3.271  -0.542  23.432  1.00  0.00     0.172 A 
ATOM     18  C   UNL     1      -3.544  -0.411  22.066  1.00  0.00     0.205 A 
ATOM     19  C   UNL     1      -4.095   0.083  24.376  1.00  0.00     0.097 A 
ATOM     20  C   UNL     1      -4.690   0.312  21.647  1.00  0.00     0.188 A 
ATOM     21  C   UNL     1      -5.203   0.833  23.986  1.00  0.00     0.134 A 
ATOM     22  C   UNL     1      -5.550   0.912  22.609  1.00  0.00     0.111 A 
ATOM     23  O   UNL     1      -4.965   0.425  20.350  1.00  0.00    -0.452 OA
ATOM     24  C   UNL     1      -6.729   1.529  22.128  1.00  0.00     0.197 A 
ATOM     25  C   UNL     1      -6.026   1.064  19.870  1.00  0.00     0.138 A 
ATOM     26  C   UNL     1      -6.951   1.621  20.757  1.00  0.00     0.100 A 
ATOM     27  O   UNL     1      -7.615   1.970  22.905  1.00  0.00    -0.289 OA
BRANCH  18  28
ATOM     28  O   UNL     1      -2.645  -1.036  21.182  1.00  0.00    -0.490 OA
ATOM     29  C   UNL     1      -1.630  -0.401  20.415  1.00  0.00     0.278 C 
ENDBRANCH  18  28
BRANCH  21  30
ATOM     30  O   UNL     1      -5.895   1.501  24.999  1.00  0.00    -0.507 OA
ATOM     31  H   UNL     1      -6.175   1.077  25.872  1.00  0.00     0.293 HD
ENDBRANCH  21  30
BRANCH  25  32
ATOM     32  C   UNL     1      -6.216   1.147  18.401  1.00  0.00     0.017 A 
ATOM     33  C   UNL     1      -7.279   1.905  17.875  1.00  0.00     0.012 A 
ATOM     34  C   UNL     1      -5.368   0.458  17.513  1.00  0.00     0.012 A 
ATOM     35  C   UNL     1      -7.479   1.984  16.494  1.00  0.00     0.001 A 
ATOM     36  C   UNL     1      -5.573   0.539  16.131  1.00  0.00     0.001 A 
ATOM     37  C   UNL     1      -6.626   1.302  15.622  1.00  0.00     0.000 A 
ENDBRANCH  25  32
ENDBRANCH   1  17
TORSDOF 9
ENDMDL
MODEL 7
REMARK VINA RESULT:    -6.048      2.604      9.422
REMARK INTER + INTRA:          -9.764
REMARK INTER:                  -8.404
REMARK INTRA:                  -1.360
REMARK UNBOUND:                -1.241
REMARK SMILES COc1c(O[C@@H]2O[C@@H](C(=O)[O-])[C@@H](O)[C@@H](O)[C@@H]2O)cc(O)c2c(=O)cc(-c3ccccc3)oc12
REMARK SMILES IDX 5 1 6 2 8 3 12 4 7 5 14 6 16 7 9 8 10 9 11 10 13 11 15 13
REMARK SMILES IDX 17 15 4 17 3 18 18 19 33 20 19 21 21 22 32 23 22 24 25 25
REMARK SMILES IDX 24 26 23 27 2 28 1 29 20 30 26 32 27 33 31 34 28 35 30 36
REMARK SMILES IDX 29 37
REMARK H PARENT 13 12 15 14 17 16 20 31
REMARK Flexibility Score: inf
ROOT
ATOM      1  O   UNL     1      -2.954  -1.081  22.467  1.00  0.00    -0.458 OA
ENDROOT
BRANCH   1   2
ATOM      2  C   UNL     1      -3.147   0.078  21.644  1.00  0.00     0.339 C 
ATOM      3  C   UNL     1      -5.313   0.395  22.494  1.00  0.00     0.199 C 
ATOM      4  C   UNL     1      -5.996   0.046  21.153  1.00  0.00     0.180 C 
ATOM      5  O   UNL     1      -4.037   0.984  22.282  1.00  0.00    -0.328 OA
ATOM      6  C   UNL     1      -5.086  -0.901  20.352  1.00  0.00     0.181 C 
ATOM      7  C   UNL     1      -3.676  -0.296  20.238  1.00  0.00     0.214 C 
BRANCH   3   8
ATOM      8  C   UNL     1      -6.162   1.339  23.295  1.00  0.00     0.073 C 
ATOM      9  O   UNL     1      -5.744   1.805  24.390  1.00  0.00    -0.547 OA
ATOM     10  O   UNL     1      -7.417   1.710  22.828  1.00  0.00    -0.547 OA
ENDBRANCH   3   8
BRANCH   4  11
ATOM     11  O   UNL     1      -6.240   1.221  20.418  1.00  0.00    -0.387 OA
ATOM     12  H   UNL     1      -5.656   1.928  20.799  1.00  0.00     0.211 HD
ENDBRANCH   4  11
BRANCH   6  13
ATOM     13  O   UNL     1      -5.630  -1.114  19.074  1.00  0.00    -0.387 OA
ATOM     14  H   UNL     1      -6.609  -1.229  19.193  1.00  0.00     0.211 HD
ENDBRANCH   6  13
BRANCH   7  15
ATOM     15  O   UNL     1      -2.820  -1.208  19.601  1.00  0.00    -0.384 OA
ATOM     16  H   UNL     1      -1.894  -0.948  19.847  1.00  0.00     0.211 HD
ENDBRANCH   7  15
ENDBRANCH   1   2
BRANCH   1  17
ATOM     17  C   UNL     1      -1.731  -1.543  22.983  1.00  0.00     0.172 A 
ATOM     18  C   UNL     1      -1.647  -1.767  24.362  1.00  0.00     0.205 A 
ATOM     19  C   UNL     1      -0.614  -1.760  22.167  1.00  0.00     0.097 A 
ATOM     20  C   UNL     1      -0.443  -2.269  24.918  1.00  0.00     0.188 A 
ATOM     21  C   UNL     1       0.593  -2.214  22.698  1.00  0.00     0.134 A 
ATOM     22  C   UNL     1       0.678  -2.530  24.082  1.00  0.00     0.111 A 
ATOM     23  O   UNL     1      -0.364  -2.501  26.226  1.00  0.00    -0.452 OA
ATOM     24  C   UNL     1       1.811  -3.126  24.686  1.00  0.00     0.197 A 
ATOM     25  C   UNL     1       0.715  -2.990  26.828  1.00  0.00     0.138 A 
ATOM     26  C   UNL     1       1.832  -3.334  26.062  1.00  0.00     0.100 A 
ATOM     27  O   UNL     1       2.798  -3.515  24.009  1.00  0.00    -0.289 OA
BRANCH  18  28
ATOM     28  O   UNL     1      -2.802  -1.485  25.116  1.00  0.00    -0.490 OA
ATOM     29  C   UNL     1      -3.108  -0.261  25.772  1.00  0.00     0.278 C 
ENDBRANCH  18  28
BRANCH  21  30
ATOM     30  O   UNL     1       1.672  -2.298  21.815  1.00  0.00    -0.507 OA
ATOM     31  H   UNL     1       2.575  -1.875  21.978  1.00  0.00     0.293 HD
ENDBRANCH  21  30
BRANCH  25  32
ATOM     32  C   UNL     1       0.697  -3.184  28.298  1.00  0.00     0.017 A 
ATOM     33  C   UNL     1       1.892  -3.480  28.980  1.00  0.00     0.012 A 
ATOM     34  C   UNL     1      -0.503  -3.106  29.032  1.00  0.00     0.012 A 
ATOM     35  C   UNL     1       1.890  -3.676  30.364  1.00  0.00     0.001 A 
ATOM     36  C   UNL     1      -0.500  -3.306  30.417  1.00  0.00     0.001 A 
ATOM     37  C   UNL     1       0.695  -3.590  31.082  1.00  0.00     0.000 A 
ENDBRANCH  25  32
ENDBRANCH   1  17
TORSDOF 9
ENDMDL
MODEL 8
REMARK VINA RESULT:    -5.876      2.162      4.089
REMARK INTER + INTRA:          -9.522
REMARK INTER:                  -8.156
REMARK INTRA:                  -1.366
REMARK UNBOUND:                -1.241
REMARK SMILES COc1c(O[C@@H]2O[C@@H](C(=O)[O-])[C@@H](O)[C@@H](O)[C@@H]2O)cc(O)c2c(=O)cc(-c3ccccc3)oc12
REMARK SMILES IDX 5 1 6 2 8 3 12 4 7 5 14 6 16 7 9 8 10 9 11 10 13 11 15 13
REMARK SMILES IDX 17 15 4 17 3 18 18 19 33 20 19 21 21 22 32 23 22 24 25 25
REMARK SMILES IDX 24 26 23 27 2 28 1 29 20 30 26 32 27 33 31 34 28 35 30 36
REMARK SMILES IDX 29 37
REMARK H PARENT 13 12 15 14 17 16 20 31
REMARK Flexibility Score: inf
ROOT
ATOM      1  O   UNL     1      -3.247  -0.974  25.117  1.00  0.00    -0.458 OA
ENDROOT
BRANCH   1   2
ATOM      2  C   UNL     1      -3.208   0.141  26.020  1.00  0.00     0.339 C 
ATOM      3  C   UNL     1      -1.573  -0.909  27.339  1.00  0.00     0.199 C 
ATOM      4  C   UNL     1      -2.525  -1.104  28.540  1.00  0.00     0.180 C 
ATOM      5  O   UNL     1      -1.914   0.254  26.596  1.00  0.00    -0.328 OA
ATOM      6  C   UNL     1      -3.974  -1.190  28.028  1.00  0.00     0.181 C 
ATOM      7  C   UNL     1      -4.282   0.020  27.129  1.00  0.00     0.214 C 
BRANCH   3   8
ATOM      8  C   UNL     1      -0.149  -0.796  27.801  1.00  0.00     0.073 C 
ATOM      9  O   UNL     1       0.187  -1.197  28.949  1.00  0.00    -0.547 OA
ATOM     10  O   UNL     1       0.813  -0.252  26.958  1.00  0.00    -0.547 OA
ENDBRANCH   3   8
BRANCH   4  11
ATOM     11  O   UNL     1      -2.392  -0.029  29.438  1.00  0.00    -0.387 OA
ATOM     12  H   UNL     1      -3.045  -0.181  30.170  1.00  0.00     0.211 HD
ENDBRANCH   4  11
BRANCH   6  13
ATOM     13  O   UNL     1      -4.859  -1.227  29.118  1.00  0.00    -0.387 OA
ATOM     14  H   UNL     1      -5.156  -0.294  29.280  1.00  0.00     0.211 HD
ENDBRANCH   6  13
BRANCH   7  15
ATOM     15  O   UNL     1      -5.566  -0.116  26.578  1.00  0.00    -0.384 OA
ATOM     16  H   UNL     1      -5.806   0.768  26.195  1.00  0.00     0.211 HD
ENDBRANCH   7  15
ENDBRANCH   1   2
BRANCH   1  17
ATOM     17  C   UNL     1      -2.870  -0.962  23.763  1.00  0.00     0.172 A 
ATOM     18  C   UNL     1      -3.802  -0.493  22.830  1.00  0.00     0.205 A 
ATOM     19  C   UNL     1      -1.617  -1.418  23.336  1.00  0.00     0.097 A 
ATOM     20  C   UNL     1      -3.448  -0.429  21.458  1.00  0.00     0.188 A 
ATOM     21  C   UNL     1      -1.263  -1.403  21.988  1.00  0.00     0.134 A 
ATOM     22  C   UNL     1      -2.158  -0.853  21.030  1.00  0.00     0.111 A 
ATOM     23  O   UNL     1      -4.323   0.033  20.569  1.00  0.00    -0.452 OA
ATOM     24  C   UNL     1      -1.836  -0.666  19.665  1.00  0.00     0.197 A 
ATOM     25  C   UNL     1      -4.069   0.148  19.269  1.00  0.00     0.138 A 
ATOM     26  C   UNL     1      -2.801  -0.185  18.786  1.00  0.00     0.100 A 
ATOM     27  O   UNL     1      -0.680  -0.885  19.219  1.00  0.00    -0.289 OA
BRANCH  18  28
ATOM     28  O   UNL     1      -5.052  -0.092  23.337  1.00  0.00    -0.490 OA
ATOM     29  C   UNL     1      -5.553   1.237  23.403  1.00  0.00     0.278 C 
ENDBRANCH  18  28
BRANCH  21  30
ATOM     30  O   UNL     1      -0.032  -1.976  21.658  1.00  0.00    -0.507 OA
ATOM     31  H   UNL     1       0.825  -1.817  22.168  1.00  0.00     0.293 HD
ENDBRANCH  21  30
BRANCH  25  32
ATOM     32  C   UNL     1      -5.133   0.654  18.368  1.00  0.00     0.017 A 
ATOM     33  C   UNL     1      -5.061   0.393  16.987  1.00  0.00     0.012 A 
ATOM     34  C   UNL     1      -6.208   1.419  18.860  1.00  0.00     0.012 A 
ATOM     35  C   UNL     1      -6.049   0.872  16.122  1.00  0.00     0.001 A 
ATOM     36  C   UNL     1      -7.193   1.897  17.990  1.00  0.00     0.001 A 
ATOM     37  C   UNL     1      -7.115   1.624  16.623  1.00  0.00     0.000 A 
ENDBRANCH  25  32
ENDBRANCH   1  17
TORSDOF 9
ENDMDL
