MODEL 1
REMARK VINA RESULT:    -4.328      0.000      0.000
REMARK INTER + INTRA:          -6.623
REMARK INTER:                  -5.972
REMARK INTRA:                  -0.651
REMARK UNBOUND:                -0.651
REMARK SMILES OC[C@H](O)C(O)[C@@H](O)CO
REMARK SMILES IDX 5 1 7 2 9 3 10 4 8 6 3 8 2 9 1 10 4 12 6 14
REMARK H PARENT 10 5 8 7 1 11 4 13 6 15
REMARK Flexibility Score: inf
ROOT
ATOM      1  C   UNL     1      25.346 -10.348  19.102  1.00  0.00     0.176 C 
ENDROOT
BRANCH   1   2
ATOM      2  C   UNL     1      25.337  -9.053  18.249  1.00  0.00     0.171 C 
BRANCH   2   3
ATOM      3  C   UNL     1      24.411  -7.978  18.844  1.00  0.00     0.190 C 
BRANCH   3   4
ATOM      4  O   UNL     1      23.129  -8.062  18.282  1.00  0.00    -0.394 OA
ATOM      5  H   UNL     1      23.260  -8.332  17.337  1.00  0.00     0.210 HD
ENDBRANCH   3   4
ENDBRANCH   2   3
BRANCH   2   6
ATOM      6  O   UNL     1      24.955  -9.344  16.928  1.00  0.00    -0.388 OA
ATOM      7  H   UNL     1      25.080 -10.321  16.800  1.00  0.00     0.211 HD
ENDBRANCH   2   6
ENDBRANCH   1   2
BRANCH   1   8
ATOM      8  C   UNL     1      25.212 -11.630  18.232  1.00  0.00     0.171 C 
BRANCH   8   9
ATOM      9  C   UNL     1      24.736 -12.833  19.059  1.00  0.00     0.190 C 
BRANCH   9  10
ATOM     10  O   UNL     1      23.344 -12.989  18.960  1.00  0.00    -0.394 OA
ATOM     11  H   UNL     1      22.979 -12.954  19.882  1.00  0.00     0.210 HD
ENDBRANCH   9  10
ENDBRANCH   8   9
BRANCH   8  12
ATOM     12  O   UNL     1      26.460 -11.955  17.670  1.00  0.00    -0.388 OA
ATOM     13  H   UNL     1      27.066 -12.201  18.416  1.00  0.00     0.211 HD
ENDBRANCH   8  12
ENDBRANCH   1   8
BRANCH   1  14
ATOM     14  O   UNL     1      24.343 -10.303  20.089  1.00  0.00    -0.388 OA
ATOM     15  H   UNL     1      24.755  -9.954  20.921  1.00  0.00     0.211 HD
ENDBRANCH   1  14
TORSDOF 9
ENDMDL
MODEL 2
REMARK VINA RESULT:    -4.266      1.539      2.661
REMARK INTER + INTRA:          -6.537
REMARK INTER:                  -6.018
REMARK INTRA:                  -0.520
REMARK UNBOUND:                -0.651
REMARK SMILES OC[C@H](O)C(O)[C@@H](O)CO
REMARK SMILES IDX 5 1 7 2 9 3 10 4 8 6 3 8 2 9 1 10 4 12 6 14
REMARK H PARENT 10 5 8 7 1 11 4 13 6 15
REMARK Flexibility Score: inf
ROOT
ATOM      1  C   UNL     1      25.345 -11.536  17.937  1.00  0.00     0.176 C 
ENDROOT
BRANCH   1   2
ATOM      2  C   UNL     1      25.017 -10.102  18.426  1.00  0.00     0.171 C 
BRANCH   2   3
ATOM      3  C   UNL     1      26.273  -9.216  18.497  1.00  0.00     0.190 C 
BRANCH   3   4
ATOM      4  O   UNL     1      27.040  -9.533  19.626  1.00  0.00    -0.394 OA
ATOM      5  H   UNL     1      26.554 -10.261  20.093  1.00  0.00     0.210 HD
ENDBRANCH   3   4
ENDBRANCH   2   3
BRANCH   2   6
ATOM      6  O   UNL     1      24.387 -10.150  19.681  1.00  0.00    -0.388 OA
ATOM      7  H   UNL     1      24.952 -10.719  20.267  1.00  0.00     0.211 HD
ENDBRANCH   2   6
ENDBRANCH   1   2
BRANCH   1   8
ATOM      8  C   UNL     1      24.856 -12.627  18.930  1.00  0.00     0.171 C 
BRANCH   8   9
ATOM      9  C   UNL     1      25.522 -13.985  18.661  1.00  0.00     0.190 C 
BRANCH   9  10
ATOM     10  O   UNL     1      24.620 -15.037  18.882  1.00  0.00    -0.394 OA
ATOM     11  H   UNL     1      24.706 -15.663  18.117  1.00  0.00     0.210 HD
ENDBRANCH   9  10
ENDBRANCH   8   9
BRANCH   8  12
ATOM     12  O   UNL     1      23.464 -12.794  18.805  1.00  0.00    -0.388 OA
ATOM     13  H   UNL     1      23.272 -13.762  18.908  1.00  0.00     0.211 HD
ENDBRANCH   8  12
ENDBRANCH   1   8
BRANCH   1  14
ATOM     14  O   UNL     1      26.723 -11.673  17.679  1.00  0.00    -0.388 OA
ATOM     15  H   UNL     1      27.030 -10.841  17.233  1.00  0.00     0.211 HD
ENDBRANCH   1  14
TORSDOF 9
ENDMDL
MODEL 3
REMARK VINA RESULT:    -4.143      7.856      9.093
REMARK INTER + INTRA:          -6.368
REMARK INTER:                  -5.947
REMARK INTRA:                  -0.421
REMARK UNBOUND:                -0.651
REMARK SMILES OC[C@H](O)C(O)[C@@H](O)CO
REMARK SMILES IDX 5 1 7 2 9 3 10 4 8 6 3 8 2 9 1 10 4 12 6 14
REMARK H PARENT 10 5 8 7 1 11 4 13 6 15
REMARK Flexibility Score: inf
ROOT
ATOM      1  C   UNL     1      26.046 -18.787  20.511  1.00  0.00     0.176 C 
ENDROOT
BRANCH   1   2
ATOM      2  C   UNL     1      24.785 -18.584  19.632  1.00  0.00     0.171 C 
BRANCH   2   3
ATOM      3  C   UNL     1      25.145 -18.200  18.187  1.00  0.00     0.190 C 
BRANCH   3   4
ATOM      4  O   UNL     1      24.289 -18.837  17.277  1.00  0.00    -0.394 OA
ATOM      5  H   UNL     1      23.773 -18.115  16.833  1.00  0.00     0.210 HD
ENDBRANCH   3   4
ENDBRANCH   2   3
BRANCH   2   6
ATOM      6  O   UNL     1      23.950 -17.606  20.200  1.00  0.00    -0.388 OA
ATOM      7  H   UNL     1      23.015 -17.906  20.058  1.00  0.00     0.211 HD
ENDBRANCH   2   6
ENDBRANCH   1   2
BRANCH   1   8
ATOM      8  C   UNL     1      25.693 -19.176  21.974  1.00  0.00     0.171 C 
BRANCH   8   9
ATOM      9  C   UNL     1      26.910 -19.734  22.726  1.00  0.00     0.190 C 
BRANCH   9  10
ATOM     10  O   UNL     1      27.727 -18.694  23.197  1.00  0.00    -0.394 OA
ATOM     11  H   UNL     1      28.121 -18.997  24.055  1.00  0.00     0.210 HD
ENDBRANCH   9  10
ENDBRANCH   8   9
BRANCH   8  12
ATOM     12  O   UNL     1      24.691 -20.164  21.974  1.00  0.00    -0.388 OA
ATOM     13  H   UNL     1      23.877 -19.760  21.574  1.00  0.00     0.211 HD
ENDBRANCH   8  12
ENDBRANCH   1   8
BRANCH   1  14
ATOM     14  O   UNL     1      26.866 -17.643  20.479  1.00  0.00    -0.388 OA
ATOM     15  H   UNL     1      26.886 -17.313  19.543  1.00  0.00     0.211 HD
ENDBRANCH   1  14
TORSDOF 9
ENDMDL
MODEL 4
REMARK VINA RESULT:    -4.109      0.577      3.627
REMARK INTER + INTRA:          -6.321
REMARK INTER:                  -5.633
REMARK INTRA:                  -0.688
REMARK UNBOUND:                -0.651
REMARK SMILES OC[C@H](O)C(O)[C@@H](O)CO
REMARK SMILES IDX 5 1 7 2 9 3 10 4 8 6 3 8 2 9 1 10 4 12 6 14
REMARK H PARENT 10 5 8 7 1 11 4 13 6 15
REMARK Flexibility Score: inf
ROOT
ATOM      1  C   UNL     1      24.810 -10.488  18.636  1.00  0.00     0.176 C 
ENDROOT
BRANCH   1   2
ATOM      2  C   UNL     1      25.409 -11.810  18.089  1.00  0.00     0.171 C 
BRANCH   2   3
ATOM      3  C   UNL     1      24.916 -13.035  18.877  1.00  0.00     0.190 C 
BRANCH   3   4
ATOM      4  O   UNL     1      23.516 -13.096  18.875  1.00  0.00    -0.394 OA
ATOM      5  H   UNL     1      23.200 -12.160  18.971  1.00  0.00     0.210 HD
ENDBRANCH   3   4
ENDBRANCH   2   3
BRANCH   2   6
ATOM      6  O   UNL     1      26.813 -11.752  18.111  1.00  0.00    -0.388 OA
ATOM      7  H   UNL     1      27.110 -12.262  18.910  1.00  0.00     0.211 HD
ENDBRANCH   2   6
ENDBRANCH   1   2
BRANCH   1   8
ATOM      8  C   UNL     1      25.667  -9.248  18.256  1.00  0.00     0.171 C 
BRANCH   8   9
ATOM      9  C   UNL     1      24.874  -7.940  18.400  1.00  0.00     0.190 C 
BRANCH   9  10
ATOM     10  O   UNL     1      23.498  -8.198  18.498  1.00  0.00    -0.394 OA
ATOM     11  H   UNL     1      23.379  -9.182  18.439  1.00  0.00     0.210 HD
ENDBRANCH   9  10
ENDBRANCH   8   9
BRANCH   8  12
ATOM     12  O   UNL     1      26.091  -9.355  16.919  1.00  0.00    -0.388 OA
ATOM     13  H   UNL     1      25.280  -9.476  16.360  1.00  0.00     0.211 HD
ENDBRANCH   8  12
ENDBRANCH   1   8
BRANCH   1  14
ATOM     14  O   UNL     1      24.625 -10.563  20.030  1.00  0.00    -0.388 OA
ATOM     15  H   UNL     1      24.468  -9.641  20.363  1.00  0.00     0.211 HD
ENDBRANCH   1  14
TORSDOF 9
ENDMDL
MODEL 5
REMARK VINA RESULT:    -4.081     11.883     12.990
REMARK INTER + INTRA:          -6.283
REMARK INTER:                  -5.546
REMARK INTRA:                  -0.737
REMARK UNBOUND:                -0.651
REMARK SMILES OC[C@H](O)C(O)[C@@H](O)CO
REMARK SMILES IDX 5 1 7 2 9 3 10 4 8 6 3 8 2 9 1 10 4 12 6 14
REMARK H PARENT 10 5 8 7 1 11 4 13 6 15
REMARK Flexibility Score: inf
ROOT
ATOM      1  C   UNL     1      34.940 -11.252  26.745  1.00  0.00     0.176 C 
ENDROOT
BRANCH   1   2
ATOM      2  C   UNL     1      36.262 -12.013  26.467  1.00  0.00     0.171 C 
BRANCH   2   3
ATOM      3  C   UNL     1      36.286 -12.630  25.058  1.00  0.00     0.190 C 
BRANCH   3   4
ATOM      4  O   UNL     1      36.270 -11.628  24.079  1.00  0.00    -0.394 OA
ATOM      5  H   UNL     1      37.120 -11.127  24.183  1.00  0.00     0.210 HD
ENDBRANCH   3   4
ENDBRANCH   2   3
BRANCH   2   6
ATOM      6  O   UNL     1      36.459 -13.012  27.437  1.00  0.00    -0.388 OA
ATOM      7  H   UNL     1      36.172 -13.870  27.029  1.00  0.00     0.211 HD
ENDBRANCH   2   6
ENDBRANCH   1   2
BRANCH   1   8
ATOM      8  C   UNL     1      33.692 -12.024  26.232  1.00  0.00     0.171 C 
BRANCH   8   9
ATOM      9  C   UNL     1      32.851 -11.174  25.268  1.00  0.00     0.190 C 
BRANCH   9  10
ATOM     10  O   UNL     1      33.570 -10.885  24.097  1.00  0.00    -0.394 OA
ATOM     11  H   UNL     1      33.597  -9.898  24.006  1.00  0.00     0.210 HD
ENDBRANCH   9  10
ENDBRANCH   8   9
BRANCH   8  12
ATOM     12  O   UNL     1      32.876 -12.386  27.318  1.00  0.00    -0.388 OA
ATOM     13  H   UNL     1      33.379 -12.180  28.149  1.00  0.00     0.211 HD
ENDBRANCH   8  12
ENDBRANCH   1   8
BRANCH   1  14
ATOM     14  O   UNL     1      34.987  -9.954  26.201  1.00  0.00    -0.388 OA
ATOM     15  H   UNL     1      35.924  -9.778  25.924  1.00  0.00     0.211 HD
ENDBRANCH   1  14
TORSDOF 9
ENDMDL
MODEL 6
REMARK VINA RESULT:    -4.071      1.030      1.627
REMARK INTER + INTRA:          -6.269
REMARK INTER:                  -5.802
REMARK INTRA:                  -0.467
REMARK UNBOUND:                -0.651
REMARK SMILES OC[C@H](O)C(O)[C@@H](O)CO
REMARK SMILES IDX 5 1 7 2 9 3 10 4 8 6 3 8 2 9 1 10 4 12 6 14
REMARK H PARENT 10 5 8 7 1 11 4 13 6 15
REMARK Flexibility Score: inf
ROOT
ATOM      1  C   UNL     1      25.224 -10.247  18.800  1.00  0.00     0.176 C 
ENDROOT
BRANCH   1   2
ATOM      2  C   UNL     1      24.915  -9.084  17.822  1.00  0.00     0.171 C 
BRANCH   2   3
ATOM      3  C   UNL     1      26.103  -8.115  17.685  1.00  0.00     0.190 C 
BRANCH   3   4
ATOM      4  O   UNL     1      27.258  -8.664  18.257  1.00  0.00    -0.394 OA
ATOM      5  H   UNL     1      27.618  -9.303  17.589  1.00  0.00     0.210 HD
ENDBRANCH   3   4
ENDBRANCH   2   3
BRANCH   2   6
ATOM      6  O   UNL     1      23.768  -8.387  18.242  1.00  0.00    -0.388 OA
ATOM      7  H   UNL     1      22.984  -8.912  17.934  1.00  0.00     0.211 HD
ENDBRANCH   2   6
ENDBRANCH   1   2
BRANCH   1   8
ATOM      8  C   UNL     1      25.357 -11.613  18.071  1.00  0.00     0.171 C 
BRANCH   8   9
ATOM      9  C   UNL     1      24.910 -12.781  18.963  1.00  0.00     0.190 C 
BRANCH   9  10
ATOM     10  O   UNL     1      23.532 -13.017  18.824  1.00  0.00    -0.394 OA
ATOM     11  H   UNL     1      23.060 -12.276  19.285  1.00  0.00     0.210 HD
ENDBRANCH   9  10
ENDBRANCH   8   9
BRANCH   8  12
ATOM     12  O   UNL     1      26.698 -11.831  17.710  1.00  0.00    -0.388 OA
ATOM     13  H   UNL     1      26.734 -12.682  17.200  1.00  0.00     0.211 HD
ENDBRANCH   8  12
ENDBRANCH   1   8
BRANCH   1  14
ATOM     14  O   UNL     1      24.254 -10.312  19.819  1.00  0.00    -0.388 OA
ATOM     15  H   UNL     1      24.496 -11.067  20.417  1.00  0.00     0.211 HD
ENDBRANCH   1  14
TORSDOF 9
ENDMDL
MODEL 7
REMARK VINA RESULT:    -4.012      1.757      4.004
REMARK INTER + INTRA:          -6.187
REMARK INTER:                  -5.783
REMARK INTRA:                  -0.404
REMARK UNBOUND:                -0.651
REMARK SMILES OC[C@H](O)C(O)[C@@H](O)CO
REMARK SMILES IDX 5 1 7 2 9 3 10 4 8 6 3 8 2 9 1 10 4 12 6 14
REMARK H PARENT 10 5 8 7 1 11 4 13 6 15
REMARK Flexibility Score: inf
ROOT
ATOM      1  C   UNL     1      26.237 -10.964  18.074  1.00  0.00     0.176 C 
ENDROOT
BRANCH   1   2
ATOM      2  C   UNL     1      25.263 -11.215  19.255  1.00  0.00     0.171 C 
BRANCH   2   3
ATOM      3  C   UNL     1      24.862 -12.697  19.365  1.00  0.00     0.190 C 
BRANCH   3   4
ATOM      4  O   UNL     1      23.598 -12.911  18.800  1.00  0.00    -0.394 OA
ATOM      5  H   UNL     1      23.047 -13.333  19.509  1.00  0.00     0.210 HD
ENDBRANCH   3   4
ENDBRANCH   2   3
BRANCH   2   6
ATOM      6  O   UNL     1      24.117 -10.413  19.118  1.00  0.00    -0.388 OA
ATOM      7  H   UNL     1      23.450 -10.748  19.773  1.00  0.00     0.211 HD
ENDBRANCH   2   6
ENDBRANCH   1   2
BRANCH   1   8
ATOM      8  C   UNL     1      26.716  -9.487  18.007  1.00  0.00     0.171 C 
BRANCH   8   9
ATOM      9  C   UNL     1      27.362  -9.036  19.326  1.00  0.00     0.190 C 
BRANCH   9  10
ATOM     10  O   UNL     1      28.757  -8.945  19.194  1.00  0.00    -0.394 OA
ATOM     11  H   UNL     1      29.133  -9.831  19.435  1.00  0.00     0.210 HD
ENDBRANCH   9  10
ENDBRANCH   8   9
BRANCH   8  12
ATOM     12  O   UNL     1      25.621  -8.643  17.749  1.00  0.00    -0.388 OA
ATOM     13  H   UNL     1      25.345  -8.795  16.808  1.00  0.00     0.211 HD
ENDBRANCH   8  12
ENDBRANCH   1   8
BRANCH   1  14
ATOM     14  O   UNL     1      25.656 -11.360  16.855  1.00  0.00    -0.388 OA
ATOM     15  H   UNL     1      24.724 -11.645  17.044  1.00  0.00     0.211 HD
ENDBRANCH   1  14
TORSDOF 9
ENDMDL
MODEL 8
REMARK VINA RESULT:    -3.984     10.642     11.625
REMARK INTER + INTRA:          -6.149
REMARK INTER:                  -5.811
REMARK INTRA:                  -0.338
REMARK UNBOUND:                -0.651
REMARK SMILES OC[C@H](O)C(O)[C@@H](O)CO
REMARK SMILES IDX 5 1 7 2 9 3 10 4 8 6 3 8 2 9 1 10 4 12 6 14
REMARK H PARENT 10 5 8 7 1 11 4 13 6 15
REMARK Flexibility Score: inf
ROOT
ATOM      1  C   UNL     1      33.073 -11.709  24.948  1.00  0.00     0.176 C 
ENDROOT
BRANCH   1   2
ATOM      2  C   UNL     1      33.298 -11.396  26.450  1.00  0.00     0.171 C 
BRANCH   2   3
ATOM      3  C   UNL     1      34.781 -11.138  26.770  1.00  0.00     0.190 C 
BRANCH   3   4
ATOM      4  O   UNL     1      35.150  -9.839  26.396  1.00  0.00    -0.394 OA
ATOM      5  H   UNL     1      34.311  -9.310  26.375  1.00  0.00     0.210 HD
ENDBRANCH   3   4
ENDBRANCH   2   3
BRANCH   2   6
ATOM      6  O   UNL     1      32.808 -12.448  27.243  1.00  0.00    -0.388 OA
ATOM      7  H   UNL     1      31.836 -12.286  27.368  1.00  0.00     0.211 HD
ENDBRANCH   2   6
ENDBRANCH   1   2
BRANCH   1   8
ATOM      8  C   UNL     1      33.123 -13.233  24.647  1.00  0.00     0.171 C 
BRANCH   8   9
ATOM      9  C   UNL     1      34.491 -13.662  24.096  1.00  0.00     0.190 C 
BRANCH   9  10
ATOM     10  O   UNL     1      34.340 -14.473  22.960  1.00  0.00    -0.394 OA
ATOM     11  H   UNL     1      34.083 -15.378  23.278  1.00  0.00     0.210 HD
ENDBRANCH   9  10
ENDBRANCH   8   9
BRANCH   8  12
ATOM     12  O   UNL     1      32.146 -13.560  23.689  1.00  0.00    -0.388 OA
ATOM     13  H   UNL     1      32.609 -13.660  22.816  1.00  0.00     0.211 HD
ENDBRANCH   8  12
ENDBRANCH   1   8
BRANCH   1  14
ATOM     14  O   UNL     1      33.997 -11.008  24.149  1.00  0.00    -0.388 OA
ATOM     15  H   UNL     1      34.812 -11.569  24.068  1.00  0.00     0.211 HD
ENDBRANCH   1  14
TORSDOF 9
ENDMDL
MODEL 9
REMARK VINA RESULT:    -3.978     10.834     11.653
REMARK INTER + INTRA:          -6.141
REMARK INTER:                  -5.397
REMARK INTRA:                  -0.744
REMARK UNBOUND:                -0.651
REMARK SMILES OC[C@H](O)C(O)[C@@H](O)CO
REMARK SMILES IDX 5 1 7 2 9 3 10 4 8 6 3 8 2 9 1 10 4 12 6 14
REMARK H PARENT 10 5 8 7 1 11 4 13 6 15
REMARK Flexibility Score: inf
ROOT
ATOM      1  C   UNL     1      34.681 -13.196  25.136  1.00  0.00     0.176 C 
ENDROOT
BRANCH   1   2
ATOM      2  C   UNL     1      35.075 -11.708  24.949  1.00  0.00     0.171 C 
BRANCH   2   3
ATOM      3  C   UNL     1      35.336 -11.008  26.294  1.00  0.00     0.190 C 
BRANCH   3   4
ATOM      4  O   UNL     1      34.130 -10.616  26.891  1.00  0.00    -0.394 OA
ATOM      5  H   UNL     1      33.413 -11.106  26.411  1.00  0.00     0.210 HD
ENDBRANCH   3   4
ENDBRANCH   2   3
BRANCH   2   6
ATOM      6  O   UNL     1      34.074 -11.027  24.235  1.00  0.00    -0.388 OA
ATOM      7  H   UNL     1      33.472 -10.612  24.906  1.00  0.00     0.211 HD
ENDBRANCH   2   6
ENDBRANCH   1   2
BRANCH   1   8
ATOM      8  C   UNL     1      34.231 -13.860  23.804  1.00  0.00     0.171 C 
BRANCH   8   9
ATOM      9  C   UNL     1      32.747 -14.255  23.837  1.00  0.00     0.190 C 
BRANCH   9  10
ATOM     10  O   UNL     1      31.928 -13.117  23.912  1.00  0.00    -0.394 OA
ATOM     11  H   UNL     1      31.931 -12.816  24.858  1.00  0.00     0.210 HD
ENDBRANCH   9  10
ENDBRANCH   8   9
BRANCH   8  12
ATOM     12  O   UNL     1      34.985 -15.025  23.575  1.00  0.00    -0.388 OA
ATOM     13  H   UNL     1      35.876 -14.740  23.241  1.00  0.00     0.211 HD
ENDBRANCH   8  12
ENDBRANCH   1   8
BRANCH   1  14
ATOM     14  O   UNL     1      33.688 -13.329  26.125  1.00  0.00    -0.388 OA
ATOM     15  H   UNL     1      33.626 -14.291  26.363  1.00  0.00     0.211 HD
ENDBRANCH   1  14
TORSDOF 9
ENDMDL
