MODEL 1
REMARK VINA RESULT:    -4.860      0.000      0.000
REMARK INTER + INTRA:          -7.957
REMARK INTER:                  -7.416
REMARK INTRA:                  -0.541
REMARK UNBOUND:                -0.541
REMARK SMILES O=C([O-])CCCCCCCCC(=O)[O-]
REMARK SMILES IDX 7 1 6 2 5 3 4 4 2 5 1 6 3 7 8 8 9 9 10 10 11 11 12 12 13 13
REMARK SMILES IDX 14 14
REMARK H PARENT
REMARK Flexibility Score: inf
ROOT
ATOM      1  C   UNL     1      45.639  26.496   2.655  1.00  0.00     0.000 C 
ENDROOT
BRANCH   1   2
ATOM      2  C   UNL     1      44.223  26.220   3.173  1.00  0.00     0.000 C 
BRANCH   2   3
ATOM      3  C   UNL     1      43.933  27.030   4.442  1.00  0.00     0.006 C 
BRANCH   3   4
ATOM      4  C   UNL     1      45.144  27.035   5.380  1.00  0.00     0.053 C 
BRANCH   4   5
ATOM      5  C   UNL     1      44.737  26.632   6.762  1.00  0.00     0.041 C 
ATOM      6  O   UNL     1      43.564  26.845   7.165  1.00  0.00    -0.550 OA
ATOM      7  O   UNL     1      45.642  25.977   7.589  1.00  0.00    -0.550 OA
ENDBRANCH   4   5
ENDBRANCH   3   4
ENDBRANCH   2   3
ENDBRANCH   1   2
BRANCH   1   8
ATOM      8  C   UNL     1      46.327  25.196   2.213  1.00  0.00     0.000 C 
BRANCH   8   9
ATOM      9  C   UNL     1      47.736  25.039   2.807  1.00  0.00     0.000 C 
BRANCH   9  10
ATOM     10  C   UNL     1      47.742  24.226   4.111  1.00  0.00     0.006 C 
BRANCH  10  11
ATOM     11  C   UNL     1      48.880  23.201   4.112  1.00  0.00     0.053 C 
BRANCH  11  12
ATOM     12  C   UNL     1      48.363  21.845   3.750  1.00  0.00     0.041 C 
ATOM     13  O   UNL     1      47.305  21.729   3.079  1.00  0.00    -0.550 OA
ATOM     14  O   UNL     1      49.076  20.709   4.113  1.00  0.00    -0.550 OA
ENDBRANCH  11  12
ENDBRANCH  10  11
ENDBRANCH   9  10
ENDBRANCH   8   9
ENDBRANCH   1   8
TORSDOF 9
ENDMDL
MODEL 2
REMARK VINA RESULT:    -4.818      1.688      5.544
REMARK INTER + INTRA:          -7.893
REMARK INTER:                  -7.301
REMARK INTRA:                  -0.592
REMARK UNBOUND:                -0.541
REMARK SMILES O=C([O-])CCCCCCCCC(=O)[O-]
REMARK SMILES IDX 7 1 6 2 5 3 4 4 2 5 1 6 3 7 8 8 9 9 10 10 11 11 12 12 13 13
REMARK SMILES IDX 14 14
REMARK H PARENT
REMARK Flexibility Score: inf
ROOT
ATOM      1  C   UNL     1      46.846  25.488   2.819  1.00  0.00     0.000 C 
ENDROOT
BRANCH   1   2
ATOM      2  C   UNL     1      47.196  24.103   2.264  1.00  0.00     0.000 C 
BRANCH   2   3
ATOM      3  C   UNL     1      47.609  23.147   3.389  1.00  0.00     0.006 C 
BRANCH   3   4
ATOM      4  C   UNL     1      48.546  23.840   4.383  1.00  0.00     0.053 C 
BRANCH   4   5
ATOM      5  C   UNL     1      49.953  23.822   3.876  1.00  0.00     0.041 C 
ATOM      6  O   UNL     1      50.485  22.737   3.521  1.00  0.00    -0.550 OA
ATOM      7  O   UNL     1      50.662  25.010   3.751  1.00  0.00    -0.550 OA
ENDBRANCH   4   5
ENDBRANCH   3   4
ENDBRANCH   2   3
ENDBRANCH   1   2
BRANCH   1   8
ATOM      8  C   UNL     1      45.356  25.800   2.621  1.00  0.00     0.000 C 
BRANCH   8   9
ATOM      9  C   UNL     1      44.906  27.057   3.384  1.00  0.00     0.000 C 
BRANCH   9  10
ATOM     10  C   UNL     1      43.971  26.731   4.559  1.00  0.00     0.006 C 
BRANCH  10  11
ATOM     11  C   UNL     1      44.481  27.367   5.856  1.00  0.00     0.053 C 
BRANCH  11  12
ATOM     12  C   UNL     1      45.148  26.341   6.715  1.00  0.00     0.041 C 
ATOM     13  O   UNL     1      44.549  25.864   7.714  1.00  0.00    -0.550 OA
ATOM     14  O   UNL     1      46.416  25.876   6.387  1.00  0.00    -0.550 OA
ENDBRANCH  11  12
ENDBRANCH  10  11
ENDBRANCH   9  10
ENDBRANCH   8   9
ENDBRANCH   1   8
TORSDOF 9
ENDMDL
MODEL 3
REMARK VINA RESULT:    -4.729      1.620      1.970
REMARK INTER + INTRA:          -7.758
REMARK INTER:                  -7.302
REMARK INTRA:                  -0.455
REMARK UNBOUND:                -0.541
REMARK SMILES O=C([O-])CCCCCCCCC(=O)[O-]
REMARK SMILES IDX 7 1 6 2 5 3 4 4 2 5 1 6 3 7 8 8 9 9 10 10 11 11 12 12 13 13
REMARK SMILES IDX 14 14
REMARK H PARENT
REMARK Flexibility Score: inf
ROOT
ATOM      1  C   UNL     1      46.032  26.354   3.310  1.00  0.00     0.000 C 
ENDROOT
BRANCH   1   2
ATOM      2  C   UNL     1      44.683  27.080   3.304  1.00  0.00     0.000 C 
BRANCH   2   3
ATOM      3  C   UNL     1      43.916  26.827   4.608  1.00  0.00     0.006 C 
BRANCH   3   4
ATOM      4  C   UNL     1      44.639  27.457   5.802  1.00  0.00     0.053 C 
BRANCH   4   5
ATOM      5  C   UNL     1      45.029  26.404   6.791  1.00  0.00     0.041 C 
ATOM      6  O   UNL     1      46.231  26.046   6.896  1.00  0.00    -0.550 OA
ATOM      7  O   UNL     1      44.070  25.853   7.632  1.00  0.00    -0.550 OA
ENDBRANCH   4   5
ENDBRANCH   3   4
ENDBRANCH   2   3
ENDBRANCH   1   2
BRANCH   1   8
ATOM      8  C   UNL     1      46.038  25.195   2.301  1.00  0.00     0.000 C 
BRANCH   8   9
ATOM      9  C   UNL     1      47.412  24.516   2.185  1.00  0.00     0.000 C 
BRANCH   9  10
ATOM     10  C   UNL     1      47.580  23.349   3.171  1.00  0.00     0.006 C 
BRANCH  10  11
ATOM     11  C   UNL     1      48.549  23.720   4.298  1.00  0.00     0.053 C 
BRANCH  11  12
ATOM     12  C   UNL     1      49.953  23.772   3.786  1.00  0.00     0.041 C 
ATOM     13  O   UNL     1      50.537  22.715   3.430  1.00  0.00    -0.550 OA
ATOM     14  O   UNL     1      50.601  24.994   3.655  1.00  0.00    -0.550 OA
ENDBRANCH  11  12
ENDBRANCH  10  11
ENDBRANCH   9  10
ENDBRANCH   8   9
ENDBRANCH   1   8
TORSDOF 9
ENDMDL
MODEL 4
REMARK VINA RESULT:    -4.536     15.359     16.711
REMARK INTER + INTRA:          -7.464
REMARK INTER:                  -6.975
REMARK INTRA:                  -0.488
REMARK UNBOUND:                -0.541
REMARK SMILES O=C([O-])CCCCCCCCC(=O)[O-]
REMARK SMILES IDX 7 1 6 2 5 3 4 4 2 5 1 6 3 7 8 8 9 9 10 10 11 11 12 12 13 13
REMARK SMILES IDX 14 14
REMARK H PARENT
REMARK Flexibility Score: inf
ROOT
ATOM      1  C   UNL     1      42.680  22.578  19.813  1.00  0.00     0.000 C 
ENDROOT
BRANCH   1   2
ATOM      2  C   UNL     1      43.330  21.771  20.942  1.00  0.00     0.000 C 
BRANCH   2   3
ATOM      3  C   UNL     1      44.545  22.509  21.518  1.00  0.00     0.006 C 
BRANCH   3   4
ATOM      4  C   UNL     1      45.850  21.814  21.117  1.00  0.00     0.053 C 
BRANCH   4   5
ATOM      5  C   UNL     1      46.681  22.715  20.261  1.00  0.00     0.041 C 
ATOM      6  O   UNL     1      47.929  22.766  20.419  1.00  0.00    -0.550 OA
ATOM      7  O   UNL     1      46.083  23.465  19.256  1.00  0.00    -0.550 OA
ENDBRANCH   4   5
ENDBRANCH   3   4
ENDBRANCH   2   3
ENDBRANCH   1   2
BRANCH   1   8
ATOM      8  C   UNL     1      42.443  24.034  20.242  1.00  0.00     0.000 C 
BRANCH   8   9
ATOM      9  C   UNL     1      41.179  24.640  19.612  1.00  0.00     0.000 C 
BRANCH   9  10
ATOM     10  C   UNL     1      40.226  23.573  19.052  1.00  0.00     0.006 C 
BRANCH  10  11
ATOM     11  C   UNL     1      39.242  24.188  18.053  1.00  0.00     0.053 C 
BRANCH  11  12
ATOM     12  C   UNL     1      38.415  23.121  17.408  1.00  0.00     0.041 C 
ATOM     13  O   UNL     1      38.969  22.122  16.880  1.00  0.00    -0.550 OA
ATOM     14  O   UNL     1      37.028  23.206  17.431  1.00  0.00    -0.550 OA
ENDBRANCH  11  12
ENDBRANCH  10  11
ENDBRANCH   9  10
ENDBRANCH   8   9
ENDBRANCH   1   8
TORSDOF 9
ENDMDL
MODEL 5
REMARK VINA RESULT:    -4.459     15.203     15.834
REMARK INTER + INTRA:          -7.345
REMARK INTER:                  -6.991
REMARK INTRA:                  -0.355
REMARK UNBOUND:                -0.541
REMARK SMILES O=C([O-])CCCCCCCCC(=O)[O-]
REMARK SMILES IDX 7 1 6 2 5 3 4 4 2 5 1 6 3 7 8 8 9 9 10 10 11 11 12 12 13 13
REMARK SMILES IDX 14 14
REMARK H PARENT
REMARK Flexibility Score: inf
ROOT
ATOM      1  C   UNL     1      42.476  22.968  19.644  1.00  0.00     0.000 C 
ENDROOT
BRANCH   1   2
ATOM      2  C   UNL     1      41.217  23.805  19.389  1.00  0.00     0.000 C 
BRANCH   2   3
ATOM      3  C   UNL     1      40.460  23.302  18.155  1.00  0.00     0.006 C 
BRANCH   3   4
ATOM      4  C   UNL     1      39.120  24.026  17.999  1.00  0.00     0.053 C 
BRANCH   4   5
ATOM      5  C   UNL     1      38.052  23.066  17.579  1.00  0.00     0.041 C 
ATOM      6  O   UNL     1      36.861  23.455  17.458  1.00  0.00    -0.550 OA
ATOM      7  O   UNL     1      38.381  21.751  17.276  1.00  0.00    -0.550 OA
ENDBRANCH   4   5
ENDBRANCH   3   4
ENDBRANCH   2   3
ENDBRANCH   1   2
BRANCH   1   8
ATOM      8  C   UNL     1      43.430  23.689  20.607  1.00  0.00     0.000 C 
BRANCH   8   9
ATOM      9  C   UNL     1      44.438  24.592  19.878  1.00  0.00     0.000 C 
BRANCH   9  10
ATOM     10  C   UNL     1      45.433  23.796  19.019  1.00  0.00     0.006 C 
BRANCH  10  11
ATOM     11  C   UNL     1      46.862  23.953  19.549  1.00  0.00     0.053 C 
BRANCH  11  12
ATOM     12  C   UNL     1      47.246  22.769  20.377  1.00  0.00     0.041 C 
ATOM     13  O   UNL     1      48.388  22.707  20.902  1.00  0.00    -0.550 OA
ATOM     14  O   UNL     1      46.326  21.754  20.609  1.00  0.00    -0.550 OA
ENDBRANCH  11  12
ENDBRANCH  10  11
ENDBRANCH   9  10
ENDBRANCH   8   9
ENDBRANCH   1   8
TORSDOF 9
ENDMDL
MODEL 6
REMARK VINA RESULT:    -4.414     15.232     16.436
REMARK INTER + INTRA:          -7.277
REMARK INTER:                  -6.587
REMARK INTRA:                  -0.690
REMARK UNBOUND:                -0.541
REMARK SMILES O=C([O-])CCCCCCCCC(=O)[O-]
REMARK SMILES IDX 7 1 6 2 5 3 4 4 2 5 1 6 3 7 8 8 9 9 10 10 11 11 12 12 13 13
REMARK SMILES IDX 14 14
REMARK H PARENT
REMARK Flexibility Score: inf
ROOT
ATOM      1  C   UNL     1      43.146  21.456  20.901  1.00  0.00     0.000 C 
ENDROOT
BRANCH   1   2
ATOM      2  C   UNL     1      43.020  22.879  21.457  1.00  0.00     0.000 C 
BRANCH   2   3
ATOM      3  C   UNL     1      42.448  23.834  20.403  1.00  0.00     0.006 C 
BRANCH   3   4
ATOM      4  C   UNL     1      40.933  23.659  20.267  1.00  0.00     0.053 C 
BRANCH   4   5
ATOM      5  C   UNL     1      40.543  23.571  18.825  1.00  0.00     0.041 C 
ATOM      6  O   UNL     1      41.209  22.856  18.031  1.00  0.00    -0.550 OA
ATOM      7  O   UNL     1      39.416  24.242  18.368  1.00  0.00    -0.550 OA
ENDBRANCH   4   5
ENDBRANCH   3   4
ENDBRANCH   2   3
ENDBRANCH   1   2
BRANCH   1   8
ATOM      8  C   UNL     1      44.370  20.741  21.492  1.00  0.00     0.000 C 
BRANCH   8   9
ATOM      9  C   UNL     1      45.526  21.705  21.807  1.00  0.00     0.000 C 
BRANCH   9  10
ATOM     10  C   UNL     1      46.547  21.797  20.662  1.00  0.00     0.006 C 
BRANCH  10  11
ATOM     11  C   UNL     1      47.214  23.176  20.634  1.00  0.00     0.053 C 
BRANCH  11  12
ATOM     12  C   UNL     1      46.742  23.963  19.453  1.00  0.00     0.041 C 
ATOM     13  O   UNL     1      45.630  23.705  18.924  1.00  0.00    -0.550 OA
ATOM     14  O   UNL     1      47.508  25.015  18.966  1.00  0.00    -0.550 OA
ENDBRANCH  11  12
ENDBRANCH  10  11
ENDBRANCH   9  10
ENDBRANCH   8   9
ENDBRANCH   1   8
TORSDOF 9
ENDMDL
MODEL 7
REMARK VINA RESULT:    -4.383     15.134     16.775
REMARK INTER + INTRA:          -7.230
REMARK INTER:                  -6.430
REMARK INTRA:                  -0.799
REMARK UNBOUND:                -0.541
REMARK SMILES O=C([O-])CCCCCCCCC(=O)[O-]
REMARK SMILES IDX 7 1 6 2 5 3 4 4 2 5 1 6 3 7 8 8 9 9 10 10 11 11 12 12 13 13
REMARK SMILES IDX 14 14
REMARK H PARENT
REMARK Flexibility Score: inf
ROOT
ATOM      1  C   UNL     1      44.885  20.507  21.407  1.00  0.00     0.000 C 
ENDROOT
BRANCH   1   2
ATOM      2  C   UNL     1      45.822  21.654  21.803  1.00  0.00     0.000 C 
BRANCH   2   3
ATOM      3  C   UNL     1      46.755  22.029  20.645  1.00  0.00     0.006 C 
BRANCH   3   4
ATOM      4  C   UNL     1      47.197  23.492  20.747  1.00  0.00     0.053 C 
BRANCH   4   5
ATOM      5  C   UNL     1      46.895  24.219  19.476  1.00  0.00     0.041 C 
ATOM      6  O   UNL     1      45.932  23.856  18.750  1.00  0.00    -0.550 OA
ATOM      7  O   UNL     1      47.649  25.329  19.115  1.00  0.00    -0.550 OA
ENDBRANCH   4   5
ENDBRANCH   3   4
ENDBRANCH   2   3
ENDBRANCH   1   2
BRANCH   1   8
ATOM      8  C   UNL     1      43.494  21.037  21.031  1.00  0.00     0.000 C 
BRANCH   8   9
ATOM      9  C   UNL     1      43.208  22.426  21.623  1.00  0.00     0.000 C 
BRANCH   9  10
ATOM     10  C   UNL     1      42.990  23.496  20.542  1.00  0.00     0.006 C 
BRANCH  10  11
ATOM     11  C   UNL     1      42.658  22.851  19.193  1.00  0.00     0.053 C 
BRANCH  11  12
ATOM     12  C   UNL     1      41.297  23.267  18.735  1.00  0.00     0.041 C 
ATOM     13  O   UNL     1      40.838  22.840  17.643  1.00  0.00    -0.550 OA
ATOM     14  O   UNL     1      40.513  24.089  19.535  1.00  0.00    -0.550 OA
ENDBRANCH  11  12
ENDBRANCH  10  11
ENDBRANCH   9  10
ENDBRANCH   8   9
ENDBRANCH   1   8
TORSDOF 9
ENDMDL
MODEL 8
REMARK VINA RESULT:    -4.342     14.858     16.129
REMARK INTER + INTRA:          -7.166
REMARK INTER:                  -6.551
REMARK INTRA:                  -0.615
REMARK UNBOUND:                -0.541
REMARK SMILES O=C([O-])CCCCCCCCC(=O)[O-]
REMARK SMILES IDX 7 1 6 2 5 3 4 4 2 5 1 6 3 7 8 8 9 9 10 10 11 11 12 12 13 13
REMARK SMILES IDX 14 14
REMARK H PARENT
REMARK Flexibility Score: inf
ROOT
ATOM      1  C   UNL     1      41.081  23.625  19.826  1.00  0.00     0.000 C 
ENDROOT
BRANCH   1   2
ATOM      2  C   UNL     1      41.668  23.142  18.495  1.00  0.00     0.000 C 
BRANCH   2   3
ATOM      3  C   UNL     1      40.590  22.490  17.622  1.00  0.00     0.006 C 
BRANCH   3   4
ATOM      4  C   UNL     1      39.500  23.499  17.248  1.00  0.00     0.053 C 
BRANCH   4   5
ATOM      5  C   UNL     1      38.144  22.931  17.524  1.00  0.00     0.041 C 
ATOM      6  O   UNL     1      37.264  22.923  16.623  1.00  0.00    -0.550 OA
ATOM      7  O   UNL     1      37.866  22.366  18.762  1.00  0.00    -0.550 OA
ENDBRANCH   4   5
ENDBRANCH   3   4
ENDBRANCH   2   3
ENDBRANCH   1   2
BRANCH   1   8
ATOM      8  C   UNL     1      41.998  23.250  21.000  1.00  0.00     0.000 C 
BRANCH   8   9
ATOM      9  C   UNL     1      42.958  22.100  20.659  1.00  0.00     0.000 C 
BRANCH   9  10
ATOM     10  C   UNL     1      44.201  22.079  21.563  1.00  0.00     0.006 C 
BRANCH  10  11
ATOM     11  C   UNL     1      45.064  23.324  21.333  1.00  0.00     0.053 C 
BRANCH  11  12
ATOM     12  C   UNL     1      45.807  23.215  20.040  1.00  0.00     0.041 C 
ATOM     13  O   UNL     1      46.809  22.459  19.946  1.00  0.00    -0.550 OA
ATOM     14  O   UNL     1      45.364  23.912  18.922  1.00  0.00    -0.550 OA
ENDBRANCH  11  12
ENDBRANCH  10  11
ENDBRANCH   9  10
ENDBRANCH   8   9
ENDBRANCH   1   8
TORSDOF 9
ENDMDL
MODEL 9
REMARK VINA RESULT:    -4.311     15.106     16.261
REMARK INTER + INTRA:          -7.120
REMARK INTER:                  -6.516
REMARK INTRA:                  -0.604
REMARK UNBOUND:                -0.541
REMARK SMILES O=C([O-])CCCCCCCCC(=O)[O-]
REMARK SMILES IDX 7 1 6 2 5 3 4 4 2 5 1 6 3 7 8 8 9 9 10 10 11 11 12 12 13 13
REMARK SMILES IDX 14 14
REMARK H PARENT
REMARK Flexibility Score: inf
ROOT
ATOM      1  C   UNL     1      42.390  22.488  20.787  1.00  0.00     0.000 C 
ENDROOT
BRANCH   1   2
ATOM      2  C   UNL     1      41.697  23.847  20.934  1.00  0.00     0.000 C 
BRANCH   2   3
ATOM      3  C   UNL     1      41.228  24.377  19.574  1.00  0.00     0.006 C 
BRANCH   3   4
ATOM      4  C   UNL     1      41.108  23.241  18.553  1.00  0.00     0.053 C 
BRANCH   4   5
ATOM      5  C   UNL     1      39.766  23.271  17.892  1.00  0.00     0.041 C 
ATOM      6  O   UNL     1      39.345  22.264  17.266  1.00  0.00    -0.550 OA
ATOM      7  O   UNL     1      38.960  24.397  18.008  1.00  0.00    -0.550 OA
ENDBRANCH   4   5
ENDBRANCH   3   4
ENDBRANCH   2   3
ENDBRANCH   1   2
BRANCH   1   8
ATOM      8  C   UNL     1      43.571  22.364  21.761  1.00  0.00     0.000 C 
BRANCH   8   9
ATOM      9  C   UNL     1      44.544  21.238  21.374  1.00  0.00     0.000 C 
BRANCH   9  10
ATOM     10  C   UNL     1      45.938  21.765  20.998  1.00  0.00     0.006 C 
BRANCH  10  11
ATOM     11  C   UNL     1      45.960  23.296  20.991  1.00  0.00     0.053 C 
BRANCH  11  12
ATOM     12  C   UNL     1      46.056  23.812  19.591  1.00  0.00     0.041 C 
ATOM     13  O   UNL     1      45.061  23.749  18.823  1.00  0.00    -0.550 OA
ATOM     14  O   UNL     1      47.231  24.407  19.147  1.00  0.00    -0.550 OA
ENDBRANCH  11  12
ENDBRANCH  10  11
ENDBRANCH   9  10
ENDBRANCH   8   9
ENDBRANCH   1   8
TORSDOF 9
ENDMDL
