MODEL 1
REMARK VINA RESULT:    -4.413      0.000      0.000
REMARK INTER + INTRA:          -4.413
REMARK INTER:                  -4.413
REMARK INTRA:                   0.000
REMARK UNBOUND:                 0.000
REMARK SMILES CC1=CC[C@]2(C)CCCC(C)(C)[C@]23C[C@H]13
REMARK SMILES IDX 1 1 2 2 3 3 4 4 5 5 7 6 8 7 9 8 10 9 13 10 15 11 14 12 11 13
REMARK SMILES IDX 12 14 6 15
REMARK H PARENT
REMARK Flexibility Score: inf
ROOT
ATOM      1  C   UNL     1      51.394  28.544  28.367  1.00  0.00     0.039 C 
ATOM      2  C   UNL     1      52.279  28.866  27.195  1.00  0.00    -0.074 C 
ATOM      3  C   UNL     1      51.801  29.653  26.207  1.00  0.00    -0.027 C 
ATOM      4  C   UNL     1      52.631  30.006  24.998  1.00  0.00     0.034 C 
ATOM      5  C   UNL     1      54.135  30.146  25.372  1.00  0.00    -0.022 C 
ATOM      6  C   UNL     1      54.960  30.330  24.075  1.00  0.00     0.008 C 
ATOM      7  C   UNL     1      56.481  30.330  24.315  1.00  0.00     0.001 C 
ATOM      8  C   UNL     1      56.963  29.058  25.032  1.00  0.00     0.007 C 
ATOM      9  C   UNL     1      56.235  28.748  26.372  1.00  0.00    -0.029 C 
ATOM     10  C   UNL     1      54.671  28.860  26.121  1.00  0.00    -0.012 C 
ATOM     11  C   UNL     1      53.688  28.293  27.157  1.00  0.00     0.022 C 
ATOM     12  C   UNL     1      53.952  27.503  25.877  1.00  0.00     0.017 C 
ATOM     13  C   UNL     1      56.723  27.339  26.820  1.00  0.00     0.012 C 
ATOM     14  C   UNL     1      56.687  29.729  27.482  1.00  0.00     0.012 C 
ATOM     15  C   UNL     1      54.248  31.419  26.268  1.00  0.00     0.012 C 
ENDROOT
TORSDOF 0
ENDMDL
MODEL 2
REMARK VINA RESULT:    -4.363     21.223     23.054
REMARK INTER + INTRA:          -4.363
REMARK INTER:                  -4.363
REMARK INTRA:                   0.000
REMARK UNBOUND:                 0.000
REMARK SMILES CC1=CC[C@]2(C)CCCC(C)(C)[C@]23C[C@H]13
REMARK SMILES IDX 1 1 2 2 3 3 4 4 5 5 7 6 8 7 9 8 10 9 13 10 15 11 14 12 11 13
REMARK SMILES IDX 12 14 6 15
REMARK H PARENT
REMARK Flexibility Score: inf
ROOT
ATOM      1  C   UNL     1      59.513  41.886  40.378  1.00  0.00     0.039 C 
ATOM      2  C   UNL     1      59.204  42.938  41.407  1.00  0.00    -0.074 C 
ATOM      3  C   UNL     1      60.176  43.800  41.778  1.00  0.00    -0.027 C 
ATOM      4  C   UNL     1      59.938  44.871  42.813  1.00  0.00     0.034 C 
ATOM      5  C   UNL     1      58.480  45.412  42.735  1.00  0.00    -0.022 C 
ATOM      6  C   UNL     1      58.237  46.372  43.925  1.00  0.00     0.008 C 
ATOM      7  C   UNL     1      56.778  46.852  44.031  1.00  0.00     0.001 C 
ATOM      8  C   UNL     1      55.781  45.686  44.125  1.00  0.00     0.007 C 
ATOM      9  C   UNL     1      55.891  44.638  42.979  1.00  0.00    -0.029 C 
ATOM     10  C   UNL     1      57.420  44.241  42.819  1.00  0.00    -0.012 C 
ATOM     11  C   UNL     1      57.805  42.998  42.002  1.00  0.00     0.022 C 
ATOM     12  C   UNL     1      57.826  42.918  43.527  1.00  0.00     0.017 C 
ATOM     13  C   UNL     1      54.950  43.461  43.368  1.00  0.00     0.012 C 
ATOM     14  C   UNL     1      55.329  45.214  41.654  1.00  0.00     0.012 C 
ATOM     15  C   UNL     1      58.371  46.188  41.384  1.00  0.00     0.012 C 
ENDROOT
TORSDOF 0
ENDMDL
MODEL 3
REMARK VINA RESULT:    -4.135     21.377     23.001
REMARK INTER + INTRA:          -4.135
REMARK INTER:                  -4.135
REMARK INTRA:                   0.000
REMARK UNBOUND:                 0.000
REMARK SMILES CC1=CC[C@]2(C)CCCC(C)(C)[C@]23C[C@H]13
REMARK SMILES IDX 1 1 2 2 3 3 4 4 5 5 7 6 8 7 9 8 10 9 13 10 15 11 14 12 11 13
REMARK SMILES IDX 12 14 6 15
REMARK H PARENT
REMARK Flexibility Score: inf
ROOT
ATOM      1  C   UNL     1      53.253  45.271  41.519  1.00  0.00     0.039 C 
ATOM      2  C   UNL     1      54.411  44.675  42.269  1.00  0.00    -0.074 C 
ATOM      3  C   UNL     1      54.373  43.368  42.608  1.00  0.00    -0.027 C 
ATOM      4  C   UNL     1      55.495  42.709  43.370  1.00  0.00     0.034 C 
ATOM      5  C   UNL     1      56.874  43.314  42.972  1.00  0.00    -0.022 C 
ATOM      6  C   UNL     1      57.964  42.734  43.905  1.00  0.00     0.008 C 
ATOM      7  C   UNL     1      59.347  43.376  43.698  1.00  0.00     0.001 C 
ATOM      8  C   UNL     1      59.316  44.904  43.864  1.00  0.00     0.007 C 
ATOM      9  C   UNL     1      58.274  45.638  42.970  1.00  0.00    -0.029 C 
ATOM     10  C   UNL     1      56.882  44.889  43.120  1.00  0.00    -0.012 C 
ATOM     11  C   UNL     1      55.594  45.564  42.625  1.00  0.00     0.022 C 
ATOM     12  C   UNL     1      55.893  45.548  44.122  1.00  0.00     0.017 C 
ATOM     13  C   UNL     1      58.267  47.124  43.433  1.00  0.00     0.012 C 
ATOM     14  C   UNL     1      58.735  45.654  41.491  1.00  0.00     0.012 C 
ATOM     15  C   UNL     1      57.136  42.875  41.497  1.00  0.00     0.012 C 
ENDROOT
TORSDOF 0
ENDMDL
MODEL 4
REMARK VINA RESULT:    -4.060     21.030     22.905
REMARK INTER + INTRA:          -4.060
REMARK INTER:                  -4.060
REMARK INTRA:                   0.000
REMARK UNBOUND:                 0.000
REMARK SMILES CC1=CC[C@]2(C)CCCC(C)(C)[C@]23C[C@H]13
REMARK SMILES IDX 1 1 2 2 3 3 4 4 5 5 7 6 8 7 9 8 10 9 13 10 15 11 14 12 11 13
REMARK SMILES IDX 12 14 6 15
REMARK H PARENT
REMARK Flexibility Score: inf
ROOT
ATOM      1  C   UNL     1      62.161  44.121  42.900  1.00  0.00     0.039 C 
ATOM      2  C   UNL     1      60.743  43.806  42.515  1.00  0.00    -0.074 C 
ATOM      3  C   UNL     1      60.353  42.515  42.438  1.00  0.00    -0.027 C 
ATOM      4  C   UNL     1      58.949  42.128  42.046  1.00  0.00     0.034 C 
ATOM      5  C   UNL     1      57.915  43.167  42.570  1.00  0.00    -0.022 C 
ATOM      6  C   UNL     1      56.521  42.823  41.992  1.00  0.00     0.008 C 
ATOM      7  C   UNL     1      55.446  43.874  42.326  1.00  0.00     0.001 C 
ATOM      8  C   UNL     1      55.840  45.285  41.860  1.00  0.00     0.007 C 
ATOM      9  C   UNL     1      57.220  45.784  42.379  1.00  0.00    -0.029 C 
ATOM     10  C   UNL     1      58.288  44.637  42.119  1.00  0.00    -0.012 C 
ATOM     11  C   UNL     1      59.788  44.953  42.220  1.00  0.00     0.022 C 
ATOM     12  C   UNL     1      59.149  44.828  40.839  1.00  0.00     0.017 C 
ATOM     13  C   UNL     1      57.509  47.123  41.640  1.00  0.00     0.012 C 
ATOM     14  C   UNL     1      57.144  46.136  43.886  1.00  0.00     0.012 C 
ATOM     15  C   UNL     1      57.904  43.030  44.125  1.00  0.00     0.012 C 
ENDROOT
TORSDOF 0
ENDMDL
MODEL 5
REMARK VINA RESULT:    -3.968      3.605      6.932
REMARK INTER + INTRA:          -3.968
REMARK INTER:                  -3.968
REMARK INTRA:                   0.000
REMARK UNBOUND:                 0.000
REMARK SMILES CC1=CC[C@]2(C)CCCC(C)(C)[C@]23C[C@H]13
REMARK SMILES IDX 1 1 2 2 3 3 4 4 5 5 7 6 8 7 9 8 10 9 13 10 15 11 14 12 11 13
REMARK SMILES IDX 12 14 6 15
REMARK H PARENT
REMARK Flexibility Score: inf
ROOT
ATOM      1  C   UNL     1      53.116  32.074  26.176  1.00  0.00     0.039 C 
ATOM      2  C   UNL     1      51.799  31.672  26.777  1.00  0.00    -0.074 C 
ATOM      3  C   UNL     1      51.159  30.586  26.293  1.00  0.00    -0.027 C 
ATOM      4  C   UNL     1      49.829  30.134  26.842  1.00  0.00     0.034 C 
ATOM      5  C   UNL     1      49.730  30.410  28.371  1.00  0.00    -0.022 C 
ATOM      6  C   UNL     1      48.291  30.096  28.846  1.00  0.00     0.008 C 
ATOM      7  C   UNL     1      48.038  30.476  30.316  1.00  0.00     0.001 C 
ATOM      8  C   UNL     1      48.341  31.956  30.601  1.00  0.00     0.007 C 
ATOM      9  C   UNL     1      49.769  32.422  30.192  1.00  0.00    -0.029 C 
ATOM     10  C   UNL     1      50.044  31.924  28.710  1.00  0.00    -0.012 C 
ATOM     11  C   UNL     1      51.224  32.504  27.915  1.00  0.00     0.022 C 
ATOM     12  C   UNL     1      49.812  32.997  27.608  1.00  0.00     0.017 C 
ATOM     13  C   UNL     1      49.796  33.967  30.375  1.00  0.00     0.012 C 
ATOM     14  C   UNL     1      50.831  31.858  31.169  1.00  0.00     0.012 C 
ATOM     15  C   UNL     1      50.748  29.447  29.058  1.00  0.00     0.012 C 
ENDROOT
TORSDOF 0
ENDMDL
MODEL 6
REMARK VINA RESULT:    -3.728      4.135      7.180
REMARK INTER + INTRA:          -3.728
REMARK INTER:                  -3.728
REMARK INTRA:                   0.000
REMARK UNBOUND:                 0.000
REMARK SMILES CC1=CC[C@]2(C)CCCC(C)(C)[C@]23C[C@H]13
REMARK SMILES IDX 1 1 2 2 3 3 4 4 5 5 7 6 8 7 9 8 10 9 13 10 15 11 14 12 11 13
REMARK SMILES IDX 12 14 6 15
REMARK H PARENT
REMARK Flexibility Score: inf
ROOT
ATOM      1  C   UNL     1      52.031  29.106  27.122  1.00  0.00     0.039 C 
ATOM      2  C   UNL     1      50.871  29.795  27.783  1.00  0.00    -0.074 C 
ATOM      3  C   UNL     1      50.125  29.114  28.680  1.00  0.00    -0.027 C 
ATOM      4  C   UNL     1      48.940  29.742  29.371  1.00  0.00     0.034 C 
ATOM      5  C   UNL     1      49.181  31.258  29.631  1.00  0.00    -0.022 C 
ATOM      6  C   UNL     1      47.875  31.887  30.174  1.00  0.00     0.008 C 
ATOM      7  C   UNL     1      47.954  33.417  30.327  1.00  0.00     0.001 C 
ATOM      8  C   UNL     1      48.333  34.120  29.013  1.00  0.00     0.007 C 
ATOM      9  C   UNL     1      49.644  33.605  28.351  1.00  0.00    -0.029 C 
ATOM     10  C   UNL     1      49.582  32.019  28.304  1.00  0.00    -0.012 C 
ATOM     11  C   UNL     1      50.570  31.242  27.419  1.00  0.00     0.022 C 
ATOM     12  C   UNL     1      49.132  31.425  26.939  1.00  0.00     0.017 C 
ATOM     13  C   UNL     1      49.732  34.295  26.958  1.00  0.00     0.012 C 
ATOM     14  C   UNL     1      50.885  34.086  29.144  1.00  0.00     0.012 C 
ATOM     15  C   UNL     1      50.310  31.345  30.705  1.00  0.00     0.012 C 
ENDROOT
TORSDOF 0
ENDMDL
MODEL 7
REMARK VINA RESULT:    -3.508      4.029      6.067
REMARK INTER + INTRA:          -3.508
REMARK INTER:                  -3.508
REMARK INTRA:                   0.000
REMARK UNBOUND:                 0.000
REMARK SMILES CC1=CC[C@]2(C)CCCC(C)(C)[C@]23C[C@H]13
REMARK SMILES IDX 1 1 2 2 3 3 4 4 5 5 7 6 8 7 9 8 10 9 13 10 15 11 14 12 11 13
REMARK SMILES IDX 12 14 6 15
REMARK H PARENT
REMARK Flexibility Score: inf
ROOT
ATOM      1  C   UNL     1      50.918  32.074  31.667  1.00  0.00     0.039 C 
ATOM      2  C   UNL     1      50.303  32.415  30.339  1.00  0.00    -0.074 C 
ATOM      3  C   UNL     1      49.590  33.556  30.218  1.00  0.00    -0.027 C 
ATOM      4  C   UNL     1      48.936  33.953  28.917  1.00  0.00     0.034 C 
ATOM      5  C   UNL     1      49.792  33.501  27.698  1.00  0.00    -0.022 C 
ATOM      6  C   UNL     1      48.996  33.770  26.398  1.00  0.00     0.008 C 
ATOM      7  C   UNL     1      49.688  33.224  25.137  1.00  0.00     0.001 C 
ATOM      8  C   UNL     1      49.982  31.718  25.233  1.00  0.00     0.007 C 
ATOM      9  C   UNL     1      50.799  31.291  26.487  1.00  0.00    -0.029 C 
ATOM     10  C   UNL     1      50.126  31.956  27.763  1.00  0.00    -0.012 C 
ATOM     11  C   UNL     1      50.500  31.462  29.169  1.00  0.00     0.022 C 
ATOM     12  C   UNL     1      49.172  31.021  28.558  1.00  0.00     0.017 C 
ATOM     13  C   UNL     1      50.810  29.734  26.495  1.00  0.00     0.012 C 
ATOM     14  C   UNL     1      52.279  31.727  26.354  1.00  0.00     0.012 C 
ATOM     15  C   UNL     1      51.090  34.369  27.727  1.00  0.00     0.012 C 
ENDROOT
TORSDOF 0
ENDMDL
MODEL 8
REMARK VINA RESULT:    -3.480      1.283      4.279
REMARK INTER + INTRA:          -3.480
REMARK INTER:                  -3.480
REMARK INTRA:                   0.000
REMARK UNBOUND:                 0.000
REMARK SMILES CC1=CC[C@]2(C)CCCC(C)(C)[C@]23C[C@H]13
REMARK SMILES IDX 1 1 2 2 3 3 4 4 5 5 7 6 8 7 9 8 10 9 13 10 15 11 14 12 11 13
REMARK SMILES IDX 12 14 6 15
REMARK H PARENT
REMARK Flexibility Score: inf
ROOT
ATOM      1  C   UNL     1      57.247  30.197  28.374  1.00  0.00     0.039 C 
ATOM      2  C   UNL     1      56.666  29.430  27.219  1.00  0.00    -0.074 C 
ATOM      3  C   UNL     1      57.211  28.241  26.879  1.00  0.00    -0.027 C 
ATOM      4  C   UNL     1      56.685  27.425  25.725  1.00  0.00     0.034 C 
ATOM      5  C   UNL     1      55.142  27.583  25.584  1.00  0.00    -0.022 C 
ATOM      6  C   UNL     1      54.682  26.875  24.286  1.00  0.00     0.008 C 
ATOM      7  C   UNL     1      53.192  27.094  23.969  1.00  0.00     0.001 C 
ATOM      8  C   UNL     1      52.824  28.584  23.876  1.00  0.00     0.007 C 
ATOM      9  C   UNL     1      53.209  29.431  25.124  1.00  0.00    -0.029 C 
ATOM     10  C   UNL     1      54.718  29.104  25.494  1.00  0.00    -0.012 C 
ATOM     11  C   UNL     1      55.482  30.017  26.466  1.00  0.00     0.022 C 
ATOM     12  C   UNL     1      55.756  30.137  24.969  1.00  0.00     0.017 C 
ATOM     13  C   UNL     1      52.938  30.917  24.747  1.00  0.00     0.012 C 
ATOM     14  C   UNL     1      52.268  29.115  26.314  1.00  0.00     0.012 C 
ATOM     15  C   UNL     1      54.514  26.886  26.831  1.00  0.00     0.012 C 
ENDROOT
TORSDOF 0
ENDMDL
MODEL 9
REMARK VINA RESULT:    -1.533      1.195      4.041
REMARK INTER + INTRA:          -1.533
REMARK INTER:                  -1.533
REMARK INTRA:                   0.000
REMARK UNBOUND:                 0.000
REMARK SMILES CC1=CC[C@]2(C)CCCC(C)(C)[C@]23C[C@H]13
REMARK SMILES IDX 1 1 2 2 3 3 4 4 5 5 7 6 8 7 9 8 10 9 13 10 15 11 14 12 11 13
REMARK SMILES IDX 12 14 6 15
REMARK H PARENT
REMARK Flexibility Score: inf
ROOT
ATOM      1  C   UNL     1      57.622  26.875  26.331  1.00  0.00     0.039 C 
ATOM      2  C   UNL     1      56.556  27.921  26.500  1.00  0.00    -0.074 C 
ATOM      3  C   UNL     1      56.921  29.211  26.664  1.00  0.00    -0.027 C 
ATOM      4  C   UNL     1      55.903  30.309  26.849  1.00  0.00     0.034 C 
ATOM      5  C   UNL     1      54.611  30.020  26.031  1.00  0.00    -0.022 C 
ATOM      6  C   UNL     1      53.540  31.076  26.395  1.00  0.00     0.008 C 
ATOM      7  C   UNL     1      52.168  30.798  25.755  1.00  0.00     0.001 C 
ATOM      8  C   UNL     1      51.626  29.403  26.107  1.00  0.00     0.007 C 
ATOM      9  C   UNL     1      52.590  28.226  25.779  1.00  0.00    -0.029 C 
ATOM     10  C   UNL     1      54.024  28.587  26.358  1.00  0.00    -0.012 C 
ATOM     11  C   UNL     1      55.096  27.494  26.482  1.00  0.00     0.022 C 
ATOM     12  C   UNL     1      54.351  27.945  27.736  1.00  0.00     0.017 C 
ATOM     13  C   UNL     1      51.945  26.948  26.389  1.00  0.00     0.012 C 
ATOM     14  C   UNL     1      52.658  27.982  24.250  1.00  0.00     0.012 C 
ATOM     15  C   UNL     1      55.006  30.148  24.526  1.00  0.00     0.012 C 
ENDROOT
TORSDOF 0
ENDMDL
