MODEL 1
REMARK VINA RESULT:    -7.100      0.000      0.000
REMARK INTER + INTRA:          -9.145
REMARK INTER:                  -8.760
REMARK INTRA:                  -0.384
REMARK UNBOUND:                -0.384
REMARK SMILES Oc1cc(O)c2cc(O)c(-c3cc(O)c(O)c(O)c3)[o+]c2c1
REMARK SMILES IDX 10 1 20 2 21 3 22 4 2 5 3 6 4 7 6 8 7 9 8 10 11 11 12 12
REMARK SMILES IDX 13 13 19 14 15 15 17 16 14 17 16 19 18 21 9 23 1 25 5 27
REMARK H PARENT 14 18 16 20 18 22 9 24 1 26 5 28
REMARK Flexibility Score: inf
ROOT
ATOM      1  C   UNL     1      -3.992  22.006  48.840  1.00  0.00     0.402 A 
ATOM      2  O   UNL     1      -3.475  22.689  49.858  1.00  0.00    -0.202 OA
ATOM      3  C   UNL     1      -3.988  23.830  50.306  1.00  0.00     0.368 A 
ATOM      4  C   UNL     1      -3.370  24.478  51.380  1.00  0.00     0.162 A 
ATOM      5  C   UNL     1      -3.885  25.678  51.869  1.00  0.00     0.128 A 
ATOM      6  C   UNL     1      -5.025  26.239  51.283  1.00  0.00     0.093 A 
ATOM      7  C   UNL     1      -5.662  25.609  50.206  1.00  0.00     0.136 A 
ATOM      8  C   UNL     1      -5.143  24.387  49.707  1.00  0.00     0.125 A 
ATOM      9  C   UNL     1      -5.723  23.680  48.641  1.00  0.00     0.078 A 
ATOM     10  C   UNL     1      -5.157  22.477  48.207  1.00  0.00     0.223 A 
ENDROOT
BRANCH   1  11
ATOM     11  C   UNL     1      -3.323  20.751  48.427  1.00  0.00     0.091 A 
ATOM     12  C   UNL     1      -3.660  19.547  49.063  1.00  0.00     0.068 A 
ATOM     13  C   UNL     1      -3.030  18.351  48.708  1.00  0.00     0.162 A 
ATOM     14  C   UNL     1      -2.314  20.748  47.449  1.00  0.00     0.068 A 
ATOM     15  C   UNL     1      -2.036  18.349  47.713  1.00  0.00     0.200 A 
ATOM     16  C   UNL     1      -1.676  19.554  47.088  1.00  0.00     0.162 A 
BRANCH  13  17
ATOM     17  O   UNL     1      -3.404  17.172  49.353  1.00  0.00    -0.504 OA
ATOM     18  H   UNL     1      -3.236  16.259  48.949  1.00  0.00     0.293 HD
ENDBRANCH  13  17
BRANCH  15  19
ATOM     19  O   UNL     1      -1.415  17.150  47.362  1.00  0.00    -0.502 OA
ATOM     20  H   UNL     1      -1.395  16.349  47.982  1.00  0.00     0.293 HD
ENDBRANCH  15  19
BRANCH  16  21
ATOM     21  O   UNL     1      -0.680  19.562  46.111  1.00  0.00    -0.504 OA
ATOM     22  H   UNL     1       0.257  19.893  46.310  1.00  0.00     0.293 HD
ENDBRANCH  16  21
ENDBRANCH   1  11
BRANCH  10  23
ATOM     23  O   UNL     1      -5.760  21.749  47.181  1.00  0.00    -0.500 OA
ATOM     24  H   UNL     1      -5.223  21.376  46.407  1.00  0.00     0.294 HD
ENDBRANCH  10  23
BRANCH   5  25
ATOM     25  O   UNL     1      -3.255  26.309  52.941  1.00  0.00    -0.507 OA
ATOM     26  H   UNL     1      -3.042  27.300  52.921  1.00  0.00     0.293 HD
ENDBRANCH   5  25
BRANCH   7  27
ATOM     27  O   UNL     1      -6.794  26.235  49.673  1.00  0.00    -0.507 OA
ATOM     28  H   UNL     1      -6.941  26.404  48.689  1.00  0.00     0.293 HD
ENDBRANCH   7  27
TORSDOF 7
ENDMDL
MODEL 2
REMARK VINA RESULT:    -7.025      0.207      1.805
REMARK INTER + INTRA:          -9.052
REMARK INTER:                  -8.674
REMARK INTRA:                  -0.378
REMARK UNBOUND:                -0.384
REMARK SMILES Oc1cc(O)c2cc(O)c(-c3cc(O)c(O)c(O)c3)[o+]c2c1
REMARK SMILES IDX 10 1 20 2 21 3 22 4 2 5 3 6 4 7 6 8 7 9 8 10 11 11 12 12
REMARK SMILES IDX 13 13 19 14 15 15 17 16 14 17 16 19 18 21 9 23 1 25 5 27
REMARK H PARENT 14 18 16 20 18 22 9 24 1 26 5 28
REMARK Flexibility Score: inf
ROOT
ATOM      1  C   UNL     1      -4.023  22.008  48.824  1.00  0.00     0.402 A 
ATOM      2  O   UNL     1      -3.594  22.713  49.867  1.00  0.00    -0.202 OA
ATOM      3  C   UNL     1      -4.162  23.848  50.263  1.00  0.00     0.368 A 
ATOM      4  C   UNL     1      -3.636  24.521  51.371  1.00  0.00     0.162 A 
ATOM      5  C   UNL     1      -4.209  25.715  51.806  1.00  0.00     0.128 A 
ATOM      6  C   UNL     1      -5.315  26.245  51.133  1.00  0.00     0.093 A 
ATOM      7  C   UNL     1      -5.860  25.590  50.021  1.00  0.00     0.136 A 
ATOM      8  C   UNL     1      -5.281  24.374  49.576  1.00  0.00     0.125 A 
ATOM      9  C   UNL     1      -5.768  23.643  48.480  1.00  0.00     0.078 A 
ATOM     10  C   UNL     1      -5.148  22.447  48.103  1.00  0.00     0.223 A 
ENDROOT
BRANCH   1  11
ATOM     11  C   UNL     1      -3.300  20.763  48.476  1.00  0.00     0.091 A 
ATOM     12  C   UNL     1      -2.286  20.802  47.507  1.00  0.00     0.068 A 
ATOM     13  C   UNL     1      -1.601  19.639  47.144  1.00  0.00     0.162 A 
ATOM     14  C   UNL     1      -3.646  19.530  49.054  1.00  0.00     0.068 A 
ATOM     15  C   UNL     1      -1.936  18.411  47.741  1.00  0.00     0.200 A 
ATOM     16  C   UNL     1      -2.966  18.359  48.695  1.00  0.00     0.162 A 
BRANCH  13  17
ATOM     17  O   UNL     1      -0.589  19.722  46.188  1.00  0.00    -0.504 OA
ATOM     18  H   UNL     1      -0.404  18.973  45.531  1.00  0.00     0.293 HD
ENDBRANCH  13  17
BRANCH  15  19
ATOM     19  O   UNL     1      -1.244  17.255  47.375  1.00  0.00    -0.502 OA
ATOM     20  H   UNL     1      -1.488  16.342  47.739  1.00  0.00     0.293 HD
ENDBRANCH  15  19
BRANCH  16  21
ATOM     21  O   UNL     1      -3.313  17.142  49.280  1.00  0.00    -0.504 OA
ATOM     22  H   UNL     1      -3.951  17.093  50.067  1.00  0.00     0.293 HD
ENDBRANCH  16  21
ENDBRANCH   1  11
BRANCH  10  23
ATOM     23  O   UNL     1      -5.661  21.696  47.045  1.00  0.00    -0.500 OA
ATOM     24  H   UNL     1      -5.953  22.129  46.177  1.00  0.00     0.294 HD
ENDBRANCH  10  23
BRANCH   5  25
ATOM     25  O   UNL     1      -3.672  26.371  52.912  1.00  0.00    -0.507 OA
ATOM     26  H   UNL     1      -4.217  26.528  53.752  1.00  0.00     0.293 HD
ENDBRANCH   5  25
BRANCH   7  27
ATOM     27  O   UNL     1      -6.963  26.185  49.400  1.00  0.00    -0.507 OA
ATOM     28  H   UNL     1      -6.964  26.535  48.453  1.00  0.00     0.293 HD
ENDBRANCH   7  27
TORSDOF 7
ENDMDL
MODEL 3
REMARK VINA RESULT:    -6.963      1.348      7.109
REMARK INTER + INTRA:          -8.976
REMARK INTER:                  -8.590
REMARK INTRA:                  -0.385
REMARK UNBOUND:                -0.384
REMARK SMILES Oc1cc(O)c2cc(O)c(-c3cc(O)c(O)c(O)c3)[o+]c2c1
REMARK SMILES IDX 10 1 20 2 21 3 22 4 2 5 3 6 4 7 6 8 7 9 8 10 11 11 12 12
REMARK SMILES IDX 13 13 19 14 15 15 17 16 14 17 16 19 18 21 9 23 1 25 5 27
REMARK H PARENT 14 18 16 20 18 22 9 24 1 26 5 28
REMARK Flexibility Score: inf
ROOT
ATOM      1  C   UNL     1      -3.957  22.508  48.292  1.00  0.00     0.402 A 
ATOM      2  O   UNL     1      -3.839  21.413  49.039  1.00  0.00    -0.202 OA
ATOM      3  C   UNL     1      -3.337  20.270  48.584  1.00  0.00     0.368 A 
ATOM      4  C   UNL     1      -3.257  19.171  49.446  1.00  0.00     0.162 A 
ATOM      5  C   UNL     1      -2.737  17.959  48.995  1.00  0.00     0.128 A 
ATOM      6  C   UNL     1      -2.293  17.838  47.674  1.00  0.00     0.093 A 
ATOM      7  C   UNL     1      -2.362  18.924  46.791  1.00  0.00     0.136 A 
ATOM      8  C   UNL     1      -2.888  20.160  47.247  1.00  0.00     0.125 A 
ATOM      9  C   UNL     1      -2.983  21.303  46.437  1.00  0.00     0.078 A 
ATOM     10  C   UNL     1      -3.509  22.490  46.958  1.00  0.00     0.223 A 
ENDROOT
BRANCH   1  11
ATOM     11  C   UNL     1      -4.542  23.719  48.911  1.00  0.00     0.091 A 
ATOM     12  C   UNL     1      -3.729  24.561  49.683  1.00  0.00     0.068 A 
ATOM     13  C   UNL     1      -4.259  25.700  50.297  1.00  0.00     0.162 A 
ATOM     14  C   UNL     1      -5.911  24.014  48.789  1.00  0.00     0.068 A 
ATOM     15  C   UNL     1      -5.624  26.003  50.154  1.00  0.00     0.200 A 
ATOM     16  C   UNL     1      -6.451  25.152  49.402  1.00  0.00     0.162 A 
BRANCH  13  17
ATOM     17  O   UNL     1      -3.414  26.520  51.044  1.00  0.00    -0.504 OA
ATOM     18  H   UNL     1      -3.751  27.342  51.530  1.00  0.00     0.293 HD
ENDBRANCH  13  17
BRANCH  15  19
ATOM     19  O   UNL     1      -6.144  27.144  50.767  1.00  0.00    -0.502 OA
ATOM     20  H   UNL     1      -5.742  28.063  50.628  1.00  0.00     0.293 HD
ENDBRANCH  15  19
BRANCH  16  21
ATOM     21  O   UNL     1      -7.809  25.439  49.269  1.00  0.00    -0.504 OA
ATOM     22  H   UNL     1      -8.336  25.148  48.453  1.00  0.00     0.293 HD
ENDBRANCH  16  21
ENDBRANCH   1  11
BRANCH  10  23
ATOM     23  O   UNL     1      -3.558  23.640  46.170  1.00  0.00    -0.500 OA
ATOM     24  H   UNL     1      -4.247  24.366  46.330  1.00  0.00     0.294 HD
ENDBRANCH  10  23
BRANCH   5  25
ATOM     25  O   UNL     1      -2.666  16.875  49.869  1.00  0.00    -0.507 OA
ATOM     26  H   UNL     1      -1.880  16.750  50.495  1.00  0.00     0.293 HD
ENDBRANCH   5  25
BRANCH   7  27
ATOM     27  O   UNL     1      -1.901  18.722  45.486  1.00  0.00    -0.507 OA
ATOM     28  H   UNL     1      -0.944  18.513  45.246  1.00  0.00     0.293 HD
ENDBRANCH   7  27
TORSDOF 7
ENDMDL
MODEL 4
REMARK VINA RESULT:    -6.514      4.669      7.642
REMARK INTER + INTRA:          -8.422
REMARK INTER:                  -8.085
REMARK INTRA:                  -0.337
REMARK UNBOUND:                -0.384
REMARK SMILES Oc1cc(O)c2cc(O)c(-c3cc(O)c(O)c(O)c3)[o+]c2c1
REMARK SMILES IDX 10 1 20 2 21 3 22 4 2 5 3 6 4 7 6 8 7 9 8 10 11 11 12 12
REMARK SMILES IDX 13 13 19 14 15 15 17 16 14 17 16 19 18 21 9 23 1 25 5 27
REMARK H PARENT 14 18 16 20 18 22 9 24 1 26 5 28
REMARK Flexibility Score: inf
ROOT
ATOM      1  C   UNL     1      -6.115  26.654  49.544  1.00  0.00     0.402 A 
ATOM      2  O   UNL     1      -5.479  27.394  50.448  1.00  0.00    -0.202 OA
ATOM      3  C   UNL     1      -4.645  26.886  51.351  1.00  0.00     0.368 A 
ATOM      4  C   UNL     1      -4.026  27.745  52.264  1.00  0.00     0.162 A 
ATOM      5  C   UNL     1      -3.150  27.240  53.224  1.00  0.00     0.128 A 
ATOM      6  C   UNL     1      -2.888  25.867  53.275  1.00  0.00     0.093 A 
ATOM      7  C   UNL     1      -3.496  24.986  52.372  1.00  0.00     0.136 A 
ATOM      8  C   UNL     1      -4.386  25.496  51.393  1.00  0.00     0.125 A 
ATOM      9  C   UNL     1      -5.030  24.690  50.440  1.00  0.00     0.078 A 
ATOM     10  C   UNL     1      -5.891  25.266  49.500  1.00  0.00     0.223 A 
ENDROOT
BRANCH   1  11
ATOM     11  C   UNL     1      -7.026  27.336  48.597  1.00  0.00     0.091 A 
ATOM     12  C   UNL     1      -8.413  27.238  48.783  1.00  0.00     0.068 A 
ATOM     13  C   UNL     1      -9.298  27.854  47.893  1.00  0.00     0.162 A 
ATOM     14  C   UNL     1      -6.533  28.034  47.481  1.00  0.00     0.068 A 
ATOM     15  C   UNL     1      -8.800  28.570  46.790  1.00  0.00     0.200 A 
ATOM     16  C   UNL     1      -7.413  28.653  46.583  1.00  0.00     0.162 A 
BRANCH  13  17
ATOM     17  O   UNL     1     -10.670  27.747  48.120  1.00  0.00    -0.504 OA
ATOM     18  H   UNL     1     -11.320  27.492  47.387  1.00  0.00     0.293 HD
ENDBRANCH  13  17
BRANCH  15  19
ATOM     19  O   UNL     1      -9.690  29.185  45.908  1.00  0.00    -0.502 OA
ATOM     20  H   UNL     1     -10.479  29.732  46.231  1.00  0.00     0.293 HD
ENDBRANCH  15  19
BRANCH  16  21
ATOM     21  O   UNL     1      -6.913  29.348  45.483  1.00  0.00    -0.504 OA
ATOM     22  H   UNL     1      -6.043  29.080  45.036  1.00  0.00     0.293 HD
ENDBRANCH  16  21
ENDBRANCH   1  11
BRANCH  10  23
ATOM     23  O   UNL     1      -6.492  24.473  48.523  1.00  0.00    -0.500 OA
ATOM     24  H   UNL     1      -7.460  24.181  48.595  1.00  0.00     0.294 HD
ENDBRANCH  10  23
BRANCH   5  25
ATOM     25  O   UNL     1      -2.542  28.113  54.125  1.00  0.00    -0.507 OA
ATOM     26  H   UNL     1      -1.736  28.668  53.863  1.00  0.00     0.293 HD
ENDBRANCH   5  25
BRANCH   7  27
ATOM     27  O   UNL     1      -3.185  23.627  52.491  1.00  0.00    -0.507 OA
ATOM     28  H   UNL     1      -3.380  23.068  53.308  1.00  0.00     0.293 HD
ENDBRANCH   7  27
TORSDOF 7
ENDMDL
MODEL 5
REMARK VINA RESULT:    -6.459      2.184      3.386
REMARK INTER + INTRA:          -8.353
REMARK INTER:                  -8.051
REMARK INTRA:                  -0.302
REMARK UNBOUND:                -0.384
REMARK SMILES Oc1cc(O)c2cc(O)c(-c3cc(O)c(O)c(O)c3)[o+]c2c1
REMARK SMILES IDX 10 1 20 2 21 3 22 4 2 5 3 6 4 7 6 8 7 9 8 10 11 11 12 12
REMARK SMILES IDX 13 13 19 14 15 15 17 16 14 17 16 19 18 21 9 23 1 25 5 27
REMARK H PARENT 14 18 16 20 18 22 9 24 1 26 5 28
REMARK Flexibility Score: inf
ROOT
ATOM      1  C   UNL     1      -4.145  23.208  47.735  1.00  0.00     0.402 A 
ATOM      2  O   UNL     1      -4.590  24.109  46.864  1.00  0.00    -0.202 OA
ATOM      3  C   UNL     1      -5.335  25.154  47.210  1.00  0.00     0.368 A 
ATOM      4  C   UNL     1      -5.759  26.045  46.220  1.00  0.00     0.162 A 
ATOM      5  C   UNL     1      -6.545  27.148  46.555  1.00  0.00     0.128 A 
ATOM      6  C   UNL     1      -6.911  27.365  47.888  1.00  0.00     0.093 A 
ATOM      7  C   UNL     1      -6.500  26.486  48.897  1.00  0.00     0.136 A 
ATOM      8  C   UNL     1      -5.699  25.364  48.562  1.00  0.00     0.125 A 
ATOM      9  C   UNL     1      -5.229  24.440  49.509  1.00  0.00     0.078 A 
ATOM     10  C   UNL     1      -4.439  23.360  49.103  1.00  0.00     0.223 A 
ENDROOT
BRANCH   1  11
ATOM     11  C   UNL     1      -3.331  22.082  47.224  1.00  0.00     0.091 A 
ATOM     12  C   UNL     1      -3.875  20.790  47.205  1.00  0.00     0.068 A 
ATOM     13  C   UNL     1      -3.123  19.704  46.747  1.00  0.00     0.162 A 
ATOM     14  C   UNL     1      -2.001  22.270  46.810  1.00  0.00     0.068 A 
ATOM     15  C   UNL     1      -1.800  19.900  46.313  1.00  0.00     0.200 A 
ATOM     16  C   UNL     1      -1.238  21.187  46.351  1.00  0.00     0.162 A 
BRANCH  13  17
ATOM     17  O   UNL     1      -3.706  18.437  46.728  1.00  0.00    -0.504 OA
ATOM     18  H   UNL     1      -3.788  17.869  47.563  1.00  0.00     0.293 HD
ENDBRANCH  13  17
BRANCH  15  19
ATOM     19  O   UNL     1      -1.057  18.812  45.854  1.00  0.00    -0.502 OA
ATOM     20  H   UNL     1      -0.254  18.454  46.358  1.00  0.00     0.293 HD
ENDBRANCH  15  19
BRANCH  16  21
ATOM     21  O   UNL     1       0.078  21.386  45.937  1.00  0.00    -0.504 OA
ATOM     22  H   UNL     1       0.727  20.613  45.838  1.00  0.00     0.293 HD
ENDBRANCH  16  21
ENDBRANCH   1  11
BRANCH  10  23
ATOM     23  O   UNL     1      -3.932  22.469  50.049  1.00  0.00    -0.500 OA
ATOM     24  H   UNL     1      -3.110  21.905  49.863  1.00  0.00     0.294 HD
ENDBRANCH  10  23
BRANCH   5  25
ATOM     25  O   UNL     1      -6.957  28.025  45.554  1.00  0.00    -0.507 OA
ATOM     26  H   UNL     1      -7.935  28.257  45.422  1.00  0.00     0.293 HD
ENDBRANCH   5  25
BRANCH   7  27
ATOM     27  O   UNL     1      -6.911  26.770  50.204  1.00  0.00    -0.507 OA
ATOM     28  H   UNL     1      -6.288  27.042  50.950  1.00  0.00     0.293 HD
ENDBRANCH   7  27
TORSDOF 7
ENDMDL
MODEL 6
REMARK VINA RESULT:    -6.425      2.296      3.810
REMARK INTER + INTRA:          -8.311
REMARK INTER:                  -7.966
REMARK INTRA:                  -0.345
REMARK UNBOUND:                -0.384
REMARK SMILES Oc1cc(O)c2cc(O)c(-c3cc(O)c(O)c(O)c3)[o+]c2c1
REMARK SMILES IDX 10 1 20 2 21 3 22 4 2 5 3 6 4 7 6 8 7 9 8 10 11 11 12 12
REMARK SMILES IDX 13 13 19 14 15 15 17 16 14 17 16 19 18 21 9 23 1 25 5 27
REMARK H PARENT 14 18 16 20 18 22 9 24 1 26 5 28
REMARK Flexibility Score: inf
ROOT
ATOM      1  C   UNL     1      -4.208  23.613  48.001  1.00  0.00     0.402 A 
ATOM      2  O   UNL     1      -4.641  24.506  47.115  1.00  0.00    -0.202 OA
ATOM      3  C   UNL     1      -5.459  25.506  47.426  1.00  0.00     0.368 A 
ATOM      4  C   UNL     1      -5.863  26.392  46.424  1.00  0.00     0.162 A 
ATOM      5  C   UNL     1      -6.724  27.448  46.721  1.00  0.00     0.128 A 
ATOM      6  C   UNL     1      -7.186  27.623  48.030  1.00  0.00     0.093 A 
ATOM      7  C   UNL     1      -6.797  26.748  49.052  1.00  0.00     0.136 A 
ATOM      8  C   UNL     1      -5.920  25.674  48.754  1.00  0.00     0.125 A 
ATOM      9  C   UNL     1      -5.466  24.758  49.716  1.00  0.00     0.078 A 
ATOM     10  C   UNL     1      -4.597  23.726  49.348  1.00  0.00     0.223 A 
ENDROOT
BRANCH   1  11
ATOM     11  C   UNL     1      -3.306  22.538  47.528  1.00  0.00     0.091 A 
ATOM     12  C   UNL     1      -1.923  22.662  47.724  1.00  0.00     0.068 A 
ATOM     13  C   UNL     1      -1.045  21.673  47.270  1.00  0.00     0.162 A 
ATOM     14  C   UNL     1      -3.801  21.419  46.836  1.00  0.00     0.068 A 
ATOM     15  C   UNL     1      -1.546  20.545  46.597  1.00  0.00     0.200 A 
ATOM     16  C   UNL     1      -2.928  20.424  46.376  1.00  0.00     0.162 A 
BRANCH  13  17
ATOM     17  O   UNL     1       0.322  21.826  47.497  1.00  0.00    -0.504 OA
ATOM     18  H   UNL     1       0.940  21.034  47.625  1.00  0.00     0.293 HD
ENDBRANCH  13  17
BRANCH  15  19
ATOM     19  O   UNL     1      -0.664  19.560  46.150  1.00  0.00    -0.502 OA
ATOM     20  H   UNL     1      -0.413  19.462  45.174  1.00  0.00     0.293 HD
ENDBRANCH  15  19
BRANCH  16  21
ATOM     21  O   UNL     1      -3.431  19.315  45.696  1.00  0.00    -0.504 OA
ATOM     22  H   UNL     1      -4.204  19.396  45.045  1.00  0.00     0.293 HD
ENDBRANCH  16  21
ENDBRANCH   1  11
BRANCH  10  23
ATOM     23  O   UNL     1      -4.108  22.845  50.312  1.00  0.00    -0.500 OA
ATOM     24  H   UNL     1      -3.210  22.989  50.759  1.00  0.00     0.294 HD
ENDBRANCH  10  23
BRANCH   5  25
ATOM     25  O   UNL     1      -7.115  28.321  45.708  1.00  0.00    -0.507 OA
ATOM     26  H   UNL     1      -6.679  28.301  44.793  1.00  0.00     0.293 HD
ENDBRANCH   5  25
BRANCH   7  27
ATOM     27  O   UNL     1      -7.306  26.988  50.333  1.00  0.00    -0.507 OA
ATOM     28  H   UNL     1      -6.990  27.729  50.942  1.00  0.00     0.293 HD
ENDBRANCH   7  27
TORSDOF 7
ENDMDL
MODEL 7
REMARK VINA RESULT:    -6.412      1.890      3.126
REMARK INTER + INTRA:          -8.295
REMARK INTER:                  -7.975
REMARK INTRA:                  -0.321
REMARK UNBOUND:                -0.384
REMARK SMILES Oc1cc(O)c2cc(O)c(-c3cc(O)c(O)c(O)c3)[o+]c2c1
REMARK SMILES IDX 10 1 20 2 21 3 22 4 2 5 3 6 4 7 6 8 7 9 8 10 11 11 12 12
REMARK SMILES IDX 13 13 19 14 15 15 17 16 14 17 16 19 18 21 9 23 1 25 5 27
REMARK H PARENT 14 18 16 20 18 22 9 24 1 26 5 28
REMARK Flexibility Score: inf
ROOT
ATOM      1  C   UNL     1      -3.195  22.459  48.299  1.00  0.00     0.402 A 
ATOM      2  O   UNL     1      -3.901  23.049  47.339  1.00  0.00    -0.202 OA
ATOM      3  C   UNL     1      -4.347  24.299  47.424  1.00  0.00     0.368 A 
ATOM      4  C   UNL     1      -5.085  24.832  46.363  1.00  0.00     0.162 A 
ATOM      5  C   UNL     1      -5.567  26.139  46.426  1.00  0.00     0.128 A 
ATOM      6  C   UNL     1      -5.313  26.922  47.557  1.00  0.00     0.093 A 
ATOM      7  C   UNL     1      -4.576  26.411  48.633  1.00  0.00     0.136 A 
ATOM      8  C   UNL     1      -4.082  25.083  48.572  1.00  0.00     0.125 A 
ATOM      9  C   UNL     1      -3.323  24.493  49.596  1.00  0.00     0.078 A 
ATOM     10  C   UNL     1      -2.865  23.179  49.462  1.00  0.00     0.223 A 
ENDROOT
BRANCH   1  11
ATOM     11  C   UNL     1      -2.764  21.058  48.090  1.00  0.00     0.091 A 
ATOM     12  C   UNL     1      -3.400  20.027  48.796  1.00  0.00     0.068 A 
ATOM     13  C   UNL     1      -3.000  18.697  48.635  1.00  0.00     0.162 A 
ATOM     14  C   UNL     1      -1.690  20.742  47.240  1.00  0.00     0.068 A 
ATOM     15  C   UNL     1      -1.940  18.384  47.767  1.00  0.00     0.200 A 
ATOM     16  C   UNL     1      -1.281  19.412  47.073  1.00  0.00     0.162 A 
BRANCH  13  17
ATOM     17  O   UNL     1      -3.669  17.699  49.343  1.00  0.00    -0.504 OA
ATOM     18  H   UNL     1      -3.199  17.112  50.021  1.00  0.00     0.293 HD
ENDBRANCH  13  17
BRANCH  15  19
ATOM     19  O   UNL     1      -1.549  17.053  47.608  1.00  0.00    -0.502 OA
ATOM     20  H   UNL     1      -0.622  16.729  47.857  1.00  0.00     0.293 HD
ENDBRANCH  15  19
BRANCH  16  21
ATOM     21  O   UNL     1      -0.218  19.110  46.222  1.00  0.00    -0.504 OA
ATOM     22  H   UNL     1      -0.366  18.905  45.240  1.00  0.00     0.293 HD
ENDBRANCH  16  21
ENDBRANCH   1  11
BRANCH  10  23
ATOM     23  O   UNL     1      -2.071  22.609  50.457  1.00  0.00    -0.500 OA
ATOM     24  H   UNL     1      -2.325  21.737  50.907  1.00  0.00     0.294 HD
ENDBRANCH  10  23
BRANCH   5  25
ATOM     25  O   UNL     1      -6.301  26.652  45.358  1.00  0.00    -0.507 OA
ATOM     26  H   UNL     1      -7.306  26.531  45.299  1.00  0.00     0.293 HD
ENDBRANCH   5  25
BRANCH   7  27
ATOM     27  O   UNL     1      -4.368  27.255  49.729  1.00  0.00    -0.507 OA
ATOM     28  H   UNL     1      -5.048  27.426  50.454  1.00  0.00     0.293 HD
ENDBRANCH   7  27
TORSDOF 7
ENDMDL
MODEL 8
REMARK VINA RESULT:    -6.403      1.790      6.958
REMARK INTER + INTRA:          -8.284
REMARK INTER:                  -7.943
REMARK INTRA:                  -0.342
REMARK UNBOUND:                -0.384
REMARK SMILES Oc1cc(O)c2cc(O)c(-c3cc(O)c(O)c(O)c3)[o+]c2c1
REMARK SMILES IDX 10 1 20 2 21 3 22 4 2 5 3 6 4 7 6 8 7 9 8 10 11 11 12 12
REMARK SMILES IDX 13 13 19 14 15 15 17 16 14 17 16 19 18 21 9 23 1 25 5 27
REMARK H PARENT 14 18 16 20 18 22 9 24 1 26 5 28
REMARK Flexibility Score: inf
ROOT
ATOM      1  C   UNL     1      -3.854  22.984  48.434  1.00  0.00     0.402 A 
ATOM      2  O   UNL     1      -2.590  22.577  48.364  1.00  0.00    -0.202 OA
ATOM      3  C   UNL     1      -2.214  21.463  47.742  1.00  0.00     0.368 A 
ATOM      4  C   UNL     1      -0.860  21.117  47.726  1.00  0.00     0.162 A 
ATOM      5  C   UNL     1      -0.438  19.953  47.084  1.00  0.00     0.128 A 
ATOM      6  C   UNL     1      -1.374  19.126  46.453  1.00  0.00     0.093 A 
ATOM      7  C   UNL     1      -2.737  19.451  46.456  1.00  0.00     0.136 A 
ATOM      8  C   UNL     1      -3.170  20.636  47.106  1.00  0.00     0.125 A 
ATOM      9  C   UNL     1      -4.511  21.047  47.147  1.00  0.00     0.078 A 
ATOM     10  C   UNL     1      -4.862  22.231  47.803  1.00  0.00     0.223 A 
ENDROOT
BRANCH   1  11
ATOM     11  C   UNL     1      -4.147  24.238  49.164  1.00  0.00     0.091 A 
ATOM     12  C   UNL     1      -4.247  24.215  50.563  1.00  0.00     0.068 A 
ATOM     13  C   UNL     1      -4.543  25.380  51.277  1.00  0.00     0.162 A 
ATOM     14  C   UNL     1      -4.384  25.444  48.481  1.00  0.00     0.068 A 
ATOM     15  C   UNL     1      -4.757  26.588  50.592  1.00  0.00     0.200 A 
ATOM     16  C   UNL     1      -4.682  26.616  49.189  1.00  0.00     0.162 A 
BRANCH  13  17
ATOM     17  O   UNL     1      -4.618  25.319  52.668  1.00  0.00    -0.504 OA
ATOM     18  H   UNL     1      -3.888  25.688  53.265  1.00  0.00     0.293 HD
ENDBRANCH  13  17
BRANCH  15  19
ATOM     19  O   UNL     1      -5.049  27.748  51.312  1.00  0.00    -0.502 OA
ATOM     20  H   UNL     1      -4.799  28.670  50.976  1.00  0.00     0.293 HD
ENDBRANCH  15  19
BRANCH  16  21
ATOM     21  O   UNL     1      -4.909  27.808  48.502  1.00  0.00    -0.504 OA
ATOM     22  H   UNL     1      -5.841  28.195  48.403  1.00  0.00     0.293 HD
ENDBRANCH  16  21
ENDBRANCH   1  11
BRANCH  10  23
ATOM     23  O   UNL     1      -6.188  22.666  47.803  1.00  0.00    -0.500 OA
ATOM     24  H   UNL     1      -6.673  22.894  46.943  1.00  0.00     0.294 HD
ENDBRANCH  10  23
BRANCH   5  25
ATOM     25  O   UNL     1       0.916  19.625  47.078  1.00  0.00    -0.507 OA
ATOM     26  H   UNL     1       1.262  18.795  47.547  1.00  0.00     0.293 HD
ENDBRANCH   5  25
BRANCH   7  27
ATOM     27  O   UNL     1      -3.609  18.572  45.807  1.00  0.00    -0.507 OA
ATOM     28  H   UNL     1      -3.784  18.573  44.813  1.00  0.00     0.293 HD
ENDBRANCH   7  27
TORSDOF 7
ENDMDL
MODEL 9
REMARK VINA RESULT:    -6.309      1.938      2.518
REMARK INTER + INTRA:          -8.169
REMARK INTER:                  -8.494
REMARK INTRA:                   0.324
REMARK UNBOUND:                -0.384
REMARK SMILES Oc1cc(O)c2cc(O)c(-c3cc(O)c(O)c(O)c3)[o+]c2c1
REMARK SMILES IDX 10 1 20 2 21 3 22 4 2 5 3 6 4 7 6 8 7 9 8 10 11 11 12 12
REMARK SMILES IDX 13 13 19 14 15 15 17 16 14 17 16 19 18 21 9 23 1 25 5 27
REMARK H PARENT 14 18 16 20 18 22 9 24 1 26 5 28
REMARK Flexibility Score: inf
ROOT
ATOM      1  C   UNL     1      -3.648  22.277  47.436  1.00  0.00     0.402 A 
ATOM      2  O   UNL     1      -4.500  22.753  48.340  1.00  0.00    -0.202 OA
ATOM      3  C   UNL     1      -4.947  24.004  48.334  1.00  0.00     0.368 A 
ATOM      4  C   UNL     1      -5.840  24.412  49.330  1.00  0.00     0.162 A 
ATOM      5  C   UNL     1      -6.322  25.721  49.351  1.00  0.00     0.128 A 
ATOM      6  C   UNL     1      -5.912  26.631  48.370  1.00  0.00     0.093 A 
ATOM      7  C   UNL     1      -5.019  26.247  47.363  1.00  0.00     0.136 A 
ATOM      8  C   UNL     1      -4.527  24.916  47.337  1.00  0.00     0.125 A 
ATOM      9  C   UNL     1      -3.641  24.439  46.358  1.00  0.00     0.078 A 
ATOM     10  C   UNL     1      -3.203  23.112  46.394  1.00  0.00     0.223 A 
ENDROOT
BRANCH   1  11
ATOM     11  C   UNL     1      -3.216  20.866  47.555  1.00  0.00     0.091 A 
ATOM     12  C   UNL     1      -3.327  20.212  48.791  1.00  0.00     0.068 A 
ATOM     13  C   UNL     1      -2.907  18.886  48.938  1.00  0.00     0.162 A 
ATOM     14  C   UNL     1      -2.643  20.182  46.469  1.00  0.00     0.068 A 
ATOM     15  C   UNL     1      -2.355  18.199  47.843  1.00  0.00     0.200 A 
ATOM     16  C   UNL     1      -2.219  18.854  46.607  1.00  0.00     0.162 A 
BRANCH  13  17
ATOM     17  O   UNL     1      -3.048  18.267  50.179  1.00  0.00    -0.504 OA
ATOM     18  H   UNL     1      -2.267  18.141  50.811  1.00  0.00     0.293 HD
ENDBRANCH  13  17
BRANCH  15  19
ATOM     19  O   UNL     1      -1.943  16.875  47.997  1.00  0.00    -0.502 OA
ATOM     20  H   UNL     1      -1.010  16.632  48.307  1.00  0.00     0.293 HD
ENDBRANCH  15  19
BRANCH  16  21
ATOM     21  O   UNL     1      -1.658  18.183  45.521  1.00  0.00    -0.504 OA
ATOM     22  H   UNL     1      -2.187  18.008  44.674  1.00  0.00     0.293 HD
ENDBRANCH  16  21
ENDBRANCH   1  11
BRANCH  10  23
ATOM     23  O   UNL     1      -2.361  22.624  45.395  1.00  0.00    -0.500 OA
ATOM     24  H   UNL     1      -2.708  22.397  44.470  1.00  0.00     0.294 HD
ENDBRANCH  10  23
BRANCH   5  25
ATOM     25  O   UNL     1      -7.211  26.108  50.352  1.00  0.00    -0.507 OA
ATOM     26  H   UNL     1      -6.976  26.836  51.016  1.00  0.00     0.293 HD
ENDBRANCH   5  25
BRANCH   7  27
ATOM     27  O   UNL     1      -4.654  27.216  46.422  1.00  0.00    -0.507 OA
ATOM     28  H   UNL     1      -4.103  28.034  46.632  1.00  0.00     0.293 HD
ENDBRANCH   7  27
TORSDOF 7
ENDMDL
