MODEL 1
REMARK VINA RESULT:    -4.841      0.000      0.000
REMARK INTER + INTRA:          -6.640
REMARK INTER:                  -6.539
REMARK INTRA:                  -0.101
REMARK UNBOUND:                -0.101
REMARK SMILES C=C1C(=O)O[C@@H]2[C@H]1CCC(C)=CCC[C@@]1(C)O[C@@H]21
REMARK SMILES IDX 6 1 7 2 2 3 1 4 3 5 4 6 5 7 8 8 9 9 10 10 11 11 12 12 18 14
REMARK SMILES IDX 15 15 17 16 16 17 14 18 13 19
REMARK H PARENT
REMARK Flexibility Score: 70.00
ROOT
ATOM      1  C   UNL     1     -35.822  39.268   8.122  1.00  0.00     0.216 C 
ATOM      2  C   UNL     1     -34.549  38.340   8.078  1.00  0.00     0.070 C 
ATOM      3  C   UNL     1     -34.857  37.312   9.133  1.00  0.00     0.037 C 
ATOM      4  C   UNL     1     -34.039  36.412   9.684  1.00  0.00     0.021 C 
ATOM      5  C   UNL     1     -36.296  37.334   9.288  1.00  0.00     0.334 C 
ATOM      6  O   UNL     1     -36.978  36.501   9.941  1.00  0.00    -0.247 OA
ATOM      7  O   UNL     1     -36.846  38.389   8.583  1.00  0.00    -0.455 OA
ENDROOT
BRANCH   2   8
ATOM      8  C   UNL     1     -33.090  38.902   8.016  1.00  0.00     0.017 C 
BRANCH   8   9
ATOM      9  C   UNL     1     -32.888  40.385   7.650  1.00  0.00     0.031 C 
BRANCH   9  10
ATOM     10  C   UNL     1     -33.286  40.757   6.223  1.00  0.00    -0.077 C 
ATOM     11  C   UNL     1     -32.748  39.860   5.131  1.00  0.00     0.039 C 
ATOM     12  C   UNL     1     -33.985  41.866   5.851  1.00  0.00    -0.028 CG0
ATOM     13  G   UNL     1     -34.701  42.861   6.742  1.00  0.00     0.000 G0
ENDBRANCH   9  10
ENDBRANCH   8   9
ENDBRANCH   2   8
BRANCH   1  14
ATOM     14  C   UNL     1     -35.765  40.397   9.168  1.00  0.00     0.192 C 
ATOM     15  C   UNL     1     -35.844  41.844   8.810  1.00  0.00     0.096 C 
ATOM     16  O   UNL     1     -36.981  41.110   9.209  1.00  0.00    -0.362 OA
ATOM     17  C   UNL     1     -35.438  42.855   9.886  1.00  0.00     0.045 C 
BRANCH  15  18
ATOM     18  C   UNL     1     -35.994  42.354   7.369  1.00  0.00     0.042 C 
BRANCH  18  19
ATOM     19  C   UNL     1     -34.690  42.861   6.755  1.00  0.00     0.030 CG0
ATOM     20  G   UNL     1     -33.993  41.868   5.848  1.00  0.00     0.000 G0
ENDBRANCH  18  19
ENDBRANCH  15  18
ENDBRANCH   1  14
TORSDOF 0
ENDMDL
MODEL 2
REMARK VINA RESULT:    -4.781      2.459      4.647
REMARK INTER + INTRA:          -6.560
REMARK INTER:                  -6.415
REMARK INTRA:                  -0.145
REMARK UNBOUND:                -0.101
REMARK SMILES C=C1C(=O)O[C@@H]2[C@H]1CCC(C)=CCC[C@@]1(C)O[C@@H]21
REMARK SMILES IDX 6 1 7 2 2 3 1 4 3 5 4 6 5 7 8 8 9 9 10 10 11 11 12 12 18 14
REMARK SMILES IDX 15 15 17 16 16 17 14 18 13 19
REMARK H PARENT
REMARK Flexibility Score: 70.00
ROOT
ATOM      1  C   UNL     1     -35.386  39.337   9.316  1.00  0.00     0.216 C 
ATOM      2  C   UNL     1     -35.475  39.834   7.823  1.00  0.00     0.070 C 
ATOM      3  C   UNL     1     -36.665  40.755   7.854  1.00  0.00     0.037 C 
ATOM      4  C   UNL     1     -37.338  41.282   6.829  1.00  0.00     0.021 C 
ATOM      5  C   UNL     1     -36.814  41.148   9.240  1.00  0.00     0.334 C 
ATOM      6  O   UNL     1     -37.578  42.052   9.669  1.00  0.00    -0.247 OA
ATOM      7  O   UNL     1     -35.967  40.414  10.049  1.00  0.00    -0.455 OA
ENDROOT
BRANCH   2   8
ATOM      8  C   UNL     1     -35.335  38.871   6.597  1.00  0.00     0.017 C 
BRANCH   8   9
ATOM      9  C   UNL     1     -33.931  38.626   6.011  1.00  0.00     0.031 C 
BRANCH   9  10
ATOM     10  C   UNL     1     -32.818  38.472   7.047  1.00  0.00    -0.077 C 
ATOM     11  C   UNL     1     -31.708  39.495   6.982  1.00  0.00     0.039 C 
ATOM     12  C   UNL     1     -32.693  37.450   7.940  1.00  0.00    -0.028 CG0
ATOM     13  G   UNL     1     -33.699  36.364   8.263  1.00  0.00     0.000 G0
ENDBRANCH   9  10
ENDBRANCH   8   9
ENDBRANCH   2   8
BRANCH   1  14
ATOM     14  C   UNL     1     -36.262  38.114   9.646  1.00  0.00     0.192 C 
ATOM     15  C   UNL     1     -35.707  36.740   9.831  1.00  0.00     0.096 C 
ATOM     16  O   UNL     1     -35.954  37.600  10.922  1.00  0.00    -0.362 OA
ATOM     17  C   UNL     1     -36.699  35.575   9.814  1.00  0.00     0.045 C 
BRANCH  15  18
ATOM     18  C   UNL     1     -34.212  36.408   9.718  1.00  0.00     0.042 C 
BRANCH  18  19
ATOM     19  C   UNL     1     -33.697  36.361   8.280  1.00  0.00     0.030 CG0
ATOM     20  G   UNL     1     -32.704  37.451   7.931  1.00  0.00     0.000 G0
ENDBRANCH  18  19
ENDBRANCH  15  18
ENDBRANCH   1  14
TORSDOF 0
ENDMDL
MODEL 3
REMARK VINA RESULT:    -4.725      1.996      3.281
REMARK INTER + INTRA:          -6.484
REMARK INTER:                  -6.539
REMARK INTRA:                   0.055
REMARK UNBOUND:                -0.101
REMARK SMILES C=C1C(=O)O[C@@H]2[C@H]1CCC(C)=CCC[C@@]1(C)O[C@@H]21
REMARK SMILES IDX 6 1 7 2 2 3 1 4 3 5 4 6 5 7 8 8 9 9 10 10 11 11 12 12 18 14
REMARK SMILES IDX 15 15 17 16 16 17 14 18 13 19
REMARK H PARENT
REMARK Flexibility Score: 70.00
ROOT
ATOM      1  C   UNL     1     -34.831  38.917   7.638  1.00  0.00     0.216 C 
ATOM      2  C   UNL     1     -35.343  38.702   9.113  1.00  0.00     0.070 C 
ATOM      3  C   UNL     1     -35.673  37.234   9.135  1.00  0.00     0.037 C 
ATOM      4  C   UNL     1     -36.354  36.547  10.054  1.00  0.00     0.021 C 
ATOM      5  C   UNL     1     -34.907  36.648   8.054  1.00  0.00     0.334 C 
ATOM      6  O   UNL     1     -34.758  35.416   7.843  1.00  0.00    -0.247 OA
ATOM      7  O   UNL     1     -34.317  37.633   7.286  1.00  0.00    -0.455 OA
ENDROOT
BRANCH   2   8
ATOM      8  C   UNL     1     -36.341  39.680   9.817  1.00  0.00     0.017 C 
BRANCH   8   9
ATOM      9  C   UNL     1     -36.731  40.982   9.090  1.00  0.00     0.031 C 
BRANCH   9  10
ATOM     10  C   UNL     1     -35.716  42.118   9.212  1.00  0.00    -0.077 C 
ATOM     11  C   UNL     1     -35.178  42.378  10.601  1.00  0.00     0.039 C 
ATOM     12  C   UNL     1     -35.340  42.965   8.213  1.00  0.00    -0.028 CG0
ATOM     13  G   UNL     1     -35.659  42.866   6.735  1.00  0.00     0.000 G0
ENDBRANCH   9  10
ENDBRANCH   8   9
ENDBRANCH   2   8
BRANCH   1  14
ATOM     14  C   UNL     1     -35.936  39.200   6.604  1.00  0.00     0.192 C 
ATOM     15  C   UNL     1     -36.039  40.487   5.853  1.00  0.00     0.096 C 
ATOM     16  O   UNL     1     -35.392  39.356   5.312  1.00  0.00    -0.362 OA
ATOM     17  C   UNL     1     -37.355  40.769   5.122  1.00  0.00     0.045 C 
BRANCH  15  18
ATOM     18  C   UNL     1     -35.055  41.652   6.031  1.00  0.00     0.042 C 
BRANCH  18  19
ATOM     19  C   UNL     1     -35.661  42.871   6.727  1.00  0.00     0.030 CG0
ATOM     20  G   UNL     1     -35.349  42.971   8.206  1.00  0.00     0.000 G0
ENDBRANCH  18  19
ENDBRANCH  15  18
ENDBRANCH   1  14
TORSDOF 0
ENDMDL
MODEL 4
REMARK VINA RESULT:    -4.683      2.394      4.080
REMARK INTER + INTRA:          -6.427
REMARK INTER:                  -6.306
REMARK INTRA:                  -0.121
REMARK UNBOUND:                -0.101
REMARK SMILES C=C1C(=O)O[C@@H]2[C@H]1CCC(C)=CCC[C@@]1(C)O[C@@H]21
REMARK SMILES IDX 6 1 7 2 2 3 1 4 3 5 4 6 5 7 8 8 9 9 10 10 11 11 12 12 18 14
REMARK SMILES IDX 15 15 17 16 16 17 14 18 13 19
REMARK H PARENT
REMARK Flexibility Score: 70.00
ROOT
ATOM      1  C   UNL     1     -35.229  40.969   8.818  1.00  0.00     0.216 C 
ATOM      2  C   UNL     1     -33.903  41.819   8.759  1.00  0.00     0.070 C 
ATOM      3  C   UNL     1     -34.282  43.070   9.506  1.00  0.00     0.037 C 
ATOM      4  C   UNL     1     -33.625  44.230   9.575  1.00  0.00     0.021 C 
ATOM      5  C   UNL     1     -35.410  42.699  10.334  1.00  0.00     0.334 C 
ATOM      6  O   UNL     1     -35.915  43.406  11.247  1.00  0.00    -0.247 OA
ATOM      7  O   UNL     1     -35.853  41.430  10.016  1.00  0.00    -0.455 OA
ENDROOT
BRANCH   2   8
ATOM      8  C   UNL     1     -33.056  41.982   7.453  1.00  0.00     0.017 C 
BRANCH   8   9
ATOM      9  C   UNL     1     -31.810  41.094   7.269  1.00  0.00     0.031 C 
BRANCH   9  10
ATOM     10  C   UNL     1     -32.078  39.591   7.317  1.00  0.00    -0.077 C 
ATOM     11  C   UNL     1     -31.143  38.780   8.186  1.00  0.00     0.039 C 
ATOM     12  C   UNL     1     -33.005  38.920   6.577  1.00  0.00    -0.028 CG0
ATOM     13  G   UNL     1     -34.105  39.498   5.711  1.00  0.00     0.000 G0
ENDBRANCH   9  10
ENDBRANCH   8   9
ENDBRANCH   2   8
BRANCH   1  14
ATOM     14  C   UNL     1     -36.243  41.272   7.699  1.00  0.00     0.192 C 
ATOM     15  C   UNL     1     -36.379  40.430   6.473  1.00  0.00     0.096 C 
ATOM     16  O   UNL     1     -37.207  40.247   7.600  1.00  0.00    -0.362 OA
ATOM     17  C   UNL     1     -37.167  41.021   5.301  1.00  0.00     0.045 C 
BRANCH  15  18
ATOM     18  C   UNL     1     -35.528  39.180   6.205  1.00  0.00     0.042 C 
BRANCH  18  19
ATOM     19  C   UNL     1     -34.116  39.489   5.710  1.00  0.00     0.030 CG0
ATOM     20  G   UNL     1     -33.008  38.928   6.578  1.00  0.00     0.000 G0
ENDBRANCH  18  19
ENDBRANCH  15  18
ENDBRANCH   1  14
TORSDOF 0
ENDMDL
MODEL 5
REMARK VINA RESULT:    -4.666      2.971      5.146
REMARK INTER + INTRA:          -6.404
REMARK INTER:                  -6.273
REMARK INTRA:                  -0.131
REMARK UNBOUND:                -0.101
REMARK SMILES C=C1C(=O)O[C@@H]2[C@H]1CCC(C)=CCC[C@@]1(C)O[C@@H]21
REMARK SMILES IDX 6 1 7 2 2 3 1 4 3 5 4 6 5 7 8 8 9 9 10 10 11 11 12 12 18 14
REMARK SMILES IDX 15 15 17 16 16 17 14 18 13 19
REMARK H PARENT
REMARK Flexibility Score: 70.00
ROOT
ATOM      1  C   UNL     1     -32.932  40.272   7.137  1.00  0.00     0.216 C 
ATOM      2  C   UNL     1     -33.784  41.450   7.746  1.00  0.00     0.070 C 
ATOM      3  C   UNL     1     -32.738  42.295   8.422  1.00  0.00     0.037 C 
ATOM      4  C   UNL     1     -32.908  43.297   9.287  1.00  0.00     0.021 C 
ATOM      5  C   UNL     1     -31.487  41.953   7.777  1.00  0.00     0.334 C 
ATOM      6  O   UNL     1     -30.395  42.563   7.922  1.00  0.00    -0.247 OA
ATOM      7  O   UNL     1     -31.653  40.870   6.935  1.00  0.00    -0.455 OA
ENDROOT
BRANCH   2   8
ATOM      8  C   UNL     1     -35.133  41.220   8.505  1.00  0.00     0.017 C 
BRANCH   8   9
ATOM      9  C   UNL     1     -36.453  41.394   7.729  1.00  0.00     0.031 C 
BRANCH   9  10
ATOM     10  C   UNL     1     -36.564  40.563   6.451  1.00  0.00    -0.077 C 
ATOM     11  C   UNL     1     -36.990  41.312   5.210  1.00  0.00     0.039 C 
ATOM     12  C   UNL     1     -36.414  39.211   6.362  1.00  0.00    -0.028 CG0
ATOM     13  G   UNL     1     -35.910  38.255   7.424  1.00  0.00     0.000 G0
ENDBRANCH   9  10
ENDBRANCH   8   9
ENDBRANCH   2   8
BRANCH   1  14
ATOM     14  C   UNL     1     -32.674  39.096   8.097  1.00  0.00     0.192 C 
ATOM     15  C   UNL     1     -33.454  37.823   8.055  1.00  0.00     0.096 C 
ATOM     16  O   UNL     1     -32.214  37.962   7.396  1.00  0.00    -0.362 OA
ATOM     17  C   UNL     1     -33.333  36.887   9.260  1.00  0.00     0.045 C 
BRANCH  15  18
ATOM     18  C   UNL     1     -34.585  37.555   7.052  1.00  0.00     0.042 C 
BRANCH  18  19
ATOM     19  C   UNL     1     -35.901  38.248   7.406  1.00  0.00     0.030 CG0
ATOM     20  G   UNL     1     -36.406  39.214   6.354  1.00  0.00     0.000 G0
ENDBRANCH  18  19
ENDBRANCH  15  18
ENDBRANCH   1  14
TORSDOF 0
ENDMDL
MODEL 6
REMARK VINA RESULT:    -4.629      1.645      2.333
REMARK INTER + INTRA:          -6.354
REMARK INTER:                  -6.968
REMARK INTRA:                   0.614
REMARK UNBOUND:                -0.101
REMARK SMILES C=C1C(=O)O[C@@H]2[C@H]1CCC(C)=CCC[C@@]1(C)O[C@@H]21
REMARK SMILES IDX 6 1 7 2 2 3 1 4 3 5 4 6 5 7 8 8 9 9 10 10 11 11 12 12 18 14
REMARK SMILES IDX 15 15 17 16 16 17 14 18 13 19
REMARK H PARENT
REMARK Flexibility Score: 70.00
ROOT
ATOM      1  C   UNL     1     -34.994  38.049   7.455  1.00  0.00     0.216 C 
ATOM      2  C   UNL     1     -33.900  37.169   8.169  1.00  0.00     0.070 C 
ATOM      3  C   UNL     1     -34.673  36.532   9.293  1.00  0.00     0.037 C 
ATOM      4  C   UNL     1     -34.207  35.867  10.352  1.00  0.00     0.021 C 
ATOM      5  C   UNL     1     -36.062  36.590   8.889  1.00  0.00     0.334 C 
ATOM      6  O   UNL     1     -37.019  36.005   9.462  1.00  0.00    -0.247 OA
ATOM      7  O   UNL     1     -36.206  37.355   7.747  1.00  0.00    -0.455 OA
ENDROOT
BRANCH   2   8
ATOM      8  C   UNL     1     -32.460  37.694   8.486  1.00  0.00     0.017 C 
BRANCH   8   9
ATOM      9  C   UNL     1     -31.727  38.523   7.412  1.00  0.00     0.031 C 
BRANCH   9  10
ATOM     10  C   UNL     1     -31.094  39.818   7.919  1.00  0.00    -0.077 C 
ATOM     11  C   UNL     1     -30.067  39.665   9.017  1.00  0.00     0.039 C 
ATOM     12  C   UNL     1     -31.445  41.080   7.543  1.00  0.00    -0.028 CG0
ATOM     13  G   UNL     1     -32.368  41.496   6.416  1.00  0.00     0.000 G0
ENDBRANCH   9  10
ENDBRANCH   8   9
ENDBRANCH   2   8
BRANCH   1  14
ATOM     14  C   UNL     1     -35.187  39.455   8.053  1.00  0.00     0.192 C 
ATOM     15  C   UNL     1     -34.543  40.677   7.485  1.00  0.00     0.096 C 
ATOM     16  O   UNL     1     -35.861  40.302   7.148  1.00  0.00    -0.362 OA
ATOM     17  C   UNL     1     -34.536  41.935   8.357  1.00  0.00     0.045 C 
BRANCH  15  18
ATOM     18  C   UNL     1     -33.632  40.658   6.249  1.00  0.00     0.042 C 
BRANCH  18  19
ATOM     19  C   UNL     1     -32.366  41.502   6.402  1.00  0.00     0.030 CG0
ATOM     20  G   UNL     1     -31.464  41.082   7.545  1.00  0.00     0.000 G0
ENDBRANCH  18  19
ENDBRANCH  15  18
ENDBRANCH   1  14
TORSDOF 0
ENDMDL
MODEL 7
REMARK VINA RESULT:    -4.624      2.908      4.045
REMARK INTER + INTRA:          -6.347
REMARK INTER:                  -6.268
REMARK INTRA:                  -0.079
REMARK UNBOUND:                -0.101
REMARK SMILES C=C1C(=O)O[C@@H]2[C@H]1CCC(C)=CCC[C@@]1(C)O[C@@H]21
REMARK SMILES IDX 6 1 7 2 2 3 1 4 3 5 4 6 5 7 8 8 9 9 10 10 11 11 12 12 18 14
REMARK SMILES IDX 15 15 17 16 16 17 14 18 13 19
REMARK H PARENT
REMARK Flexibility Score: 70.00
ROOT
ATOM      1  C   UNL     1     -36.299  42.449  10.380  1.00  0.00     0.216 C 
ATOM      2  C   UNL     1     -36.681  40.971  10.769  1.00  0.00     0.070 C 
ATOM      3  C   UNL     1     -36.466  40.958  12.259  1.00  0.00     0.037 C 
ATOM      4  C   UNL     1     -36.420  39.910  13.085  1.00  0.00     0.021 C 
ATOM      5  C   UNL     1     -36.539  42.343  12.673  1.00  0.00     0.334 C 
ATOM      6  O   UNL     1     -36.590  42.753  13.862  1.00  0.00    -0.247 OA
ATOM      7  O   UNL     1     -36.582  43.179  11.573  1.00  0.00    -0.455 OA
ENDROOT
BRANCH   2   8
ATOM      8  C   UNL     1     -36.196  39.725   9.955  1.00  0.00     0.017 C 
BRANCH   8   9
ATOM      9  C   UNL     1     -35.549  39.955   8.575  1.00  0.00     0.031 C 
BRANCH   9  10
ATOM     10  C   UNL     1     -36.514  40.400   7.478  1.00  0.00    -0.077 C 
ATOM     11  C   UNL     1     -37.789  39.598   7.353  1.00  0.00     0.039 C 
ATOM     12  C   UNL     1     -36.280  41.374   6.554  1.00  0.00    -0.028 CG0
ATOM     13  G   UNL     1     -35.138  42.369   6.515  1.00  0.00     0.000 G0
ENDBRANCH   9  10
ENDBRANCH   8   9
ENDBRANCH   2   8
BRANCH   1  14
ATOM     14  C   UNL     1     -34.800  42.683  10.117  1.00  0.00     0.192 C 
ATOM     15  C   UNL     1     -34.266  43.148   8.801  1.00  0.00     0.096 C 
ATOM     16  O   UNL     1     -34.538  44.044   9.857  1.00  0.00    -0.362 OA
ATOM     17  C   UNL     1     -32.759  43.014   8.569  1.00  0.00     0.045 C 
BRANCH  15  18
ATOM     18  C   UNL     1     -35.154  43.445   7.584  1.00  0.00     0.042 C 
BRANCH  18  19
ATOM     19  C   UNL     1     -35.111  42.360   6.509  1.00  0.00     0.030 CG0
ATOM     20  G   UNL     1     -36.265  41.380   6.556  1.00  0.00     0.000 G0
ENDBRANCH  18  19
ENDBRANCH  15  18
ENDBRANCH   1  14
TORSDOF 0
ENDMDL
MODEL 8
REMARK VINA RESULT:    -4.604      2.715      4.688
REMARK INTER + INTRA:          -6.320
REMARK INTER:                  -6.185
REMARK INTRA:                  -0.135
REMARK UNBOUND:                -0.101
REMARK SMILES C=C1C(=O)O[C@@H]2[C@H]1CCC(C)=CCC[C@@]1(C)O[C@@H]21
REMARK SMILES IDX 6 1 7 2 2 3 1 4 3 5 4 6 5 7 8 8 9 9 10 10 11 11 12 12 18 14
REMARK SMILES IDX 15 15 17 16 16 17 14 18 13 19
REMARK H PARENT
REMARK Flexibility Score: 70.00
ROOT
ATOM      1  C   UNL     1     -34.013  41.507   8.094  1.00  0.00     0.216 C 
ATOM      2  C   UNL     1     -32.586  40.963   7.706  1.00  0.00     0.070 C 
ATOM      3  C   UNL     1     -31.772  42.224   7.598  1.00  0.00     0.037 C 
ATOM      4  C   UNL     1     -30.553  42.387   7.080  1.00  0.00     0.021 C 
ATOM      5  C   UNL     1     -32.486  43.214   8.376  1.00  0.00     0.334 C 
ATOM      6  O   UNL     1     -32.052  44.354   8.693  1.00  0.00    -0.247 OA
ATOM      7  O   UNL     1     -33.719  42.729   8.770  1.00  0.00    -0.455 OA
ENDROOT
BRANCH   2   8
ATOM      8  C   UNL     1     -32.363  39.860   6.619  1.00  0.00     0.017 C 
BRANCH   8   9
ATOM      9  C   UNL     1     -33.562  38.986   6.201  1.00  0.00     0.031 C 
BRANCH   9  10
ATOM     10  C   UNL     1     -34.184  38.164   7.330  1.00  0.00    -0.077 C 
ATOM     11  C   UNL     1     -33.221  37.344   8.158  1.00  0.00     0.039 C 
ATOM     12  C   UNL     1     -35.517  38.031   7.581  1.00  0.00    -0.028 CG0
ATOM     13  G   UNL     1     -36.665  38.802   6.963  1.00  0.00     0.000 G0
ENDBRANCH   9  10
ENDBRANCH   8   9
ENDBRANCH   2   8
BRANCH   1  14
ATOM     14  C   UNL     1     -34.896  41.916   6.900  1.00  0.00     0.192 C 
ATOM     15  C   UNL     1     -36.229  41.302   6.625  1.00  0.00     0.096 C 
ATOM     16  O   UNL     1     -36.097  42.511   7.340  1.00  0.00    -0.362 OA
ATOM     17  C   UNL     1     -36.841  41.545   5.243  1.00  0.00     0.045 C 
BRANCH  15  18
ATOM     18  C   UNL     1     -36.856  40.208   7.502  1.00  0.00     0.042 C 
BRANCH  18  19
ATOM     19  C   UNL     1     -36.668  38.794   6.955  1.00  0.00     0.030 CG0
ATOM     20  G   UNL     1     -35.527  38.021   7.585  1.00  0.00     0.000 G0
ENDBRANCH  18  19
ENDBRANCH  15  18
ENDBRANCH   1  14
TORSDOF 0
ENDMDL
MODEL 9
REMARK VINA RESULT:    -4.595      1.890      3.572
REMARK INTER + INTRA:          -6.309
REMARK INTER:                  -6.192
REMARK INTRA:                  -0.116
REMARK UNBOUND:                -0.101
REMARK SMILES C=C1C(=O)O[C@@H]2[C@H]1CCC(C)=CCC[C@@]1(C)O[C@@H]21
REMARK SMILES IDX 6 1 7 2 2 3 1 4 3 5 4 6 5 7 8 8 9 9 10 10 11 11 12 12 18 14
REMARK SMILES IDX 15 15 17 16 16 17 14 18 13 19
REMARK H PARENT
REMARK Flexibility Score: 70.00
ROOT
ATOM      1  C   UNL     1     -34.267  38.316   8.995  1.00  0.00     0.216 C 
ATOM      2  C   UNL     1     -35.792  38.077   9.312  1.00  0.00     0.070 C 
ATOM      3  C   UNL     1     -35.875  36.577   9.408  1.00  0.00     0.037 C 
ATOM      4  C   UNL     1     -36.962  35.803   9.437  1.00  0.00     0.021 C 
ATOM      5  C   UNL     1     -34.527  36.131   9.691  1.00  0.00     0.334 C 
ATOM      6  O   UNL     1     -34.193  34.963  10.023  1.00  0.00    -0.247 OA
ATOM      7  O   UNL     1     -33.634  37.180   9.582  1.00  0.00    -0.455 OA
ENDROOT
BRANCH   2   8
ATOM      8  C   UNL     1     -36.944  38.820   8.558  1.00  0.00     0.017 C 
BRANCH   8   9
ATOM      9  C   UNL     1     -36.589  40.060   7.713  1.00  0.00     0.031 C 
BRANCH   9  10
ATOM     10  C   UNL     1     -36.092  41.263   8.512  1.00  0.00    -0.077 C 
ATOM     11  C   UNL     1     -36.927  41.652   9.710  1.00  0.00     0.039 C 
ATOM     12  C   UNL     1     -35.038  42.062   8.181  1.00  0.00    -0.028 CG0
ATOM     13  G   UNL     1     -34.003  41.842   7.097  1.00  0.00     0.000 G0
ENDBRANCH   9  10
ENDBRANCH   8   9
ENDBRANCH   2   8
BRANCH   1  14
ATOM     14  C   UNL     1     -33.897  38.249   7.501  1.00  0.00     0.192 C 
ATOM     15  C   UNL     1     -33.293  39.395   6.759  1.00  0.00     0.096 C 
ATOM     16  O   UNL     1     -32.504  38.368   7.319  1.00  0.00    -0.362 OA
ATOM     17  C   UNL     1     -33.291  39.318   5.230  1.00  0.00     0.045 C 
BRANCH  15  18
ATOM     18  C   UNL     1     -32.974  40.750   7.407  1.00  0.00     0.042 C 
BRANCH  18  19
ATOM     19  C   UNL     1     -33.998  41.840   7.094  1.00  0.00     0.030 CG0
ATOM     20  G   UNL     1     -35.025  42.071   8.184  1.00  0.00     0.000 G0
ENDBRANCH  18  19
ENDBRANCH  15  18
ENDBRANCH   1  14
TORSDOF 0
ENDMDL
