MODEL 1
REMARK VINA RESULT:    89.900      0.000      0.000
REMARK INTER + INTRA:         143.347
REMARK INTER:                 142.456
REMARK INTRA:                   0.891
REMARK UNBOUND:                 0.891
REMARK SMILES C[C@H]1O[C@H](OC[C@H]2O[C@H](Oc3cc(O)c4c(c3)O[C@H](c3ccc(O)cc3)CC4=O)[C@H](O)[C@H](O)[C@@H]2O)[C@H](O)[C@@H](O)[C@H]1O
REMARK SMILES IDX 7 1 34 2 32 3 30 4 9 5 8 6 6 7 5 8 4 9 1 10 2 11 40 12 3 13
REMARK SMILES IDX 38 14 36 15 41 16 39 18 37 20 35 22 33 24 10 26 11 27 12 28
REMARK SMILES IDX 17 29 13 30 16 31 15 32 18 33 28 34 19 35 29 36 27 37 14 38
REMARK SMILES IDX 20 40 21 41 26 42 22 43 25 44 23 45 24 46 31 48
REMARK H PARENT 41 17 39 19 37 21 35 23 33 25 14 39 24 47 31 49
REMARK Flexibility Score: inf
ROOT
ATOM      1  C   UNL     1     -41.183  36.120 -23.602  1.00  0.00     0.180 C 
ATOM      2  C   UNL     1     -40.703  36.465 -25.022  1.00  0.00     0.177 C 
ATOM      3  C   UNL     1     -40.344  35.149 -25.781  1.00  0.00     0.180 C 
ATOM      4  C   UNL     1     -41.388  34.006 -25.535  1.00  0.00     0.214 C 
ATOM      5  C   UNL     1     -42.637  34.534 -24.746  1.00  0.00     0.339 C 
ATOM      6  O   UNL     1     -42.262  35.218 -23.567  1.00  0.00    -0.332 OA
ENDROOT
BRANCH   1   7
ATOM      7  C   UNL     1     -41.501  37.264 -22.669  1.00  0.00     0.198 C 
BRANCH   7   8
ATOM      8  O   UNL     1     -41.493  36.912 -21.274  1.00  0.00    -0.347 OA
BRANCH   8   9
ATOM      9  C   UNL     1     -42.622  37.473 -20.597  1.00  0.00     0.281 C 
ATOM     10  C   UNL     1     -43.213  38.668 -17.399  1.00  0.00     0.041 C 
ATOM     11  C   UNL     1     -43.302  39.031 -18.901  1.00  0.00     0.150 C 
ATOM     12  C   UNL     1     -44.798  39.034 -19.575  1.00  0.00     0.174 C 
ATOM     13  O   UNL     1     -42.214  38.367 -19.600  1.00  0.00    -0.344 OA
ATOM     14  C   UNL     1     -44.888  38.416 -21.027  1.00  0.00     0.179 C 
ATOM     15  C   UNL     1     -43.429  38.271 -21.573  1.00  0.00     0.202 C 
BRANCH  12  16
ATOM     16  O   UNL     1     -45.837  38.571 -18.696  1.00  0.00    -0.388 OA
ATOM     17  H   UNL     1     -45.491  37.826 -18.151  1.00  0.00     0.211 HD
ENDBRANCH  12  16
BRANCH  14  18
ATOM     18  O   UNL     1     -45.512  37.119 -21.064  1.00  0.00    -0.387 OA
ATOM     19  H   UNL     1     -45.001  36.501 -20.465  1.00  0.00     0.211 HD
ENDBRANCH  14  18
BRANCH  15  20
ATOM     20  O   UNL     1     -42.870  39.562 -21.651  1.00  0.00    -0.385 OA
ATOM     21  H   UNL     1     -43.432  40.163 -22.259  1.00  0.00     0.211 HD
ENDBRANCH  15  20
ENDBRANCH   8   9
ENDBRANCH   7   8
ENDBRANCH   1   7
BRANCH   2  22
ATOM     22  O   UNL     1     -39.734  37.451 -25.162  1.00  0.00    -0.387 OA
ATOM     23  H   UNL     1     -39.219  37.214 -25.975  1.00  0.00     0.211 HD
ENDBRANCH   2  22
BRANCH   3  24
ATOM     24  O   UNL     1     -39.053  34.649 -25.385  1.00  0.00    -0.387 OA
ATOM     25  H   UNL     1     -39.007  33.768 -25.775  1.00  0.00     0.211 HD
ENDBRANCH   3  24
BRANCH   5  26
ATOM     26  O   UNL     1     -43.551  33.475 -24.378  1.00  0.00    -0.462 OA
BRANCH  26  27
ATOM     27  C   UNL     1     -43.257  32.610 -23.311  1.00  0.00     0.130 A 
ATOM     28  C   UNL     1     -43.942  32.700 -22.077  1.00  0.00     0.093 A 
ATOM     29  C   UNL     1     -42.305  31.584 -23.462  1.00  0.00     0.094 A 
ATOM     30  C   UNL     1     -43.925  31.652 -21.166  1.00  0.00     0.133 A 
ATOM     31  C   UNL     1     -42.118  30.665 -22.408  1.00  0.00     0.138 A 
ATOM     32  C   UNL     1     -43.024  30.604 -21.365  1.00  0.00     0.102 A 
ATOM     33  O   UNL     1     -40.978  29.897 -22.315  1.00  0.00    -0.484 OA
ATOM     34  C   UNL     1     -42.932  29.409 -20.487  1.00  0.00     0.174 C 
ATOM     35  C   UNL     1     -40.536  29.399 -21.054  1.00  0.00     0.211 C 
ATOM     36  O   UNL     1     -43.969  28.988 -19.892  1.00  0.00    -0.294 OA
ATOM     37  C   UNL     1     -41.669  28.556 -20.452  1.00  0.00     0.131 C 
BRANCH  30  38
ATOM     38  O   UNL     1     -44.722  31.760 -20.023  1.00  0.00    -0.507 OA
ATOM     39  H   UNL     1     -45.217  30.928 -19.718  1.00  0.00     0.293 HD
ENDBRANCH  30  38
BRANCH  35  40
ATOM     40  C   UNL     1     -39.201  28.734 -21.180  1.00  0.00    -0.007 A 
ATOM     41  C   UNL     1     -39.002  27.555 -21.929  1.00  0.00     0.011 A 
ATOM     42  C   UNL     1     -38.154  29.207 -20.386  1.00  0.00     0.011 A 
ATOM     43  C   UNL     1     -37.718  26.949 -21.944  1.00  0.00     0.046 A 
ATOM     44  C   UNL     1     -36.899  28.569 -20.375  1.00  0.00     0.046 A 
ATOM     45  C   UNL     1     -36.667  27.425 -21.137  1.00  0.00     0.115 A 
BRANCH  45  46
ATOM     46  O   UNL     1     -35.442  26.789 -21.103  1.00  0.00    -0.508 OA
ATOM     47  H   UNL     1     -35.377  25.804 -20.920  1.00  0.00     0.293 HD
ENDBRANCH  45  46
ENDBRANCH  35  40
ENDBRANCH  26  27
ENDBRANCH   5  26
BRANCH   4  48
ATOM     48  O   UNL     1     -40.884  32.914 -24.813  1.00  0.00    -0.384 OA
ATOM     49  H   UNL     1     -41.669  32.529 -24.331  1.00  0.00     0.211 HD
ENDBRANCH   4  48
TORSDOF 14
ENDMDL
MODEL 2
REMARK VINA RESULT:    91.952      5.357     10.075
REMARK INTER + INTRA:         146.597
REMARK INTER:                 145.415
REMARK INTRA:                   1.182
REMARK UNBOUND:                 0.891
REMARK SMILES C[C@H]1O[C@H](OC[C@H]2O[C@H](Oc3cc(O)c4c(c3)O[C@H](c3ccc(O)cc3)CC4=O)[C@H](O)[C@H](O)[C@@H]2O)[C@H](O)[C@@H](O)[C@H]1O
REMARK SMILES IDX 7 1 34 2 32 3 30 4 9 5 8 6 6 7 5 8 4 9 1 10 2 11 40 12 3 13
REMARK SMILES IDX 38 14 36 15 41 16 39 18 37 20 35 22 33 24 10 26 11 27 12 28
REMARK SMILES IDX 17 29 13 30 16 31 15 32 18 33 28 34 19 35 29 36 27 37 14 38
REMARK SMILES IDX 20 40 21 41 26 42 22 43 25 44 23 45 24 46 31 48
REMARK H PARENT 41 17 39 19 37 21 35 23 33 25 14 39 24 47 31 49
REMARK Flexibility Score: inf
ROOT
ATOM      1  C   UNL     1     -37.879  29.025 -21.405  1.00  0.00     0.180 C 
ATOM      2  C   UNL     1     -37.984  27.511 -21.156  1.00  0.00     0.177 C 
ATOM      3  C   UNL     1     -36.622  26.981 -20.608  1.00  0.00     0.180 C 
ATOM      4  C   UNL     1     -35.990  27.934 -19.536  1.00  0.00     0.214 C 
ATOM      5  C   UNL     1     -36.982  29.084 -19.140  1.00  0.00     0.339 C 
ATOM      6  O   UNL     1     -37.478  29.763 -20.277  1.00  0.00    -0.332 OA
ENDROOT
BRANCH   1   7
ATOM      7  C   UNL     1     -39.069  29.722 -22.021  1.00  0.00     0.198 C 
BRANCH   7   8
ATOM      8  O   UNL     1     -40.139  29.993 -21.099  1.00  0.00    -0.347 OA
BRANCH   8   9
ATOM      9  C   UNL     1     -41.391  30.101 -21.783  1.00  0.00     0.281 C 
ATOM     10  C   UNL     1     -44.567  31.187 -20.922  1.00  0.00     0.041 C 
ATOM     11  C   UNL     1     -43.421  31.373 -21.946  1.00  0.00     0.150 C 
ATOM     12  C   UNL     1     -43.648  30.726 -23.437  1.00  0.00     0.174 C 
ATOM     13  O   UNL     1     -42.156  31.153 -21.266  1.00  0.00    -0.344 OA
ATOM     14  C   UNL     1     -42.382  30.021 -24.069  1.00  0.00     0.179 C 
ATOM     15  C   UNL     1     -41.135  30.435 -23.220  1.00  0.00     0.202 C 
BRANCH  12  16
ATOM     16  O   UNL     1     -44.851  29.950 -23.561  1.00  0.00    -0.388 OA
ATOM     17  H   UNL     1     -44.832  29.457 -24.414  1.00  0.00     0.211 HD
ENDBRANCH  12  16
BRANCH  14  18
ATOM     18  O   UNL     1     -42.465  28.583 -24.073  1.00  0.00    -0.387 OA
ATOM     19  H   UNL     1     -41.633  28.216 -24.490  1.00  0.00     0.211 HD
ENDBRANCH  14  18
BRANCH  15  20
ATOM     20  O   UNL     1     -40.989  31.833 -23.325  1.00  0.00    -0.385 OA
ATOM     21  H   UNL     1     -40.056  32.072 -23.672  1.00  0.00     0.211 HD
ENDBRANCH  15  20
ENDBRANCH   8   9
ENDBRANCH   7   8
ENDBRANCH   1   7
BRANCH   2  22
ATOM     22  O   UNL     1     -38.504  26.717 -22.172  1.00  0.00    -0.387 OA
ATOM     23  H   UNL     1     -38.701  25.838 -21.758  1.00  0.00     0.211 HD
ENDBRANCH   2  22
BRANCH   3  24
ATOM     24  O   UNL     1     -35.658  26.816 -21.664  1.00  0.00    -0.387 OA
ATOM     25  H   UNL     1     -36.082  27.206 -22.438  1.00  0.00     0.211 HD
ENDBRANCH   3  24
BRANCH   5  26
ATOM     26  O   UNL     1     -36.377  30.062 -18.263  1.00  0.00    -0.462 OA
BRANCH  26  27
ATOM     27  C   UNL     1     -34.993  30.056 -18.024  1.00  0.00     0.130 A 
ATOM     28  C   UNL     1     -34.123  30.942 -18.699  1.00  0.00     0.093 A 
ATOM     29  C   UNL     1     -34.437  29.199 -17.055  1.00  0.00     0.094 A 
ATOM     30  C   UNL     1     -32.843  31.196 -18.224  1.00  0.00     0.133 A 
ATOM     31  C   UNL     1     -33.061  29.300 -16.762  1.00  0.00     0.138 A 
ATOM     32  C   UNL     1     -32.329  30.383 -17.213  1.00  0.00     0.102 A 
ATOM     33  O   UNL     1     -32.380  28.279 -16.137  1.00  0.00    -0.484 OA
ATOM     34  C   UNL     1     -30.992  30.573 -16.593  1.00  0.00     0.174 C 
ATOM     35  C   UNL     1     -30.973  28.127 -16.313  1.00  0.00     0.211 C 
ATOM     36  O   UNL     1     -30.499  31.738 -16.511  1.00  0.00    -0.294 OA
ATOM     37  C   UNL     1     -30.294  29.428 -15.865  1.00  0.00     0.131 C 
BRANCH  30  38
ATOM     38  O   UNL     1     -32.083  32.175 -18.871  1.00  0.00    -0.507 OA
ATOM     39  H   UNL     1     -31.288  31.862 -19.419  1.00  0.00     0.293 HD
ENDBRANCH  30  38
BRANCH  35  40
ATOM     40  C   UNL     1     -30.487  26.864 -15.673  1.00  0.00    -0.007 A 
ATOM     41  C   UNL     1     -30.453  26.681 -14.274  1.00  0.00     0.011 A 
ATOM     42  C   UNL     1     -29.888  25.902 -16.488  1.00  0.00     0.011 A 
ATOM     43  C   UNL     1     -29.916  25.478 -13.744  1.00  0.00     0.046 A 
ATOM     44  C   UNL     1     -29.317  24.736 -15.945  1.00  0.00     0.046 A 
ATOM     45  C   UNL     1     -29.306  24.513 -14.568  1.00  0.00     0.115 A 
BRANCH  45  46
ATOM     46  O   UNL     1     -28.724  23.380 -14.039  1.00  0.00    -0.508 OA
ATOM     47  H   UNL     1     -29.198  22.495 -14.065  1.00  0.00     0.293 HD
ENDBRANCH  45  46
ENDBRANCH  35  40
ENDBRANCH  26  27
ENDBRANCH   5  26
BRANCH   4  48
ATOM     48  O   UNL     1     -34.799  28.550 -19.948  1.00  0.00    -0.384 OA
ATOM     49  H   UNL     1     -34.484  28.020 -20.734  1.00  0.00     0.211 HD
ENDBRANCH   4  48
TORSDOF 14
ENDMDL
