MODEL 1
REMARK VINA RESULT:    -2.948      0.000      0.000
REMARK INTER + INTRA:          -3.352
REMARK INTER:                  -3.293
REMARK INTRA:                  -0.059
REMARK UNBOUND:                -0.059
REMARK SMILES CCCC(=O)[O-]
REMARK SMILES IDX 3 1 4 2 5 3 6 4 2 5 1 6
REMARK H PARENT
REMARK Flexibility Score: inf
ROOT
ATOM      1  C   UNL     1      99.369  91.320  85.427  1.00  0.00     0.052 C 
ENDROOT
BRANCH   1   2
ATOM      2  C   UNL     1     100.477  91.723  86.351  1.00  0.00     0.041 C 
ATOM      3  O   UNL     1     100.217  92.099  87.524  1.00  0.00    -0.550 OA
ATOM      4  O   UNL     1     101.792  91.717  85.906  1.00  0.00    -0.550 OA
ENDBRANCH   1   2
BRANCH   1   5
ATOM      5  C   UNL     1      99.575  89.905  84.875  1.00  0.00     0.003 C 
ATOM      6  C   UNL     1      99.780  88.872  85.983  1.00  0.00     0.004 C 
ENDBRANCH   1   5
TORSDOF 2
ENDMDL
MODEL 2
REMARK VINA RESULT:    -2.944      1.612      2.067
REMARK INTER + INTRA:          -3.348
REMARK INTER:                  -3.320
REMARK INTRA:                  -0.027
REMARK UNBOUND:                -0.059
REMARK SMILES CCCC(=O)[O-]
REMARK SMILES IDX 3 1 4 2 5 3 6 4 2 5 1 6
REMARK H PARENT
REMARK Flexibility Score: inf
ROOT
ATOM      1  C   UNL     1      99.910  92.075  86.123  1.00  0.00     0.052 C 
ENDROOT
BRANCH   1   2
ATOM      2  C   UNL     1      99.238  92.347  87.434  1.00  0.00     0.041 C 
ATOM      3  O   UNL     1      97.990  92.499  87.487  1.00  0.00    -0.550 OA
ATOM      4  O   UNL     1      99.996  92.468  88.592  1.00  0.00    -0.550 OA
ENDBRANCH   1   2
BRANCH   1   5
ATOM      5  C   UNL     1      98.970  91.370  85.138  1.00  0.00     0.003 C 
ATOM      6  C   UNL     1      99.383  89.921  84.875  1.00  0.00     0.004 C 
ENDBRANCH   1   5
TORSDOF 2
ENDMDL
MODEL 3
REMARK VINA RESULT:    -2.920      2.297      2.982
REMARK INTER + INTRA:          -3.320
REMARK INTER:                  -3.266
REMARK INTRA:                  -0.054
REMARK UNBOUND:                -0.059
REMARK SMILES CCCC(=O)[O-]
REMARK SMILES IDX 3 1 4 2 5 3 6 4 2 5 1 6
REMARK H PARENT
REMARK Flexibility Score: inf
ROOT
ATOM      1  C   UNL     1      99.676  89.636  85.099  1.00  0.00     0.052 C 
ENDROOT
BRANCH   1   2
ATOM      2  C   UNL     1      99.896  88.634  86.191  1.00  0.00     0.041 C 
ATOM      3  O   UNL     1      99.055  88.516  87.120  1.00  0.00    -0.550 OA
ATOM      4  O   UNL     1     101.046  87.857  86.201  1.00  0.00    -0.550 OA
ENDBRANCH   1   2
BRANCH   1   5
ATOM      5  C   UNL     1      99.917  91.070  85.583  1.00  0.00     0.003 C 
ATOM      6  C   UNL     1     101.378  91.319  85.960  1.00  0.00     0.004 C 
ENDBRANCH   1   5
TORSDOF 2
ENDMDL
MODEL 4
REMARK VINA RESULT:    -2.915      0.081      1.323
REMARK INTER + INTRA:          -3.315
REMARK INTER:                  -3.266
REMARK INTRA:                  -0.049
REMARK UNBOUND:                -0.059
REMARK SMILES CCCC(=O)[O-]
REMARK SMILES IDX 3 1 4 2 5 3 6 4 2 5 1 6
REMARK H PARENT
REMARK Flexibility Score: inf
ROOT
ATOM      1  C   UNL     1      99.373  91.290  85.448  1.00  0.00     0.052 C 
ENDROOT
BRANCH   1   2
ATOM      2  C   UNL     1     100.495  91.728  86.339  1.00  0.00     0.041 C 
ATOM      3  O   UNL     1     101.677  91.746  85.906  1.00  0.00    -0.550 OA
ATOM      4  O   UNL     1     100.240  92.082  87.658  1.00  0.00    -0.550 OA
ENDBRANCH   1   2
BRANCH   1   5
ATOM      5  C   UNL     1      99.614  89.888  84.876  1.00  0.00     0.003 C 
ATOM      6  C   UNL     1      99.823  88.841  85.969  1.00  0.00     0.004 C 
ENDBRANCH   1   5
TORSDOF 2
ENDMDL
MODEL 5
REMARK VINA RESULT:    -2.877      1.892      2.526
REMARK INTER + INTRA:          -3.273
REMARK INTER:                  -3.202
REMARK INTRA:                  -0.071
REMARK UNBOUND:                -0.059
REMARK SMILES CCCC(=O)[O-]
REMARK SMILES IDX 3 1 4 2 5 3 6 4 2 5 1 6
REMARK H PARENT
REMARK Flexibility Score: inf
ROOT
ATOM      1  C   UNL     1      99.791  92.011  85.997  1.00  0.00     0.052 C 
ENDROOT
BRANCH   1   2
ATOM      2  C   UNL     1     101.085  91.263  86.093  1.00  0.00     0.041 C 
ATOM      3  O   UNL     1     101.086  90.025  86.322  1.00  0.00    -0.550 OA
ATOM      4  O   UNL     1     102.291  91.940  85.965  1.00  0.00    -0.550 OA
ENDBRANCH   1   2
BRANCH   1   5
ATOM      5  C   UNL     1      98.981  91.918  87.296  1.00  0.00     0.003 C 
ATOM      6  C   UNL     1      99.723  92.521  88.489  1.00  0.00     0.004 C 
ENDBRANCH   1   5
TORSDOF 2
ENDMDL
MODEL 6
REMARK VINA RESULT:    -2.849      2.102      2.623
REMARK INTER + INTRA:          -3.242
REMARK INTER:                  -3.195
REMARK INTRA:                  -0.047
REMARK UNBOUND:                -0.059
REMARK SMILES CCCC(=O)[O-]
REMARK SMILES IDX 3 1 4 2 5 3 6 4 2 5 1 6
REMARK H PARENT
REMARK Flexibility Score: inf
ROOT
ATOM      1  C   UNL     1      99.725  91.989  86.169  1.00  0.00     0.052 C 
ENDROOT
BRANCH   1   2
ATOM      2  C   UNL     1      99.443  91.990  87.640  1.00  0.00     0.041 C 
ATOM      3  O   UNL     1      99.541  90.925  88.304  1.00  0.00    -0.550 OA
ATOM      4  O   UNL     1      99.038  93.159  88.271  1.00  0.00    -0.550 OA
ENDBRANCH   1   2
BRANCH   1   5
ATOM      5  C   UNL     1     100.951  91.134  85.824  1.00  0.00     0.003 C 
ATOM      6  C   UNL     1     102.262  91.903  85.988  1.00  0.00     0.004 C 
ENDBRANCH   1   5
TORSDOF 2
ENDMDL
MODEL 7
REMARK VINA RESULT:    -2.819      2.122      2.979
REMARK INTER + INTRA:          -3.208
REMARK INTER:                  -3.143
REMARK INTRA:                  -0.064
REMARK UNBOUND:                -0.059
REMARK SMILES CCCC(=O)[O-]
REMARK SMILES IDX 3 1 4 2 5 3 6 4 2 5 1 6
REMARK H PARENT
REMARK Flexibility Score: inf
ROOT
ATOM      1  C   UNL     1     100.442  89.517  86.067  1.00  0.00     0.052 C 
ENDROOT
BRANCH   1   2
ATOM      2  C   UNL     1      99.603  89.104  87.237  1.00  0.00     0.041 C 
ATOM      3  O   UNL     1      98.874  88.081  87.164  1.00  0.00    -0.550 OA
ATOM      4  O   UNL     1      99.599  89.870  88.396  1.00  0.00    -0.550 OA
ENDBRANCH   1   2
BRANCH   1   5
ATOM      5  C   UNL     1      99.583  89.955  84.875  1.00  0.00     0.003 C 
ATOM      6  C   UNL     1      98.936  91.322  85.095  1.00  0.00     0.004 C 
ENDBRANCH   1   5
TORSDOF 2
ENDMDL
MODEL 8
REMARK VINA RESULT:    -2.638      2.508      3.225
REMARK INTER + INTRA:          -3.005
REMARK INTER:                  -2.934
REMARK INTRA:                  -0.072
REMARK UNBOUND:                -0.059
REMARK SMILES CCCC(=O)[O-]
REMARK SMILES IDX 3 1 4 2 5 3 6 4 2 5 1 6
REMARK H PARENT
REMARK Flexibility Score: inf
ROOT
ATOM      1  C   UNL     1      99.794  92.420  88.609  1.00  0.00     0.052 C 
ENDROOT
BRANCH   1   2
ATOM      2  C   UNL     1      99.743  92.037  87.162  1.00  0.00     0.041 C 
ATOM      3  O   UNL     1     100.809  91.834  86.523  1.00  0.00    -0.550 OA
ATOM      4  O   UNL     1      98.521  91.937  86.510  1.00  0.00    -0.550 OA
ENDBRANCH   1   2
BRANCH   1   5
ATOM      5  C   UNL     1      99.033  91.422  89.490  1.00  0.00     0.003 C 
ATOM      6  C   UNL     1      99.629  90.016  89.424  1.00  0.00     0.004 C 
ENDBRANCH   1   5
TORSDOF 2
ENDMDL
MODEL 9
REMARK VINA RESULT:    -2.604      4.203      4.908
REMARK INTER + INTRA:          -2.967
REMARK INTER:                  -2.933
REMARK INTRA:                  -0.034
REMARK UNBOUND:                -0.059
REMARK SMILES CCCC(=O)[O-]
REMARK SMILES IDX 3 1 4 2 5 3 6 4 2 5 1 6
REMARK H PARENT
REMARK Flexibility Score: inf
ROOT
ATOM      1  C   UNL     1      99.302  90.644  89.106  1.00  0.00     0.052 C 
ENDROOT
BRANCH   1   2
ATOM      2  C   UNL     1      99.000  90.259  90.522  1.00  0.00     0.041 C 
ATOM      3  O   UNL     1      99.924  89.867  91.282  1.00  0.00    -0.550 OA
ATOM      4  O   UNL     1      97.693  90.300  90.991  1.00  0.00    -0.550 OA
ENDBRANCH   1   2
BRANCH   1   5
ATOM      5  C   UNL     1      99.559  92.149  88.967  1.00  0.00     0.003 C 
ATOM      6  C   UNL     1      98.402  92.876  88.282  1.00  0.00     0.004 C 
ENDBRANCH   1   5
TORSDOF 2
ENDMDL
