MODEL 1
REMARK VINA RESULT:    -4.536      0.000      0.000
REMARK INTER + INTRA:          -4.934
REMARK INTER:                  -4.802
REMARK INTRA:                  -0.132
REMARK UNBOUND:                -0.132
REMARK SMILES C=C(C)[C@H]1CC=C(C)CC1
REMARK SMILES IDX 8 1 7 2 6 3 5 4 4 5 10 6 9 7 2 8 1 9 3 10
REMARK H PARENT
REMARK Flexibility Score: inf
ROOT
ATOM      1  C   UNL     1      -6.210  -2.977   7.411  1.00  0.00     0.039 C 
ATOM      2  C   UNL     1      -5.567  -4.247   6.926  1.00  0.00    -0.077 C 
ATOM      3  C   UNL     1      -5.847  -4.687   5.681  1.00  0.00    -0.027 C 
ATOM      4  C   UNL     1      -5.296  -5.975   5.121  1.00  0.00     0.035 C 
ATOM      5  C   UNL     1      -4.010  -6.419   5.842  1.00  0.00     0.018 C 
ATOM      6  C   UNL     1      -4.215  -6.357   7.363  1.00  0.00     0.013 C 
ATOM      7  C   UNL     1      -4.523  -4.919   7.797  1.00  0.00     0.031 C 
ENDROOT
BRANCH   5   8
ATOM      8  C   UNL     1      -3.559  -7.798   5.388  1.00  0.00    -0.077 C 
ATOM      9  C   UNL     1      -2.366  -8.303   5.750  1.00  0.00     0.008 C 
ATOM     10  C   UNL     1      -4.475  -8.599   4.499  1.00  0.00     0.039 C 
ENDBRANCH   5   8
TORSDOF 1
ENDMDL
MODEL 2
REMARK VINA RESULT:    -4.388      1.054      4.294
REMARK INTER + INTRA:          -4.777
REMARK INTER:                  -4.648
REMARK INTRA:                  -0.129
REMARK UNBOUND:                -0.132
REMARK SMILES C=C(C)[C@H]1CC=C(C)CC1
REMARK SMILES IDX 8 1 7 2 6 3 5 4 4 5 10 6 9 7 2 8 1 9 3 10
REMARK H PARENT
REMARK Flexibility Score: inf
ROOT
ATOM      1  C   UNL     1      -3.097  -8.248   6.630  1.00  0.00     0.039 C 
ATOM      2  C   UNL     1      -3.904  -6.979   6.611  1.00  0.00    -0.077 C 
ATOM      3  C   UNL     1      -4.495  -6.597   5.459  1.00  0.00    -0.027 C 
ATOM      4  C   UNL     1      -5.280  -5.315   5.324  1.00  0.00     0.035 C 
ATOM      5  C   UNL     1      -5.796  -4.803   6.681  1.00  0.00     0.018 C 
ATOM      6  C   UNL     1      -4.656  -4.811   7.710  1.00  0.00     0.013 C 
ATOM      7  C   UNL     1      -4.138  -6.240   7.915  1.00  0.00     0.031 C 
ENDROOT
BRANCH   5   8
ATOM      8  C   UNL     1      -6.435  -3.429   6.556  1.00  0.00    -0.077 C 
ATOM      9  C   UNL     1      -6.019  -2.389   7.300  1.00  0.00     0.008 C 
ATOM     10  C   UNL     1      -7.571  -3.249   5.582  1.00  0.00     0.039 C 
ENDBRANCH   5   8
TORSDOF 1
ENDMDL
MODEL 3
REMARK VINA RESULT:    -4.330      0.658      2.001
REMARK INTER + INTRA:          -4.715
REMARK INTER:                  -4.585
REMARK INTRA:                  -0.130
REMARK UNBOUND:                -0.132
REMARK SMILES C=C(C)[C@H]1CC=C(C)CC1
REMARK SMILES IDX 8 1 7 2 6 3 5 4 4 5 10 6 9 7 2 8 1 9 3 10
REMARK H PARENT
REMARK Flexibility Score: inf
ROOT
ATOM      1  C   UNL     1      -6.141  -2.575   7.565  1.00  0.00     0.039 C 
ATOM      2  C   UNL     1      -5.606  -3.894   7.080  1.00  0.00    -0.077 C 
ATOM      3  C   UNL     1      -4.727  -4.567   7.853  1.00  0.00    -0.027 C 
ATOM      4  C   UNL     1      -4.093  -5.870   7.433  1.00  0.00     0.035 C 
ATOM      5  C   UNL     1      -4.925  -6.604   6.365  1.00  0.00     0.018 C 
ATOM      6  C   UNL     1      -5.311  -5.629   5.243  1.00  0.00     0.013 C 
ATOM      7  C   UNL     1      -6.170  -4.490   5.805  1.00  0.00     0.031 C 
ENDROOT
BRANCH   5   8
ATOM      8  C   UNL     1      -4.196  -7.825   5.827  1.00  0.00    -0.077 C 
ATOM      9  C   UNL     1      -4.861  -8.930   5.445  1.00  0.00     0.008 C 
ATOM     10  C   UNL     1      -2.692  -7.786   5.740  1.00  0.00     0.039 C 
ENDBRANCH   5   8
TORSDOF 1
ENDMDL
MODEL 4
REMARK VINA RESULT:    -4.329      1.193      4.972
REMARK INTER + INTRA:          -4.715
REMARK INTER:                  -4.581
REMARK INTRA:                  -0.134
REMARK UNBOUND:                -0.132
REMARK SMILES C=C(C)[C@H]1CC=C(C)CC1
REMARK SMILES IDX 8 1 7 2 6 3 5 4 4 5 10 6 9 7 2 8 1 9 3 10
REMARK H PARENT
REMARK Flexibility Score: inf
ROOT
ATOM      1  C   UNL     1      -3.926  -8.102   6.495  1.00  0.00     0.039 C 
ATOM      2  C   UNL     1      -4.488  -6.770   6.910  1.00  0.00    -0.077 C 
ATOM      3  C   UNL     1      -4.448  -6.420   8.214  1.00  0.00    -0.027 C 
ATOM      4  C   UNL     1      -5.032  -5.132   8.738  1.00  0.00     0.035 C 
ATOM      5  C   UNL     1      -5.153  -4.060   7.639  1.00  0.00     0.018 C 
ATOM      6  C   UNL     1      -5.816  -4.663   6.392  1.00  0.00     0.013 C 
ATOM      7  C   UNL     1      -4.957  -5.806   5.837  1.00  0.00     0.031 C 
ENDROOT
BRANCH   5   8
ATOM      8  C   UNL     1      -5.896  -2.829   8.135  1.00  0.00    -0.077 C 
ATOM      9  C   UNL     1      -6.302  -1.865   7.291  1.00  0.00     0.008 C 
ATOM     10  C   UNL     1      -6.163  -2.696   9.612  1.00  0.00     0.039 C 
ENDBRANCH   5   8
TORSDOF 1
ENDMDL
MODEL 5
REMARK VINA RESULT:    -4.284      1.040      4.433
REMARK INTER + INTRA:          -4.667
REMARK INTER:                  -4.533
REMARK INTRA:                  -0.134
REMARK UNBOUND:                -0.132
REMARK SMILES C=C(C)[C@H]1CC=C(C)CC1
REMARK SMILES IDX 8 1 7 2 6 3 5 4 4 5 10 6 9 7 2 8 1 9 3 10
REMARK H PARENT
REMARK Flexibility Score: inf
ROOT
ATOM      1  C   UNL     1      -4.574  -7.906   4.747  1.00  0.00     0.039 C 
ATOM      2  C   UNL     1      -4.802  -6.699   5.615  1.00  0.00    -0.077 C 
ATOM      3  C   UNL     1      -5.547  -5.679   5.135  1.00  0.00    -0.027 C 
ATOM      4  C   UNL     1      -5.789  -4.405   5.905  1.00  0.00     0.035 C 
ATOM      5  C   UNL     1      -5.602  -4.598   7.422  1.00  0.00     0.018 C 
ATOM      6  C   UNL     1      -4.281  -5.331   7.696  1.00  0.00     0.013 C 
ATOM      7  C   UNL     1      -4.303  -6.721   7.046  1.00  0.00     0.031 C 
ENDROOT
BRANCH   5   8
ATOM      8  C   UNL     1      -5.681  -3.276   8.169  1.00  0.00    -0.077 C 
ATOM      9  C   UNL     1      -5.404  -3.193   9.482  1.00  0.00     0.008 C 
ATOM     10  C   UNL     1      -6.096  -2.043   7.409  1.00  0.00     0.039 C 
ENDBRANCH   5   8
TORSDOF 1
ENDMDL
MODEL 6
REMARK VINA RESULT:    -4.261      1.225      4.813
REMARK INTER + INTRA:          -4.642
REMARK INTER:                  -4.512
REMARK INTRA:                  -0.130
REMARK UNBOUND:                -0.132
REMARK SMILES C=C(C)[C@H]1CC=C(C)CC1
REMARK SMILES IDX 8 1 7 2 6 3 5 4 4 5 10 6 9 7 2 8 1 9 3 10
REMARK H PARENT
REMARK Flexibility Score: inf
ROOT
ATOM      1  C   UNL     1      -2.530 -10.082   3.258  1.00  0.00     0.039 C 
ATOM      2  C   UNL     1      -3.131  -9.081   4.206  1.00  0.00    -0.077 C 
ATOM      3  C   UNL     1      -2.337  -8.493   5.127  1.00  0.00    -0.027 C 
ATOM      4  C   UNL     1      -2.853  -7.518   6.155  1.00  0.00     0.035 C 
ATOM      5  C   UNL     1      -4.174  -6.858   5.720  1.00  0.00     0.018 C 
ATOM      6  C   UNL     1      -5.157  -7.931   5.229  1.00  0.00     0.013 C 
ATOM      7  C   UNL     1      -4.576  -8.665   4.013  1.00  0.00     0.031 C 
ENDROOT
BRANCH   5   8
ATOM      8  C   UNL     1      -4.772  -6.010   6.831  1.00  0.00    -0.077 C 
ATOM      9  C   UNL     1      -4.569  -6.305   8.127  1.00  0.00     0.008 C 
ATOM     10  C   UNL     1      -5.621  -4.823   6.454  1.00  0.00     0.039 C 
ENDBRANCH   5   8
TORSDOF 1
ENDMDL
MODEL 7
REMARK VINA RESULT:    -4.242      1.599      2.821
REMARK INTER + INTRA:          -4.622
REMARK INTER:                  -4.489
REMARK INTRA:                  -0.133
REMARK UNBOUND:                -0.132
REMARK SMILES C=C(C)[C@H]1CC=C(C)CC1
REMARK SMILES IDX 8 1 7 2 6 3 5 4 4 5 10 6 9 7 2 8 1 9 3 10
REMARK H PARENT
REMARK Flexibility Score: inf
ROOT
ATOM      1  C   UNL     1      -6.356  -3.974  10.668  1.00  0.00     0.039 C 
ATOM      2  C   UNL     1      -5.909  -4.570   9.362  1.00  0.00    -0.077 C 
ATOM      3  C   UNL     1      -5.053  -5.614   9.377  1.00  0.00    -0.027 C 
ATOM      4  C   UNL     1      -4.506  -6.247   8.122  1.00  0.00     0.035 C 
ATOM      5  C   UNL     1      -5.403  -5.983   6.899  1.00  0.00     0.018 C 
ATOM      6  C   UNL     1      -5.758  -4.491   6.823  1.00  0.00     0.013 C 
ATOM      7  C   UNL     1      -6.537  -4.068   8.076  1.00  0.00     0.031 C 
ENDROOT
BRANCH   5   8
ATOM      8  C   UNL     1      -4.760  -6.477   5.613  1.00  0.00    -0.077 C 
ATOM      9  C   UNL     1      -5.395  -6.394   4.431  1.00  0.00     0.008 C 
ATOM     10  C   UNL     1      -3.382  -7.085   5.685  1.00  0.00     0.039 C 
ENDBRANCH   5   8
TORSDOF 1
ENDMDL
MODEL 8
REMARK VINA RESULT:    -4.234      1.506      4.561
REMARK INTER + INTRA:          -4.614
REMARK INTER:                  -4.482
REMARK INTRA:                  -0.132
REMARK UNBOUND:                -0.132
REMARK SMILES C=C(C)[C@H]1CC=C(C)CC1
REMARK SMILES IDX 8 1 7 2 6 3 5 4 4 5 10 6 9 7 2 8 1 9 3 10
REMARK H PARENT
REMARK Flexibility Score: inf
ROOT
ATOM      1  C   UNL     1      -2.740  -9.992   3.357  1.00  0.00     0.039 C 
ATOM      2  C   UNL     1      -3.355  -9.026   4.332  1.00  0.00    -0.077 C 
ATOM      3  C   UNL     1      -4.700  -8.947   4.414  1.00  0.00    -0.027 C 
ATOM      4  C   UNL     1      -5.412  -7.973   5.320  1.00  0.00     0.035 C 
ATOM      5  C   UNL     1      -4.523  -7.509   6.489  1.00  0.00     0.018 C 
ATOM      6  C   UNL     1      -3.146  -7.082   5.960  1.00  0.00     0.013 C 
ATOM      7  C   UNL     1      -2.448  -8.269   5.283  1.00  0.00     0.031 C 
ENDROOT
BRANCH   5   8
ATOM      8  C   UNL     1      -5.187  -6.404   7.295  1.00  0.00    -0.077 C 
ATOM      9  C   UNL     1      -4.721  -6.037   8.502  1.00  0.00     0.008 C 
ATOM     10  C   UNL     1      -6.404  -5.726   6.720  1.00  0.00     0.039 C 
ENDBRANCH   5   8
TORSDOF 1
ENDMDL
MODEL 9
REMARK VINA RESULT:    -4.089      1.802      3.073
REMARK INTER + INTRA:          -4.460
REMARK INTER:                  -4.333
REMARK INTRA:                  -0.127
REMARK UNBOUND:                -0.132
REMARK SMILES C=C(C)[C@H]1CC=C(C)CC1
REMARK SMILES IDX 8 1 7 2 6 3 5 4 4 5 10 6 9 7 2 8 1 9 3 10
REMARK H PARENT
REMARK Flexibility Score: inf
ROOT
ATOM      1  C   UNL     1      -9.111  -4.955   3.621  1.00  0.00     0.039 C 
ATOM      2  C   UNL     1      -7.867  -5.321   4.383  1.00  0.00    -0.077 C 
ATOM      3  C   UNL     1      -7.385  -6.579   4.284  1.00  0.00    -0.027 C 
ATOM      4  C   UNL     1      -6.176  -7.059   5.048  1.00  0.00     0.035 C 
ATOM      5  C   UNL     1      -5.261  -5.897   5.477  1.00  0.00     0.018 C 
ATOM      6  C   UNL     1      -6.097  -4.787   6.130  1.00  0.00     0.013 C 
ATOM      7  C   UNL     1      -7.117  -4.234   5.128  1.00  0.00     0.031 C 
ENDROOT
BRANCH   5   8
ATOM      8  C   UNL     1      -4.140  -6.373   6.388  1.00  0.00    -0.077 C 
ATOM      9  C   UNL     1      -4.151  -6.116   7.708  1.00  0.00     0.008 C 
ATOM     10  C   UNL     1      -2.991  -7.135   5.779  1.00  0.00     0.039 C 
ENDBRANCH   5   8
TORSDOF 1
ENDMDL
