MODEL 1
REMARK VINA RESULT:    10.181      0.000      0.000
REMARK INTER + INTRA:          15.825
REMARK INTER:                  13.751
REMARK INTRA:                   2.074
REMARK UNBOUND:                 2.074
REMARK SMILES COc1ccc(-c2cc(=O)c3c(OC)c(OC)c(OC)c(OC)c3o2)cc1
REMARK SMILES IDX 7 1 8 2 9 3 10 4 11 5 24 6 25 7 21 8 18 9 15 10 12 11 6 12
REMARK SMILES IDX 3 13 4 14 27 15 5 16 26 17 2 18 1 19 22 20 23 21 13 22 14 23
REMARK SMILES IDX 19 24 20 25 16 26 17 27
REMARK H PARENT
REMARK Flexibility Score: inf
ROOT
ATOM      1  C   UNL     1       2.022  27.037 -24.857  1.00  0.00     0.138 A 
ATOM      2  C   UNL     1       1.196  27.767 -25.721  1.00  0.00     0.100 A 
ATOM      3  C   UNL     1      -0.108  28.059 -25.333  1.00  0.00     0.197 A 
ATOM      4  O   UNL     1      -0.841  28.714 -26.122  1.00  0.00    -0.289 OA
ATOM      5  C   UNL     1      -0.583  27.614 -24.080  1.00  0.00     0.115 A 
ATOM      6  C   UNL     1       0.303  26.871 -23.262  1.00  0.00     0.188 A 
ATOM      7  O   UNL     1       1.540  26.620 -23.688  1.00  0.00    -0.452 OA
ATOM      8  C   UNL     1      -0.118  26.416 -21.990  1.00  0.00     0.209 A 
ATOM      9  C   UNL     1      -1.425  26.674 -21.551  1.00  0.00     0.211 A 
ATOM     10  C   UNL     1      -2.328  27.376 -22.385  1.00  0.00     0.208 A 
ATOM     11  C   UNL     1      -1.885  27.900 -23.615  1.00  0.00     0.179 A 
ENDROOT
BRANCH   1  12
ATOM     12  C   UNL     1       3.424  26.712 -25.215  1.00  0.00     0.018 A 
ATOM     13  C   UNL     1       6.102  26.065 -25.835  1.00  0.00     0.118 A 
ATOM     14  C   UNL     1       5.596  27.347 -26.119  1.00  0.00     0.047 A 
ATOM     15  C   UNL     1       5.263  25.118 -25.240  1.00  0.00     0.047 A 
ATOM     16  C   UNL     1       4.270  27.666 -25.809  1.00  0.00     0.016 A 
ATOM     17  C   UNL     1       3.939  25.437 -24.929  1.00  0.00     0.016 A 
BRANCH  13  18
ATOM     18  O   UNL     1       7.425  25.697 -26.125  1.00  0.00    -0.497 OA
ATOM     19  C   UNL     1       8.557  26.534 -25.910  1.00  0.00     0.278 C 
ENDBRANCH  13  18
ENDBRANCH   1  12
BRANCH   8  20
ATOM     20  O   UNL     1       0.712  25.701 -21.105  1.00  0.00    -0.490 OA
ATOM     21  C   UNL     1       2.058  25.302 -21.337  1.00  0.00     0.278 C 
ENDBRANCH   8  20
BRANCH  11  22
ATOM     22  O   UNL     1      -2.727  28.722 -24.372  1.00  0.00    -0.492 OA
ATOM     23  C   UNL     1      -3.376  28.258 -25.551  1.00  0.00     0.278 C 
ENDBRANCH  11  22
BRANCH   9  24
ATOM     24  O   UNL     1      -1.765  26.186 -20.274  1.00  0.00    -0.490 OA
ATOM     25  C   UNL     1      -1.035  25.240 -19.501  1.00  0.00     0.279 C 
ENDBRANCH   9  24
BRANCH  10  26
ATOM     26  O   UNL     1      -3.661  27.538 -21.989  1.00  0.00    -0.490 OA
ATOM     27  C   UNL     1      -4.125  28.684 -21.281  1.00  0.00     0.278 C 
ENDBRANCH  10  26
TORSDOF 6
ENDMDL
