MODEL 1
REMARK VINA RESULT:    -5.144      0.000      0.000
REMARK INTER + INTRA:          -8.974
REMARK INTER:                  -7.549
REMARK INTRA:                  -1.425
REMARK UNBOUND:                -1.425
REMARK SMILES CCCOC(=O)c1ccccc1C(=O)OCCC
REMARK SMILES IDX 7 1 8 2 9 3 10 4 11 5 12 6 5 7 6 8 4 9 3 10 2 11 1 12 13 13
REMARK SMILES IDX 14 14 15 15 16 16 17 17 18 18
REMARK H PARENT
REMARK Flexibility Score: inf
ROOT
ATOM      1  C   UNL     1      10.587  31.623  27.422  1.00  0.00     0.074 A 
ATOM      2  C   UNL     1       9.303  31.193  27.037  1.00  0.00     0.016 A 
ATOM      3  C   UNL     1       8.923  29.858  27.186  1.00  0.00     0.001 A 
ATOM      4  C   UNL     1       9.816  28.933  27.724  1.00  0.00     0.001 A 
ATOM      5  C   UNL     1      11.100  29.334  28.095  1.00  0.00     0.016 A 
ATOM      6  C   UNL     1      11.510  30.668  27.928  1.00  0.00     0.074 A 
ENDROOT
BRANCH   1   7
ATOM      7  C   UNL     1      10.895  33.072  27.358  1.00  0.00     0.339 C 
ATOM      8  O   UNL     1      10.523  33.834  28.292  1.00  0.00    -0.246 OA
BRANCH   7   9
ATOM      9  O   UNL     1      11.636  33.583  26.286  1.00  0.00    -0.462 OA
BRANCH   9  10
ATOM     10  C   UNL     1      11.066  34.341  25.220  1.00  0.00     0.233 C 
BRANCH  10  11
ATOM     11  C   UNL     1      10.209  33.453  24.311  1.00  0.00     0.038 C 
ATOM     12  C   UNL     1      11.023  32.310  23.706  1.00  0.00     0.007 C 
ENDBRANCH  10  11
ENDBRANCH   9  10
ENDBRANCH   7   9
ENDBRANCH   1   7
BRANCH   6  13
ATOM     13  C   UNL     1      12.914  31.005  28.242  1.00  0.00     0.339 C 
ATOM     14  O   UNL     1      13.758  31.126  27.313  1.00  0.00    -0.246 OA
BRANCH  13  15
ATOM     15  O   UNL     1      13.307  31.144  29.579  1.00  0.00    -0.462 OA
BRANCH  15  16
ATOM     16  C   UNL     1      12.786  32.147  30.447  1.00  0.00     0.233 C 
BRANCH  16  17
ATOM     17  C   UNL     1      11.843  31.523  31.480  1.00  0.00     0.038 C 
ATOM     18  C   UNL     1      10.383  31.780  31.125  1.00  0.00     0.007 C 
ENDBRANCH  16  17
ENDBRANCH  15  16
ENDBRANCH  13  15
ENDBRANCH   6  13
TORSDOF 8
ENDMDL
MODEL 2
REMARK VINA RESULT:    -4.920      2.133      5.254
REMARK INTER + INTRA:          -8.645
REMARK INTER:                  -7.937
REMARK INTRA:                  -0.709
REMARK UNBOUND:                -1.425
REMARK SMILES CCCOC(=O)c1ccccc1C(=O)OCCC
REMARK SMILES IDX 7 1 8 2 9 3 10 4 11 5 12 6 5 7 6 8 4 9 3 10 2 11 1 12 13 13
REMARK SMILES IDX 14 14 15 15 16 16 17 17 18 18
REMARK H PARENT
REMARK Flexibility Score: inf
ROOT
ATOM      1  C   UNL     1      10.736  32.854  26.971  1.00  0.00     0.074 A 
ATOM      2  C   UNL     1      11.313  33.927  26.266  1.00  0.00     0.016 A 
ATOM      3  C   UNL     1      11.071  34.097  24.902  1.00  0.00     0.001 A 
ATOM      4  C   UNL     1      10.249  33.201  24.221  1.00  0.00     0.001 A 
ATOM      5  C   UNL     1       9.683  32.119  24.896  1.00  0.00     0.016 A 
ATOM      6  C   UNL     1       9.935  31.916  26.264  1.00  0.00     0.074 A 
ENDROOT
BRANCH   1   7
ATOM      7  C   UNL     1      10.925  32.791  28.441  1.00  0.00     0.339 C 
ATOM      8  O   UNL     1      10.229  33.526  29.194  1.00  0.00    -0.246 OA
BRANCH   7   9
ATOM      9  O   UNL     1      11.841  31.887  28.991  1.00  0.00    -0.462 OA
BRANCH   9  10
ATOM     10  C   UNL     1      11.560  31.071  30.129  1.00  0.00     0.233 C 
BRANCH  10  11
ATOM     11  C   UNL     1      12.339  31.553  31.357  1.00  0.00     0.038 C 
ATOM     12  C   UNL     1      13.554  32.391  30.963  1.00  0.00     0.007 C 
ENDBRANCH  10  11
ENDBRANCH   9  10
ENDBRANCH   7   9
ENDBRANCH   1   7
BRANCH   6  13
ATOM     13  C   UNL     1       9.391  30.696  26.895  1.00  0.00     0.339 C 
ATOM     14  O   UNL     1      10.088  29.645  26.944  1.00  0.00    -0.246 OA
BRANCH  13  15
ATOM     15  O   UNL     1       8.084  30.703  27.397  1.00  0.00    -0.462 OA
BRANCH  15  16
ATOM     16  C   UNL     1       7.015  29.971  26.804  1.00  0.00     0.233 C 
BRANCH  16  17
ATOM     17  C   UNL     1       5.739  30.817  26.774  1.00  0.00     0.038 C 
ATOM     18  C   UNL     1       4.523  29.973  26.408  1.00  0.00     0.007 C 
ENDBRANCH  16  17
ENDBRANCH  15  16
ENDBRANCH  13  15
ENDBRANCH   6  13
TORSDOF 8
ENDMDL
MODEL 3
REMARK VINA RESULT:    -4.878      2.233      3.374
REMARK INTER + INTRA:          -8.584
REMARK INTER:                  -7.332
REMARK INTRA:                  -1.252
REMARK UNBOUND:                -1.425
REMARK SMILES CCCOC(=O)c1ccccc1C(=O)OCCC
REMARK SMILES IDX 7 1 8 2 9 3 10 4 11 5 12 6 5 7 6 8 4 9 3 10 2 11 1 12 13 13
REMARK SMILES IDX 14 14 15 15 16 16 17 17 18 18
REMARK H PARENT
REMARK Flexibility Score: inf
ROOT
ATOM      1  C   UNL     1      11.277  30.917  26.884  1.00  0.00     0.074 A 
ATOM      2  C   UNL     1      12.527  31.558  26.978  1.00  0.00     0.016 A 
ATOM      3  C   UNL     1      13.397  31.276  28.032  1.00  0.00     0.001 A 
ATOM      4  C   UNL     1      13.035  30.348  29.007  1.00  0.00     0.001 A 
ATOM      5  C   UNL     1      11.793  29.715  28.945  1.00  0.00     0.016 A 
ATOM      6  C   UNL     1      10.893  30.005  27.905  1.00  0.00     0.074 A 
ENDROOT
BRANCH   1   7
ATOM      7  C   UNL     1      10.446  31.160  25.680  1.00  0.00     0.339 C 
ATOM      8  O   UNL     1      10.467  30.335  24.726  1.00  0.00    -0.246 OA
BRANCH   7   9
ATOM      9  O   UNL     1       9.607  32.279  25.624  1.00  0.00    -0.462 OA
BRANCH   9  10
ATOM     10  C   UNL     1       9.632  33.233  24.562  1.00  0.00     0.233 C 
BRANCH  10  11
ATOM     11  C   UNL     1      11.034  33.824  24.385  1.00  0.00     0.038 C 
ATOM     12  C   UNL     1      11.403  34.760  25.535  1.00  0.00     0.007 C 
ENDBRANCH  10  11
ENDBRANCH   9  10
ENDBRANCH   7   9
ENDBRANCH   1   7
BRANCH   6  13
ATOM     13  C   UNL     1       9.555  29.380  27.954  1.00  0.00     0.339 C 
ATOM     14  O   UNL     1       9.376  28.231  27.467  1.00  0.00    -0.246 OA
BRANCH  13  15
ATOM     15  O   UNL     1       8.482  30.091  28.505  1.00  0.00    -0.462 OA
BRANCH  15  16
ATOM     16  C   UNL     1       8.316  30.295  29.906  1.00  0.00     0.233 C 
BRANCH  16  17
ATOM     17  C   UNL     1       8.716  31.723  30.290  1.00  0.00     0.038 C 
ATOM     18  C   UNL     1       9.955  31.730  31.179  1.00  0.00     0.007 C 
ENDBRANCH  16  17
ENDBRANCH  15  16
ENDBRANCH  13  15
ENDBRANCH   6  13
TORSDOF 8
ENDMDL
MODEL 4
REMARK VINA RESULT:    -4.859      9.309     11.130
REMARK INTER + INTRA:          -8.556
REMARK INTER:                  -7.434
REMARK INTRA:                  -1.122
REMARK UNBOUND:                -1.425
REMARK SMILES CCCOC(=O)c1ccccc1C(=O)OCCC
REMARK SMILES IDX 7 1 8 2 9 3 10 4 11 5 12 6 5 7 6 8 4 9 3 10 2 11 1 12 13 13
REMARK SMILES IDX 14 14 15 15 16 16 17 17 18 18
REMARK H PARENT
REMARK Flexibility Score: inf
ROOT
ATOM      1  C   UNL     1       4.403  29.884  20.239  1.00  0.00     0.074 A 
ATOM      2  C   UNL     1       3.762  29.591  21.458  1.00  0.00     0.016 A 
ATOM      3  C   UNL     1       4.377  28.775  22.409  1.00  0.00     0.001 A 
ATOM      4  C   UNL     1       5.641  28.242  22.161  1.00  0.00     0.001 A 
ATOM      5  C   UNL     1       6.286  28.504  20.952  1.00  0.00     0.016 A 
ATOM      6  C   UNL     1       5.672  29.302  19.970  1.00  0.00     0.074 A 
ENDROOT
BRANCH   1   7
ATOM      7  C   UNL     1       3.761  30.854  19.318  1.00  0.00     0.339 C 
ATOM      8  O   UNL     1       2.948  30.445  18.445  1.00  0.00    -0.246 OA
BRANCH   7   9
ATOM      9  O   UNL     1       4.023  32.223  19.450  1.00  0.00    -0.462 OA
BRANCH   9  10
ATOM     10  C   UNL     1       3.408  33.227  18.644  1.00  0.00     0.233 C 
BRANCH  10  11
ATOM     11  C   UNL     1       3.980  34.613  18.959  1.00  0.00     0.038 C 
ATOM     12  C   UNL     1       5.333  34.520  19.661  1.00  0.00     0.007 C 
ENDBRANCH  10  11
ENDBRANCH   9  10
ENDBRANCH   7   9
ENDBRANCH   1   7
BRANCH   6  13
ATOM     13  C   UNL     1       6.361  29.455  18.673  1.00  0.00     0.339 C 
ATOM     14  O   UNL     1       6.965  30.529  18.400  1.00  0.00    -0.246 OA
BRANCH  13  15
ATOM     15  O   UNL     1       6.302  28.418  17.734  1.00  0.00    -0.462 OA
BRANCH  15  16
ATOM     16  C   UNL     1       5.084  27.793  17.336  1.00  0.00     0.233 C 
BRANCH  16  17
ATOM     17  C   UNL     1       4.955  26.412  17.986  1.00  0.00     0.038 C 
ATOM     18  C   UNL     1       3.777  26.363  18.954  1.00  0.00     0.007 C 
ENDBRANCH  16  17
ENDBRANCH  15  16
ENDBRANCH  13  15
ENDBRANCH   6  13
TORSDOF 8
ENDMDL
MODEL 5
REMARK VINA RESULT:    -4.830      2.372      4.423
REMARK INTER + INTRA:          -8.514
REMARK INTER:                  -7.564
REMARK INTRA:                  -0.950
REMARK UNBOUND:                -1.425
REMARK SMILES CCCOC(=O)c1ccccc1C(=O)OCCC
REMARK SMILES IDX 7 1 8 2 9 3 10 4 11 5 12 6 5 7 6 8 4 9 3 10 2 11 1 12 13 13
REMARK SMILES IDX 14 14 15 15 16 16 17 17 18 18
REMARK H PARENT
REMARK Flexibility Score: inf
ROOT
ATOM      1  C   UNL     1       9.690  31.743  26.533  1.00  0.00     0.074 A 
ATOM      2  C   UNL     1       9.587  31.965  25.146  1.00  0.00     0.016 A 
ATOM      3  C   UNL     1      10.268  33.021  24.540  1.00  0.00     0.001 A 
ATOM      4  C   UNL     1      11.065  33.870  25.306  1.00  0.00     0.001 A 
ATOM      5  C   UNL     1      11.167  33.681  26.684  1.00  0.00     0.016 A 
ATOM      6  C   UNL     1      10.467  32.638  27.317  1.00  0.00     0.074 A 
ENDROOT
BRANCH   1   7
ATOM      7  C   UNL     1       9.047  30.535  27.105  1.00  0.00     0.339 C 
ATOM      8  O   UNL     1       9.729  29.491  27.294  1.00  0.00    -0.246 OA
BRANCH   7   9
ATOM      9  O   UNL     1       7.697  30.571  27.476  1.00  0.00    -0.462 OA
BRANCH   9  10
ATOM     10  C   UNL     1       6.630  30.169  26.617  1.00  0.00     0.233 C 
BRANCH  10  11
ATOM     11  C   UNL     1       5.309  30.817  27.040  1.00  0.00     0.038 C 
ATOM     12  C   UNL     1       4.125  29.872  26.841  1.00  0.00     0.007 C 
ENDBRANCH  10  11
ENDBRANCH   9  10
ENDBRANCH   7   9
ENDBRANCH   1   7
BRANCH   6  13
ATOM     13  C   UNL     1      10.533  32.555  28.791  1.00  0.00     0.339 C 
ATOM     14  O   UNL     1       9.526  32.858  29.487  1.00  0.00    -0.246 OA
BRANCH  13  15
ATOM     15  O   UNL     1      11.734  32.181  29.407  1.00  0.00    -0.462 OA
BRANCH  15  16
ATOM     16  C   UNL     1      12.022  30.845  29.811  1.00  0.00     0.233 C 
BRANCH  16  17
ATOM     17  C   UNL     1      12.890  30.144  28.761  1.00  0.00     0.038 C 
ATOM     18  C   UNL     1      13.843  31.126  28.086  1.00  0.00     0.007 C 
ENDBRANCH  16  17
ENDBRANCH  15  16
ENDBRANCH  13  15
ENDBRANCH   6  13
TORSDOF 8
ENDMDL
MODEL 6
REMARK VINA RESULT:    -4.824      2.100      4.351
REMARK INTER + INTRA:          -8.506
REMARK INTER:                  -7.389
REMARK INTRA:                  -1.117
REMARK UNBOUND:                -1.425
REMARK SMILES CCCOC(=O)c1ccccc1C(=O)OCCC
REMARK SMILES IDX 7 1 8 2 9 3 10 4 11 5 12 6 5 7 6 8 4 9 3 10 2 11 1 12 13 13
REMARK SMILES IDX 14 14 15 15 16 16 17 17 18 18
REMARK H PARENT
REMARK Flexibility Score: inf
ROOT
ATOM      1  C   UNL     1      10.540  31.949  25.051  1.00  0.00     0.074 A 
ATOM      2  C   UNL     1      10.667  32.994  24.116  1.00  0.00     0.016 A 
ATOM      3  C   UNL     1      11.085  34.263  24.518  1.00  0.00     0.001 A 
ATOM      4  C   UNL     1      11.387  34.509  25.856  1.00  0.00     0.001 A 
ATOM      5  C   UNL     1      11.250  33.494  26.802  1.00  0.00     0.016 A 
ATOM      6  C   UNL     1      10.805  32.215  26.422  1.00  0.00     0.074 A 
ENDROOT
BRANCH   1   7
ATOM      7  C   UNL     1      10.213  30.591  24.553  1.00  0.00     0.339 C 
ATOM      8  O   UNL     1      11.111  29.888  24.013  1.00  0.00    -0.246 OA
BRANCH   7   9
ATOM      9  O   UNL     1       8.923  30.075  24.723  1.00  0.00    -0.462 OA
BRANCH   9  10
ATOM     10  C   UNL     1       8.652  28.710  25.039  1.00  0.00     0.233 C 
BRANCH  10  11
ATOM     11  C   UNL     1       8.015  28.583  26.427  1.00  0.00     0.038 C 
ATOM     12  C   UNL     1       8.916  27.819  27.395  1.00  0.00     0.007 C 
ENDBRANCH  10  11
ENDBRANCH   9  10
ENDBRANCH   7   9
ENDBRANCH   1   7
BRANCH   6  13
ATOM     13  C   UNL     1      10.581  31.216  27.487  1.00  0.00     0.339 C 
ATOM     14  O   UNL     1       9.516  31.238  28.162  1.00  0.00    -0.246 OA
BRANCH  13  15
ATOM     15  O   UNL     1      11.578  30.273  27.768  1.00  0.00    -0.462 OA
BRANCH  15  16
ATOM     16  C   UNL     1      12.205  30.155  29.042  1.00  0.00     0.233 C 
BRANCH  16  17
ATOM     17  C   UNL     1      13.056  31.394  29.337  1.00  0.00     0.038 C 
ATOM     18  C   UNL     1      12.558  32.125  30.578  1.00  0.00     0.007 C 
ENDBRANCH  16  17
ENDBRANCH  15  16
ENDBRANCH  13  15
ENDBRANCH   6  13
TORSDOF 8
ENDMDL
MODEL 7
REMARK VINA RESULT:    -4.799      2.260      5.106
REMARK INTER + INTRA:          -8.468
REMARK INTER:                  -7.521
REMARK INTRA:                  -0.947
REMARK UNBOUND:                -1.425
REMARK SMILES CCCOC(=O)c1ccccc1C(=O)OCCC
REMARK SMILES IDX 7 1 8 2 9 3 10 4 11 5 12 6 5 7 6 8 4 9 3 10 2 11 1 12 13 13
REMARK SMILES IDX 14 14 15 15 16 16 17 17 18 18
REMARK H PARENT
REMARK Flexibility Score: inf
ROOT
ATOM      1  C   UNL     1      10.595  32.086  26.621  1.00  0.00     0.074 A 
ATOM      2  C   UNL     1      11.131  33.364  26.871  1.00  0.00     0.016 A 
ATOM      3  C   UNL     1      11.238  34.305  25.846  1.00  0.00     0.001 A 
ATOM      4  C   UNL     1      10.809  33.989  24.558  1.00  0.00     0.001 A 
ATOM      5  C   UNL     1      10.292  32.722  24.284  1.00  0.00     0.016 A 
ATOM      6  C   UNL     1      10.201  31.751  25.297  1.00  0.00     0.074 A 
ENDROOT
BRANCH   1   7
ATOM      7  C   UNL     1      10.390  31.169  27.768  1.00  0.00     0.339 C 
ATOM      8  O   UNL     1       9.322  31.231  28.438  1.00  0.00    -0.246 OA
BRANCH   7   9
ATOM      9  O   UNL     1      11.359  30.208  28.078  1.00  0.00    -0.462 OA
BRANCH   9  10
ATOM     10  C   UNL     1      12.129  30.219  29.280  1.00  0.00     0.233 C 
BRANCH  10  11
ATOM     11  C   UNL     1      13.207  31.308  29.233  1.00  0.00     0.038 C 
ATOM     12  C   UNL     1      14.067  31.198  27.976  1.00  0.00     0.007 C 
ENDBRANCH  10  11
ENDBRANCH   9  10
ENDBRANCH   7   9
ENDBRANCH   1   7
BRANCH   6  13
ATOM     13  C   UNL     1       9.743  30.398  24.919  1.00  0.00     0.339 C 
ATOM     14  O   UNL     1      10.406  29.715  24.091  1.00  0.00    -0.246 OA
BRANCH  13  15
ATOM     15  O   UNL     1       8.548  29.901  25.453  1.00  0.00    -0.462 OA
BRANCH  15  16
ATOM     16  C   UNL     1       8.278  28.510  25.603  1.00  0.00     0.233 C 
BRANCH  16  17
ATOM     17  C   UNL     1       8.675  28.036  27.005  1.00  0.00     0.038 C 
ATOM     18  C   UNL     1       8.734  26.514  27.080  1.00  0.00     0.007 C 
ENDBRANCH  16  17
ENDBRANCH  15  16
ENDBRANCH  13  15
ENDBRANCH   6  13
TORSDOF 8
ENDMDL
MODEL 8
REMARK VINA RESULT:    -4.759      2.457      4.289
REMARK INTER + INTRA:          -8.410
REMARK INTER:                  -7.606
REMARK INTRA:                  -0.804
REMARK UNBOUND:                -1.425
REMARK SMILES CCCOC(=O)c1ccccc1C(=O)OCCC
REMARK SMILES IDX 7 1 8 2 9 3 10 4 11 5 12 6 5 7 6 8 4 9 3 10 2 11 1 12 13 13
REMARK SMILES IDX 14 14 15 15 16 16 17 17 18 18
REMARK H PARENT
REMARK Flexibility Score: inf
ROOT
ATOM      1  C   UNL     1      11.628  30.841  26.909  1.00  0.00     0.074 A 
ATOM      2  C   UNL     1      12.794  31.545  27.264  1.00  0.00     0.016 A 
ATOM      3  C   UNL     1      13.230  31.581  28.590  1.00  0.00     0.001 A 
ATOM      4  C   UNL     1      12.512  30.912  29.580  1.00  0.00     0.001 A 
ATOM      5  C   UNL     1      11.344  30.224  29.253  1.00  0.00     0.016 A 
ATOM      6  C   UNL     1      10.874  30.198  27.928  1.00  0.00     0.074 A 
ENDROOT
BRANCH   1   7
ATOM      7  C   UNL     1      11.279  30.732  25.472  1.00  0.00     0.339 C 
ATOM      8  O   UNL     1      12.078  30.171  24.673  1.00  0.00    -0.246 OA
BRANCH   7   9
ATOM      9  O   UNL     1      10.046  31.211  25.013  1.00  0.00    -0.462 OA
BRANCH   9  10
ATOM     10  C   UNL     1       9.546  32.516  25.304  1.00  0.00     0.233 C 
BRANCH  10  11
ATOM     11  C   UNL     1      10.149  33.560  24.359  1.00  0.00     0.038 C 
ATOM     12  C   UNL     1      11.155  34.459  25.077  1.00  0.00     0.007 C 
ENDBRANCH  10  11
ENDBRANCH   9  10
ENDBRANCH   7   9
ENDBRANCH   1   7
BRANCH   6  13
ATOM     13  C   UNL     1       9.577  29.541  27.666  1.00  0.00     0.339 C 
ATOM     14  O   UNL     1       9.540  28.326  27.330  1.00  0.00    -0.246 OA
BRANCH  13  15
ATOM     15  O   UNL     1       8.396  30.288  27.752  1.00  0.00    -0.462 OA
BRANCH  15  16
ATOM     16  C   UNL     1       7.254  30.042  26.934  1.00  0.00     0.233 C 
BRANCH  16  17
ATOM     17  C   UNL     1       5.970  30.412  27.683  1.00  0.00     0.038 C 
ATOM     18  C   UNL     1       4.859  30.807  26.715  1.00  0.00     0.007 C 
ENDBRANCH  16  17
ENDBRANCH  15  16
ENDBRANCH  13  15
ENDBRANCH   6  13
TORSDOF 8
ENDMDL
MODEL 9
REMARK VINA RESULT:    -4.752      2.434      5.340
REMARK INTER + INTRA:          -8.400
REMARK INTER:                  -7.580
REMARK INTRA:                  -0.819
REMARK UNBOUND:                -1.425
REMARK SMILES CCCOC(=O)c1ccccc1C(=O)OCCC
REMARK SMILES IDX 7 1 8 2 9 3 10 4 11 5 12 6 5 7 6 8 4 9 3 10 2 11 1 12 13 13
REMARK SMILES IDX 14 14 15 15 16 16 17 17 18 18
REMARK H PARENT
REMARK Flexibility Score: inf
ROOT
ATOM      1  C   UNL     1      10.910  30.187  28.058  1.00  0.00     0.074 A 
ATOM      2  C   UNL     1      11.404  30.254  29.375  1.00  0.00     0.016 A 
ATOM      3  C   UNL     1      12.572  30.961  29.664  1.00  0.00     0.001 A 
ATOM      4  C   UNL     1      13.264  31.614  28.646  1.00  0.00     0.001 A 
ATOM      5  C   UNL     1      12.803  31.545  27.331  1.00  0.00     0.016 A 
ATOM      6  C   UNL     1      11.643  30.816  27.015  1.00  0.00     0.074 A 
ENDROOT
BRANCH   1   7
ATOM      7  C   UNL     1       9.601  29.529  27.827  1.00  0.00     0.339 C 
ATOM      8  O   UNL     1       8.534  30.181  27.994  1.00  0.00    -0.246 OA
BRANCH   7   9
ATOM      9  O   UNL     1       9.554  28.203  27.381  1.00  0.00    -0.462 OA
BRANCH   9  10
ATOM     10  C   UNL     1       8.366  27.570  26.906  1.00  0.00     0.233 C 
BRANCH  10  11
ATOM     11  C   UNL     1       7.964  26.403  27.813  1.00  0.00     0.038 C 
ATOM     12  C   UNL     1       7.052  26.859  28.951  1.00  0.00     0.007 C 
ENDBRANCH  10  11
ENDBRANCH   9  10
ENDBRANCH   7   9
ENDBRANCH   1   7
BRANCH   6  13
ATOM     13  C   UNL     1      11.267  30.696  25.592  1.00  0.00     0.339 C 
ATOM     14  O   UNL     1      12.098  30.251  24.754  1.00  0.00    -0.246 OA
BRANCH  13  15
ATOM     15  O   UNL     1       9.999  31.120  25.176  1.00  0.00    -0.462 OA
BRANCH  15  16
ATOM     16  C   UNL     1       9.567  32.476  25.242  1.00  0.00     0.233 C 
BRANCH  16  17
ATOM     17  C   UNL     1      10.425  33.356  24.327  1.00  0.00     0.038 C 
ATOM     18  C   UNL     1      11.194  34.402  25.127  1.00  0.00     0.007 C 
ENDBRANCH  16  17
ENDBRANCH  15  16
ENDBRANCH  13  15
ENDBRANCH   6  13
TORSDOF 8
ENDMDL
