MODEL 1
REMARK VINA RESULT:    -3.279      0.000      0.000
REMARK INTER + INTRA:          -4.703
REMARK INTER:                  -4.429
REMARK INTRA:                  -0.274
REMARK UNBOUND:                -0.274
REMARK SMILES CCCCCCCC(=O)[O-]
REMARK SMILES IDX 5 1 6 2 7 3 8 4 9 5 10 6 4 7 3 8 2 9 1 10
REMARK H PARENT
REMARK Flexibility Score: inf
ROOT
ATOM      1  C   UNL     1     -95.249 147.941 240.751  1.00  0.00     0.000 C 
ENDROOT
BRANCH   1   2
ATOM      2  C   UNL     1     -95.150 148.217 242.263  1.00  0.00     0.006 C 
BRANCH   2   3
ATOM      3  C   UNL     1     -96.344 147.696 243.078  1.00  0.00     0.053 C 
BRANCH   3   4
ATOM      4  C   UNL     1     -97.080 148.806 243.765  1.00  0.00     0.041 C 
ATOM      5  O   UNL     1     -97.297 148.752 245.004  1.00  0.00    -0.550 OA
ATOM      6  O   UNL     1     -97.554 149.885 243.030  1.00  0.00    -0.550 OA
ENDBRANCH   3   4
ENDBRANCH   2   3
ENDBRANCH   1   2
BRANCH   1   7
ATOM      7  C   UNL     1     -93.898 147.550 240.128  1.00  0.00     0.000 C 
BRANCH   7   8
ATOM      8  C   UNL     1     -92.875 147.092 241.179  1.00  0.00    -0.000 C 
BRANCH   8   9
ATOM      9  C   UNL     1     -92.718 145.564 241.222  1.00  0.00    -0.003 C 
ATOM     10  C   UNL     1     -91.422 145.127 240.546  1.00  0.00     0.004 C 
ENDBRANCH   8   9
ENDBRANCH   7   8
ENDBRANCH   1   7
TORSDOF 6
ENDMDL
MODEL 2
REMARK VINA RESULT:    -3.159      1.863      2.022
REMARK INTER + INTRA:          -4.541
REMARK INTER:                  -4.106
REMARK INTRA:                  -0.435
REMARK UNBOUND:                -0.274
REMARK SMILES CCCCCCCC(=O)[O-]
REMARK SMILES IDX 5 1 6 2 7 3 8 4 9 5 10 6 4 7 3 8 2 9 1 10
REMARK H PARENT
REMARK Flexibility Score: inf
ROOT
ATOM      1  C   UNL     1     -95.114 147.971 240.685  1.00  0.00     0.000 C 
ENDROOT
BRANCH   1   2
ATOM      2  C   UNL     1     -95.040 148.253 242.197  1.00  0.00     0.006 C 
BRANCH   2   3
ATOM      3  C   UNL     1     -96.287 147.814 242.981  1.00  0.00     0.053 C 
BRANCH   3   4
ATOM      4  C   UNL     1     -96.406 146.322 243.054  1.00  0.00     0.041 C 
ATOM      5  O   UNL     1     -95.417 145.623 243.398  1.00  0.00    -0.550 OA
ATOM      6  O   UNL     1     -97.600 145.702 242.710  1.00  0.00    -0.550 OA
ENDBRANCH   3   4
ENDBRANCH   2   3
ENDBRANCH   1   2
BRANCH   1   7
ATOM      7  C   UNL     1     -93.831 147.320 240.139  1.00  0.00     0.000 C 
BRANCH   7   8
ATOM      8  C   UNL     1     -92.866 146.893 241.256  1.00  0.00    -0.000 C 
BRANCH   8   9
ATOM      9  C   UNL     1     -92.600 145.380 241.258  1.00  0.00    -0.003 C 
ATOM     10  C   UNL     1     -91.293 145.051 240.544  1.00  0.00     0.004 C 
ENDBRANCH   8   9
ENDBRANCH   7   8
ENDBRANCH   1   7
TORSDOF 6
ENDMDL
MODEL 3
REMARK VINA RESULT:    -3.132      3.497      5.438
REMARK INTER + INTRA:          -4.504
REMARK INTER:                  -4.270
REMARK INTRA:                  -0.234
REMARK UNBOUND:                -0.274
REMARK SMILES CCCCCCCC(=O)[O-]
REMARK SMILES IDX 5 1 6 2 7 3 8 4 9 5 10 6 4 7 3 8 2 9 1 10
REMARK H PARENT
REMARK Flexibility Score: inf
ROOT
ATOM      1  C   UNL     1     -95.400 147.926 240.943  1.00  0.00     0.000 C 
ENDROOT
BRANCH   1   2
ATOM      2  C   UNL     1     -94.015 147.782 240.284  1.00  0.00     0.006 C 
BRANCH   2   3
ATOM      3  C   UNL     1     -92.985 147.029 241.140  1.00  0.00     0.053 C 
BRANCH   3   4
ATOM      4  C   UNL     1     -92.485 145.792 240.457  1.00  0.00     0.041 C 
ATOM      5  O   UNL     1     -91.508 145.156 240.933  1.00  0.00    -0.550 OA
ATOM      6  O   UNL     1     -93.077 145.363 239.276  1.00  0.00    -0.550 OA
ENDBRANCH   3   4
ENDBRANCH   2   3
ENDBRANCH   1   2
BRANCH   1   7
ATOM      7  C   UNL     1     -95.312 148.295 242.434  1.00  0.00     0.000 C 
BRANCH   7   8
ATOM      8  C   UNL     1     -96.508 149.135 242.906  1.00  0.00    -0.000 C 
BRANCH   8   9
ATOM      9  C   UNL     1     -97.109 148.619 244.222  1.00  0.00    -0.003 C 
ATOM     10  C   UNL     1     -97.136 147.094 244.253  1.00  0.00     0.004 C 
ENDBRANCH   8   9
ENDBRANCH   7   8
ENDBRANCH   1   7
TORSDOF 6
ENDMDL
MODEL 4
REMARK VINA RESULT:    -3.127      1.122      2.253
REMARK INTER + INTRA:          -4.498
REMARK INTER:                  -4.047
REMARK INTRA:                  -0.451
REMARK UNBOUND:                -0.274
REMARK SMILES CCCCCCCC(=O)[O-]
REMARK SMILES IDX 5 1 6 2 7 3 8 4 9 5 10 6 4 7 3 8 2 9 1 10
REMARK H PARENT
REMARK Flexibility Score: inf
ROOT
ATOM      1  C   UNL     1     -94.603 146.349 242.666  1.00  0.00     0.000 C 
ENDROOT
BRANCH   1   2
ATOM      2  C   UNL     1     -96.006 146.946 242.887  1.00  0.00     0.006 C 
BRANCH   2   3
ATOM      3  C   UNL     1     -96.063 148.478 242.776  1.00  0.00     0.053 C 
BRANCH   3   4
ATOM      4  C   UNL     1     -97.183 149.057 243.586  1.00  0.00     0.041 C 
ATOM      5  O   UNL     1     -98.023 149.824 243.048  1.00  0.00    -0.550 OA
ATOM      6  O   UNL     1     -97.278 148.774 244.942  1.00  0.00    -0.550 OA
ENDBRANCH   3   4
ENDBRANCH   2   3
ENDBRANCH   1   2
BRANCH   1   7
ATOM      7  C   UNL     1     -93.623 147.353 242.036  1.00  0.00     0.000 C 
BRANCH   7   8
ATOM      8  C   UNL     1     -92.928 146.792 240.785  1.00  0.00    -0.000 C 
BRANCH   8   9
ATOM      9  C   UNL     1     -93.816 146.868 239.534  1.00  0.00    -0.003 C 
ATOM     10  C   UNL     1     -94.482 148.235 239.415  1.00  0.00     0.004 C 
ENDBRANCH   8   9
ENDBRANCH   7   8
ENDBRANCH   1   7
TORSDOF 6
ENDMDL
MODEL 5
REMARK VINA RESULT:    -3.092      3.345      4.369
REMARK INTER + INTRA:          -4.450
REMARK INTER:                  -3.835
REMARK INTRA:                  -0.615
REMARK UNBOUND:                -0.274
REMARK SMILES CCCCCCCC(=O)[O-]
REMARK SMILES IDX 5 1 6 2 7 3 8 4 9 5 10 6 4 7 3 8 2 9 1 10
REMARK H PARENT
REMARK Flexibility Score: inf
ROOT
ATOM      1  C   UNL     1     -95.016 147.979 241.802  1.00  0.00     0.000 C 
ENDROOT
BRANCH   1   2
ATOM      2  C   UNL     1     -95.493 147.856 240.342  1.00  0.00     0.006 C 
BRANCH   2   3
ATOM      3  C   UNL     1     -94.358 147.866 239.306  1.00  0.00     0.053 C 
BRANCH   3   4
ATOM      4  C   UNL     1     -94.355 146.625 238.466  1.00  0.00     0.041 C 
ATOM      5  O   UNL     1     -93.689 146.583 237.399  1.00  0.00    -0.550 OA
ATOM      6  O   UNL     1     -95.115 145.526 238.848  1.00  0.00    -0.550 OA
ENDBRANCH   3   4
ENDBRANCH   2   3
ENDBRANCH   1   2
BRANCH   1   7
ATOM      7  C   UNL     1     -93.615 147.383 242.021  1.00  0.00     0.000 C 
BRANCH   7   8
ATOM      8  C   UNL     1     -93.659 146.006 242.700  1.00  0.00    -0.000 C 
BRANCH   8   9
ATOM      9  C   UNL     1     -93.190 144.875 241.772  1.00  0.00    -0.003 C 
ATOM     10  C   UNL     1     -91.939 145.282 241.000  1.00  0.00     0.004 C 
ENDBRANCH   8   9
ENDBRANCH   7   8
ENDBRANCH   1   7
TORSDOF 6
ENDMDL
MODEL 6
REMARK VINA RESULT:    -3.065      2.856      5.253
REMARK INTER + INTRA:          -4.414
REMARK INTER:                  -4.025
REMARK INTRA:                  -0.389
REMARK UNBOUND:                -0.274
REMARK SMILES CCCCCCCC(=O)[O-]
REMARK SMILES IDX 5 1 6 2 7 3 8 4 9 5 10 6 4 7 3 8 2 9 1 10
REMARK H PARENT
REMARK Flexibility Score: inf
ROOT
ATOM      1  C   UNL     1     -94.792 146.310 242.547  1.00  0.00     0.000 C 
ENDROOT
BRANCH   1   2
ATOM      2  C   UNL     1     -93.628 147.222 242.117  1.00  0.00     0.006 C 
BRANCH   2   3
ATOM      3  C   UNL     1     -92.900 146.757 240.847  1.00  0.00     0.053 C 
BRANCH   3   4
ATOM      4  C   UNL     1     -93.690 147.052 239.608  1.00  0.00     0.041 C 
ATOM      5  O   UNL     1     -93.666 146.253 238.635  1.00  0.00    -0.550 OA
ATOM      6  O   UNL     1     -94.427 148.226 239.516  1.00  0.00    -0.550 OA
ENDBRANCH   3   4
ENDBRANCH   2   3
ENDBRANCH   1   2
BRANCH   1   7
ATOM      7  C   UNL     1     -96.091 147.090 242.812  1.00  0.00     0.000 C 
BRANCH   7   8
ATOM      8  C   UNL     1     -95.900 148.610 242.699  1.00  0.00    -0.000 C 
BRANCH   8   9
ATOM      9  C   UNL     1     -97.116 149.397 243.212  1.00  0.00    -0.003 C 
ATOM     10  C   UNL     1     -97.584 148.866 244.563  1.00  0.00     0.004 C 
ENDBRANCH   8   9
ENDBRANCH   7   8
ENDBRANCH   1   7
TORSDOF 6
ENDMDL
MODEL 7
REMARK VINA RESULT:    -3.009      3.742      5.720
REMARK INTER + INTRA:          -4.338
REMARK INTER:                  -3.964
REMARK INTRA:                  -0.374
REMARK UNBOUND:                -0.274
REMARK SMILES CCCCCCCC(=O)[O-]
REMARK SMILES IDX 5 1 6 2 7 3 8 4 9 5 10 6 4 7 3 8 2 9 1 10
REMARK H PARENT
REMARK Flexibility Score: inf
ROOT
ATOM      1  C   UNL     1     -92.924 145.033 241.757  1.00  0.00     0.000 C 
ENDROOT
BRANCH   1   2
ATOM      2  C   UNL     1     -92.064 145.781 240.721  1.00  0.00     0.006 C 
BRANCH   2   3
ATOM      3  C   UNL     1     -91.906 145.042 239.383  1.00  0.00     0.053 C 
BRANCH   3   4
ATOM      4  C   UNL     1     -92.906 145.503 238.367  1.00  0.00     0.041 C 
ATOM      5  O   UNL     1     -93.045 144.875 237.284  1.00  0.00    -0.550 OA
ATOM      6  O   UNL     1     -93.661 146.644 238.602  1.00  0.00    -0.550 OA
ENDBRANCH   3   4
ENDBRANCH   2   3
ENDBRANCH   1   2
BRANCH   1   7
ATOM      7  C   UNL     1     -93.873 145.968 242.526  1.00  0.00     0.000 C 
BRANCH   7   8
ATOM      8  C   UNL     1     -93.751 147.432 242.078  1.00  0.00    -0.000 C 
BRANCH   8   9
ATOM      9  C   UNL     1     -95.087 148.014 241.593  1.00  0.00    -0.003 C 
ATOM     10  C   UNL     1     -95.871 148.627 242.749  1.00  0.00     0.004 C 
ENDBRANCH   8   9
ENDBRANCH   7   8
ENDBRANCH   1   7
TORSDOF 6
ENDMDL
MODEL 8
REMARK VINA RESULT:    -3.007      1.065      1.717
REMARK INTER + INTRA:          -4.335
REMARK INTER:                  -4.131
REMARK INTRA:                  -0.204
REMARK UNBOUND:                -0.274
REMARK SMILES CCCCCCCC(=O)[O-]
REMARK SMILES IDX 5 1 6 2 7 3 8 4 9 5 10 6 4 7 3 8 2 9 1 10
REMARK H PARENT
REMARK Flexibility Score: inf
ROOT
ATOM      1  C   UNL     1     -95.161 148.264 242.095  1.00  0.00     0.000 C 
ENDROOT
BRANCH   1   2
ATOM      2  C   UNL     1     -96.526 148.053 242.775  1.00  0.00     0.006 C 
BRANCH   2   3
ATOM      3  C   UNL     1     -96.968 149.218 243.675  1.00  0.00     0.053 C 
BRANCH   3   4
ATOM      4  C   UNL     1     -97.582 148.736 244.954  1.00  0.00     0.041 C 
ATOM      5  O   UNL     1     -98.292 149.511 245.648  1.00  0.00    -0.550 OA
ATOM      6  O   UNL     1     -97.342 147.442 245.397  1.00  0.00    -0.550 OA
ENDBRANCH   3   4
ENDBRANCH   2   3
ENDBRANCH   1   2
BRANCH   1   7
ATOM      7  C   UNL     1     -95.163 147.841 240.615  1.00  0.00     0.000 C 
BRANCH   7   8
ATOM      8  C   UNL     1     -93.755 147.521 240.091  1.00  0.00    -0.000 C 
BRANCH   8   9
ATOM      9  C   UNL     1     -92.829 146.973 241.188  1.00  0.00    -0.003 C 
ATOM     10  C   UNL     1     -92.262 145.612 240.798  1.00  0.00     0.004 C 
ENDBRANCH   8   9
ENDBRANCH   7   8
ENDBRANCH   1   7
TORSDOF 6
ENDMDL
MODEL 9
REMARK VINA RESULT:    -2.869      1.621      2.670
REMARK INTER + INTRA:          -4.149
REMARK INTER:                  -3.615
REMARK INTRA:                  -0.535
REMARK UNBOUND:                -0.274
REMARK SMILES CCCCCCCC(=O)[O-]
REMARK SMILES IDX 5 1 6 2 7 3 8 4 9 5 10 6 4 7 3 8 2 9 1 10
REMARK H PARENT
REMARK Flexibility Score: inf
ROOT
ATOM      1  C   UNL     1     -93.934 146.030 242.784  1.00  0.00     0.000 C 
ENDROOT
BRANCH   1   2
ATOM      2  C   UNL     1     -95.344 145.467 243.044  1.00  0.00     0.006 C 
BRANCH   2   3
ATOM      3  C   UNL     1     -96.350 146.505 243.566  1.00  0.00     0.053 C 
BRANCH   3   4
ATOM      4  C   UNL     1     -96.496 147.664 242.627  1.00  0.00     0.041 C 
ATOM      5  O   UNL     1     -97.079 147.515 241.521  1.00  0.00    -0.550 OA
ATOM      6  O   UNL     1     -95.960 148.901 242.962  1.00  0.00    -0.550 OA
ENDBRANCH   3   4
ENDBRANCH   2   3
ENDBRANCH   1   2
BRANCH   1   7
ATOM      7  C   UNL     1     -93.156 145.220 241.733  1.00  0.00     0.000 C 
BRANCH   7   8
ATOM      8  C   UNL     1     -92.896 146.020 240.447  1.00  0.00    -0.000 C 
BRANCH   8   9
ATOM      9  C   UNL     1     -93.403 147.467 240.540  1.00  0.00    -0.003 C 
ATOM     10  C   UNL     1     -94.318 147.804 239.366  1.00  0.00     0.004 C 
ENDBRANCH   8   9
ENDBRANCH   7   8
ENDBRANCH   1   7
TORSDOF 6
ENDMDL
