MODEL 1
REMARK VINA RESULT:    -5.702      0.000      0.000
REMARK INTER + INTRA:          -6.830
REMARK INTER:                  -6.702
REMARK INTRA:                  -0.127
REMARK UNBOUND:                -0.127
REMARK SMILES O=C([O-])C=Cc1ccc(O)c(O)c1
REMARK SMILES IDX 6 1 13 2 7 3 11 4 8 5 9 6 5 7 4 8 2 9 1 10 3 11 12 12 10 14
REMARK H PARENT 12 13 10 15
REMARK Flexibility Score: inf
ROOT
ATOM      1  C   UNL     1      54.634   2.433  -6.323  1.00  0.00    -0.022 A 
ATOM      2  C   UNL     1      54.238   2.048  -7.616  1.00  0.00     0.058 A 
ATOM      3  C   UNL     1      54.841   3.801  -6.055  1.00  0.00     0.012 A 
ATOM      4  C   UNL     1      54.075   3.002  -8.629  1.00  0.00     0.157 A 
ATOM      5  C   UNL     1      54.677   4.752  -7.067  1.00  0.00     0.051 A 
ATOM      6  C   UNL     1      54.298   4.357  -8.355  1.00  0.00     0.157 A 
ENDROOT
BRANCH   1   7
ATOM      7  C   UNL     1      54.782   1.384  -5.283  1.00  0.00     0.010 C 
ATOM      8  C   UNL     1      55.961   0.877  -4.901  1.00  0.00     0.025 C 
BRANCH   8   9
ATOM      9  C   UNL     1      56.060  -0.172  -3.873  1.00  0.00     0.064 C 
ATOM     10  O   UNL     1      55.971   0.140  -2.657  1.00  0.00    -0.545 OA
ATOM     11  O   UNL     1      56.248  -1.504  -4.223  1.00  0.00    -0.545 OA
ENDBRANCH   8   9
ENDBRANCH   1   7
BRANCH   4  12
ATOM     12  O   UNL     1      53.692   2.611  -9.911  1.00  0.00    -0.504 OA
ATOM     13  H   UNL     1      54.142   1.838 -10.387  1.00  0.00     0.293 HD
ENDBRANCH   4  12
BRANCH   6  14
ATOM     14  O   UNL     1      54.136   5.303  -9.365  1.00  0.00    -0.504 OA
ATOM     15  H   UNL     1      54.596   6.204  -9.325  1.00  0.00     0.293 HD
ENDBRANCH   6  14
TORSDOF 4
ENDMDL
MODEL 2
REMARK VINA RESULT:    -5.530      2.157      6.779
REMARK INTER + INTRA:          -6.627
REMARK INTER:                  -6.503
REMARK INTRA:                  -0.124
REMARK UNBOUND:                -0.127
REMARK SMILES O=C([O-])C=Cc1ccc(O)c(O)c1
REMARK SMILES IDX 6 1 13 2 7 3 11 4 8 5 9 6 5 7 4 8 2 9 1 10 3 11 12 12 10 14
REMARK H PARENT 12 13 10 15
REMARK Flexibility Score: inf
ROOT
ATOM      1  C   UNL     1      56.144  -0.018  -3.895  1.00  0.00    -0.022 A 
ATOM      2  C   UNL     1      56.517  -1.300  -4.335  1.00  0.00     0.058 A 
ATOM      3  C   UNL     1      56.003   0.211  -2.512  1.00  0.00     0.012 A 
ATOM      4  C   UNL     1      56.720  -2.340  -3.419  1.00  0.00     0.157 A 
ATOM      5  C   UNL     1      56.208  -0.827  -1.599  1.00  0.00     0.051 A 
ATOM      6  C   UNL     1      56.562  -2.105  -2.048  1.00  0.00     0.157 A 
ENDROOT
BRANCH   1   7
ATOM      7  C   UNL     1      55.951   1.052  -4.906  1.00  0.00     0.010 C 
ATOM      8  C   UNL     1      54.756   1.400  -5.401  1.00  0.00     0.025 C 
BRANCH   8   9
ATOM      9  C   UNL     1      54.612   2.460  -6.412  1.00  0.00     0.064 C 
ATOM     10  O   UNL     1      54.323   2.153  -7.598  1.00  0.00    -0.545 OA
ATOM     11  O   UNL     1      54.788   3.798  -6.079  1.00  0.00    -0.545 OA
ENDBRANCH   8   9
ENDBRANCH   1   7
BRANCH   4  12
ATOM     12  O   UNL     1      57.079  -3.612  -3.864  1.00  0.00    -0.504 OA
ATOM     13  H   UNL     1      57.398  -3.772  -4.812  1.00  0.00     0.293 HD
ENDBRANCH   4  12
BRANCH   6  14
ATOM     14  O   UNL     1      56.765  -3.142  -1.140  1.00  0.00    -0.504 OA
ATOM     15  H   UNL     1      57.586  -3.734  -1.187  1.00  0.00     0.293 HD
ENDBRANCH   6  14
TORSDOF 4
ENDMDL
MODEL 3
REMARK VINA RESULT:    -5.520      0.793      2.063
REMARK INTER + INTRA:          -6.615
REMARK INTER:                  -6.490
REMARK INTRA:                  -0.126
REMARK UNBOUND:                -0.127
REMARK SMILES O=C([O-])C=Cc1ccc(O)c(O)c1
REMARK SMILES IDX 6 1 13 2 7 3 11 4 8 5 9 6 5 7 4 8 2 9 1 10 3 11 12 12 10 14
REMARK H PARENT 12 13 10 15
REMARK Flexibility Score: inf
ROOT
ATOM      1  C   UNL     1      54.532   2.099  -6.373  1.00  0.00    -0.022 A 
ATOM      2  C   UNL     1      54.776   3.469  -6.174  1.00  0.00     0.058 A 
ATOM      3  C   UNL     1      54.104   1.663  -7.643  1.00  0.00     0.012 A 
ATOM      4  C   UNL     1      54.574   4.391  -7.211  1.00  0.00     0.157 A 
ATOM      5  C   UNL     1      53.904   2.583  -8.676  1.00  0.00     0.051 A 
ATOM      6  C   UNL     1      54.134   3.947  -8.464  1.00  0.00     0.157 A 
ENDROOT
BRANCH   1   7
ATOM      7  C   UNL     1      54.771   1.164  -5.246  1.00  0.00     0.010 C 
ATOM      8  C   UNL     1      55.979   0.937  -4.712  1.00  0.00     0.025 C 
BRANCH   8   9
ATOM      9  C   UNL     1      56.172  -0.010  -3.601  1.00  0.00     0.064 C 
ATOM     10  O   UNL     1      56.508  -1.197  -3.848  1.00  0.00    -0.545 OA
ATOM     11  O   UNL     1      55.991   0.387  -2.281  1.00  0.00    -0.545 OA
ENDBRANCH   8   9
ENDBRANCH   1   7
BRANCH   4  12
ATOM     12  O   UNL     1      54.808   5.749  -7.002  1.00  0.00    -0.504 OA
ATOM     13  H   UNL     1      55.532   6.073  -6.372  1.00  0.00     0.293 HD
ENDBRANCH   4  12
BRANCH   6  14
ATOM     14  O   UNL     1      53.934   4.866  -9.492  1.00  0.00    -0.504 OA
ATOM     15  H   UNL     1      54.113   4.625 -10.459  1.00  0.00     0.293 HD
ENDBRANCH   6  14
TORSDOF 4
ENDMDL
MODEL 4
REMARK VINA RESULT:    -5.401      2.119      6.974
REMARK INTER + INTRA:          -6.476
REMARK INTER:                  -6.350
REMARK INTRA:                  -0.126
REMARK UNBOUND:                -0.127
REMARK SMILES O=C([O-])C=Cc1ccc(O)c(O)c1
REMARK SMILES IDX 6 1 13 2 7 3 11 4 8 5 9 6 5 7 4 8 2 9 1 10 3 11 12 12 10 14
REMARK H PARENT 12 13 10 15
REMARK Flexibility Score: inf
ROOT
ATOM      1  C   UNL     1      56.166  -0.053  -4.038  1.00  0.00    -0.022 A 
ATOM      2  C   UNL     1      55.976   0.213  -2.671  1.00  0.00     0.058 A 
ATOM      3  C   UNL     1      56.536  -1.353  -4.432  1.00  0.00     0.012 A 
ATOM      4  C   UNL     1      56.175  -0.790  -1.712  1.00  0.00     0.157 A 
ATOM      5  C   UNL     1      56.732  -2.354  -3.475  1.00  0.00     0.051 A 
ATOM      6  C   UNL     1      56.556  -2.075  -2.115  1.00  0.00     0.157 A 
ENDROOT
BRANCH   1   7
ATOM      7  C   UNL     1      55.933   1.042  -5.014  1.00  0.00     0.010 C 
ATOM      8  C   UNL     1      54.716   1.440  -5.408  1.00  0.00     0.025 C 
BRANCH   8   9
ATOM      9  C   UNL     1      54.532   2.523  -6.387  1.00  0.00     0.064 C 
ATOM     10  O   UNL     1      54.085   2.255  -7.533  1.00  0.00    -0.545 OA
ATOM     11  O   UNL     1      54.841   3.840  -6.068  1.00  0.00    -0.545 OA
ENDBRANCH   8   9
ENDBRANCH   1   7
BRANCH   4  12
ATOM     12  O   UNL     1      55.994  -0.515  -0.357  1.00  0.00    -0.504 OA
ATOM     13  H   UNL     1      56.160  -1.218   0.353  1.00  0.00     0.293 HD
ENDBRANCH   4  12
BRANCH   6  14
ATOM     14  O   UNL     1      56.753  -3.069  -1.159  1.00  0.00    -0.504 OA
ATOM     15  H   UNL     1      56.254  -3.063  -0.277  1.00  0.00     0.293 HD
ENDBRANCH   6  14
TORSDOF 4
ENDMDL
MODEL 5
REMARK VINA RESULT:    -5.295      2.149      3.111
REMARK INTER + INTRA:          -6.351
REMARK INTER:                  -6.218
REMARK INTRA:                  -0.134
REMARK UNBOUND:                -0.127
REMARK SMILES O=C([O-])C=Cc1ccc(O)c(O)c1
REMARK SMILES IDX 6 1 13 2 7 3 11 4 8 5 9 6 5 7 4 8 2 9 1 10 3 11 12 12 10 14
REMARK H PARENT 12 13 10 15
REMARK Flexibility Score: inf
ROOT
ATOM      1  C   UNL     1      54.045   2.828  -8.791  1.00  0.00    -0.022 A 
ATOM      2  C   UNL     1      53.018   3.735  -8.476  1.00  0.00     0.058 A 
ATOM      3  C   UNL     1      54.347   2.587 -10.146  1.00  0.00     0.012 A 
ATOM      4  C   UNL     1      52.289   4.370  -9.490  1.00  0.00     0.157 A 
ATOM      5  C   UNL     1      53.620   3.223 -11.156  1.00  0.00     0.051 A 
ATOM      6  C   UNL     1      52.588   4.112 -10.833  1.00  0.00     0.157 A 
ENDROOT
BRANCH   1   7
ATOM      7  C   UNL     1      54.794   2.189  -7.680  1.00  0.00     0.010 C 
ATOM      8  C   UNL     1      54.286   1.996  -6.456  1.00  0.00     0.025 C 
BRANCH   8   9
ATOM      9  C   UNL     1      55.070   1.368  -5.379  1.00  0.00     0.064 C 
ATOM     10  O   UNL     1      56.320   1.512  -5.356  1.00  0.00    -0.545 OA
ATOM     11  O   UNL     1      54.452   0.620  -4.384  1.00  0.00    -0.545 OA
ENDBRANCH   8   9
ENDBRANCH   1   7
BRANCH   4  12
ATOM     12  O   UNL     1      51.264   5.260  -9.170  1.00  0.00    -0.504 OA
ATOM     13  H   UNL     1      50.728   5.733  -9.888  1.00  0.00     0.293 HD
ENDBRANCH   4  12
BRANCH   6  14
ATOM     14  O   UNL     1      51.860   4.745 -11.839  1.00  0.00    -0.504 OA
ATOM     15  H   UNL     1      52.307   5.084 -12.682  1.00  0.00     0.293 HD
ENDBRANCH   6  14
TORSDOF 4
ENDMDL
MODEL 6
REMARK VINA RESULT:    -5.257     12.864     14.675
REMARK INTER + INTRA:          -6.306
REMARK INTER:                  -6.175
REMARK INTRA:                  -0.130
REMARK UNBOUND:                -0.127
REMARK SMILES O=C([O-])C=Cc1ccc(O)c(O)c1
REMARK SMILES IDX 6 1 13 2 7 3 11 4 8 5 9 6 5 7 4 8 2 9 1 10 3 11 12 12 10 14
REMARK H PARENT 12 13 10 15
REMARK Flexibility Score: inf
ROOT
ATOM      1  C   UNL     1      42.695   8.986 -11.199  1.00  0.00    -0.022 A 
ATOM      2  C   UNL     1      43.052   8.982 -12.559  1.00  0.00     0.058 A 
ATOM      3  C   UNL     1      41.798   9.968 -10.735  1.00  0.00     0.012 A 
ATOM      4  C   UNL     1      42.544   9.952 -13.435  1.00  0.00     0.157 A 
ATOM      5  C   UNL     1      41.291  10.934 -11.611  1.00  0.00     0.051 A 
ATOM      6  C   UNL     1      41.665  10.931 -12.960  1.00  0.00     0.157 A 
ENDROOT
BRANCH   1   7
ATOM      7  C   UNL     1      43.252   7.932 -10.316  1.00  0.00     0.010 C 
ATOM      8  C   UNL     1      43.354   6.643 -10.669  1.00  0.00     0.025 C 
BRANCH   8   9
ATOM      9  C   UNL     1      43.903   5.628  -9.756  1.00  0.00     0.064 C 
ATOM     10  O   UNL     1      44.979   5.859  -9.144  1.00  0.00    -0.545 OA
ATOM     11  O   UNL     1      43.251   4.417  -9.554  1.00  0.00    -0.545 OA
ENDBRANCH   8   9
ENDBRANCH   1   7
BRANCH   4  12
ATOM     12  O   UNL     1      42.911   9.947 -14.780  1.00  0.00    -0.504 OA
ATOM     13  H   UNL     1      42.281  10.273 -15.504  1.00  0.00     0.293 HD
ENDBRANCH   4  12
BRANCH   6  14
ATOM     14  O   UNL     1      41.163  11.893 -13.833  1.00  0.00    -0.504 OA
ATOM     15  H   UNL     1      41.000  12.847 -13.534  1.00  0.00     0.293 HD
ENDBRANCH   6  14
TORSDOF 4
ENDMDL
MODEL 7
REMARK VINA RESULT:    -5.200      5.053      8.734
REMARK INTER + INTRA:          -6.239
REMARK INTER:                  -6.111
REMARK INTRA:                  -0.128
REMARK UNBOUND:                -0.127
REMARK SMILES O=C([O-])C=Cc1ccc(O)c(O)c1
REMARK SMILES IDX 6 1 13 2 7 3 11 4 8 5 9 6 5 7 4 8 2 9 1 10 3 11 12 12 10 14
REMARK H PARENT 12 13 10 15
REMARK Flexibility Score: inf
ROOT
ATOM      1  C   UNL     1      53.665  -0.969  -0.288  1.00  0.00    -0.022 A 
ATOM      2  C   UNL     1      53.888  -2.131   0.472  1.00  0.00     0.058 A 
ATOM      3  C   UNL     1      52.408  -0.338  -0.212  1.00  0.00     0.012 A 
ATOM      4  C   UNL     1      52.871  -2.669   1.272  1.00  0.00     0.157 A 
ATOM      5  C   UNL     1      51.395  -0.875   0.588  1.00  0.00     0.051 A 
ATOM      6  C   UNL     1      51.621  -2.042   1.328  1.00  0.00     0.157 A 
ENDROOT
BRANCH   1   7
ATOM      7  C   UNL     1      54.779  -0.434  -1.111  1.00  0.00     0.010 C 
ATOM      8  C   UNL     1      54.816  -0.506  -2.448  1.00  0.00     0.025 C 
BRANCH   8   9
ATOM      9  C   UNL     1      55.947   0.028  -3.224  1.00  0.00     0.064 C 
ATOM     10  O   UNL     1      57.125  -0.202  -2.844  1.00  0.00    -0.545 OA
ATOM     11  O   UNL     1      55.737   0.780  -4.374  1.00  0.00    -0.545 OA
ENDBRANCH   8   9
ENDBRANCH   1   7
BRANCH   4  12
ATOM     12  O   UNL     1      53.097  -3.828   2.014  1.00  0.00    -0.504 OA
ATOM     13  H   UNL     1      53.787  -3.858   2.755  1.00  0.00     0.293 HD
ENDBRANCH   4  12
BRANCH   6  14
ATOM     14  O   UNL     1      50.612  -2.580   2.125  1.00  0.00    -0.504 OA
ATOM     15  H   UNL     1      50.064  -3.375   1.820  1.00  0.00     0.293 HD
ENDBRANCH   6  14
TORSDOF 4
ENDMDL
MODEL 8
REMARK VINA RESULT:    -5.169     14.126     16.801
REMARK INTER + INTRA:          -6.203
REMARK INTER:                  -6.069
REMARK INTRA:                  -0.134
REMARK UNBOUND:                -0.127
REMARK SMILES O=C([O-])C=Cc1ccc(O)c(O)c1
REMARK SMILES IDX 6 1 13 2 7 3 11 4 8 5 9 6 5 7 4 8 2 9 1 10 3 11 12 12 10 14
REMARK H PARENT 12 13 10 15
REMARK Flexibility Score: inf
ROOT
ATOM      1  C   UNL     1      41.637   9.426 -10.974  1.00  0.00    -0.022 A 
ATOM      2  C   UNL     1      42.710   8.703 -11.522  1.00  0.00     0.058 A 
ATOM      3  C   UNL     1      41.484   9.459  -9.574  1.00  0.00     0.012 A 
ATOM      4  C   UNL     1      43.599   8.004 -10.695  1.00  0.00     0.157 A 
ATOM      5  C   UNL     1      42.373   8.763  -8.749  1.00  0.00     0.051 A 
ATOM      6  C   UNL     1      43.429   8.031  -9.305  1.00  0.00     0.157 A 
ENDROOT
BRANCH   1   7
ATOM      7  C   UNL     1      40.729  10.158 -11.893  1.00  0.00     0.010 C 
ATOM      8  C   UNL     1      39.544  10.660 -11.524  1.00  0.00     0.025 C 
BRANCH   8   9
ATOM      9  C   UNL     1      38.670  11.369 -12.473  1.00  0.00     0.064 C 
ATOM     10  O   UNL     1      37.651  10.789 -12.933  1.00  0.00    -0.545 OA
ATOM     11  O   UNL     1      38.949  12.671 -12.871  1.00  0.00    -0.545 OA
ENDBRANCH   8   9
ENDBRANCH   1   7
BRANCH   4  12
ATOM     12  O   UNL     1      44.655   7.279 -11.247  1.00  0.00    -0.504 OA
ATOM     13  H   UNL     1      45.615   7.443 -10.967  1.00  0.00     0.293 HD
ENDBRANCH   4  12
BRANCH   6  14
ATOM     14  O   UNL     1      44.315   7.335  -8.486  1.00  0.00    -0.504 OA
ATOM     15  H   UNL     1      45.318   7.412  -8.604  1.00  0.00     0.293 HD
ENDBRANCH   6  14
TORSDOF 4
ENDMDL
MODEL 9
REMARK VINA RESULT:    -5.145      7.047      9.269
REMARK INTER + INTRA:          -6.175
REMARK INTER:                  -6.037
REMARK INTRA:                  -0.137
REMARK UNBOUND:                -0.127
REMARK SMILES O=C([O-])C=Cc1ccc(O)c(O)c1
REMARK SMILES IDX 6 1 13 2 7 3 11 4 8 5 9 6 5 7 4 8 2 9 1 10 3 11 12 12 10 14
REMARK H PARENT 12 13 10 15
REMARK Flexibility Score: inf
ROOT
ATOM      1  C   UNL     1      52.921  -1.497   0.365  1.00  0.00    -0.022 A 
ATOM      2  C   UNL     1      53.594  -0.496  -0.358  1.00  0.00     0.058 A 
ATOM      3  C   UNL     1      53.678  -2.486   1.021  1.00  0.00     0.012 A 
ATOM      4  C   UNL     1      54.993  -0.495  -0.446  1.00  0.00     0.157 A 
ATOM      5  C   UNL     1      55.073  -2.483   0.934  1.00  0.00     0.051 A 
ATOM      6  C   UNL     1      55.734  -1.492   0.198  1.00  0.00     0.157 A 
ENDROOT
BRANCH   1   7
ATOM      7  C   UNL     1      51.439  -1.446   0.435  1.00  0.00     0.010 C 
ATOM      8  C   UNL     1      50.681  -2.460   0.876  1.00  0.00     0.025 C 
BRANCH   8   9
ATOM      9  C   UNL     1      49.212  -2.370   0.918  1.00  0.00     0.064 C 
ATOM     10  O   UNL     1      48.520  -3.202   0.274  1.00  0.00    -0.545 OA
ATOM     11  O   UNL     1      48.574  -1.382   1.658  1.00  0.00    -0.545 OA
ENDBRANCH   8   9
ENDBRANCH   1   7
BRANCH   4  12
ATOM     12  O   UNL     1      55.652   0.495  -1.173  1.00  0.00    -0.504 OA
ATOM     13  H   UNL     1      56.033   0.312  -2.094  1.00  0.00     0.293 HD
ENDBRANCH   4  12
BRANCH   6  14
ATOM     14  O   UNL     1      57.124  -1.488   0.108  1.00  0.00    -0.504 OA
ATOM     15  H   UNL     1      57.708  -1.626   0.924  1.00  0.00     0.293 HD
ENDBRANCH   6  14
TORSDOF 4
ENDMDL
