MODEL 1
REMARK VINA RESULT:    -4.345      0.000      0.000
REMARK INTER + INTRA:          -5.790
REMARK INTER:                  -5.615
REMARK INTRA:                  -0.175
REMARK UNBOUND:                -0.175
REMARK SMILES CCCCCCC(=O)[O-]
REMARK SMILES IDX 5 1 6 2 7 3 8 4 9 5 4 6 3 7 2 8 1 9
REMARK H PARENT
REMARK Flexibility Score: inf
ROOT
ATOM      1  C   UNL     1     -15.969  -6.177  38.135  1.00  0.00     0.006 C 
ENDROOT
BRANCH   1   2
ATOM      2  C   UNL     1     -16.453  -5.623  39.482  1.00  0.00     0.053 C 
BRANCH   2   3
ATOM      3  C   UNL     1     -17.547  -6.479  40.036  1.00  0.00     0.041 C 
ATOM      4  O   UNL     1     -18.093  -6.180  41.131  1.00  0.00    -0.550 OA
ATOM      5  O   UNL     1     -17.930  -7.636  39.370  1.00  0.00    -0.550 OA
ENDBRANCH   2   3
ENDBRANCH   1   2
BRANCH   1   6
ATOM      6  C   UNL     1     -14.485  -5.878  37.870  1.00  0.00     0.000 C 
BRANCH   6   7
ATOM      7  C   UNL     1     -13.896  -6.760  36.755  1.00  0.00    -0.000 C 
BRANCH   7   8
ATOM      8  C   UNL     1     -12.676  -7.568  37.228  1.00  0.00    -0.003 C 
ATOM      9  C   UNL     1     -12.409  -7.418  38.726  1.00  0.00     0.004 C 
ENDBRANCH   7   8
ENDBRANCH   6   7
ENDBRANCH   1   6
TORSDOF 5
ENDMDL
MODEL 2
REMARK VINA RESULT:    -4.260      3.481      4.956
REMARK INTER + INTRA:          -5.681
REMARK INTER:                  -5.427
REMARK INTRA:                  -0.253
REMARK UNBOUND:                -0.175
REMARK SMILES CCCCCCC(=O)[O-]
REMARK SMILES IDX 5 1 6 2 7 3 8 4 9 5 4 6 3 7 2 8 1 9
REMARK H PARENT
REMARK Flexibility Score: inf
ROOT
ATOM      1  C   UNL     1     -13.527  -6.997  36.998  1.00  0.00     0.006 C 
ENDROOT
BRANCH   1   2
ATOM      2  C   UNL     1     -12.815  -7.212  38.340  1.00  0.00     0.053 C 
BRANCH   2   3
ATOM      3  C   UNL     1     -11.762  -8.267  38.209  1.00  0.00     0.041 C 
ATOM      4  O   UNL     1     -11.271  -8.804  39.238  1.00  0.00    -0.550 OA
ATOM      5  O   UNL     1     -11.284  -8.621  36.954  1.00  0.00    -0.550 OA
ENDBRANCH   2   3
ENDBRANCH   1   2
BRANCH   1   6
ATOM      6  C   UNL     1     -14.745  -6.067  37.115  1.00  0.00     0.000 C 
BRANCH   6   7
ATOM      7  C   UNL     1     -14.758  -5.277  38.435  1.00  0.00    -0.000 C 
BRANCH   7   8
ATOM      8  C   UNL     1     -16.083  -5.432  39.201  1.00  0.00    -0.003 C 
ATOM      9  C   UNL     1     -16.969  -6.541  38.633  1.00  0.00     0.004 C 
ENDBRANCH   7   8
ENDBRANCH   6   7
ENDBRANCH   1   6
TORSDOF 5
ENDMDL
MODEL 3
REMARK VINA RESULT:    -4.216      1.289      1.671
REMARK INTER + INTRA:          -5.623
REMARK INTER:                  -5.469
REMARK INTRA:                  -0.155
REMARK UNBOUND:                -0.175
REMARK SMILES CCCCCCC(=O)[O-]
REMARK SMILES IDX 5 1 6 2 7 3 8 4 9 5 4 6 3 7 2 8 1 9
REMARK H PARENT
REMARK Flexibility Score: inf
ROOT
ATOM      1  C   UNL     1     -14.752  -5.856  37.281  1.00  0.00     0.006 C 
ENDROOT
BRANCH   1   2
ATOM      2  C   UNL     1     -15.175  -5.882  38.756  1.00  0.00     0.053 C 
BRANCH   2   3
ATOM      3  C   UNL     1     -16.657  -6.048  38.871  1.00  0.00     0.041 C 
ATOM      4  O   UNL     1     -17.372  -5.095  39.279  1.00  0.00    -0.550 OA
ATOM      5  O   UNL     1     -17.245  -7.272  38.577  1.00  0.00    -0.550 OA
ENDBRANCH   2   3
ENDBRANCH   1   2
BRANCH   1   6
ATOM      6  C   UNL     1     -13.646  -6.875  36.963  1.00  0.00     0.000 C 
BRANCH   6   7
ATOM      7  C   UNL     1     -12.854  -7.295  38.213  1.00  0.00    -0.000 C 
BRANCH   7   8
ATOM      8  C   UNL     1     -11.808  -8.381  37.910  1.00  0.00    -0.003 C 
ATOM      9  C   UNL     1     -10.864  -8.639  39.084  1.00  0.00     0.004 C 
ENDBRANCH   7   8
ENDBRANCH   6   7
ENDBRANCH   1   6
TORSDOF 5
ENDMDL
MODEL 4
REMARK VINA RESULT:    -4.141      3.504      5.174
REMARK INTER + INTRA:          -5.526
REMARK INTER:                  -5.367
REMARK INTRA:                  -0.159
REMARK UNBOUND:                -0.175
REMARK SMILES CCCCCCC(=O)[O-]
REMARK SMILES IDX 5 1 6 2 7 3 8 4 9 5 4 6 3 7 2 8 1 9
REMARK H PARENT
REMARK Flexibility Score: inf
ROOT
ATOM      1  C   UNL     1     -12.893  -7.279  38.123  1.00  0.00     0.006 C 
ENDROOT
BRANCH   1   2
ATOM      2  C   UNL     1     -11.791  -8.326  37.907  1.00  0.00     0.053 C 
BRANCH   2   3
ATOM      3  C   UNL     1     -11.218  -8.759  39.218  1.00  0.00     0.041 C 
ATOM      4  O   UNL     1     -10.480  -9.779  39.282  1.00  0.00    -0.550 OA
ATOM      5  O   UNL     1     -11.538  -8.069  40.380  1.00  0.00    -0.550 OA
ENDBRANCH   2   3
ENDBRANCH   1   2
BRANCH   1   6
ATOM      6  C   UNL     1     -13.598  -6.882  36.817  1.00  0.00     0.000 C 
BRANCH   6   7
ATOM      7  C   UNL     1     -14.836  -6.002  37.059  1.00  0.00    -0.000 C 
BRANCH   7   8
ATOM      8  C   UNL     1     -15.352  -6.097  38.504  1.00  0.00    -0.003 C 
ATOM      9  C   UNL     1     -16.861  -6.331  38.581  1.00  0.00     0.004 C 
ENDBRANCH   7   8
ENDBRANCH   6   7
ENDBRANCH   1   6
TORSDOF 5
ENDMDL
MODEL 5
REMARK VINA RESULT:    -4.068      1.513      2.140
REMARK INTER + INTRA:          -5.433
REMARK INTER:                  -5.282
REMARK INTRA:                  -0.151
REMARK UNBOUND:                -0.175
REMARK SMILES CCCCCCC(=O)[O-]
REMARK SMILES IDX 5 1 6 2 7 3 8 4 9 5 4 6 3 7 2 8 1 9
REMARK H PARENT
REMARK Flexibility Score: inf
ROOT
ATOM      1  C   UNL     1     -17.192  -5.697  39.371  1.00  0.00     0.006 C 
ENDROOT
BRANCH   1   2
ATOM      2  C   UNL     1     -17.891  -6.603  40.394  1.00  0.00     0.053 C 
BRANCH   2   3
ATOM      3  C   UNL     1     -17.041  -6.766  41.613  1.00  0.00     0.041 C 
ATOM      4  O   UNL     1     -17.450  -7.457  42.584  1.00  0.00    -0.550 OA
ATOM      5  O   UNL     1     -15.818  -6.114  41.701  1.00  0.00    -0.550 OA
ENDBRANCH   2   3
ENDBRANCH   1   2
BRANCH   1   6
ATOM      6  C   UNL     1     -16.394  -6.490  38.324  1.00  0.00     0.000 C 
BRANCH   6   7
ATOM      7  C   UNL     1     -15.121  -5.755  37.871  1.00  0.00    -0.000 C 
BRANCH   7   8
ATOM      8  C   UNL     1     -13.837  -6.510  38.254  1.00  0.00    -0.003 C 
ATOM      9  C   UNL     1     -13.204  -7.241  37.070  1.00  0.00     0.004 C 
ENDBRANCH   7   8
ENDBRANCH   6   7
ENDBRANCH   1   6
TORSDOF 5
ENDMDL
MODEL 6
REMARK VINA RESULT:    -4.013      4.404      5.967
REMARK INTER + INTRA:          -5.362
REMARK INTER:                  -5.141
REMARK INTRA:                  -0.221
REMARK UNBOUND:                -0.175
REMARK SMILES CCCCCCC(=O)[O-]
REMARK SMILES IDX 5 1 6 2 7 3 8 4 9 5 4 6 3 7 2 8 1 9
REMARK H PARENT
REMARK Flexibility Score: inf
ROOT
ATOM      1  C   UNL     1     -11.901  -8.044  38.697  1.00  0.00     0.006 C 
ENDROOT
BRANCH   1   2
ATOM      2  C   UNL     1     -11.697  -8.766  37.358  1.00  0.00     0.053 C 
BRANCH   2   3
ATOM      3  C   UNL     1     -10.285  -8.610  36.890  1.00  0.00     0.041 C 
ATOM      4  O   UNL     1      -9.539  -7.735  37.406  1.00  0.00    -0.550 OA
ATOM      5  O   UNL     1      -9.806  -9.395  35.849  1.00  0.00    -0.550 OA
ENDBRANCH   2   3
ENDBRANCH   1   2
BRANCH   1   6
ATOM      6  C   UNL     1     -13.024  -6.996  38.640  1.00  0.00     0.000 C 
BRANCH   6   7
ATOM      7  C   UNL     1     -13.626  -6.852  37.232  1.00  0.00    -0.000 C 
BRANCH   7   8
ATOM      8  C   UNL     1     -14.833  -5.900  37.202  1.00  0.00    -0.003 C 
ATOM      9  C   UNL     1     -15.783  -6.110  38.382  1.00  0.00     0.004 C 
ENDBRANCH   7   8
ENDBRANCH   6   7
ENDBRANCH   1   6
TORSDOF 5
ENDMDL
MODEL 7
REMARK VINA RESULT:    -3.977      2.082      2.685
REMARK INTER + INTRA:          -5.315
REMARK INTER:                  -5.141
REMARK INTRA:                  -0.174
REMARK UNBOUND:                -0.175
REMARK SMILES CCCCCCC(=O)[O-]
REMARK SMILES IDX 5 1 6 2 7 3 8 4 9 5 4 6 3 7 2 8 1 9
REMARK H PARENT
REMARK Flexibility Score: inf
ROOT
ATOM      1  C   UNL     1     -14.021  -6.478  37.262  1.00  0.00     0.006 C 
ENDROOT
BRANCH   1   2
ATOM      2  C   UNL     1     -15.361  -6.221  37.964  1.00  0.00     0.053 C 
BRANCH   2   3
ATOM      3  C   UNL     1     -15.146  -5.472  39.240  1.00  0.00     0.041 C 
ATOM      4  O   UNL     1     -15.542  -5.956  40.334  1.00  0.00    -0.550 OA
ATOM      5  O   UNL     1     -14.556  -4.215  39.218  1.00  0.00    -0.550 OA
ENDBRANCH   2   3
ENDBRANCH   1   2
BRANCH   1   6
ATOM      6  C   UNL     1     -13.011  -7.210  38.161  1.00  0.00     0.000 C 
BRANCH   6   7
ATOM      7  C   UNL     1     -12.101  -8.166  37.370  1.00  0.00    -0.000 C 
BRANCH   7   8
ATOM      8  C   UNL     1     -11.143  -8.953  38.280  1.00  0.00    -0.003 C 
ATOM      9  C   UNL     1     -11.215  -8.510  39.741  1.00  0.00     0.004 C 
ENDBRANCH   7   8
ENDBRANCH   6   7
ENDBRANCH   1   6
TORSDOF 5
ENDMDL
MODEL 8
REMARK VINA RESULT:    -3.946      1.884      3.027
REMARK INTER + INTRA:          -5.274
REMARK INTER:                  -5.153
REMARK INTRA:                  -0.121
REMARK UNBOUND:                -0.175
REMARK SMILES CCCCCCC(=O)[O-]
REMARK SMILES IDX 5 1 6 2 7 3 8 4 9 5 4 6 3 7 2 8 1 9
REMARK H PARENT
REMARK Flexibility Score: inf
ROOT
ATOM      1  C   UNL     1     -17.486  -6.613  40.367  1.00  0.00     0.006 C 
ENDROOT
BRANCH   1   2
ATOM      2  C   UNL     1     -18.125  -7.705  41.236  1.00  0.00     0.053 C 
BRANCH   2   3
ATOM      3  C   UNL     1     -17.960  -7.381  42.687  1.00  0.00     0.041 C 
ATOM      4  O   UNL     1     -17.738  -6.196  43.050  1.00  0.00    -0.550 OA
ATOM      5  O   UNL     1     -17.999  -8.396  43.635  1.00  0.00    -0.550 OA
ENDBRANCH   2   3
ENDBRANCH   1   2
BRANCH   1   6
ATOM      6  C   UNL     1     -17.420  -7.001  38.881  1.00  0.00     0.000 C 
BRANCH   6   7
ATOM      7  C   UNL     1     -16.483  -6.086  38.074  1.00  0.00    -0.000 C 
BRANCH   7   8
ATOM      8  C   UNL     1     -15.010  -6.240  38.487  1.00  0.00    -0.003 C 
ATOM      9  C   UNL     1     -14.090  -6.538  37.303  1.00  0.00     0.004 C 
ENDBRANCH   7   8
ENDBRANCH   6   7
ENDBRANCH   1   6
TORSDOF 5
ENDMDL
MODEL 9
REMARK VINA RESULT:    -3.894      2.682      4.164
REMARK INTER + INTRA:          -5.208
REMARK INTER:                  -5.037
REMARK INTRA:                  -0.171
REMARK UNBOUND:                -0.175
REMARK SMILES CCCCCCC(=O)[O-]
REMARK SMILES IDX 5 1 6 2 7 3 8 4 9 5 4 6 3 7 2 8 1 9
REMARK H PARENT
REMARK Flexibility Score: inf
ROOT
ATOM      1  C   UNL     1     -12.401  -7.644  37.426  1.00  0.00     0.006 C 
ENDROOT
BRANCH   1   2
ATOM      2  C   UNL     1     -13.437  -6.874  38.257  1.00  0.00     0.053 C 
BRANCH   2   3
ATOM      3  C   UNL     1     -14.577  -6.435  37.394  1.00  0.00     0.041 C 
ATOM      4  O   UNL     1     -14.400  -6.229  36.165  1.00  0.00    -0.550 OA
ATOM      5  O   UNL     1     -15.826  -6.204  37.957  1.00  0.00    -0.550 OA
ENDBRANCH   2   3
ENDBRANCH   1   2
BRANCH   1   6
ATOM      6  C   UNL     1     -11.531  -8.578  38.281  1.00  0.00     0.000 C 
BRANCH   6   7
ATOM      7  C   UNL     1     -11.463  -8.137  39.754  1.00  0.00    -0.000 C 
BRANCH   7   8
ATOM      8  C   UNL     1     -10.502  -9.003  40.584  1.00  0.00    -0.003 C 
ATOM      9  C   UNL     1      -9.907 -10.163  39.784  1.00  0.00     0.004 C 
ENDBRANCH   7   8
ENDBRANCH   6   7
ENDBRANCH   1   6
TORSDOF 5
ENDMDL
