MODEL 1
REMARK VINA RESULT:    -6.150      0.000      0.000
REMARK INTER + INTRA:          -6.906
REMARK INTER:                  -6.869
REMARK INTRA:                  -0.037
REMARK UNBOUND:                -0.037
REMARK SMILES O=C([O-])c1ccc(O)c(O)c1
REMARK SMILES IDX 4 1 11 2 5 3 9 4 6 5 7 6 2 7 1 8 3 9 10 10 8 12
REMARK H PARENT 10 11 8 13
REMARK Flexibility Score: inf
ROOT
ATOM      1  C   UNL     1      13.407 -13.742  27.992  1.00  0.00     0.001 A 
ATOM      2  C   UNL     1      13.442 -12.914  29.128  1.00  0.00     0.060 A 
ATOM      3  C   UNL     1      12.297 -13.674  27.131  1.00  0.00     0.014 A 
ATOM      4  C   UNL     1      12.384 -12.034  29.400  1.00  0.00     0.158 A 
ATOM      5  C   UNL     1      11.244 -12.797  27.402  1.00  0.00     0.051 A 
ATOM      6  C   UNL     1      11.284 -11.975  28.536  1.00  0.00     0.157 A 
ENDROOT
BRANCH   1   7
ATOM      7  C   UNL     1      14.526 -14.669  27.709  1.00  0.00     0.072 C 
ATOM      8  O   UNL     1      15.269 -14.489  26.708  1.00  0.00    -0.545 OA
ATOM      9  O   UNL     1      14.771 -15.753  28.544  1.00  0.00    -0.545 OA
ENDBRANCH   1   7
BRANCH   4  10
ATOM     10  O   UNL     1      12.421 -11.214  30.527  1.00  0.00    -0.504 OA
ATOM     11  H   UNL     1      11.966 -10.309  30.540  1.00  0.00     0.293 HD
ENDBRANCH   4  10
BRANCH   6  12
ATOM     12  O   UNL     1      10.235 -11.098  28.810  1.00  0.00    -0.504 OA
ATOM     13  H   UNL     1       9.687 -10.680  28.067  1.00  0.00     0.293 HD
ENDBRANCH   6  12
TORSDOF 3
ENDMDL
MODEL 2
REMARK VINA RESULT:    -6.097      1.447      2.434
REMARK INTER + INTRA:          -6.847
REMARK INTER:                  -6.806
REMARK INTRA:                  -0.041
REMARK UNBOUND:                -0.037
REMARK SMILES O=C([O-])c1ccc(O)c(O)c1
REMARK SMILES IDX 4 1 11 2 5 3 9 4 6 5 7 6 2 7 1 8 3 9 10 10 8 12
REMARK H PARENT 10 11 8 13
REMARK Flexibility Score: inf
ROOT
ATOM      1  C   UNL     1      12.928 -13.022  28.390  1.00  0.00     0.001 A 
ATOM      2  C   UNL     1      11.639 -12.585  28.743  1.00  0.00     0.060 A 
ATOM      3  C   UNL     1      14.044 -12.419  28.996  1.00  0.00     0.014 A 
ATOM      4  C   UNL     1      11.469 -11.561  29.687  1.00  0.00     0.158 A 
ATOM      5  C   UNL     1      13.874 -11.400  29.936  1.00  0.00     0.051 A 
ATOM      6  C   UNL     1      12.588 -10.968  30.285  1.00  0.00     0.157 A 
ENDROOT
BRANCH   1   7
ATOM      7  C   UNL     1      13.102 -14.102  27.393  1.00  0.00     0.072 C 
ATOM      8  O   UNL     1      12.315 -14.202  26.413  1.00  0.00    -0.545 OA
ATOM      9  O   UNL     1      14.134 -15.023  27.524  1.00  0.00    -0.545 OA
ENDBRANCH   1   7
BRANCH   4  10
ATOM     10  O   UNL     1      10.191 -11.129  30.037  1.00  0.00    -0.504 OA
ATOM     11  H   UNL     1       9.655 -10.515  29.434  1.00  0.00     0.293 HD
ENDBRANCH   4  10
BRANCH   6  12
ATOM     12  O   UNL     1      12.414  -9.951  31.223  1.00  0.00    -0.504 OA
ATOM     13  H   UNL     1      13.081  -9.194  31.312  1.00  0.00     0.293 HD
ENDBRANCH   6  12
TORSDOF 3
ENDMDL
MODEL 3
REMARK VINA RESULT:    -6.057      1.023      2.045
REMARK INTER + INTRA:          -6.802
REMARK INTER:                  -6.765
REMARK INTRA:                  -0.037
REMARK UNBOUND:                -0.037
REMARK SMILES O=C([O-])c1ccc(O)c(O)c1
REMARK SMILES IDX 4 1 11 2 5 3 9 4 6 5 7 6 2 7 1 8 3 9 10 10 8 12
REMARK H PARENT 10 11 8 13
REMARK Flexibility Score: inf
ROOT
ATOM      1  C   UNL     1      13.656 -13.481  27.751  1.00  0.00     0.001 A 
ATOM      2  C   UNL     1      12.373 -13.862  27.319  1.00  0.00     0.060 A 
ATOM      3  C   UNL     1      13.804 -12.288  28.480  1.00  0.00     0.014 A 
ATOM      4  C   UNL     1      11.257 -13.064  27.611  1.00  0.00     0.158 A 
ATOM      5  C   UNL     1      12.693 -11.493  28.770  1.00  0.00     0.051 A 
ATOM      6  C   UNL     1      11.418 -11.877  28.338  1.00  0.00     0.157 A 
ENDROOT
BRANCH   1   7
ATOM      7  C   UNL     1      14.830 -14.327  27.441  1.00  0.00     0.072 C 
ATOM      8  O   UNL     1      15.689 -13.947  26.601  1.00  0.00    -0.545 OA
ATOM      9  O   UNL     1      15.001 -15.554  28.070  1.00  0.00    -0.545 OA
ENDBRANCH   1   7
BRANCH   4  10
ATOM     10  O   UNL     1       9.987 -13.443  27.182  1.00  0.00    -0.504 OA
ATOM     11  H   UNL     1       9.753 -14.415  27.010  1.00  0.00     0.293 HD
ENDBRANCH   4  10
BRANCH   6  12
ATOM     12  O   UNL     1      10.306 -11.087  28.625  1.00  0.00    -0.504 OA
ATOM     13  H   UNL     1      10.351 -10.075  28.584  1.00  0.00     0.293 HD
ENDBRANCH   6  12
TORSDOF 3
ENDMDL
MODEL 4
REMARK VINA RESULT:    -5.959      1.497      4.693
REMARK INTER + INTRA:          -6.692
REMARK INTER:                  -6.650
REMARK INTRA:                  -0.043
REMARK UNBOUND:                -0.037
REMARK SMILES O=C([O-])c1ccc(O)c(O)c1
REMARK SMILES IDX 4 1 11 2 5 3 9 4 6 5 7 6 2 7 1 8 3 9 10 10 8 12
REMARK H PARENT 10 11 8 13
REMARK Flexibility Score: inf
ROOT
ATOM      1  C   UNL     1      11.939 -11.543  28.995  1.00  0.00     0.001 A 
ATOM      2  C   UNL     1      11.478 -12.342  27.933  1.00  0.00     0.060 A 
ATOM      3  C   UNL     1      13.189 -11.830  29.572  1.00  0.00     0.014 A 
ATOM      4  C   UNL     1      12.254 -13.409  27.456  1.00  0.00     0.158 A 
ATOM      5  C   UNL     1      13.961 -12.893  29.097  1.00  0.00     0.051 A 
ATOM      6  C   UNL     1      13.497 -13.684  28.039  1.00  0.00     0.157 A 
ENDROOT
BRANCH   1   7
ATOM      7  C   UNL     1      11.117 -10.419  29.495  1.00  0.00     0.072 C 
ATOM      8  O   UNL     1      11.658  -9.436  30.068  1.00  0.00    -0.545 OA
ATOM      9  O   UNL     1       9.736 -10.432  29.340  1.00  0.00    -0.545 OA
ENDBRANCH   1   7
BRANCH   4  10
ATOM     10  O   UNL     1      11.796 -14.199  26.403  1.00  0.00    -0.504 OA
ATOM     11  H   UNL     1      11.301 -15.068  26.568  1.00  0.00     0.293 HD
ENDBRANCH   4  10
BRANCH   6  12
ATOM     12  O   UNL     1      14.265 -14.746  27.562  1.00  0.00    -0.504 OA
ATOM     13  H   UNL     1      14.572 -15.494  28.173  1.00  0.00     0.293 HD
ENDBRANCH   6  12
TORSDOF 3
ENDMDL
MODEL 5
REMARK VINA RESULT:    -5.787      1.233      4.287
REMARK INTER + INTRA:          -6.501
REMARK INTER:                  -6.459
REMARK INTRA:                  -0.042
REMARK UNBOUND:                -0.037
REMARK SMILES O=C([O-])c1ccc(O)c(O)c1
REMARK SMILES IDX 4 1 11 2 5 3 9 4 6 5 7 6 2 7 1 8 3 9 10 10 8 12
REMARK H PARENT 10 11 8 13
REMARK Flexibility Score: inf
ROOT
ATOM      1  C   UNL     1      11.726 -11.687  28.817  1.00  0.00     0.001 A 
ATOM      2  C   UNL     1      12.914 -12.157  29.405  1.00  0.00     0.060 A 
ATOM      3  C   UNL     1      11.220 -12.344  27.682  1.00  0.00     0.014 A 
ATOM      4  C   UNL     1      13.585 -13.266  28.866  1.00  0.00     0.158 A 
ATOM      5  C   UNL     1      11.888 -13.447  27.146  1.00  0.00     0.051 A 
ATOM      6  C   UNL     1      13.070 -13.912  27.735  1.00  0.00     0.157 A 
ENDROOT
BRANCH   1   7
ATOM      7  C   UNL     1      11.023 -10.517  29.389  1.00  0.00     0.072 C 
ATOM      8  O   UNL     1      11.664  -9.620  29.998  1.00  0.00    -0.545 OA
ATOM      9  O   UNL     1       9.644 -10.393  29.264  1.00  0.00    -0.545 OA
ENDBRANCH   1   7
BRANCH   4  10
ATOM     10  O   UNL     1      14.761 -13.730  29.451  1.00  0.00    -0.504 OA
ATOM     11  H   UNL     1      15.468 -13.093  29.801  1.00  0.00     0.293 HD
ENDBRANCH   4  10
BRANCH   6  12
ATOM     12  O   UNL     1      13.740 -15.013  27.204  1.00  0.00    -0.504 OA
ATOM     13  H   UNL     1      13.993 -15.055  26.223  1.00  0.00     0.293 HD
ENDBRANCH   6  12
TORSDOF 3
ENDMDL
MODEL 6
REMARK VINA RESULT:    -5.694      1.610      1.962
REMARK INTER + INTRA:          -6.397
REMARK INTER:                  -6.352
REMARK INTRA:                  -0.044
REMARK UNBOUND:                -0.037
REMARK SMILES O=C([O-])c1ccc(O)c(O)c1
REMARK SMILES IDX 4 1 11 2 5 3 9 4 6 5 7 6 2 7 1 8 3 9 10 10 8 12
REMARK H PARENT 10 11 8 13
REMARK Flexibility Score: inf
ROOT
ATOM      1  C   UNL     1      12.400 -12.703  28.178  1.00  0.00     0.001 A 
ATOM      2  C   UNL     1      12.983 -12.448  29.432  1.00  0.00     0.060 A 
ATOM      3  C   UNL     1      11.464 -11.789  27.662  1.00  0.00     0.014 A 
ATOM      4  C   UNL     1      12.636 -11.299  30.159  1.00  0.00     0.158 A 
ATOM      5  C   UNL     1      11.119 -10.645  28.385  1.00  0.00     0.051 A 
ATOM      6  C   UNL     1      11.702 -10.397  29.634  1.00  0.00     0.157 A 
ENDROOT
BRANCH   1   7
ATOM      7  C   UNL     1      12.770 -13.916  27.415  1.00  0.00     0.072 C 
ATOM      8  O   UNL     1      12.164 -14.213  26.351  1.00  0.00    -0.545 OA
ATOM      9  O   UNL     1      13.790 -14.747  27.863  1.00  0.00    -0.545 OA
ENDBRANCH   1   7
BRANCH   4  10
ATOM     10  O   UNL     1      13.215 -11.049  31.401  1.00  0.00    -0.504 OA
ATOM     11  H   UNL     1      13.693 -11.777  31.920  1.00  0.00     0.293 HD
ENDBRANCH   4  10
BRANCH   6  12
ATOM     12  O   UNL     1      11.360  -9.256  30.360  1.00  0.00    -0.504 OA
ATOM     13  H   UNL     1      11.006  -9.319  31.307  1.00  0.00     0.293 HD
ENDBRANCH   6  12
TORSDOF 3
ENDMDL
MODEL 7
REMARK VINA RESULT:    -5.372      1.356      4.621
REMARK INTER + INTRA:          -6.037
REMARK INTER:                  -6.001
REMARK INTRA:                  -0.036
REMARK UNBOUND:                -0.037
REMARK SMILES O=C([O-])c1ccc(O)c(O)c1
REMARK SMILES IDX 4 1 11 2 5 3 9 4 6 5 7 6 2 7 1 8 3 9 10 10 8 12
REMARK H PARENT 10 11 8 13
REMARK Flexibility Score: inf
ROOT
ATOM      1  C   UNL     1      13.265 -12.584  28.433  1.00  0.00     0.001 A 
ATOM      2  C   UNL     1      14.013 -12.975  27.308  1.00  0.00     0.060 A 
ATOM      3  C   UNL     1      13.344 -13.354  29.607  1.00  0.00     0.014 A 
ATOM      4  C   UNL     1      14.827 -14.117  27.356  1.00  0.00     0.158 A 
ATOM      5  C   UNL     1      14.155 -14.491  29.654  1.00  0.00     0.051 A 
ATOM      6  C   UNL     1      14.898 -14.875  28.531  1.00  0.00     0.157 A 
ENDROOT
BRANCH   1   7
ATOM      7  C   UNL     1      12.407 -11.379  28.376  1.00  0.00     0.072 C 
ATOM      8  O   UNL     1      12.776 -10.305  28.922  1.00  0.00    -0.545 OA
ATOM      9  O   UNL     1      11.182 -11.415  27.722  1.00  0.00    -0.545 OA
ENDBRANCH   1   7
BRANCH   4  10
ATOM     10  O   UNL     1      15.568 -14.503  26.241  1.00  0.00    -0.504 OA
ATOM     11  H   UNL     1      15.835 -15.469  26.089  1.00  0.00     0.293 HD
ENDBRANCH   4  10
BRANCH   6  12
ATOM     12  O   UNL     1      15.708 -16.009  28.575  1.00  0.00    -0.504 OA
ATOM     13  H   UNL     1      16.664 -15.964  28.908  1.00  0.00     0.293 HD
ENDBRANCH   6  12
TORSDOF 3
ENDMDL
MODEL 8
REMARK VINA RESULT:    -5.168      1.473      4.381
REMARK INTER + INTRA:          -5.809
REMARK INTER:                  -5.771
REMARK INTRA:                  -0.038
REMARK UNBOUND:                -0.037
REMARK SMILES O=C([O-])c1ccc(O)c(O)c1
REMARK SMILES IDX 4 1 11 2 5 3 9 4 6 5 7 6 2 7 1 8 3 9 10 10 8 12
REMARK H PARENT 10 11 8 13
REMARK Flexibility Score: inf
ROOT
ATOM      1  C   UNL     1      13.464 -13.080  28.435  1.00  0.00     0.001 A 
ATOM      2  C   UNL     1      13.878 -13.870  29.523  1.00  0.00     0.060 A 
ATOM      3  C   UNL     1      13.765 -13.506  27.129  1.00  0.00     0.014 A 
ATOM      4  C   UNL     1      14.582 -15.064  29.309  1.00  0.00     0.158 A 
ATOM      5  C   UNL     1      14.466 -14.695  26.916  1.00  0.00     0.051 A 
ATOM      6  C   UNL     1      14.875 -15.478  28.003  1.00  0.00     0.157 A 
ENDROOT
BRANCH   1   7
ATOM      7  C   UNL     1      12.722 -11.821  28.667  1.00  0.00     0.072 C 
ATOM      8  O   UNL     1      13.205 -10.919  29.402  1.00  0.00    -0.545 OA
ATOM      9  O   UNL     1      11.480 -11.616  28.078  1.00  0.00    -0.545 OA
ENDBRANCH   1   7
BRANCH   4  10
ATOM     10  O   UNL     1      14.990 -15.845  30.388  1.00  0.00    -0.504 OA
ATOM     11  H   UNL     1      15.932 -15.786  30.760  1.00  0.00     0.293 HD
ENDBRANCH   4  10
BRANCH   6  12
ATOM     12  O   UNL     1      15.575 -16.666  27.795  1.00  0.00    -0.504 OA
ATOM     13  H   UNL     1      16.059 -16.849  26.924  1.00  0.00     0.293 HD
ENDBRANCH   6  12
TORSDOF 3
ENDMDL
MODEL 9
REMARK VINA RESULT:    -5.135      1.581      2.108
REMARK INTER + INTRA:          -5.772
REMARK INTER:                  -5.730
REMARK INTRA:                  -0.042
REMARK UNBOUND:                -0.037
REMARK SMILES O=C([O-])c1ccc(O)c(O)c1
REMARK SMILES IDX 4 1 11 2 5 3 9 4 6 5 7 6 2 7 1 8 3 9 10 10 8 12
REMARK H PARENT 10 11 8 13
REMARK Flexibility Score: inf
ROOT
ATOM      1  C   UNL     1      13.574 -12.780  28.706  1.00  0.00     0.001 A 
ATOM      2  C   UNL     1      13.595 -11.453  28.241  1.00  0.00     0.060 A 
ATOM      3  C   UNL     1      12.562 -13.175  29.598  1.00  0.00     0.014 A 
ATOM      4  C   UNL     1      12.619 -10.536  28.661  1.00  0.00     0.158 A 
ATOM      5  C   UNL     1      11.591 -12.263  30.016  1.00  0.00     0.051 A 
ATOM      6  C   UNL     1      11.616 -10.942  29.550  1.00  0.00     0.157 A 
ENDROOT
BRANCH   1   7
ATOM      7  C   UNL     1      14.606 -13.743  28.260  1.00  0.00     0.072 C 
ATOM      8  O   UNL     1      14.962 -14.692  29.009  1.00  0.00    -0.545 OA
ATOM      9  O   UNL     1      15.198 -13.613  27.009  1.00  0.00    -0.545 OA
ENDBRANCH   1   7
BRANCH   4  10
ATOM     10  O   UNL     1      12.641  -9.222  28.198  1.00  0.00    -0.504 OA
ATOM     11  H   UNL     1      11.936  -8.873  27.559  1.00  0.00     0.293 HD
ENDBRANCH   4  10
BRANCH   6  12
ATOM     12  O   UNL     1      10.648 -10.028  29.964  1.00  0.00    -0.504 OA
ATOM     13  H   UNL     1       9.663 -10.266  29.972  1.00  0.00     0.293 HD
ENDBRANCH   6  12
TORSDOF 3
ENDMDL
