MODEL 1
REMARK VINA RESULT:    -7.805      0.000      0.000
REMARK INTER + INTRA:          -8.759
REMARK INTER:                  -9.174
REMARK INTRA:                   0.416
REMARK UNBOUND:                 0.416
REMARK SMILES O=c1c(O)c(-c2ccc(O)cc2)oc2cc(O)cc(O)c12
REMARK SMILES IDX 5 1 3 2 2 3 1 4 21 5 19 6 18 7 16 8 15 9 14 10 13 11 6 12
REMARK SMILES IDX 7 13 8 14 9 15 12 16 11 17 10 18 4 20 20 22 17 24
REMARK H PARENT 10 19 4 21 20 23 17 25
REMARK Flexibility Score: inf
ROOT
ATOM      1  C   UNL     1      -1.415   0.241   4.430  1.00  0.00     0.180 A 
ATOM      2  C   UNL     1      -1.355   0.870   3.172  1.00  0.00     0.208 A 
ATOM      3  C   UNL     1      -1.165   2.260   3.116  1.00  0.00     0.238 A 
ATOM      4  O   UNL     1      -1.098   2.832   1.994  1.00  0.00    -0.285 OA
ATOM      5  C   UNL     1      -1.058   2.997   4.313  1.00  0.00     0.111 A 
ATOM      6  C   UNL     1      -0.870   4.400   4.345  1.00  0.00     0.134 A 
ATOM      7  C   UNL     1      -0.783   5.063   5.578  1.00  0.00     0.093 A 
ATOM      8  C   UNL     1      -0.881   4.353   6.776  1.00  0.00     0.123 A 
ATOM      9  C   UNL     1      -1.067   2.967   6.752  1.00  0.00     0.094 A 
ATOM     10  C   UNL     1      -1.154   2.287   5.534  1.00  0.00     0.146 A 
ATOM     11  O   UNL     1      -1.325   0.971   5.539  1.00  0.00    -0.452 OA
ENDROOT
BRANCH   1  12
ATOM     12  C   UNL     1      -1.594  -1.222   4.571  1.00  0.00     0.021 A 
ATOM     13  C   UNL     1      -1.190  -1.857   5.758  1.00  0.00     0.016 A 
ATOM     14  C   UNL     1      -1.330  -3.241   5.903  1.00  0.00     0.047 A 
ATOM     15  C   UNL     1      -1.860  -4.009   4.858  1.00  0.00     0.115 A 
ATOM     16  C   UNL     1      -2.107  -2.003   3.519  1.00  0.00     0.016 A 
ATOM     17  C   UNL     1      -2.244  -3.386   3.667  1.00  0.00     0.047 A 
BRANCH  15  18
ATOM     18  O   UNL     1      -2.004  -5.388   4.993  1.00  0.00    -0.508 OA
ATOM     19  H   UNL     1      -1.345  -6.033   4.572  1.00  0.00     0.293 HD
ENDBRANCH  15  18
ENDBRANCH   1  12
BRANCH   2  20
ATOM     20  O   UNL     1      -1.512   0.123   2.002  1.00  0.00    -0.502 OA
ATOM     21  H   UNL     1      -2.413  -0.228   1.698  1.00  0.00     0.293 HD
ENDBRANCH   2  20
BRANCH   6  22
ATOM     22  O   UNL     1      -0.769   5.137   3.164  1.00  0.00    -0.507 OA
ATOM     23  H   UNL     1      -0.678   6.147   3.173  1.00  0.00     0.293 HD
ENDBRANCH   6  22
BRANCH   8  24
ATOM     24  O   UNL     1      -0.792   5.036   7.988  1.00  0.00    -0.508 OA
ATOM     25  H   UNL     1       0.064   5.041   8.531  1.00  0.00     0.293 HD
ENDBRANCH   8  24
TORSDOF 5
ENDMDL
MODEL 2
REMARK VINA RESULT:    -7.679      2.132      6.699
REMARK INTER + INTRA:          -8.610
REMARK INTER:                  -8.686
REMARK INTRA:                   0.076
REMARK UNBOUND:                 0.416
REMARK SMILES O=c1c(O)c(-c2ccc(O)cc2)oc2cc(O)cc(O)c12
REMARK SMILES IDX 5 1 3 2 2 3 1 4 21 5 19 6 18 7 16 8 15 9 14 10 13 11 6 12
REMARK SMILES IDX 7 13 8 14 9 15 12 16 11 17 10 18 4 20 20 22 17 24
REMARK H PARENT 10 19 4 21 20 23 17 25
REMARK Flexibility Score: inf
ROOT
ATOM      1  C   UNL     1      -2.115  -0.225   4.694  1.00  0.00     0.180 A 
ATOM      2  C   UNL     1      -1.755  -1.141   3.688  1.00  0.00     0.208 A 
ATOM      3  C   UNL     1      -2.272  -2.445   3.740  1.00  0.00     0.238 A 
ATOM      4  O   UNL     1      -1.964  -3.271   2.837  1.00  0.00    -0.285 OA
ATOM      5  C   UNL     1      -3.121  -2.817   4.802  1.00  0.00     0.111 A 
ATOM      6  C   UNL     1      -3.680  -4.111   4.931  1.00  0.00     0.134 A 
ATOM      7  C   UNL     1      -4.509  -4.405   6.024  1.00  0.00     0.093 A 
ATOM      8  C   UNL     1      -4.787  -3.434   6.988  1.00  0.00     0.123 A 
ATOM      9  C   UNL     1      -4.238  -2.154   6.866  1.00  0.00     0.094 A 
ATOM     10  C   UNL     1      -3.411  -1.840   5.784  1.00  0.00     0.146 A 
ATOM     11  O   UNL     1      -2.907  -0.615   5.690  1.00  0.00    -0.452 OA
ENDROOT
BRANCH   1  12
ATOM     12  C   UNL     1      -1.627   1.172   4.698  1.00  0.00     0.021 A 
ATOM     13  C   UNL     1      -1.214   1.757   5.908  1.00  0.00     0.016 A 
ATOM     14  C   UNL     1      -0.770   3.082   5.938  1.00  0.00     0.047 A 
ATOM     15  C   UNL     1      -0.749   3.845   4.764  1.00  0.00     0.115 A 
ATOM     16  C   UNL     1      -1.622   1.952   3.527  1.00  0.00     0.016 A 
ATOM     17  C   UNL     1      -1.178   3.277   3.561  1.00  0.00     0.047 A 
BRANCH  15  18
ATOM     18  O   UNL     1      -0.308   5.167   4.782  1.00  0.00    -0.508 OA
ATOM     19  H   UNL     1      -0.718   5.853   5.405  1.00  0.00     0.293 HD
ENDBRANCH  15  18
ENDBRANCH   1  12
BRANCH   2  20
ATOM     20  O   UNL     1      -0.873  -0.763   2.672  1.00  0.00    -0.502 OA
ATOM     21  H   UNL     1      -0.011  -1.262   2.487  1.00  0.00     0.293 HD
ENDBRANCH   2  20
BRANCH   6  22
ATOM     22  O   UNL     1      -3.420  -5.103   3.984  1.00  0.00    -0.507 OA
ATOM     23  H   UNL     1      -3.464  -6.088   4.219  1.00  0.00     0.293 HD
ENDBRANCH   6  22
BRANCH   8  24
ATOM     24  O   UNL     1      -5.613  -3.753   8.064  1.00  0.00    -0.508 OA
ATOM     25  H   UNL     1      -6.487  -4.250   7.932  1.00  0.00     0.293 HD
ENDBRANCH   8  24
TORSDOF 5
ENDMDL
MODEL 3
REMARK VINA RESULT:    -7.675      2.150      2.575
REMARK INTER + INTRA:          -8.605
REMARK INTER:                  -8.450
REMARK INTRA:                  -0.155
REMARK UNBOUND:                 0.416
REMARK SMILES O=c1c(O)c(-c2ccc(O)cc2)oc2cc(O)cc(O)c12
REMARK SMILES IDX 5 1 3 2 2 3 1 4 21 5 19 6 18 7 16 8 15 9 14 10 13 11 6 12
REMARK SMILES IDX 7 13 8 14 9 15 12 16 11 17 10 18 4 20 20 22 17 24
REMARK H PARENT 10 19 4 21 20 23 17 25
REMARK Flexibility Score: inf
ROOT
ATOM      1  C   UNL     1      -2.436  -0.852   4.278  1.00  0.00     0.180 A 
ATOM      2  C   UNL     1      -1.645  -0.025   3.457  1.00  0.00     0.208 A 
ATOM      3  C   UNL     1      -1.792   1.368   3.555  1.00  0.00     0.238 A 
ATOM      4  O   UNL     1      -1.081   2.119   2.832  1.00  0.00    -0.285 OA
ATOM      5  C   UNL     1      -2.736   1.908   4.452  1.00  0.00     0.111 A 
ATOM      6  C   UNL     1      -2.950   3.299   4.608  1.00  0.00     0.134 A 
ATOM      7  C   UNL     1      -3.916   3.758   5.516  1.00  0.00     0.093 A 
ATOM      8  C   UNL     1      -4.671   2.855   6.267  1.00  0.00     0.123 A 
ATOM      9  C   UNL     1      -4.465   1.480   6.118  1.00  0.00     0.094 A 
ATOM     10  C   UNL     1      -3.506   1.003   5.221  1.00  0.00     0.146 A 
ATOM     11  O   UNL     1      -3.327  -0.307   5.102  1.00  0.00    -0.452 OA
ENDROOT
BRANCH   1  12
ATOM     12  C   UNL     1      -2.325  -2.328   4.247  1.00  0.00     0.021 A 
ATOM     13  C   UNL     1      -2.757  -3.030   3.109  1.00  0.00     0.016 A 
ATOM     14  C   UNL     1      -2.682  -4.425   3.068  1.00  0.00     0.047 A 
ATOM     15  C   UNL     1      -2.191  -5.138   4.169  1.00  0.00     0.115 A 
ATOM     16  C   UNL     1      -1.852  -3.052   5.357  1.00  0.00     0.016 A 
ATOM     17  C   UNL     1      -1.779  -4.447   5.312  1.00  0.00     0.047 A 
BRANCH  15  18
ATOM     18  O   UNL     1      -2.112  -6.528   4.138  1.00  0.00    -0.508 OA
ATOM     19  H   UNL     1      -1.230  -7.011   4.269  1.00  0.00     0.293 HD
ENDBRANCH  15  18
ENDBRANCH   1  12
BRANCH   2  20
ATOM     20  O   UNL     1      -0.752  -0.586   2.542  1.00  0.00    -0.502 OA
ATOM     21  H   UNL     1      -0.462  -0.102   1.700  1.00  0.00     0.293 HD
ENDBRANCH   2  20
BRANCH   6  22
ATOM     22  O   UNL     1      -2.212   4.225   3.870  1.00  0.00    -0.507 OA
ATOM     23  H   UNL     1      -1.665   3.949   3.062  1.00  0.00     0.293 HD
ENDBRANCH   6  22
BRANCH   8  24
ATOM     24  O   UNL     1      -5.625   3.337   7.162  1.00  0.00    -0.508 OA
ATOM     25  H   UNL     1      -5.559   3.153   8.156  1.00  0.00     0.293 HD
ENDBRANCH   8  24
TORSDOF 5
ENDMDL
MODEL 4
REMARK VINA RESULT:    -7.652      1.890      3.854
REMARK INTER + INTRA:          -8.579
REMARK INTER:                  -8.371
REMARK INTRA:                  -0.208
REMARK UNBOUND:                 0.416
REMARK SMILES O=c1c(O)c(-c2ccc(O)cc2)oc2cc(O)cc(O)c12
REMARK SMILES IDX 5 1 3 2 2 3 1 4 21 5 19 6 18 7 16 8 15 9 14 10 13 11 6 12
REMARK SMILES IDX 7 13 8 14 9 15 12 16 11 17 10 18 4 20 20 22 17 24
REMARK H PARENT 10 19 4 21 20 23 17 25
REMARK Flexibility Score: inf
ROOT
ATOM      1  C   UNL     1      -2.152  -1.969   5.470  1.00  0.00     0.180 A 
ATOM      2  C   UNL     1      -1.735  -1.456   6.714  1.00  0.00     0.208 A 
ATOM      3  C   UNL     1      -1.301  -0.123   6.787  1.00  0.00     0.238 A 
ATOM      4  O   UNL     1      -0.936   0.351   7.898  1.00  0.00    -0.285 OA
ATOM      5  C   UNL     1      -1.273   0.666   5.619  1.00  0.00     0.111 A 
ATOM      6  C   UNL     1      -0.846   2.015   5.605  1.00  0.00     0.134 A 
ATOM      7  C   UNL     1      -0.837   2.731   4.398  1.00  0.00     0.093 A 
ATOM      8  C   UNL     1      -1.244   2.124   3.208  1.00  0.00     0.123 A 
ATOM      9  C   UNL     1      -1.668   0.791   3.215  1.00  0.00     0.094 A 
ATOM     10  C   UNL     1      -1.686   0.062   4.407  1.00  0.00     0.146 A 
ATOM     11  O   UNL     1      -2.097  -1.200   4.386  1.00  0.00    -0.452 OA
ENDROOT
BRANCH   1  12
ATOM     12  C   UNL     1      -2.640  -3.358   5.316  1.00  0.00     0.021 A 
ATOM     13  C   UNL     1      -3.898  -3.711   5.834  1.00  0.00     0.016 A 
ATOM     14  C   UNL     1      -4.368  -5.022   5.719  1.00  0.00     0.047 A 
ATOM     15  C   UNL     1      -3.581  -6.001   5.101  1.00  0.00     0.115 A 
ATOM     16  C   UNL     1      -1.846  -4.352   4.715  1.00  0.00     0.016 A 
ATOM     17  C   UNL     1      -2.320  -5.663   4.602  1.00  0.00     0.047 A 
BRANCH  15  18
ATOM     18  O   UNL     1      -4.040  -7.311   4.980  1.00  0.00    -0.508 OA
ATOM     19  H   UNL     1      -4.204  -7.892   5.795  1.00  0.00     0.293 HD
ENDBRANCH  15  18
ENDBRANCH   1  12
BRANCH   2  20
ATOM     20  O   UNL     1      -1.727  -2.272   7.848  1.00  0.00    -0.502 OA
ATOM     21  H   UNL     1      -0.929  -2.332   8.468  1.00  0.00     0.293 HD
ENDBRANCH   2  20
BRANCH   6  22
ATOM     22  O   UNL     1      -0.431   2.649   6.778  1.00  0.00    -0.507 OA
ATOM     23  H   UNL     1       0.516   2.989   6.893  1.00  0.00     0.293 HD
ENDBRANCH   6  22
BRANCH   8  24
ATOM     24  O   UNL     1      -1.226   2.857   2.023  1.00  0.00    -0.508 OA
ATOM     25  H   UNL     1      -1.920   3.571   1.831  1.00  0.00     0.293 HD
ENDBRANCH   8  24
TORSDOF 5
ENDMDL
MODEL 5
REMARK VINA RESULT:    -7.621      2.845      4.980
REMARK INTER + INTRA:          -8.542
REMARK INTER:                  -8.252
REMARK INTRA:                  -0.290
REMARK UNBOUND:                 0.416
REMARK SMILES O=c1c(O)c(-c2ccc(O)cc2)oc2cc(O)cc(O)c12
REMARK SMILES IDX 5 1 3 2 2 3 1 4 21 5 19 6 18 7 16 8 15 9 14 10 13 11 6 12
REMARK SMILES IDX 7 13 8 14 9 15 12 16 11 17 10 18 4 20 20 22 17 24
REMARK H PARENT 10 19 4 21 20 23 17 25
REMARK Flexibility Score: inf
ROOT
ATOM      1  C   UNL     1      -2.444  -3.372   5.617  1.00  0.00     0.180 A 
ATOM      2  C   UNL     1      -3.425  -2.723   6.391  1.00  0.00     0.208 A 
ATOM      3  C   UNL     1      -3.737  -1.383   6.109  1.00  0.00     0.238 A 
ATOM      4  O   UNL     1      -4.622  -0.796   6.788  1.00  0.00    -0.285 OA
ATOM      5  C   UNL     1      -3.052  -0.712   5.075  1.00  0.00     0.111 A 
ATOM      6  C   UNL     1      -3.302   0.638   4.729  1.00  0.00     0.134 A 
ATOM      7  C   UNL     1      -2.571   1.239   3.694  1.00  0.00     0.093 A 
ATOM      8  C   UNL     1      -1.596   0.518   3.000  1.00  0.00     0.123 A 
ATOM      9  C   UNL     1      -1.345  -0.816   3.336  1.00  0.00     0.094 A 
ATOM     10  C   UNL     1      -2.063  -1.433   4.364  1.00  0.00     0.146 A 
ATOM     11  O   UNL     1      -1.808  -2.702   4.660  1.00  0.00    -0.452 OA
ENDROOT
BRANCH   1  12
ATOM     12  C   UNL     1      -2.074  -4.787   5.841  1.00  0.00     0.021 A 
ATOM     13  C   UNL     1      -2.777  -5.801   5.168  1.00  0.00     0.016 A 
ATOM     14  C   UNL     1      -2.459  -7.145   5.383  1.00  0.00     0.047 A 
ATOM     15  C   UNL     1      -1.446  -7.494   6.285  1.00  0.00     0.115 A 
ATOM     16  C   UNL     1      -1.071  -5.147   6.761  1.00  0.00     0.016 A 
ATOM     17  C   UNL     1      -0.756  -6.492   6.973  1.00  0.00     0.047 A 
BRANCH  15  18
ATOM     18  O   UNL     1      -1.120  -8.831   6.505  1.00  0.00    -0.508 OA
ATOM     19  H   UNL     1      -0.456  -9.103   7.221  1.00  0.00     0.293 HD
ENDBRANCH  15  18
ENDBRANCH   1  12
BRANCH   2  20
ATOM     20  O   UNL     1      -4.055  -3.396   7.441  1.00  0.00    -0.502 OA
ATOM     21  H   UNL     1      -4.868  -3.983   7.300  1.00  0.00     0.293 HD
ENDBRANCH   2  20
BRANCH   6  22
ATOM     22  O   UNL     1      -4.269   1.384   5.405  1.00  0.00    -0.507 OA
ATOM     23  H   UNL     1      -4.341   2.389   5.292  1.00  0.00     0.293 HD
ENDBRANCH   6  22
BRANCH   8  24
ATOM     24  O   UNL     1      -0.884   1.139   1.976  1.00  0.00    -0.508 OA
ATOM     25  H   UNL     1      -0.829   0.733   1.048  1.00  0.00     0.293 HD
ENDBRANCH   8  24
TORSDOF 5
ENDMDL
MODEL 6
REMARK VINA RESULT:    -7.602     11.734     14.073
REMARK INTER + INTRA:          -8.520
REMARK INTER:                  -8.285
REMARK INTRA:                  -0.236
REMARK UNBOUND:                 0.416
REMARK SMILES O=c1c(O)c(-c2ccc(O)cc2)oc2cc(O)cc(O)c12
REMARK SMILES IDX 5 1 3 2 2 3 1 4 21 5 19 6 18 7 16 8 15 9 14 10 13 11 6 12
REMARK SMILES IDX 7 13 8 14 9 15 12 16 11 17 10 18 4 20 20 22 17 24
REMARK H PARENT 10 19 4 21 20 23 17 25
REMARK Flexibility Score: inf
ROOT
ATOM      1  C   UNL     1       1.761   6.713  -6.347  1.00  0.00     0.180 A 
ATOM      2  C   UNL     1       2.041   6.734  -7.727  1.00  0.00     0.208 A 
ATOM      3  C   UNL     1       1.226   5.993  -8.597  1.00  0.00     0.238 A 
ATOM      4  O   UNL     1       1.461   6.013  -9.836  1.00  0.00    -0.285 OA
ATOM      5  C   UNL     1       0.161   5.231  -8.074  1.00  0.00     0.111 A 
ATOM      6  C   UNL     1      -0.705   4.454  -8.880  1.00  0.00     0.134 A 
ATOM      7  C   UNL     1      -1.737   3.715  -8.283  1.00  0.00     0.093 A 
ATOM      8  C   UNL     1      -1.918   3.737  -6.898  1.00  0.00     0.123 A 
ATOM      9  C   UNL     1      -1.067   4.503  -6.096  1.00  0.00     0.094 A 
ATOM     10  C   UNL     1      -0.034   5.248  -6.672  1.00  0.00     0.146 A 
ATOM     11  O   UNL     1       0.757   5.971  -5.888  1.00  0.00    -0.452 OA
ENDROOT
BRANCH   1  12
ATOM     12  C   UNL     1       2.563   7.482  -5.370  1.00  0.00     0.021 A 
ATOM     13  C   UNL     1       2.064   8.696  -4.869  1.00  0.00     0.016 A 
ATOM     14  C   UNL     1       2.815   9.450  -3.962  1.00  0.00     0.047 A 
ATOM     15  C   UNL     1       4.081   9.009  -3.557  1.00  0.00     0.115 A 
ATOM     16  C   UNL     1       3.845   7.056  -4.974  1.00  0.00     0.016 A 
ATOM     17  C   UNL     1       4.593   7.813  -4.067  1.00  0.00     0.047 A 
BRANCH  15  18
ATOM     18  O   UNL     1       4.838   9.752  -2.653  1.00  0.00    -0.508 OA
ATOM     19  H   UNL     1       4.828  10.765  -2.662  1.00  0.00     0.293 HD
ENDBRANCH  15  18
ENDBRANCH   1  12
BRANCH   2  20
ATOM     20  O   UNL     1       3.132   7.458  -8.215  1.00  0.00    -0.502 OA
ATOM     21  H   UNL     1       4.080   7.293  -7.896  1.00  0.00     0.293 HD
ENDBRANCH   2  20
BRANCH   6  22
ATOM     22  O   UNL     1      -0.548   4.410 -10.266  1.00  0.00    -0.507 OA
ATOM     23  H   UNL     1      -1.122   4.972 -10.886  1.00  0.00     0.293 HD
ENDBRANCH   6  22
BRANCH   8  24
ATOM     24  O   UNL     1      -2.950   2.993  -6.330  1.00  0.00    -0.508 OA
ATOM     25  H   UNL     1      -3.484   2.325  -6.874  1.00  0.00     0.293 HD
ENDBRANCH   8  24
TORSDOF 5
ENDMDL
MODEL 7
REMARK VINA RESULT:    -7.520     11.602     12.982
REMARK INTER + INTRA:          -8.424
REMARK INTER:                  -8.257
REMARK INTRA:                  -0.167
REMARK UNBOUND:                 0.416
REMARK SMILES O=c1c(O)c(-c2ccc(O)cc2)oc2cc(O)cc(O)c12
REMARK SMILES IDX 5 1 3 2 2 3 1 4 21 5 19 6 18 7 16 8 15 9 14 10 13 11 6 12
REMARK SMILES IDX 7 13 8 14 9 15 12 16 11 17 10 18 4 20 20 22 17 24
REMARK H PARENT 10 19 4 21 20 23 17 25
REMARK Flexibility Score: inf
ROOT
ATOM      1  C   UNL     1      -4.118   1.147  -7.960  1.00  0.00     0.180 A 
ATOM      2  C   UNL     1      -3.849   1.330  -9.331  1.00  0.00     0.208 A 
ATOM      3  C   UNL     1      -2.894   2.285  -9.713  1.00  0.00     0.238 A 
ATOM      4  O   UNL     1      -2.637   2.449 -10.938  1.00  0.00    -0.285 OA
ATOM      5  C   UNL     1      -2.242   3.053  -8.727  1.00  0.00     0.111 A 
ATOM      6  C   UNL     1      -1.271   4.038  -9.028  1.00  0.00     0.134 A 
ATOM      7  C   UNL     1      -0.673   4.767  -7.989  1.00  0.00     0.093 A 
ATOM      8  C   UNL     1      -1.028   4.532  -6.659  1.00  0.00     0.123 A 
ATOM      9  C   UNL     1      -1.986   3.559  -6.355  1.00  0.00     0.094 A 
ATOM     10  C   UNL     1      -2.592   2.821  -7.375  1.00  0.00     0.146 A 
ATOM     11  O   UNL     1      -3.494   1.900  -7.058  1.00  0.00    -0.452 OA
ENDROOT
BRANCH   1  12
ATOM     12  C   UNL     1      -5.097   0.147  -7.477  1.00  0.00     0.021 A 
ATOM     13  C   UNL     1      -6.233   0.577  -6.770  1.00  0.00     0.016 A 
ATOM     14  C   UNL     1      -7.158  -0.352  -6.286  1.00  0.00     0.047 A 
ATOM     15  C   UNL     1      -6.952  -1.723  -6.487  1.00  0.00     0.115 A 
ATOM     16  C   UNL     1      -4.886  -1.232  -7.657  1.00  0.00     0.016 A 
ATOM     17  C   UNL     1      -5.813  -2.158  -7.170  1.00  0.00     0.047 A 
BRANCH  15  18
ATOM     18  O   UNL     1      -7.868  -2.657  -6.008  1.00  0.00    -0.508 OA
ATOM     19  H   UNL     1      -8.862  -2.462  -5.990  1.00  0.00     0.293 HD
ENDBRANCH  15  18
ENDBRANCH   1  12
BRANCH   2  20
ATOM     20  O   UNL     1      -4.544   0.591 -10.291  1.00  0.00    -0.502 OA
ATOM     21  H   UNL     1      -4.955   1.018 -11.112  1.00  0.00     0.293 HD
ENDBRANCH   2  20
BRANCH   6  22
ATOM     22  O   UNL     1      -0.897   4.297 -10.347  1.00  0.00    -0.507 OA
ATOM     23  H   UNL     1      -1.573   4.299 -11.103  1.00  0.00     0.293 HD
ENDBRANCH   6  22
BRANCH   8  24
ATOM     24  O   UNL     1      -0.419   5.270  -5.646  1.00  0.00    -0.508 OA
ATOM     25  H   UNL     1       0.587   5.381  -5.603  1.00  0.00     0.293 HD
ENDBRANCH   8  24
TORSDOF 5
ENDMDL
MODEL 8
REMARK VINA RESULT:    -7.491      2.185      7.397
REMARK INTER + INTRA:          -8.390
REMARK INTER:                  -8.624
REMARK INTRA:                   0.235
REMARK UNBOUND:                 0.416
REMARK SMILES O=c1c(O)c(-c2ccc(O)cc2)oc2cc(O)cc(O)c12
REMARK SMILES IDX 5 1 3 2 2 3 1 4 21 5 19 6 18 7 16 8 15 9 14 10 13 11 6 12
REMARK SMILES IDX 7 13 8 14 9 15 12 16 11 17 10 18 4 20 20 22 17 24
REMARK H PARENT 10 19 4 21 20 23 17 25
REMARK Flexibility Score: inf
ROOT
ATOM      1  C   UNL     1      -2.671  -0.475   4.956  1.00  0.00     0.180 A 
ATOM      2  C   UNL     1      -3.597  -0.571   6.013  1.00  0.00     0.208 A 
ATOM      3  C   UNL     1      -4.078  -1.837   6.381  1.00  0.00     0.238 A 
ATOM      4  O   UNL     1      -4.900  -1.936   7.333  1.00  0.00    -0.285 OA
ATOM      5  C   UNL     1      -3.644  -2.979   5.678  1.00  0.00     0.111 A 
ATOM      6  C   UNL     1      -4.082  -4.290   5.982  1.00  0.00     0.134 A 
ATOM      7  C   UNL     1      -3.610  -5.375   5.228  1.00  0.00     0.093 A 
ATOM      8  C   UNL     1      -2.711  -5.175   4.179  1.00  0.00     0.123 A 
ATOM      9  C   UNL     1      -2.273  -3.882   3.874  1.00  0.00     0.094 A 
ATOM     10  C   UNL     1      -2.730  -2.788   4.613  1.00  0.00     0.146 A 
ATOM     11  O   UNL     1      -2.295  -1.573   4.306  1.00  0.00    -0.452 OA
ENDROOT
BRANCH   1  12
ATOM     12  C   UNL     1      -2.104   0.822   4.522  1.00  0.00     0.021 A 
ATOM     13  C   UNL     1      -1.736   1.000   3.178  1.00  0.00     0.016 A 
ATOM     14  C   UNL     1      -1.178   2.209   2.752  1.00  0.00     0.047 A 
ATOM     15  C   UNL     1      -0.966   3.249   3.666  1.00  0.00     0.115 A 
ATOM     16  C   UNL     1      -1.869   1.864   5.439  1.00  0.00     0.016 A 
ATOM     17  C   UNL     1      -1.310   3.071   5.009  1.00  0.00     0.047 A 
BRANCH  15  18
ATOM     18  O   UNL     1      -0.411   4.458   3.252  1.00  0.00    -0.508 OA
ATOM     19  H   UNL     1      -0.967   5.303   3.195  1.00  0.00     0.293 HD
ENDBRANCH  15  18
ENDBRANCH   1  12
BRANCH   2  20
ATOM     20  O   UNL     1      -4.050   0.581   6.662  1.00  0.00    -0.502 OA
ATOM     21  H   UNL     1      -4.235   0.605   7.658  1.00  0.00     0.293 HD
ENDBRANCH   2  20
BRANCH   6  22
ATOM     22  O   UNL     1      -4.981  -4.522   7.024  1.00  0.00    -0.507 OA
ATOM     23  H   UNL     1      -4.830  -4.145   7.953  1.00  0.00     0.293 HD
ENDBRANCH   6  22
BRANCH   8  24
ATOM     24  O   UNL     1      -2.258  -6.270   3.446  1.00  0.00    -0.508 OA
ATOM     25  H   UNL     1      -1.525  -6.176   2.752  1.00  0.00     0.293 HD
ENDBRANCH   8  24
TORSDOF 5
ENDMDL
MODEL 9
REMARK VINA RESULT:    -5.821     11.830     13.245
REMARK INTER + INTRA:          -6.426
REMARK INTER:                  -6.143
REMARK INTRA:                  -0.283
REMARK UNBOUND:                 0.416
REMARK SMILES O=c1c(O)c(-c2ccc(O)cc2)oc2cc(O)cc(O)c12
REMARK SMILES IDX 5 1 3 2 2 3 1 4 21 5 19 6 18 7 16 8 15 9 14 10 13 11 6 12
REMARK SMILES IDX 7 13 8 14 9 15 12 16 11 17 10 18 4 20 20 22 17 24
REMARK H PARENT 10 19 4 21 20 23 17 25
REMARK Flexibility Score: inf
ROOT
ATOM      1  C   UNL     1      -8.233  -2.628  -5.676  1.00  0.00     0.180 A 
ATOM      2  C   UNL     1      -8.990  -2.591  -6.863  1.00  0.00     0.208 A 
ATOM      3  C   UNL     1      -8.602  -1.715  -7.888  1.00  0.00     0.238 A 
ATOM      4  O   UNL     1      -9.266  -1.682  -8.961  1.00  0.00    -0.285 OA
ATOM      5  C   UNL     1      -7.481  -0.880  -7.705  1.00  0.00     0.111 A 
ATOM      6  C   UNL     1      -7.026   0.033  -8.686  1.00  0.00     0.134 A 
ATOM      7  C   UNL     1      -5.907   0.838  -8.423  1.00  0.00     0.093 A 
ATOM      8  C   UNL     1      -5.237   0.748  -7.201  1.00  0.00     0.123 A 
ATOM      9  C   UNL     1      -5.681  -0.153  -6.228  1.00  0.00     0.094 A 
ATOM     10  C   UNL     1      -6.792  -0.965  -6.471  1.00  0.00     0.146 A 
ATOM     11  O   UNL     1      -7.190  -1.815  -5.532  1.00  0.00    -0.452 OA
ENDROOT
BRANCH   1  12
ATOM     12  C   UNL     1      -8.568  -3.538  -4.557  1.00  0.00     0.021 A 
ATOM     13  C   UNL     1      -8.112  -4.867  -4.586  1.00  0.00     0.016 A 
ATOM     14  C   UNL     1      -8.436  -5.749  -3.551  1.00  0.00     0.047 A 
ATOM     15  C   UNL     1      -9.232  -5.319  -2.482  1.00  0.00     0.115 A 
ATOM     16  C   UNL     1      -9.384  -3.119  -3.490  1.00  0.00     0.016 A 
ATOM     17  C   UNL     1      -9.706  -4.004  -2.457  1.00  0.00     0.047 A 
BRANCH  15  18
ATOM     18  O   UNL     1      -9.559  -6.190  -1.445  1.00  0.00    -0.508 OA
ATOM     19  H   UNL     1     -10.083  -7.041  -1.613  1.00  0.00     0.293 HD
ENDBRANCH  15  18
ENDBRANCH   1  12
BRANCH   2  20
ATOM     20  O   UNL     1     -10.125  -3.394  -7.001  1.00  0.00    -0.502 OA
ATOM     21  H   UNL     1     -10.904  -3.348  -6.355  1.00  0.00     0.293 HD
ENDBRANCH   2  20
BRANCH   6  22
ATOM     22  O   UNL     1      -7.675   0.147  -9.916  1.00  0.00    -0.507 OA
ATOM     23  H   UNL     1      -8.246  -0.603 -10.289  1.00  0.00     0.293 HD
ENDBRANCH   6  22
BRANCH   8  24
ATOM     24  O   UNL     1      -4.128   1.558  -6.965  1.00  0.00    -0.508 OA
ATOM     25  H   UNL     1      -3.839   2.266  -7.630  1.00  0.00     0.293 HD
ENDBRANCH   8  24
TORSDOF 5
ENDMDL
