MODEL 1
REMARK VINA RESULT:    -5.967      0.000      0.000
REMARK INTER + INTRA:          -6.607
REMARK INTER:                  -6.490
REMARK INTRA:                  -0.117
REMARK UNBOUND:                -0.117
REMARK SMILES Cc1ccc(C(C)C)cc1O
REMARK SMILES IDX 1 1 2 2 10 3 9 4 5 5 4 6 3 7 11 8 6 10 7 11 8 12
REMARK H PARENT 11 9
REMARK Flexibility Score: inf
ROOT
ATOM      1  C   UNL     1      84.248   1.258   1.132  1.00  0.00     0.048 C 
ATOM      2  C   UNL     1      82.815   1.132   0.696  1.00  0.00    -0.009 A 
ATOM      3  C   UNL     1      82.095  -0.069   0.883  1.00  0.00     0.118 A 
ATOM      4  C   UNL     1      80.762  -0.154   0.465  1.00  0.00     0.050 A 
ATOM      5  C   UNL     1      80.123   0.944  -0.140  1.00  0.00    -0.042 A 
ATOM      6  C   UNL     1      80.844   2.134  -0.320  1.00  0.00     0.004 A 
ATOM      7  C   UNL     1      82.175   2.227   0.092  1.00  0.00     0.007 A 
ENDROOT
BRANCH   3   8
ATOM      8  O   UNL     1      82.675  -1.193   1.476  1.00  0.00    -0.508 OA
ATOM      9  H   UNL     1      83.456  -1.691   1.069  1.00  0.00     0.293 HD
ENDBRANCH   3   8
BRANCH   5  10
ATOM     10  C   UNL     1      78.678   0.857  -0.593  1.00  0.00     0.013 C 
ATOM     11  C   UNL     1      78.103  -0.544  -0.347  1.00  0.00     0.012 C 
ATOM     12  C   UNL     1      77.819   1.931   0.086  1.00  0.00     0.012 C 
ENDBRANCH   5  10
TORSDOF 2
ENDMDL
MODEL 2
REMARK VINA RESULT:    -5.869     10.185     11.894
REMARK INTER + INTRA:          -6.500
REMARK INTER:                  -6.373
REMARK INTRA:                  -0.127
REMARK UNBOUND:                -0.117
REMARK SMILES Cc1ccc(C(C)C)cc1O
REMARK SMILES IDX 1 1 2 2 10 3 9 4 5 5 4 6 3 7 11 8 6 10 7 11 8 12
REMARK H PARENT 11 9
REMARK Flexibility Score: inf
ROOT
ATOM      1  C   UNL     1      70.080  -2.759  -4.509  1.00  0.00     0.048 C 
ATOM      2  C   UNL     1      70.257  -1.324  -4.099  1.00  0.00    -0.009 A 
ATOM      3  C   UNL     1      69.339  -0.329  -4.503  1.00  0.00     0.118 A 
ATOM      4  C   UNL     1      69.531   0.999  -4.104  1.00  0.00     0.050 A 
ATOM      5  C   UNL     1      70.629   1.360  -3.301  1.00  0.00    -0.042 A 
ATOM      6  C   UNL     1      71.535   0.366  -2.903  1.00  0.00     0.004 A 
ATOM      7  C   UNL     1      71.351  -0.961  -3.297  1.00  0.00     0.007 A 
ENDROOT
BRANCH   3   8
ATOM      8  O   UNL     1      68.231  -0.625  -5.300  1.00  0.00    -0.508 OA
ATOM      9  H   UNL     1      68.107  -1.516  -5.764  1.00  0.00     0.293 HD
ENDBRANCH   3   8
BRANCH   5  10
ATOM     10  C   UNL     1      70.841   2.798  -2.865  1.00  0.00     0.013 C 
ATOM     11  C   UNL     1      69.986   3.136  -1.637  1.00  0.00     0.012 C 
ATOM     12  C   UNL     1      72.325   3.082  -2.597  1.00  0.00     0.012 C 
ENDBRANCH   5  10
TORSDOF 2
ENDMDL
MODEL 3
REMARK VINA RESULT:    -5.775      2.074      4.626
REMARK INTER + INTRA:          -6.398
REMARK INTER:                  -6.270
REMARK INTRA:                  -0.128
REMARK UNBOUND:                -0.117
REMARK SMILES Cc1ccc(C(C)C)cc1O
REMARK SMILES IDX 1 1 2 2 10 3 9 4 5 5 4 6 3 7 11 8 6 10 7 11 8 12
REMARK H PARENT 11 9
REMARK Flexibility Score: inf
ROOT
ATOM      1  C   UNL     1      77.812   0.001  -0.397  1.00  0.00     0.048 C 
ATOM      2  C   UNL     1      79.198   0.543  -0.188  1.00  0.00    -0.009 A 
ATOM      3  C   UNL     1      79.425   1.926  -0.009  1.00  0.00     0.118 A 
ATOM      4  C   UNL     1      80.728   2.399   0.183  1.00  0.00     0.050 A 
ATOM      5  C   UNL     1      81.822   1.514   0.203  1.00  0.00    -0.042 A 
ATOM      6  C   UNL     1      81.588   0.142   0.026  1.00  0.00     0.004 A 
ATOM      7  C   UNL     1      80.292  -0.338  -0.167  1.00  0.00     0.007 A 
ENDROOT
BRANCH   3   8
ATOM      8  O   UNL     1      78.380   2.852  -0.020  1.00  0.00    -0.508 OA
ATOM      9  H   UNL     1      78.232   3.526   0.721  1.00  0.00     0.293 HD
ENDBRANCH   3   8
BRANCH   5  10
ATOM     10  C   UNL     1      83.237   2.022   0.412  1.00  0.00     0.013 C 
ATOM     11  C   UNL     1      84.056   1.042   1.261  1.00  0.00     0.012 C 
ATOM     12  C   UNL     1      83.928   2.302  -0.928  1.00  0.00     0.012 C 
ENDBRANCH   5  10
TORSDOF 2
ENDMDL
MODEL 4
REMARK VINA RESULT:    -5.760      2.120      3.173
REMARK INTER + INTRA:          -6.382
REMARK INTER:                  -6.266
REMARK INTRA:                  -0.117
REMARK UNBOUND:                -0.117
REMARK SMILES Cc1ccc(C(C)C)cc1O
REMARK SMILES IDX 1 1 2 2 10 3 9 4 5 5 4 6 3 7 11 8 6 10 7 11 8 12
REMARK H PARENT 11 9
REMARK Flexibility Score: inf
ROOT
ATOM      1  C   UNL     1      81.879   5.368  -0.770  1.00  0.00     0.048 C 
ATOM      2  C   UNL     1      81.398   3.970  -0.499  1.00  0.00    -0.009 A 
ATOM      3  C   UNL     1      82.237   2.853  -0.710  1.00  0.00     0.118 A 
ATOM      4  C   UNL     1      81.759   1.564  -0.447  1.00  0.00     0.050 A 
ATOM      5  C   UNL     1      80.451   1.362   0.028  1.00  0.00    -0.042 A 
ATOM      6  C   UNL     1      79.625   2.476   0.236  1.00  0.00     0.004 A 
ATOM      7  C   UNL     1      80.093   3.766  -0.024  1.00  0.00     0.007 A 
ENDROOT
BRANCH   3   8
ATOM      8  O   UNL     1      83.545   2.990  -1.181  1.00  0.00    -0.508 OA
ATOM      9  H   UNL     1      83.809   3.659  -1.893  1.00  0.00     0.293 HD
ENDBRANCH   3   8
BRANCH   5  10
ATOM     10  C   UNL     1      79.929  -0.034   0.315  1.00  0.00     0.013 C 
ATOM     11  C   UNL     1      78.686  -0.344  -0.528  1.00  0.00     0.012 C 
ATOM     12  C   UNL     1      81.020  -1.090   0.097  1.00  0.00     0.012 C 
ENDBRANCH   5  10
TORSDOF 2
ENDMDL
MODEL 5
REMARK VINA RESULT:    -5.757      2.196      2.900
REMARK INTER + INTRA:          -6.378
REMARK INTER:                  -6.268
REMARK INTRA:                  -0.111
REMARK UNBOUND:                -0.117
REMARK SMILES Cc1ccc(C(C)C)cc1O
REMARK SMILES IDX 1 1 2 2 10 3 9 4 5 5 4 6 3 7 11 8 6 10 7 11 8 12
REMARK H PARENT 11 9
REMARK Flexibility Score: inf
ROOT
ATOM      1  C   UNL     1      84.684   2.348  -0.815  1.00  0.00     0.048 C 
ATOM      2  C   UNL     1      83.222   2.148  -0.528  1.00  0.00    -0.009 A 
ATOM      3  C   UNL     1      82.268   3.135  -0.862  1.00  0.00     0.118 A 
ATOM      4  C   UNL     1      80.915   2.918  -0.580  1.00  0.00     0.050 A 
ATOM      5  C   UNL     1      80.486   1.726   0.031  1.00  0.00    -0.042 A 
ATOM      6  C   UNL     1      81.439   0.750   0.358  1.00  0.00     0.004 A 
ATOM      7  C   UNL     1      82.792   0.958   0.082  1.00  0.00     0.007 A 
ENDROOT
BRANCH   3   8
ATOM      8  O   UNL     1      82.633   4.339  -1.469  1.00  0.00    -0.508 OA
ATOM      9  H   UNL     1      83.559   4.739  -1.390  1.00  0.00     0.293 HD
ENDBRANCH   3   8
BRANCH   5  10
ATOM     10  C   UNL     1      79.019   1.486   0.337  1.00  0.00     0.013 C 
ATOM     11  C   UNL     1      78.215   2.790   0.254  1.00  0.00     0.012 C 
ATOM     12  C   UNL     1      78.428   0.415  -0.589  1.00  0.00     0.012 C 
ENDBRANCH   5  10
TORSDOF 2
ENDMDL
MODEL 6
REMARK VINA RESULT:    -5.738      1.616      4.298
REMARK INTER + INTRA:          -6.358
REMARK INTER:                  -6.253
REMARK INTRA:                  -0.105
REMARK UNBOUND:                -0.117
REMARK SMILES Cc1ccc(C(C)C)cc1O
REMARK SMILES IDX 1 1 2 2 10 3 9 4 5 5 4 6 3 7 11 8 6 10 7 11 8 12
REMARK H PARENT 11 9
REMARK Flexibility Score: inf
ROOT
ATOM      1  C   UNL     1      76.707   0.879  -0.373  1.00  0.00     0.048 C 
ATOM      2  C   UNL     1      78.158   1.221  -0.183  1.00  0.00    -0.009 A 
ATOM      3  C   UNL     1      79.169   0.251  -0.363  1.00  0.00     0.118 A 
ATOM      4  C   UNL     1      80.511   0.601  -0.178  1.00  0.00     0.050 A 
ATOM      5  C   UNL     1      80.873   1.912   0.184  1.00  0.00    -0.042 A 
ATOM      6  C   UNL     1      79.863   2.870   0.360  1.00  0.00     0.004 A 
ATOM      7  C   UNL     1      78.521   2.529   0.178  1.00  0.00     0.007 A 
ENDROOT
BRANCH   3   8
ATOM      8  O   UNL     1      78.873  -1.066  -0.721  1.00  0.00    -0.508 OA
ATOM      9  H   UNL     1      78.973  -1.418  -1.665  1.00  0.00     0.293 HD
ENDBRANCH   3   8
BRANCH   5  10
ATOM     10  C   UNL     1      82.327   2.297   0.384  1.00  0.00     0.013 C 
ATOM     11  C   UNL     1      83.159   1.094   0.845  1.00  0.00     0.012 C 
ATOM     12  C   UNL     1      82.915   2.919  -0.888  1.00  0.00     0.012 C 
ENDBRANCH   5  10
TORSDOF 2
ENDMDL
MODEL 7
REMARK VINA RESULT:    -5.568      1.918      4.606
REMARK INTER + INTRA:          -6.173
REMARK INTER:                  -6.046
REMARK INTRA:                  -0.127
REMARK UNBOUND:                -0.117
REMARK SMILES Cc1ccc(C(C)C)cc1O
REMARK SMILES IDX 1 1 2 2 10 3 9 4 5 5 4 6 3 7 11 8 6 10 7 11 8 12
REMARK H PARENT 11 9
REMARK Flexibility Score: inf
ROOT
ATOM      1  C   UNL     1      78.737   2.774   0.369  1.00  0.00     0.048 C 
ATOM      2  C   UNL     1      80.184   2.610  -0.003  1.00  0.00    -0.009 A 
ATOM      3  C   UNL     1      80.819   1.350   0.068  1.00  0.00     0.118 A 
ATOM      4  C   UNL     1      82.168   1.230  -0.285  1.00  0.00     0.050 A 
ATOM      5  C   UNL     1      82.906   2.350  -0.712  1.00  0.00    -0.042 A 
ATOM      6  C   UNL     1      82.267   3.597  -0.780  1.00  0.00     0.004 A 
ATOM      7  C   UNL     1      80.922   3.726  -0.429  1.00  0.00     0.007 A 
ENDROOT
BRANCH   3   8
ATOM      8  O   UNL     1      80.140   0.203   0.484  1.00  0.00    -0.508 OA
ATOM      9  H   UNL     1      79.583  -0.367  -0.140  1.00  0.00     0.293 HD
ENDBRANCH   3   8
BRANCH   5  10
ATOM     10  C   UNL     1      84.368   2.225  -1.096  1.00  0.00     0.013 C 
ATOM     11  C   UNL     1      84.902   3.541  -1.675  1.00  0.00     0.012 C 
ATOM     12  C   UNL     1      85.217   1.764   0.096  1.00  0.00     0.012 C 
ENDBRANCH   5  10
TORSDOF 2
ENDMDL
MODEL 8
REMARK VINA RESULT:    -5.428      8.691     11.262
REMARK INTER + INTRA:          -6.021
REMARK INTER:                  -5.892
REMARK INTRA:                  -0.128
REMARK UNBOUND:                -0.117
REMARK SMILES Cc1ccc(C(C)C)cc1O
REMARK SMILES IDX 1 1 2 2 10 3 9 4 5 5 4 6 3 7 11 8 6 10 7 11 8 12
REMARK H PARENT 11 9
REMARK Flexibility Score: inf
ROOT
ATOM      1  C   UNL     1      68.863   0.874  -5.371  1.00  0.00     0.048 C 
ATOM      2  C   UNL     1      69.721   0.762  -4.142  1.00  0.00    -0.009 A 
ATOM      3  C   UNL     1      70.306  -0.468  -3.766  1.00  0.00     0.118 A 
ATOM      4  C   UNL     1      71.100  -0.538  -2.615  1.00  0.00     0.050 A 
ATOM      5  C   UNL     1      71.327   0.603  -1.824  1.00  0.00    -0.042 A 
ATOM      6  C   UNL     1      70.744   1.821  -2.205  1.00  0.00     0.004 A 
ATOM      7  C   UNL     1      69.950   1.900  -3.350  1.00  0.00     0.007 A 
ENDROOT
BRANCH   3   8
ATOM      8  O   UNL     1      70.116  -1.634  -4.510  1.00  0.00    -0.508 OA
ATOM      9  H   UNL     1      69.212  -2.071  -4.631  1.00  0.00     0.293 HD
ENDBRANCH   3   8
BRANCH   5  10
ATOM     10  C   UNL     1      72.188   0.532  -0.576  1.00  0.00     0.013 C 
ATOM     11  C   UNL     1      73.187   1.695  -0.526  1.00  0.00     0.012 C 
ATOM     12  C   UNL     1      71.325   0.492   0.691  1.00  0.00     0.012 C 
ENDBRANCH   5  10
TORSDOF 2
ENDMDL
MODEL 9
REMARK VINA RESULT:    -5.365      2.557      5.183
REMARK INTER + INTRA:          -5.952
REMARK INTER:                  -5.841
REMARK INTRA:                  -0.112
REMARK UNBOUND:                -0.117
REMARK SMILES Cc1ccc(C(C)C)cc1O
REMARK SMILES IDX 1 1 2 2 10 3 9 4 5 5 4 6 3 7 11 8 6 10 7 11 8 12
REMARK H PARENT 11 9
REMARK Flexibility Score: inf
ROOT
ATOM      1  C   UNL     1      79.142   2.724   0.179  1.00  0.00     0.048 C 
ATOM      2  C   UNL     1      80.613   2.472  -0.001  1.00  0.00    -0.009 A 
ATOM      3  C   UNL     1      81.450   3.429  -0.617  1.00  0.00     0.118 A 
ATOM      4  C   UNL     1      82.816   3.163  -0.770  1.00  0.00     0.050 A 
ATOM      5  C   UNL     1      83.371   1.953  -0.317  1.00  0.00    -0.042 A 
ATOM      6  C   UNL     1      82.533   1.008   0.295  1.00  0.00     0.004 A 
ATOM      7  C   UNL     1      81.170   1.265   0.451  1.00  0.00     0.007 A 
ENDROOT
BRANCH   3   8
ATOM      8  O   UNL     1      80.957   4.647  -1.088  1.00  0.00    -0.508 OA
ATOM      9  H   UNL     1      80.216   5.159  -0.627  1.00  0.00     0.293 HD
ENDBRANCH   3   8
BRANCH   5  10
ATOM     10  C   UNL     1      84.852   1.660  -0.479  1.00  0.00     0.013 C 
ATOM     11  C   UNL     1      85.508   2.652  -1.447  1.00  0.00     0.012 C 
ATOM     12  C   UNL     1      85.568   1.659   0.877  1.00  0.00     0.012 C 
ENDBRANCH   5  10
TORSDOF 2
ENDMDL
