MODEL 1
REMARK VINA RESULT:    -4.163      0.000      0.000
REMARK INTER + INTRA:          -9.973
REMARK INTER:                  -6.596
REMARK INTRA:                  -3.377
REMARK UNBOUND:                -3.377
REMARK SMILES C[C@H]1O[C@H](OC[C@H]2O[C@@H](Oc3cc(O)c4c(c3)O[C@@H](c3ccc(O)cc3)CC4=O)[C@@H](O)[C@@H](O)[C@@H]2O)[C@@H](O)[C@@H](O)[C@@H]1O
REMARK SMILES IDX 7 1 34 2 32 3 30 4 9 5 8 6 6 7 5 8 4 9 1 10 2 11 40 12 3 13
REMARK SMILES IDX 38 14 36 15 41 16 39 18 37 20 35 22 33 24 10 26 11 27 12 28
REMARK SMILES IDX 17 29 13 30 16 31 15 32 18 33 28 34 19 35 29 36 27 37 14 38
REMARK SMILES IDX 20 40 21 41 26 42 22 43 25 44 23 45 24 46 31 48
REMARK H PARENT 41 17 39 19 37 21 35 23 33 25 14 39 24 47 31 49
REMARK Flexibility Score: inf
ROOT
ATOM      1  C   UNL     1      19.296  35.170  46.426  1.00  0.00     0.180 C 
ATOM      2  C   UNL     1      19.279  36.582  45.768  1.00  0.00     0.177 C 
ATOM      3  C   UNL     1      20.660  37.279  45.802  1.00  0.00     0.180 C 
ATOM      4  C   UNL     1      21.690  36.448  46.595  1.00  0.00     0.214 C 
ATOM      5  C   UNL     1      21.651  34.946  46.154  1.00  0.00     0.339 C 
ATOM      6  O   UNL     1      20.351  34.416  45.870  1.00  0.00    -0.332 OA
ENDROOT
BRANCH   1   7
ATOM      7  C   UNL     1      17.969  34.443  46.186  1.00  0.00     0.198 C 
BRANCH   7   8
ATOM      8  O   UNL     1      17.281  34.997  45.072  1.00  0.00    -0.347 OA
BRANCH   8   9
ATOM      9  C   UNL     1      16.917  34.025  44.108  1.00  0.00     0.281 C 
ATOM     10  C   UNL     1      15.360  32.135  42.353  1.00  0.00     0.041 C 
ATOM     11  C   UNL     1      15.176  33.659  42.524  1.00  0.00     0.150 C 
ATOM     12  C   UNL     1      15.828  34.510  41.416  1.00  0.00     0.174 C 
ATOM     13  O   UNL     1      15.525  34.118  43.817  1.00  0.00    -0.344 OA
ATOM     14  C   UNL     1      17.346  34.770  41.653  1.00  0.00     0.179 C 
ATOM     15  C   UNL     1      17.920  34.046  42.899  1.00  0.00     0.202 C 
BRANCH  12  16
ATOM     16  O   UNL     1      15.149  35.744  41.351  1.00  0.00    -0.388 OA
ATOM     17  H   UNL     1      15.700  36.356  40.789  1.00  0.00     0.211 HD
ENDBRANCH  12  16
BRANCH  14  18
ATOM     18  O   UNL     1      18.078  34.392  40.510  1.00  0.00    -0.387 OA
ATOM     19  H   UNL     1      18.442  35.209  40.096  1.00  0.00     0.211 HD
ENDBRANCH  14  18
BRANCH  15  20
ATOM     20  O   UNL     1      18.289  32.737  42.555  1.00  0.00    -0.385 OA
ATOM     21  H   UNL     1      17.944  32.572  41.644  1.00  0.00     0.211 HD
ENDBRANCH  15  20
ENDBRANCH   8   9
ENDBRANCH   7   8
ENDBRANCH   1   7
BRANCH   2  22
ATOM     22  O   UNL     1      18.304  37.408  46.367  1.00  0.00    -0.387 OA
ATOM     23  H   UNL     1      17.777  37.834  45.644  1.00  0.00     0.211 HD
ENDBRANCH   2  22
BRANCH   3  24
ATOM     24  O   UNL     1      21.136  37.497  44.497  1.00  0.00    -0.387 OA
ATOM     25  H   UNL     1      21.706  36.718  44.271  1.00  0.00     0.211 HD
ENDBRANCH   3  24
BRANCH   5  26
ATOM     26  O   UNL     1      22.479  34.762  45.004  1.00  0.00    -0.462 OA
BRANCH  26  27
ATOM     27  C   UNL     1      21.994  34.123  43.860  1.00  0.00     0.130 A 
ATOM     28  C   UNL     1      21.595  34.880  42.749  1.00  0.00     0.093 A 
ATOM     29  C   UNL     1      21.999  32.727  43.787  1.00  0.00     0.094 A 
ATOM     30  C   UNL     1      21.364  34.245  41.521  1.00  0.00     0.133 A 
ATOM     31  C   UNL     1      21.767  32.089  42.563  1.00  0.00     0.138 A 
ATOM     32  C   UNL     1      21.470  32.838  41.417  1.00  0.00     0.102 A 
ATOM     33  O   UNL     1      21.871  30.698  42.479  1.00  0.00    -0.484 OA
ATOM     34  C   UNL     1      21.500  32.145  40.111  1.00  0.00     0.174 C 
ATOM     35  C   UNL     1      21.326  29.938  41.388  1.00  0.00     0.211 C 
ATOM     36  O   UNL     1      21.652  32.807  39.039  1.00  0.00    -0.294 OA
ATOM     37  C   UNL     1      21.645  30.649  40.045  1.00  0.00     0.131 C 
BRANCH  30  38
ATOM     38  O   UNL     1      21.043  35.026  40.408  1.00  0.00    -0.507 OA
ATOM     39  H   UNL     1      21.276  36.010  40.368  1.00  0.00     0.293 HD
ENDBRANCH  30  38
BRANCH  35  40
ATOM     40  C   UNL     1      19.857  29.646  41.641  1.00  0.00    -0.007 A 
ATOM     41  C   UNL     1      18.928  29.541  40.577  1.00  0.00     0.011 A 
ATOM     42  C   UNL     1      19.413  29.265  42.933  1.00  0.00     0.011 A 
ATOM     43  C   UNL     1      17.598  29.194  40.817  1.00  0.00     0.046 A 
ATOM     44  C   UNL     1      18.083  28.893  43.163  1.00  0.00     0.046 A 
ATOM     45  C   UNL     1      17.169  28.885  42.105  1.00  0.00     0.115 A 
BRANCH  45  46
ATOM     46  O   UNL     1      15.835  28.523  42.321  1.00  0.00    -0.508 OA
ATOM     47  H   UNL     1      15.211  29.128  42.840  1.00  0.00     0.293 HD
ENDBRANCH  45  46
ENDBRANCH  35  40
ENDBRANCH  26  27
ENDBRANCH   5  26
BRANCH   4  48
ATOM     48  O   UNL     1      22.976  36.985  46.422  1.00  0.00    -0.384 OA
ATOM     49  H   UNL     1      23.239  37.391  47.296  1.00  0.00     0.211 HD
ENDBRANCH   4  48
TORSDOF 14
ENDMDL
MODEL 2
REMARK VINA RESULT:    -4.158      0.856      1.429
REMARK INTER + INTRA:          -9.966
REMARK INTER:                  -6.699
REMARK INTRA:                  -3.266
REMARK UNBOUND:                -3.377
REMARK SMILES C[C@H]1O[C@H](OC[C@H]2O[C@@H](Oc3cc(O)c4c(c3)O[C@@H](c3ccc(O)cc3)CC4=O)[C@@H](O)[C@@H](O)[C@@H]2O)[C@@H](O)[C@@H](O)[C@@H]1O
REMARK SMILES IDX 7 1 34 2 32 3 30 4 9 5 8 6 6 7 5 8 4 9 1 10 2 11 40 12 3 13
REMARK SMILES IDX 38 14 36 15 41 16 39 18 37 20 35 22 33 24 10 26 11 27 12 28
REMARK SMILES IDX 17 29 13 30 16 31 15 32 18 33 28 34 19 35 29 36 27 37 14 38
REMARK SMILES IDX 20 40 21 41 26 42 22 43 25 44 23 45 24 46 31 48
REMARK H PARENT 41 17 39 19 37 21 35 23 33 25 14 39 24 47 31 49
REMARK Flexibility Score: inf
ROOT
ATOM      1  C   UNL     1      19.372  35.077  46.396  1.00  0.00     0.180 C 
ATOM      2  C   UNL     1      19.307  36.500  45.766  1.00  0.00     0.177 C 
ATOM      3  C   UNL     1      20.663  37.243  45.815  1.00  0.00     0.180 C 
ATOM      4  C   UNL     1      21.720  36.433  46.593  1.00  0.00     0.214 C 
ATOM      5  C   UNL     1      21.734  34.939  46.123  1.00  0.00     0.339 C 
ATOM      6  O   UNL     1      20.452  34.370  45.827  1.00  0.00    -0.332 OA
ENDROOT
BRANCH   1   7
ATOM      7  C   UNL     1      18.071  34.309  46.141  1.00  0.00     0.198 C 
BRANCH   7   8
ATOM      8  O   UNL     1      17.352  34.878  45.055  1.00  0.00    -0.347 OA
BRANCH   8   9
ATOM      9  C   UNL     1      17.611  34.229  43.821  1.00  0.00     0.281 C 
ATOM     10  C   UNL     1      18.076  32.155  41.686  1.00  0.00     0.041 C 
ATOM     11  C   UNL     1      16.868  32.301  42.637  1.00  0.00     0.150 C 
ATOM     12  C   UNL     1      15.642  32.997  42.012  1.00  0.00     0.174 C 
ATOM     13  O   UNL     1      17.212  32.863  43.890  1.00  0.00    -0.344 OA
ATOM     14  C   UNL     1      15.732  34.552  42.052  1.00  0.00     0.179 C 
ATOM     15  C   UNL     1      17.070  35.091  42.624  1.00  0.00     0.202 C 
BRANCH  12  16
ATOM     16  O   UNL     1      14.492  32.579  42.712  1.00  0.00    -0.388 OA
ATOM     17  H   UNL     1      14.315  31.634  42.451  1.00  0.00     0.211 HD
ENDBRANCH  12  16
BRANCH  14  18
ATOM     18  O   UNL     1      15.528  35.075  40.760  1.00  0.00    -0.387 OA
ATOM     19  H   UNL     1      14.914  34.473  40.279  1.00  0.00     0.211 HD
ENDBRANCH  14  18
BRANCH  15  20
ATOM     20  O   UNL     1      18.029  35.151  41.600  1.00  0.00    -0.385 OA
ATOM     21  H   UNL     1      18.587  34.340  41.682  1.00  0.00     0.211 HD
ENDBRANCH  15  20
ENDBRANCH   8   9
ENDBRANCH   7   8
ENDBRANCH   1   7
BRANCH   2  22
ATOM     22  O   UNL     1      18.304  37.280  46.380  1.00  0.00    -0.387 OA
ATOM     23  H   UNL     1      18.750  37.952  46.957  1.00  0.00     0.211 HD
ENDBRANCH   2  22
BRANCH   3  24
ATOM     24  O   UNL     1      21.132  37.502  44.514  1.00  0.00    -0.387 OA
ATOM     25  H   UNL     1      20.760  38.382  44.251  1.00  0.00     0.211 HD
ENDBRANCH   3  24
BRANCH   5  26
ATOM     26  O   UNL     1      22.568  34.805  44.971  1.00  0.00    -0.462 OA
BRANCH  26  27
ATOM     27  C   UNL     1      22.138  34.096  43.846  1.00  0.00     0.130 A 
ATOM     28  C   UNL     1      21.523  34.772  42.782  1.00  0.00     0.093 A 
ATOM     29  C   UNL     1      22.409  32.729  43.740  1.00  0.00     0.094 A 
ATOM     30  C   UNL     1      21.335  34.117  41.557  1.00  0.00     0.133 A 
ATOM     31  C   UNL     1      22.221  32.071  42.519  1.00  0.00     0.138 A 
ATOM     32  C   UNL     1      21.706  32.759  41.413  1.00  0.00     0.102 A 
ATOM     33  O   UNL     1      22.588  30.727  42.396  1.00  0.00    -0.484 OA
ATOM     34  C   UNL     1      21.778  32.099  40.092  1.00  0.00     0.174 C 
ATOM     35  C   UNL     1      22.127  29.887  41.325  1.00  0.00     0.211 C 
ATOM     36  O   UNL     1      21.724  32.789  39.028  1.00  0.00    -0.294 OA
ATOM     37  C   UNL     1      22.207  30.661  39.981  1.00  0.00     0.131 C 
BRANCH  30  38
ATOM     38  O   UNL     1      20.792  34.832  40.487  1.00  0.00    -0.507 OA
ATOM     39  H   UNL     1      21.250  35.652  40.114  1.00  0.00     0.293 HD
ENDBRANCH  30  38
BRANCH  35  40
ATOM     40  C   UNL     1      20.763  29.310  41.668  1.00  0.00    -0.007 A 
ATOM     41  C   UNL     1      20.283  29.286  43.000  1.00  0.00     0.011 A 
ATOM     42  C   UNL     1      19.848  28.969  40.640  1.00  0.00     0.011 A 
ATOM     43  C   UNL     1      18.999  28.826  43.292  1.00  0.00     0.046 A 
ATOM     44  C   UNL     1      18.552  28.533  40.938  1.00  0.00     0.046 A 
ATOM     45  C   UNL     1      18.138  28.437  42.270  1.00  0.00     0.115 A 
BRANCH  45  46
ATOM     46  O   UNL     1      16.848  27.995  42.583  1.00  0.00    -0.508 OA
ATOM     47  H   UNL     1      16.083  28.653  42.676  1.00  0.00     0.293 HD
ENDBRANCH  45  46
ENDBRANCH  35  40
ENDBRANCH  26  27
ENDBRANCH   5  26
BRANCH   4  48
ATOM     48  O   UNL     1      22.987  37.017  46.432  1.00  0.00    -0.384 OA
ATOM     49  H   UNL     1      22.912  37.962  46.747  1.00  0.00     0.211 HD
ENDBRANCH   4  48
TORSDOF 14
ENDMDL
MODEL 3
REMARK VINA RESULT:    -3.928      1.991      4.161
REMARK INTER + INTRA:          -9.602
REMARK INTER:                  -7.482
REMARK INTRA:                  -2.119
REMARK UNBOUND:                -3.377
REMARK SMILES C[C@H]1O[C@H](OC[C@H]2O[C@@H](Oc3cc(O)c4c(c3)O[C@@H](c3ccc(O)cc3)CC4=O)[C@@H](O)[C@@H](O)[C@@H]2O)[C@@H](O)[C@@H](O)[C@@H]1O
REMARK SMILES IDX 7 1 34 2 32 3 30 4 9 5 8 6 6 7 5 8 4 9 1 10 2 11 40 12 3 13
REMARK SMILES IDX 38 14 36 15 41 16 39 18 37 20 35 22 33 24 10 26 11 27 12 28
REMARK SMILES IDX 17 29 13 30 16 31 15 32 18 33 28 34 19 35 29 36 27 37 14 38
REMARK SMILES IDX 20 40 21 41 26 42 22 43 25 44 23 45 24 46 31 48
REMARK H PARENT 41 17 39 19 37 21 35 23 33 25 14 39 24 47 31 49
REMARK Flexibility Score: inf
ROOT
ATOM      1  C   UNL     1      19.498  34.589  45.872  1.00  0.00     0.180 C 
ATOM      2  C   UNL     1      19.294  36.067  45.425  1.00  0.00     0.177 C 
ATOM      3  C   UNL     1      20.538  36.951  45.681  1.00  0.00     0.180 C 
ATOM      4  C   UNL     1      21.635  36.172  46.434  1.00  0.00     0.214 C 
ATOM      5  C   UNL     1      21.871  34.769  45.781  1.00  0.00     0.339 C 
ATOM      6  O   UNL     1      20.695  34.099  45.309  1.00  0.00    -0.332 OA
ENDROOT
BRANCH   1   7
ATOM      7  C   UNL     1      18.325  33.715  45.414  1.00  0.00     0.198 C 
BRANCH   7   8
ATOM      8  O   UNL     1      17.414  34.465  44.622  1.00  0.00    -0.347 OA
BRANCH   8   9
ATOM      9  C   UNL     1      17.324  33.995  43.288  1.00  0.00     0.281 C 
ATOM     10  C   UNL     1      16.920  32.272  40.850  1.00  0.00     0.041 C 
ATOM     11  C   UNL     1      15.930  32.556  42.002  1.00  0.00     0.150 C 
ATOM     12  C   UNL     1      14.878  33.640  41.688  1.00  0.00     0.174 C 
ATOM     13  O   UNL     1      16.572  32.786  43.242  1.00  0.00    -0.344 OA
ATOM     14  C   UNL     1      15.402  35.089  41.918  1.00  0.00     0.179 C 
ATOM     15  C   UNL     1      16.899  35.160  42.323  1.00  0.00     0.202 C 
BRANCH  12  16
ATOM     16  O   UNL     1      13.755  33.415  42.510  1.00  0.00    -0.388 OA
ATOM     17  H   UNL     1      14.090  33.278  43.438  1.00  0.00     0.211 HD
ENDBRANCH  12  16
BRANCH  14  18
ATOM     18  O   UNL     1      15.192  35.861  40.759  1.00  0.00    -0.387 OA
ATOM     19  H   UNL     1      14.231  35.831  40.541  1.00  0.00     0.211 HD
ENDBRANCH  14  18
BRANCH  15  20
ATOM     20  O   UNL     1      17.699  35.148  41.170  1.00  0.00    -0.385 OA
ATOM     21  H   UNL     1      17.382  34.400  40.608  1.00  0.00     0.211 HD
ENDBRANCH  15  20
ENDBRANCH   8   9
ENDBRANCH   7   8
ENDBRANCH   1   7
BRANCH   2  22
ATOM     22  O   UNL     1      18.161  36.632  46.048  1.00  0.00    -0.387 OA
ATOM     23  H   UNL     1      17.439  36.696  45.371  1.00  0.00     0.211 HD
ENDBRANCH   2  22
BRANCH   3  24
ATOM     24  O   UNL     1      21.055  37.439  44.468  1.00  0.00    -0.387 OA
ATOM     25  H   UNL     1      21.949  37.813  44.673  1.00  0.00     0.211 HD
ENDBRANCH   3  24
BRANCH   5  26
ATOM     26  O   UNL     1      22.790  34.893  44.694  1.00  0.00    -0.462 OA
BRANCH  26  27
ATOM     27  C   UNL     1      22.633  34.144  43.526  1.00  0.00     0.130 A 
ATOM     28  C   UNL     1      23.343  32.946  43.359  1.00  0.00     0.093 A 
ATOM     29  C   UNL     1      21.695  34.537  42.567  1.00  0.00     0.094 A 
ATOM     30  C   UNL     1      22.994  32.067  42.324  1.00  0.00     0.133 A 
ATOM     31  C   UNL     1      21.344  33.663  41.531  1.00  0.00     0.138 A 
ATOM     32  C   UNL     1      21.970  32.416  41.411  1.00  0.00     0.102 A 
ATOM     33  O   UNL     1      20.335  34.026  40.634  1.00  0.00    -0.484 OA
ATOM     34  C   UNL     1      21.382  31.434  40.474  1.00  0.00     0.174 C 
ATOM     35  C   UNL     1      20.146  33.377  39.366  1.00  0.00     0.211 C 
ATOM     36  O   UNL     1      21.622  30.196  40.612  1.00  0.00    -0.294 OA
ATOM     37  C   UNL     1      20.274  31.840  39.541  1.00  0.00     0.131 C 
BRANCH  30  38
ATOM     38  O   UNL     1      23.661  30.845  42.223  1.00  0.00    -0.507 OA
ATOM     39  H   UNL     1      24.425  30.608  42.842  1.00  0.00     0.293 HD
ENDBRANCH  30  38
BRANCH  35  40
ATOM     40  C   UNL     1      21.063  33.996  38.324  1.00  0.00    -0.007 A 
ATOM     41  C   UNL     1      22.422  33.613  38.211  1.00  0.00     0.011 A 
ATOM     42  C   UNL     1      20.533  34.823  37.301  1.00  0.00     0.011 A 
ATOM     43  C   UNL     1      23.232  34.130  37.201  1.00  0.00     0.046 A 
ATOM     44  C   UNL     1      21.346  35.319  36.275  1.00  0.00     0.046 A 
ATOM     45  C   UNL     1      22.704  34.991  36.243  1.00  0.00     0.115 A 
BRANCH  45  46
ATOM     46  O   UNL     1      23.530  35.485  35.227  1.00  0.00    -0.508 OA
ATOM     47  H   UNL     1      23.429  36.436  34.893  1.00  0.00     0.293 HD
ENDBRANCH  45  46
ENDBRANCH  35  40
ENDBRANCH  26  27
ENDBRANCH   5  26
BRANCH   4  48
ATOM     48  O   UNL     1      22.825  36.918  46.455  1.00  0.00    -0.384 OA
ATOM     49  H   UNL     1      22.890  37.333  47.361  1.00  0.00     0.211 HD
ENDBRANCH   4  48
TORSDOF 14
ENDMDL
MODEL 4
REMARK VINA RESULT:    -3.821      3.024      5.141
REMARK INTER + INTRA:          -9.431
REMARK INTER:                  -6.810
REMARK INTRA:                  -2.621
REMARK UNBOUND:                -3.377
REMARK SMILES C[C@H]1O[C@H](OC[C@H]2O[C@@H](Oc3cc(O)c4c(c3)O[C@@H](c3ccc(O)cc3)CC4=O)[C@@H](O)[C@@H](O)[C@@H]2O)[C@@H](O)[C@@H](O)[C@@H]1O
REMARK SMILES IDX 7 1 34 2 32 3 30 4 9 5 8 6 6 7 5 8 4 9 1 10 2 11 40 12 3 13
REMARK SMILES IDX 38 14 36 15 41 16 39 18 37 20 35 22 33 24 10 26 11 27 12 28
REMARK SMILES IDX 17 29 13 30 16 31 15 32 18 33 28 34 19 35 29 36 27 37 14 38
REMARK SMILES IDX 20 40 21 41 26 42 22 43 25 44 23 45 24 46 31 48
REMARK H PARENT 41 17 39 19 37 21 35 23 33 25 14 39 24 47 31 49
REMARK Flexibility Score: inf
ROOT
ATOM      1  C   UNL     1      18.691  34.773  44.450  1.00  0.00     0.180 C 
ATOM      2  C   UNL     1      19.054  36.236  44.846  1.00  0.00     0.177 C 
ATOM      3  C   UNL     1      20.558  36.421  45.156  1.00  0.00     0.180 C 
ATOM      4  C   UNL     1      21.310  35.075  45.115  1.00  0.00     0.214 C 
ATOM      5  C   UNL     1      20.933  34.265  43.829  1.00  0.00     0.339 C 
ATOM      6  O   UNL     1      19.561  34.345  43.425  1.00  0.00    -0.332 OA
ENDROOT
BRANCH   1   7
ATOM      7  C   UNL     1      17.243  34.686  43.958  1.00  0.00     0.198 C 
BRANCH   7   8
ATOM      8  O   UNL     1      17.047  35.505  42.813  1.00  0.00    -0.347 OA
BRANCH   8   9
ATOM      9  C   UNL     1      16.509  34.795  41.711  1.00  0.00     0.281 C 
ATOM     10  C   UNL     1      14.632  33.460  39.769  1.00  0.00     0.041 C 
ATOM     11  C   UNL     1      14.619  34.922  40.267  1.00  0.00     0.150 C 
ATOM     12  C   UNL     1      15.265  35.933  39.297  1.00  0.00     0.174 C 
ATOM     13  O   UNL     1      15.115  35.064  41.585  1.00  0.00    -0.344 OA
ATOM     14  C   UNL     1      16.816  36.008  39.430  1.00  0.00     0.179 C 
ATOM     15  C   UNL     1      17.410  34.989  40.439  1.00  0.00     0.202 C 
BRANCH  12  16
ATOM     16  O   UNL     1      14.714  37.204  39.554  1.00  0.00    -0.388 OA
ATOM     17  H   UNL     1      13.723  37.097  39.584  1.00  0.00     0.211 HD
ENDBRANCH  12  16
BRANCH  14  18
ATOM     18  O   UNL     1      17.412  35.822  38.168  1.00  0.00    -0.387 OA
ATOM     19  H   UNL     1      17.445  36.696  37.713  1.00  0.00     0.211 HD
ENDBRANCH  14  18
BRANCH  15  20
ATOM     20  O   UNL     1      17.614  33.757  39.798  1.00  0.00    -0.385 OA
ATOM     21  H   UNL     1      18.165  33.937  38.998  1.00  0.00     0.211 HD
ENDBRANCH  15  20
ENDBRANCH   8   9
ENDBRANCH   7   8
ENDBRANCH   1   7
BRANCH   2  22
ATOM     22  O   UNL     1      18.276  36.670  45.940  1.00  0.00    -0.387 OA
ATOM     23  H   UNL     1      17.321  36.533  45.711  1.00  0.00     0.211 HD
ENDBRANCH   2  22
BRANCH   3  24
ATOM     24  O   UNL     1      21.144  37.315  44.242  1.00  0.00    -0.387 OA
ATOM     25  H   UNL     1      21.120  36.869  43.357  1.00  0.00     0.211 HD
ENDBRANCH   3  24
BRANCH   5  26
ATOM     26  O   UNL     1      21.754  34.687  42.738  1.00  0.00    -0.462 OA
BRANCH  26  27
ATOM     27  C   UNL     1      21.696  34.043  41.500  1.00  0.00     0.130 A 
ATOM     28  C   UNL     1      22.126  32.713  41.379  1.00  0.00     0.093 A 
ATOM     29  C   UNL     1      21.120  34.692  40.404  1.00  0.00     0.094 A 
ATOM     30  C   UNL     1      21.826  31.988  40.217  1.00  0.00     0.133 A 
ATOM     31  C   UNL     1      20.820  33.971  39.242  1.00  0.00     0.138 A 
ATOM     32  C   UNL     1      21.148  32.613  39.144  1.00  0.00     0.102 A 
ATOM     33  O   UNL     1      20.155  34.606  38.189  1.00  0.00    -0.484 OA
ATOM     34  C   UNL     1      20.576  31.842  38.019  1.00  0.00     0.174 C 
ATOM     35  C   UNL     1      20.113  34.070  36.856  1.00  0.00     0.211 C 
ATOM     36  O   UNL     1      20.483  30.579  38.091  1.00  0.00    -0.294 OA
ATOM     37  C   UNL     1      19.836  32.544  36.913  1.00  0.00     0.131 C 
BRANCH  30  38
ATOM     38  O   UNL     1      22.195  30.642  40.149  1.00  0.00    -0.507 OA
ATOM     39  H   UNL     1      21.823  30.029  39.436  1.00  0.00     0.293 HD
ENDBRANCH  30  38
BRANCH  35  40
ATOM     40  C   UNL     1      21.362  34.481  36.092  1.00  0.00    -0.007 A 
ATOM     41  C   UNL     1      22.165  33.528  35.418  1.00  0.00     0.011 A 
ATOM     42  C   UNL     1      21.644  35.851  35.860  1.00  0.00     0.011 A 
ATOM     43  C   UNL     1      23.264  33.926  34.657  1.00  0.00     0.046 A 
ATOM     44  C   UNL     1      22.733  36.244  35.074  1.00  0.00     0.046 A 
ATOM     45  C   UNL     1      23.559  35.277  34.493  1.00  0.00     0.115 A 
BRANCH  45  46
ATOM     46  O   UNL     1      24.655  35.655  33.711  1.00  0.00    -0.508 OA
ATOM     47  H   UNL     1      25.541  35.170  33.790  1.00  0.00     0.293 HD
ENDBRANCH  45  46
ENDBRANCH  35  40
ENDBRANCH  26  27
ENDBRANCH   5  26
BRANCH   4  48
ATOM     48  O   UNL     1      22.695  35.297  45.176  1.00  0.00    -0.384 OA
ATOM     49  H   UNL     1      22.949  35.278  46.142  1.00  0.00     0.211 HD
ENDBRANCH   4  48
TORSDOF 14
ENDMDL
MODEL 5
REMARK VINA RESULT:    -3.787      1.778      3.994
REMARK INTER + INTRA:          -9.378
REMARK INTER:                  -6.966
REMARK INTRA:                  -2.412
REMARK UNBOUND:                -3.377
REMARK SMILES C[C@H]1O[C@H](OC[C@H]2O[C@@H](Oc3cc(O)c4c(c3)O[C@@H](c3ccc(O)cc3)CC4=O)[C@@H](O)[C@@H](O)[C@@H]2O)[C@@H](O)[C@@H](O)[C@@H]1O
REMARK SMILES IDX 7 1 34 2 32 3 30 4 9 5 8 6 6 7 5 8 4 9 1 10 2 11 40 12 3 13
REMARK SMILES IDX 38 14 36 15 41 16 39 18 37 20 35 22 33 24 10 26 11 27 12 28
REMARK SMILES IDX 17 29 13 30 16 31 15 32 18 33 28 34 19 35 29 36 27 37 14 38
REMARK SMILES IDX 20 40 21 41 26 42 22 43 25 44 23 45 24 46 31 48
REMARK H PARENT 41 17 39 19 37 21 35 23 33 25 14 39 24 47 31 49
REMARK Flexibility Score: inf
ROOT
ATOM      1  C   UNL     1      19.456  34.759  46.142  1.00  0.00     0.180 C 
ATOM      2  C   UNL     1      19.306  36.190  45.542  1.00  0.00     0.177 C 
ATOM      3  C   UNL     1      20.582  37.049  45.708  1.00  0.00     0.180 C 
ATOM      4  C   UNL     1      21.651  36.313  46.542  1.00  0.00     0.214 C 
ATOM      5  C   UNL     1      21.834  34.841  46.038  1.00  0.00     0.339 C 
ATOM      6  O   UNL     1      20.634  34.170  45.636  1.00  0.00    -0.332 OA
ENDROOT
BRANCH   1   7
ATOM      7  C   UNL     1      18.252  33.886  45.773  1.00  0.00     0.198 C 
BRANCH   7   8
ATOM      8  O   UNL     1      18.363  33.407  44.440  1.00  0.00    -0.347 OA
BRANCH   8   9
ATOM      9  C   UNL     1      17.221  33.695  43.652  1.00  0.00     0.281 C 
ATOM     10  C   UNL     1      15.034  35.110  42.139  1.00  0.00     0.041 C 
ATOM     11  C   UNL     1      16.563  35.260  41.982  1.00  0.00     0.150 C 
ATOM     12  C   UNL     1      17.167  34.461  40.810  1.00  0.00     0.174 C 
ATOM     13  O   UNL     1      17.268  35.042  43.190  1.00  0.00    -0.344 OA
ATOM     14  C   UNL     1      17.453  32.971  41.164  1.00  0.00     0.179 C 
ATOM     15  C   UNL     1      16.987  32.563  42.588  1.00  0.00     0.202 C 
BRANCH  12  16
ATOM     16  O   UNL     1      18.370  35.086  40.424  1.00  0.00    -0.388 OA
ATOM     17  H   UNL     1      18.895  35.257  41.253  1.00  0.00     0.211 HD
ENDBRANCH  12  16
BRANCH  14  18
ATOM     18  O   UNL     1      16.845  32.130  40.212  1.00  0.00    -0.387 OA
ATOM     19  H   UNL     1      16.786  32.623  39.361  1.00  0.00     0.211 HD
ENDBRANCH  14  18
BRANCH  15  20
ATOM     20  O   UNL     1      15.632  32.203  42.555  1.00  0.00    -0.385 OA
ATOM     21  H   UNL     1      15.332  32.299  41.618  1.00  0.00     0.211 HD
ENDBRANCH  15  20
ENDBRANCH   8   9
ENDBRANCH   7   8
ENDBRANCH   1   7
BRANCH   2  22
ATOM     22  O   UNL     1      18.195  36.857  46.100  1.00  0.00    -0.387 OA
ATOM     23  H   UNL     1      17.476  36.877  45.418  1.00  0.00     0.211 HD
ENDBRANCH   2  22
BRANCH   3  24
ATOM     24  O   UNL     1      21.115  37.388  44.452  1.00  0.00    -0.387 OA
ATOM     25  H   UNL     1      21.706  36.639  44.185  1.00  0.00     0.211 HD
ENDBRANCH   3  24
BRANCH   5  26
ATOM     26  O   UNL     1      22.756  34.818  44.947  1.00  0.00    -0.462 OA
BRANCH  26  27
ATOM     27  C   UNL     1      22.653  33.861  43.935  1.00  0.00     0.130 A 
ATOM     28  C   UNL     1      23.197  32.582  44.119  1.00  0.00     0.093 A 
ATOM     29  C   UNL     1      21.921  34.147  42.778  1.00  0.00     0.094 A 
ATOM     30  C   UNL     1      22.869  31.550  43.229  1.00  0.00     0.133 A 
ATOM     31  C   UNL     1      21.592  33.120  41.886  1.00  0.00     0.138 A 
ATOM     32  C   UNL     1      22.041  31.812  42.111  1.00  0.00     0.102 A 
ATOM     33  O   UNL     1      20.779  33.398  40.784  1.00  0.00    -0.484 OA
ATOM     34  C   UNL     1      21.451  30.728  41.297  1.00  0.00     0.174 C 
ATOM     35  C   UNL     1      20.673  32.521  39.650  1.00  0.00     0.211 C 
ATOM     36  O   UNL     1      21.488  29.528  41.708  1.00  0.00    -0.294 OA
ATOM     37  C   UNL     1      20.551  31.051  40.136  1.00  0.00     0.131 C 
BRANCH  30  38
ATOM     38  O   UNL     1      23.360  30.266  43.475  1.00  0.00    -0.507 OA
ATOM     39  H   UNL     1      22.741  29.468  43.542  1.00  0.00     0.293 HD
ENDBRANCH  30  38
BRANCH  35  40
ATOM     40  C   UNL     1      21.803  32.796  38.673  1.00  0.00    -0.007 A 
ATOM     41  C   UNL     1      22.038  34.095  38.158  1.00  0.00     0.011 A 
ATOM     42  C   UNL     1      22.782  31.804  38.409  1.00  0.00     0.011 A 
ATOM     43  C   UNL     1      23.126  34.350  37.324  1.00  0.00     0.046 A 
ATOM     44  C   UNL     1      23.886  32.075  37.591  1.00  0.00     0.046 A 
ATOM     45  C   UNL     1      24.041  33.344  37.027  1.00  0.00     0.115 A 
BRANCH  45  46
ATOM     46  O   UNL     1      25.136  33.626  36.203  1.00  0.00    -0.508 OA
ATOM     47  H   UNL     1      25.043  34.258  35.417  1.00  0.00     0.293 HD
ENDBRANCH  45  46
ENDBRANCH  35  40
ENDBRANCH  26  27
ENDBRANCH   5  26
BRANCH   4  48
ATOM     48  O   UNL     1      22.867  37.013  46.488  1.00  0.00    -0.384 OA
ATOM     49  H   UNL     1      23.005  37.280  45.535  1.00  0.00     0.211 HD
ENDBRANCH   4  48
TORSDOF 14
ENDMDL
MODEL 6
REMARK VINA RESULT:    -3.780      2.332      4.328
REMARK INTER + INTRA:          -9.367
REMARK INTER:                  -6.470
REMARK INTRA:                  -2.897
REMARK UNBOUND:                -3.377
REMARK SMILES C[C@H]1O[C@H](OC[C@H]2O[C@@H](Oc3cc(O)c4c(c3)O[C@@H](c3ccc(O)cc3)CC4=O)[C@@H](O)[C@@H](O)[C@@H]2O)[C@@H](O)[C@@H](O)[C@@H]1O
REMARK SMILES IDX 7 1 34 2 32 3 30 4 9 5 8 6 6 7 5 8 4 9 1 10 2 11 40 12 3 13
REMARK SMILES IDX 38 14 36 15 41 16 39 18 37 20 35 22 33 24 10 26 11 27 12 28
REMARK SMILES IDX 17 29 13 30 16 31 15 32 18 33 28 34 19 35 29 36 27 37 14 38
REMARK SMILES IDX 20 40 21 41 26 42 22 43 25 44 23 45 24 46 31 48
REMARK H PARENT 41 17 39 19 37 21 35 23 33 25 14 39 24 47 31 49
REMARK Flexibility Score: inf
ROOT
ATOM      1  C   UNL     1      19.702  34.577  46.127  1.00  0.00     0.180 C 
ATOM      2  C   UNL     1      19.401  35.924  45.404  1.00  0.00     0.177 C 
ATOM      3  C   UNL     1      20.487  36.997  45.652  1.00  0.00     0.180 C 
ATOM      4  C   UNL     1      21.545  36.503  46.660  1.00  0.00     0.214 C 
ATOM      5  C   UNL     1      22.028  35.058  46.299  1.00  0.00     0.339 C 
ATOM      6  O   UNL     1      21.015  34.169  45.811  1.00  0.00    -0.332 OA
ENDROOT
BRANCH   1   7
ATOM      7  C   UNL     1      18.713  33.492  45.689  1.00  0.00     0.198 C 
BRANCH   7   8
ATOM      8  O   UNL     1      17.846  33.977  44.673  1.00  0.00    -0.347 OA
BRANCH   8   9
ATOM      9  C   UNL     1      17.835  33.157  43.517  1.00  0.00     0.281 C 
ATOM     10  C   UNL     1      17.012  31.705  41.009  1.00  0.00     0.041 C 
ATOM     11  C   UNL     1      16.964  33.221  41.302  1.00  0.00     0.150 C 
ATOM     12  C   UNL     1      18.147  34.021  40.720  1.00  0.00     0.174 C 
ATOM     13  O   UNL     1      16.748  33.516  42.669  1.00  0.00    -0.344 OA
ATOM     14  C   UNL     1      19.415  33.990  41.626  1.00  0.00     0.179 C 
ATOM     15  C   UNL     1      19.269  33.087  42.880  1.00  0.00     0.202 C 
BRANCH  12  16
ATOM     16  O   UNL     1      17.733  35.358  40.546  1.00  0.00    -0.388 OA
ATOM     17  H   UNL     1      16.756  35.392  40.737  1.00  0.00     0.211 HD
ENDBRANCH  12  16
BRANCH  14  18
ATOM     18  O   UNL     1      20.529  33.572  40.873  1.00  0.00    -0.387 OA
ATOM     19  H   UNL     1      21.256  33.347  41.499  1.00  0.00     0.211 HD
ENDBRANCH  14  18
BRANCH  15  20
ATOM     20  O   UNL     1      19.585  31.762  42.545  1.00  0.00    -0.385 OA
ATOM     21  H   UNL     1      19.076  31.181  43.160  1.00  0.00     0.211 HD
ENDBRANCH  15  20
ENDBRANCH   8   9
ENDBRANCH   7   8
ENDBRANCH   1   7
BRANCH   2  22
ATOM     22  O   UNL     1      18.134  36.423  45.774  1.00  0.00    -0.387 OA
ATOM     23  H   UNL     1      17.949  37.227  45.223  1.00  0.00     0.211 HD
ENDBRANCH   2  22
BRANCH   3  24
ATOM     24  O   UNL     1      21.117  37.350  44.445  1.00  0.00    -0.387 OA
ATOM     25  H   UNL     1      22.011  36.922  44.457  1.00  0.00     0.211 HD
ENDBRANCH   3  24
BRANCH   5  26
ATOM     26  O   UNL     1      23.075  35.130  45.328  1.00  0.00    -0.462 OA
BRANCH  26  27
ATOM     27  C   UNL     1      23.528  33.986  44.669  1.00  0.00     0.130 A 
ATOM     28  C   UNL     1      24.559  33.215  45.226  1.00  0.00     0.093 A 
ATOM     29  C   UNL     1      22.887  33.554  43.504  1.00  0.00     0.094 A 
ATOM     30  C   UNL     1      24.831  31.940  44.712  1.00  0.00     0.133 A 
ATOM     31  C   UNL     1      23.157  32.281  42.987  1.00  0.00     0.138 A 
ATOM     32  C   UNL     1      24.111  31.455  43.595  1.00  0.00     0.102 A 
ATOM     33  O   UNL     1      22.440  31.821  41.878  1.00  0.00    -0.484 OA
ATOM     34  C   UNL     1      24.164  30.037  43.178  1.00  0.00     0.174 C 
ATOM     35  C   UNL     1      22.869  30.706  41.079  1.00  0.00     0.211 C 
ATOM     36  O   UNL     1      24.684  29.166  43.941  1.00  0.00    -0.294 OA
ATOM     37  C   UNL     1      23.359  29.558  42.002  1.00  0.00     0.131 C 
BRANCH  30  38
ATOM     38  O   UNL     1      25.809  31.158  45.331  1.00  0.00    -0.507 OA
ATOM     39  H   UNL     1      26.311  30.441  44.824  1.00  0.00     0.293 HD
ENDBRANCH  30  38
BRANCH  35  40
ATOM     40  C   UNL     1      23.865  31.173  40.030  1.00  0.00    -0.007 A 
ATOM     41  C   UNL     1      24.846  30.300  39.499  1.00  0.00     0.011 A 
ATOM     42  C   UNL     1      23.710  32.436  39.403  1.00  0.00     0.011 A 
ATOM     43  C   UNL     1      25.703  30.717  38.480  1.00  0.00     0.046 A 
ATOM     44  C   UNL     1      24.557  32.839  38.365  1.00  0.00     0.046 A 
ATOM     45  C   UNL     1      25.572  31.986  37.922  1.00  0.00     0.115 A 
BRANCH  45  46
ATOM     46  O   UNL     1      26.430  32.378  36.889  1.00  0.00    -0.508 OA
ATOM     47  H   UNL     1      26.134  32.330  35.922  1.00  0.00     0.293 HD
ENDBRANCH  45  46
ENDBRANCH  35  40
ENDBRANCH  26  27
ENDBRANCH   5  26
BRANCH   4  48
ATOM     48  O   UNL     1      22.629  37.397  46.695  1.00  0.00    -0.384 OA
ATOM     49  H   UNL     1      23.427  36.895  46.365  1.00  0.00     0.211 HD
ENDBRANCH   4  48
TORSDOF 14
ENDMDL
MODEL 7
REMARK VINA RESULT:    -3.759      2.559      7.459
REMARK INTER + INTRA:          -9.334
REMARK INTER:                  -7.156
REMARK INTRA:                  -2.178
REMARK UNBOUND:                -3.377
REMARK SMILES C[C@H]1O[C@H](OC[C@H]2O[C@@H](Oc3cc(O)c4c(c3)O[C@@H](c3ccc(O)cc3)CC4=O)[C@@H](O)[C@@H](O)[C@@H]2O)[C@@H](O)[C@@H](O)[C@@H]1O
REMARK SMILES IDX 7 1 34 2 32 3 30 4 9 5 8 6 6 7 5 8 4 9 1 10 2 11 40 12 3 13
REMARK SMILES IDX 38 14 36 15 41 16 39 18 37 20 35 22 33 24 10 26 11 27 12 28
REMARK SMILES IDX 17 29 13 30 16 31 15 32 18 33 28 34 19 35 29 36 27 37 14 38
REMARK SMILES IDX 20 40 21 41 26 42 22 43 25 44 23 45 24 46 31 48
REMARK H PARENT 41 17 39 19 37 21 35 23 33 25 14 39 24 47 31 49
REMARK Flexibility Score: inf
ROOT
ATOM      1  C   UNL     1      20.149  32.665  39.891  1.00  0.00     0.180 C 
ATOM      2  C   UNL     1      21.146  33.749  39.384  1.00  0.00     0.177 C 
ATOM      3  C   UNL     1      21.187  33.854  37.841  1.00  0.00     0.180 C 
ATOM      4  C   UNL     1      20.316  32.766  37.179  1.00  0.00     0.214 C 
ATOM      5  C   UNL     1      18.907  32.692  37.859  1.00  0.00     0.339 C 
ATOM      6  O   UNL     1      18.893  32.872  39.280  1.00  0.00    -0.332 OA
ENDROOT
BRANCH   1   7
ATOM      7  C   UNL     1      19.992  32.739  41.414  1.00  0.00     0.198 C 
BRANCH   7   8
ATOM      8  O   UNL     1      20.473  33.981  41.912  1.00  0.00    -0.347 OA
BRANCH   8   9
ATOM      9  C   UNL     1      20.684  33.969  43.313  1.00  0.00     0.281 C 
ATOM     10  C   UNL     1      21.905  34.224  46.055  1.00  0.00     0.041 C 
ATOM     11  C   UNL     1      21.779  35.301  44.955  1.00  0.00     0.150 C 
ATOM     12  C   UNL     1      20.596  36.273  45.144  1.00  0.00     0.174 C 
ATOM     13  O   UNL     1      21.819  34.765  43.646  1.00  0.00    -0.344 OA
ATOM     14  C   UNL     1      19.247  35.710  44.605  1.00  0.00     0.179 C 
ATOM     15  C   UNL     1      19.340  34.255  44.074  1.00  0.00     0.202 C 
BRANCH  12  16
ATOM     16  O   UNL     1      20.901  37.474  44.473  1.00  0.00    -0.388 OA
ATOM     17  H   UNL     1      20.285  37.543  43.693  1.00  0.00     0.211 HD
ENDBRANCH  12  16
BRANCH  14  18
ATOM     18  O   UNL     1      18.265  35.782  45.612  1.00  0.00    -0.387 OA
ATOM     19  H   UNL     1      17.491  35.244  45.323  1.00  0.00     0.211 HD
ENDBRANCH  14  18
BRANCH  15  20
ATOM     20  O   UNL     1      19.187  33.355  45.139  1.00  0.00    -0.385 OA
ATOM     21  H   UNL     1      18.399  33.653  45.656  1.00  0.00     0.211 HD
ENDBRANCH  15  20
ENDBRANCH   8   9
ENDBRANCH   7   8
ENDBRANCH   1   7
BRANCH   2  22
ATOM     22  O   UNL     1      22.443  33.518  39.889  1.00  0.00    -0.387 OA
ATOM     23  H   UNL     1      23.010  34.293  39.642  1.00  0.00     0.211 HD
ENDBRANCH   2  22
BRANCH   3  24
ATOM     24  O   UNL     1      20.754  35.124  37.421  1.00  0.00    -0.387 OA
ATOM     25  H   UNL     1      21.130  35.777  38.064  1.00  0.00     0.211 HD
ENDBRANCH   3  24
BRANCH   5  26
ATOM     26  O   UNL     1      18.038  33.661  37.270  1.00  0.00    -0.462 OA
BRANCH  26  27
ATOM     27  C   UNL     1      17.220  34.472  38.059  1.00  0.00     0.130 A 
ATOM     28  C   UNL     1      17.388  35.864  38.047  1.00  0.00     0.093 A 
ATOM     29  C   UNL     1      16.169  33.904  38.786  1.00  0.00     0.094 A 
ATOM     30  C   UNL     1      16.412  36.689  38.622  1.00  0.00     0.133 A 
ATOM     31  C   UNL     1      15.192  34.724  39.362  1.00  0.00     0.138 A 
ATOM     32  C   UNL     1      15.290  36.118  39.269  1.00  0.00     0.102 A 
ATOM     33  O   UNL     1      14.093  34.143  40.002  1.00  0.00    -0.484 OA
ATOM     34  C   UNL     1      14.110  36.922  39.655  1.00  0.00     0.174 C 
ATOM     35  C   UNL     1      13.241  34.868  40.904  1.00  0.00     0.211 C 
ATOM     36  O   UNL     1      13.973  38.106  39.221  1.00  0.00    -0.294 OA
ATOM     37  C   UNL     1      12.926  36.269  40.313  1.00  0.00     0.131 C 
BRANCH  30  38
ATOM     38  O   UNL     1      16.561  38.075  38.531  1.00  0.00    -0.507 OA
ATOM     39  H   UNL     1      17.370  38.491  38.089  1.00  0.00     0.293 HD
ENDBRANCH  30  38
BRANCH  35  40
ATOM     40  C   UNL     1      13.843  34.867  42.300  1.00  0.00    -0.007 A 
ATOM     41  C   UNL     1      13.076  35.219  43.438  1.00  0.00     0.011 A 
ATOM     42  C   UNL     1      15.129  34.315  42.528  1.00  0.00     0.011 A 
ATOM     43  C   UNL     1      13.617  35.138  44.721  1.00  0.00     0.046 A 
ATOM     44  C   UNL     1      15.656  34.213  43.820  1.00  0.00     0.046 A 
ATOM     45  C   UNL     1      14.906  34.651  44.916  1.00  0.00     0.115 A 
BRANCH  45  46
ATOM     46  O   UNL     1      15.423  34.562  46.213  1.00  0.00    -0.508 OA
ATOM     47  H   UNL     1      14.992  33.957  46.902  1.00  0.00     0.293 HD
ENDBRANCH  45  46
ENDBRANCH  35  40
ENDBRANCH  26  27
ENDBRANCH   5  26
BRANCH   4  48
ATOM     48  O   UNL     1      20.193  33.021  35.804  1.00  0.00    -0.384 OA
ATOM     49  H   UNL     1      19.410  33.631  35.692  1.00  0.00     0.211 HD
ENDBRANCH   4  48
TORSDOF 14
ENDMDL
MODEL 8
REMARK VINA RESULT:    -3.739      1.976      3.763
REMARK INTER + INTRA:          -9.302
REMARK INTER:                  -6.919
REMARK INTRA:                  -2.383
REMARK UNBOUND:                -3.377
REMARK SMILES C[C@H]1O[C@H](OC[C@H]2O[C@@H](Oc3cc(O)c4c(c3)O[C@@H](c3ccc(O)cc3)CC4=O)[C@@H](O)[C@@H](O)[C@@H]2O)[C@@H](O)[C@@H](O)[C@@H]1O
REMARK SMILES IDX 7 1 34 2 32 3 30 4 9 5 8 6 6 7 5 8 4 9 1 10 2 11 40 12 3 13
REMARK SMILES IDX 38 14 36 15 41 16 39 18 37 20 35 22 33 24 10 26 11 27 12 28
REMARK SMILES IDX 17 29 13 30 16 31 15 32 18 33 28 34 19 35 29 36 27 37 14 38
REMARK SMILES IDX 20 40 21 41 26 42 22 43 25 44 23 45 24 46 31 48
REMARK H PARENT 41 17 39 19 37 21 35 23 33 25 14 39 24 47 31 49
REMARK Flexibility Score: inf
ROOT
ATOM      1  C   UNL     1      19.194  35.367  46.558  1.00  0.00     0.180 C 
ATOM      2  C   UNL     1      19.239  36.738  45.818  1.00  0.00     0.177 C 
ATOM      3  C   UNL     1      20.657  37.355  45.780  1.00  0.00     0.180 C 
ATOM      4  C   UNL     1      21.660  36.514  46.596  1.00  0.00     0.214 C 
ATOM      5  C   UNL     1      21.526  34.993  46.246  1.00  0.00     0.339 C 
ATOM      6  O   UNL     1      20.191  34.523  46.023  1.00  0.00    -0.332 OA
ENDROOT
BRANCH   1   7
ATOM      7  C   UNL     1      17.823  34.704  46.392  1.00  0.00     0.198 C 
BRANCH   7   8
ATOM      8  O   UNL     1      17.141  35.227  45.260  1.00  0.00    -0.347 OA
BRANCH   8   9
ATOM      9  C   UNL     1      16.214  34.312  44.702  1.00  0.00     0.281 C 
ATOM     10  C   UNL     1      13.697  32.816  43.994  1.00  0.00     0.041 C 
ATOM     11  C   UNL     1      13.983  34.329  43.870  1.00  0.00     0.150 C 
ATOM     12  C   UNL     1      14.376  34.792  42.453  1.00  0.00     0.174 C 
ATOM     13  O   UNL     1      14.886  34.805  44.851  1.00  0.00    -0.344 OA
ATOM     14  C   UNL     1      15.888  34.584  42.136  1.00  0.00     0.179 C 
ATOM     15  C   UNL     1      16.675  33.870  43.266  1.00  0.00     0.202 C 
BRANCH  12  16
ATOM     16  O   UNL     1      14.059  36.160  42.331  1.00  0.00    -0.388 OA
ATOM     17  H   UNL     1      13.395  36.245  41.592  1.00  0.00     0.211 HD
ENDBRANCH  12  16
BRANCH  14  18
ATOM     18  O   UNL     1      16.028  33.860  40.936  1.00  0.00    -0.387 OA
ATOM     19  H   UNL     1      15.392  34.230  40.279  1.00  0.00     0.211 HD
ENDBRANCH  14  18
BRANCH  15  20
ATOM     20  O   UNL     1      16.545  32.480  43.124  1.00  0.00    -0.385 OA
ATOM     21  H   UNL     1      17.451  32.096  43.220  1.00  0.00     0.211 HD
ENDBRANCH  15  20
ENDBRANCH   8   9
ENDBRANCH   7   8
ENDBRANCH   1   7
BRANCH   2  22
ATOM     22  O   UNL     1      18.328  37.650  46.390  1.00  0.00    -0.387 OA
ATOM     23  H   UNL     1      18.548  37.740  47.353  1.00  0.00     0.211 HD
ENDBRANCH   2  22
BRANCH   3  24
ATOM     24  O   UNL     1      21.110  37.469  44.453  1.00  0.00    -0.387 OA
ATOM     25  H   UNL     1      21.378  36.559  44.167  1.00  0.00     0.211 HD
ENDBRANCH   3  24
BRANCH   5  26
ATOM     26  O   UNL     1      22.311  34.696  45.090  1.00  0.00    -0.462 OA
BRANCH  26  27
ATOM     27  C   UNL     1      21.755  34.042  43.988  1.00  0.00     0.130 A 
ATOM     28  C   UNL     1      21.043  32.847  44.165  1.00  0.00     0.093 A 
ATOM     29  C   UNL     1      21.826  34.630  42.721  1.00  0.00     0.094 A 
ATOM     30  C   UNL     1      20.267  32.336  43.115  1.00  0.00     0.133 A 
ATOM     31  C   UNL     1      21.054  34.121  41.670  1.00  0.00     0.138 A 
ATOM     32  C   UNL     1      20.253  32.988  41.860  1.00  0.00     0.102 A 
ATOM     33  O   UNL     1      21.056  34.775  40.434  1.00  0.00    -0.484 OA
ATOM     34  C   UNL     1      19.265  32.656  40.811  1.00  0.00     0.174 C 
ATOM     35  C   UNL     1      20.589  34.157  39.223  1.00  0.00     0.211 C 
ATOM     36  O   UNL     1      18.260  31.930  41.086  1.00  0.00    -0.294 OA
ATOM     37  C   UNL     1      19.266  33.395  39.501  1.00  0.00     0.131 C 
BRANCH  30  38
ATOM     38  O   UNL     1      19.504  31.187  43.338  1.00  0.00    -0.507 OA
ATOM     39  H   UNL     1      18.617  31.229  43.822  1.00  0.00     0.293 HD
ENDBRANCH  30  38
BRANCH  35  40
ATOM     40  C   UNL     1      21.702  33.331  38.599  1.00  0.00    -0.007 A 
ATOM     41  C   UNL     1      21.498  31.984  38.214  1.00  0.00     0.011 A 
ATOM     42  C   UNL     1      22.914  33.947  38.196  1.00  0.00     0.011 A 
ATOM     43  C   UNL     1      22.503  31.261  37.571  1.00  0.00     0.046 A 
ATOM     44  C   UNL     1      23.909  33.223  37.528  1.00  0.00     0.046 A 
ATOM     45  C   UNL     1      23.710  31.869  37.240  1.00  0.00     0.115 A 
BRANCH  45  46
ATOM     46  O   UNL     1      24.698  31.131  36.579  1.00  0.00    -0.508 OA
ATOM     47  H   UNL     1      24.497  30.662  35.704  1.00  0.00     0.293 HD
ENDBRANCH  45  46
ENDBRANCH  35  40
ENDBRANCH  26  27
ENDBRANCH   5  26
BRANCH   4  48
ATOM     48  O   UNL     1      22.968  36.966  46.362  1.00  0.00    -0.384 OA
ATOM     49  H   UNL     1      23.371  36.347  45.689  1.00  0.00     0.211 HD
ENDBRANCH   4  48
TORSDOF 14
ENDMDL
MODEL 9
REMARK VINA RESULT:    -3.637      2.879      3.637
REMARK INTER + INTRA:          -9.140
REMARK INTER:                  -6.291
REMARK INTRA:                  -2.849
REMARK UNBOUND:                -3.377
REMARK SMILES C[C@H]1O[C@H](OC[C@H]2O[C@@H](Oc3cc(O)c4c(c3)O[C@@H](c3ccc(O)cc3)CC4=O)[C@@H](O)[C@@H](O)[C@@H]2O)[C@@H](O)[C@@H](O)[C@@H]1O
REMARK SMILES IDX 7 1 34 2 32 3 30 4 9 5 8 6 6 7 5 8 4 9 1 10 2 11 40 12 3 13
REMARK SMILES IDX 38 14 36 15 41 16 39 18 37 20 35 22 33 24 10 26 11 27 12 28
REMARK SMILES IDX 17 29 13 30 16 31 15 32 18 33 28 34 19 35 29 36 27 37 14 38
REMARK SMILES IDX 20 40 21 41 26 42 22 43 25 44 23 45 24 46 31 48
REMARK H PARENT 41 17 39 19 37 21 35 23 33 25 14 39 24 47 31 49
REMARK Flexibility Score: inf
ROOT
ATOM      1  C   UNL     1      19.757  34.569  46.442  1.00  0.00     0.180 C 
ATOM      2  C   UNL     1      19.455  35.772  45.499  1.00  0.00     0.177 C 
ATOM      3  C   UNL     1      20.507  36.900  45.605  1.00  0.00     0.180 C 
ATOM      4  C   UNL     1      21.535  36.608  46.717  1.00  0.00     0.214 C 
ATOM      5  C   UNL     1      22.064  35.137  46.614  1.00  0.00     0.339 C 
ATOM      6  O   UNL     1      21.091  34.153  46.244  1.00  0.00    -0.332 OA
ENDROOT
BRANCH   1   7
ATOM      7  C   UNL     1      18.811  33.399  46.154  1.00  0.00     0.198 C 
BRANCH   7   8
ATOM      8  O   UNL     1      19.457  32.407  45.367  1.00  0.00    -0.347 OA
BRANCH   8   9
ATOM      9  C   UNL     1      18.833  32.205  44.111  1.00  0.00     0.281 C 
ATOM     10  C   UNL     1      16.817  32.017  41.880  1.00  0.00     0.041 C 
ATOM     11  C   UNL     1      17.143  33.229  42.781  1.00  0.00     0.150 C 
ATOM     12  C   UNL     1      18.090  34.264  42.142  1.00  0.00     0.174 C 
ATOM     13  O   UNL     1      17.566  32.856  44.080  1.00  0.00    -0.344 OA
ATOM     14  C   UNL     1      19.596  33.887  42.279  1.00  0.00     0.179 C 
ATOM     15  C   UNL     1      19.840  32.506  42.943  1.00  0.00     0.202 C 
BRANCH  12  16
ATOM     16  O   UNL     1      17.864  35.510  42.762  1.00  0.00    -0.388 OA
ATOM     17  H   UNL     1      18.101  36.217  42.101  1.00  0.00     0.211 HD
ENDBRANCH  12  16
BRANCH  14  18
ATOM     18  O   UNL     1      20.211  33.916  41.012  1.00  0.00    -0.387 OA
ATOM     19  H   UNL     1      20.109  34.824  40.643  1.00  0.00     0.211 HD
ENDBRANCH  14  18
BRANCH  15  20
ATOM     20  O   UNL     1      19.768  31.497  41.971  1.00  0.00    -0.385 OA
ATOM     21  H   UNL     1      18.818  31.417  41.711  1.00  0.00     0.211 HD
ENDBRANCH  15  20
ENDBRANCH   8   9
ENDBRANCH   7   8
ENDBRANCH   1   7
BRANCH   2  22
ATOM     22  O   UNL     1      18.163  36.288  45.737  1.00  0.00    -0.387 OA
ATOM     23  H   UNL     1      17.553  35.915  45.049  1.00  0.00     0.211 HD
ENDBRANCH   2  22
BRANCH   3  24
ATOM     24  O   UNL     1      21.175  37.069  44.379  1.00  0.00    -0.387 OA
ATOM     25  H   UNL     1      20.570  37.599  43.799  1.00  0.00     0.211 HD
ENDBRANCH   3  24
BRANCH   5  26
ATOM     26  O   UNL     1      23.146  35.080  45.682  1.00  0.00    -0.462 OA
BRANCH  26  27
ATOM     27  C   UNL     1      23.395  33.926  44.935  1.00  0.00     0.130 A 
ATOM     28  C   UNL     1      22.993  33.857  43.594  1.00  0.00     0.093 A 
ATOM     29  C   UNL     1      24.133  32.880  45.496  1.00  0.00     0.094 A 
ATOM     30  C   UNL     1      23.470  32.823  42.776  1.00  0.00     0.133 A 
ATOM     31  C   UNL     1      24.611  31.845  44.683  1.00  0.00     0.138 A 
ATOM     32  C   UNL     1      24.305  31.817  43.317  1.00  0.00     0.102 A 
ATOM     33  O   UNL     1      25.429  30.856  45.236  1.00  0.00    -0.484 OA
ATOM     34  C   UNL     1      25.045  30.864  42.462  1.00  0.00     0.174 C 
ATOM     35  C   UNL     1      25.678  29.597  44.588  1.00  0.00     0.211 C 
ATOM     36  O   UNL     1      25.129  31.060  41.211  1.00  0.00    -0.294 OA
ATOM     37  C   UNL     1      25.946  29.829  43.077  1.00  0.00     0.131 C 
BRANCH  30  38
ATOM     38  O   UNL     1      23.119  32.817  41.424  1.00  0.00    -0.507 OA
ATOM     39  H   UNL     1      23.248  33.633  40.841  1.00  0.00     0.293 HD
ENDBRANCH  30  38
BRANCH  35  40
ATOM     40  C   UNL     1      24.561  28.618  44.912  1.00  0.00    -0.007 A 
ATOM     41  C   UNL     1      23.898  28.637  46.164  1.00  0.00     0.011 A 
ATOM     42  C   UNL     1      24.011  27.794  43.897  1.00  0.00     0.011 A 
ATOM     43  C   UNL     1      22.823  27.786  46.420  1.00  0.00     0.046 A 
ATOM     44  C   UNL     1      22.916  26.961  44.153  1.00  0.00     0.046 A 
ATOM     45  C   UNL     1      22.339  26.939  45.427  1.00  0.00     0.115 A 
BRANCH  45  46
ATOM     46  O   UNL     1      21.249  26.106  45.699  1.00  0.00    -0.508 OA
ATOM     47  H   UNL     1      21.172  25.627  46.587  1.00  0.00     0.293 HD
ENDBRANCH  45  46
ENDBRANCH  35  40
ENDBRANCH  26  27
ENDBRANCH   5  26
BRANCH   4  48
ATOM     48  O   UNL     1      22.596  37.525  46.643  1.00  0.00    -0.384 OA
ATOM     49  H   UNL     1      22.210  38.428  46.824  1.00  0.00     0.211 HD
ENDBRANCH   4  48
TORSDOF 14
ENDMDL
