MODEL 1
REMARK VINA RESULT:    -3.273      0.000      0.000
REMARK INTER + INTRA:          -5.331
REMARK INTER:                  -4.995
REMARK INTRA:                  -0.336
REMARK UNBOUND:                -0.336
REMARK SMILES CC1=CCC[C@H](C)C(=O)C[C@@H](C(C)C)C(=O)C1
REMARK SMILES IDX 8 1 9 2 6 3 7 4 5 5 4 6 3 7 2 8 1 9 10 11 11 12 15 13 16 14
REMARK SMILES IDX 17 15 12 17 13 18 14 19
REMARK H PARENT
REMARK Flexibility Score: 70.00
ROOT
ATOM      1  C   UNL     1      27.181  42.214 143.385  1.00  0.00     0.136 C 
ATOM      2  O   UNL     1      27.995  41.402 142.965  1.00  0.00    -0.299 OA
ENDROOT
BRANCH   1   3
ATOM      3  C   UNL     1      27.643  43.591 143.801  1.00  0.00     0.053 C 
ATOM      4  C   UNL     1      28.963  43.495 144.577  1.00  0.00     0.016 C 
BRANCH   3   5
ATOM      5  C   UNL     1      27.793  44.523 142.583  1.00  0.00     0.015 C 
BRANCH   5   6
ATOM      6  C   UNL     1      26.440  45.070 142.079  1.00  0.00     0.028 C 
BRANCH   6   7
ATOM      7  C   UNL     1      26.098  44.531 140.709  1.00  0.00    -0.028 C 
ATOM      8  C   UNL     1      25.071  43.710 140.383  1.00  0.00    -0.070 CG0
ATOM      9  C   UNL     1      24.910  43.346 138.928  1.00  0.00     0.039 C 
ATOM     10  G   UNL     1      24.087  43.117 141.378  1.00  0.00     0.000 G0
ENDBRANCH   6   7
ENDBRANCH   5   6
ENDBRANCH   3   5
ENDBRANCH   1   3
BRANCH   1  11
ATOM     11  C   UNL     1      25.731  41.823 143.554  1.00  0.00     0.087 C 
BRANCH  11  12
ATOM     12  C   UNL     1      25.200  40.909 142.422  1.00  0.00     0.066 C 
BRANCH  12  13
ATOM     13  C   UNL     1      24.206  41.599 141.497  1.00  0.00     0.140 C 
ATOM     14  O   UNL     1      23.436  40.900 140.855  1.00  0.00    -0.299 OA
BRANCH  13  15
ATOM     15  C   UNL     1      24.078  43.103 141.388  1.00  0.00     0.106 CG0
ATOM     16  G   UNL     1      25.069  43.666 140.384  1.00  0.00     0.000 G0
ENDBRANCH  13  15
ENDBRANCH  12  13
BRANCH  12  17
ATOM     17  C   UNL     1      24.682  39.542 142.962  1.00  0.00    -0.006 C 
ATOM     18  C   UNL     1      24.137  39.676 144.394  1.00  0.00     0.008 C 
ATOM     19  C   UNL     1      25.719  38.409 142.905  1.00  0.00     0.008 C 
ENDBRANCH  12  17
ENDBRANCH  11  12
ENDBRANCH   1  11
TORSDOF 1
ENDMDL
MODEL 2
REMARK VINA RESULT:    -3.249      2.286      3.776
REMARK INTER + INTRA:          -5.295
REMARK INTER:                  -5.178
REMARK INTRA:                  -0.116
REMARK UNBOUND:                -0.336
REMARK SMILES CC1=CCC[C@H](C)C(=O)C[C@@H](C(C)C)C(=O)C1
REMARK SMILES IDX 8 1 9 2 6 3 7 4 5 5 4 6 3 7 2 8 1 9 10 11 11 12 15 13 16 14
REMARK SMILES IDX 17 15 12 17 13 18 14 19
REMARK H PARENT
REMARK Flexibility Score: 70.00
ROOT
ATOM      1  C   UNL     1      27.736  43.947 143.176  1.00  0.00     0.136 C 
ATOM      2  O   UNL     1      27.793  44.274 144.354  1.00  0.00    -0.299 OA
ENDROOT
BRANCH   1   3
ATOM      3  C   UNL     1      28.457  42.705 142.707  1.00  0.00     0.053 C 
ATOM      4  C   UNL     1      29.936  42.767 143.112  1.00  0.00     0.016 C 
BRANCH   3   5
ATOM      5  C   UNL     1      27.793  41.429 143.261  1.00  0.00     0.015 C 
BRANCH   5   6
ATOM      6  C   UNL     1      26.772  40.812 142.281  1.00  0.00     0.028 C 
BRANCH   6   7
ATOM      7  C   UNL     1      27.306  40.784 140.867  1.00  0.00    -0.028 C 
ATOM      8  C   UNL     1      26.807  41.433 139.788  1.00  0.00    -0.070 CG0
ATOM      9  C   UNL     1      27.551  41.283 138.484  1.00  0.00     0.039 C 
ATOM     10  G   UNL     1      25.546  42.281 139.795  1.00  0.00     0.000 G0
ENDBRANCH   6   7
ENDBRANCH   5   6
ENDBRANCH   3   5
ENDBRANCH   1   3
BRANCH   1  11
ATOM     11  C   UNL     1      27.006  44.816 142.177  1.00  0.00     0.087 C 
BRANCH  11  12
ATOM     12  C   UNL     1      25.704  44.176 141.635  1.00  0.00     0.066 C 
BRANCH  12  13
ATOM     13  C   UNL     1      25.815  43.693 140.195  1.00  0.00     0.140 C 
ATOM     14  O   UNL     1      26.201  44.487 139.349  1.00  0.00    -0.299 OA
BRANCH  13  15
ATOM     15  C   UNL     1      25.542  42.266 139.774  1.00  0.00     0.106 CG0
ATOM     16  G   UNL     1      26.813  41.434 139.802  1.00  0.00     0.000 G0
ENDBRANCH  13  15
ENDBRANCH  12  13
BRANCH  12  17
ATOM     17  C   UNL     1      24.457  45.079 141.880  1.00  0.00    -0.006 C 
ATOM     18  C   UNL     1      23.837  44.815 143.262  1.00  0.00     0.008 C 
ATOM     19  C   UNL     1      23.375  44.966 140.794  1.00  0.00     0.008 C 
ENDBRANCH  12  17
ENDBRANCH  11  12
ENDBRANCH   1  11
TORSDOF 1
ENDMDL
MODEL 3
REMARK VINA RESULT:    -3.170      9.014     11.962
REMARK INTER + INTRA:          -5.174
REMARK INTER:                  -4.894
REMARK INTRA:                  -0.280
REMARK UNBOUND:                -0.336
REMARK SMILES CC1=CCC[C@H](C)C(=O)C[C@@H](C(C)C)C(=O)C1
REMARK SMILES IDX 8 1 9 2 6 3 7 4 5 5 4 6 3 7 2 8 1 9 10 11 11 12 15 13 16 14
REMARK SMILES IDX 17 15 12 17 13 18 14 19
REMARK H PARENT
REMARK Flexibility Score: 70.00
ROOT
ATOM      1  C   UNL     1      26.424  33.532 138.909  1.00  0.00     0.136 C 
ATOM      2  O   UNL     1      26.872  34.291 138.060  1.00  0.00    -0.299 OA
ENDROOT
BRANCH   1   3
ATOM      3  C   UNL     1      25.003  33.706 139.394  1.00  0.00     0.053 C 
ATOM      4  C   UNL     1      24.718  35.186 139.678  1.00  0.00     0.016 C 
BRANCH   3   5
ATOM      5  C   UNL     1      23.991  33.141 138.378  1.00  0.00     0.015 C 
BRANCH   5   6
ATOM      6  C   UNL     1      23.478  31.737 138.763  1.00  0.00     0.028 C 
BRANCH   6   7
ATOM      7  C   UNL     1      23.784  31.409 140.207  1.00  0.00    -0.028 C 
ATOM      8  C   UNL     1      24.637  30.463 140.670  1.00  0.00    -0.070 CG0
ATOM      9  C   UNL     1      24.808  30.359 142.166  1.00  0.00     0.039 C 
ATOM     10  G   UNL     1      25.412  29.492 139.795  1.00  0.00     0.000 G0
ENDBRANCH   6   7
ENDBRANCH   5   6
ENDBRANCH   3   5
ENDBRANCH   1   3
BRANCH   1  11
ATOM     11  C   UNL     1      27.304  32.468 139.523  1.00  0.00     0.087 C 
BRANCH  11  12
ATOM     12  C   UNL     1      27.275  31.123 138.757  1.00  0.00     0.066 C 
BRANCH  12  13
ATOM     13  C   UNL     1      26.866  29.937 139.621  1.00  0.00     0.140 C 
ATOM     14  O   UNL     1      27.738  29.353 140.247  1.00  0.00    -0.299 OA
BRANCH  13  15
ATOM     15  C   UNL     1      25.430  29.494 139.797  1.00  0.00     0.106 CG0
ATOM     16  G   UNL     1      24.665  30.457 140.688  1.00  0.00     0.000 G0
ENDBRANCH  13  15
ENDBRANCH  12  13
BRANCH  12  17
ATOM     17  C   UNL     1      28.592  30.870 137.960  1.00  0.00    -0.006 C 
ATOM     18  C   UNL     1      29.770  31.653 138.564  1.00  0.00     0.008 C 
ATOM     19  C   UNL     1      28.484  31.170 136.456  1.00  0.00     0.008 C 
ENDBRANCH  12  17
ENDBRANCH  11  12
ENDBRANCH   1  11
TORSDOF 1
ENDMDL
MODEL 4
REMARK VINA RESULT:    -3.152      9.261     11.940
REMARK INTER + INTRA:          -5.147
REMARK INTER:                  -5.111
REMARK INTRA:                  -0.036
REMARK UNBOUND:                -0.336
REMARK SMILES CC1=CCC[C@H](C)C(=O)C[C@@H](C(C)C)C(=O)C1
REMARK SMILES IDX 8 1 9 2 6 3 7 4 5 5 4 6 3 7 2 8 1 9 10 11 11 12 15 13 16 14
REMARK SMILES IDX 17 15 12 17 13 18 14 19
REMARK H PARENT
REMARK Flexibility Score: 70.00
ROOT
ATOM      1  C   UNL     1      38.928  42.234 142.507  1.00  0.00     0.136 C 
ATOM      2  O   UNL     1      39.560  42.658 141.549  1.00  0.00    -0.299 OA
ENDROOT
BRANCH   1   3
ATOM      3  C   UNL     1      39.428  42.496 143.910  1.00  0.00     0.053 C 
ATOM      4  C   UNL     1      40.927  42.186 144.004  1.00  0.00     0.016 C 
BRANCH   3   5
ATOM      5  C   UNL     1      39.142  43.947 144.343  1.00  0.00     0.015 C 
BRANCH   5   6
ATOM      6  C   UNL     1      37.872  44.072 145.213  1.00  0.00     0.028 C 
BRANCH   6   7
ATOM      7  C   UNL     1      37.582  42.790 145.961  1.00  0.00    -0.028 C 
ATOM      8  C   UNL     1      36.497  41.990 145.827  1.00  0.00    -0.070 CG0
ATOM      9  C   UNL     1      36.459  40.731 146.657  1.00  0.00     0.039 C 
ATOM     10  G   UNL     1      35.313  42.281 144.919  1.00  0.00     0.000 G0
ENDBRANCH   6   7
ENDBRANCH   5   6
ENDBRANCH   3   5
ENDBRANCH   1   3
BRANCH   1  11
ATOM     11  C   UNL     1      37.691  41.393 142.294  1.00  0.00     0.087 C 
BRANCH  11  12
ATOM     12  C   UNL     1      36.369  42.182 142.463  1.00  0.00     0.066 C 
BRANCH  12  13
ATOM     13  C   UNL     1      35.459  41.622 143.549  1.00  0.00     0.140 C 
ATOM     14  O   UNL     1      34.882  40.567 143.329  1.00  0.00    -0.299 OA
BRANCH  13  15
ATOM     15  C   UNL     1      35.293  42.267 144.907  1.00  0.00     0.106 CG0
ATOM     16  G   UNL     1      36.487  41.979 145.801  1.00  0.00     0.000 G0
ENDBRANCH  13  15
ENDBRANCH  12  13
BRANCH  12  17
ATOM     17  C   UNL     1      35.634  42.399 141.106  1.00  0.00    -0.006 C 
ATOM     18  C   UNL     1      34.134  42.660 141.317  1.00  0.00     0.008 C 
ATOM     19  C   UNL     1      35.826  41.256 140.096  1.00  0.00     0.008 C 
ENDBRANCH  12  17
ENDBRANCH  11  12
ENDBRANCH   1  11
TORSDOF 1
ENDMDL
MODEL 5
REMARK VINA RESULT:    -3.121      9.841     12.298
REMARK INTER + INTRA:          -5.099
REMARK INTER:                  -4.792
REMARK INTRA:                  -0.307
REMARK UNBOUND:                -0.336
REMARK SMILES CC1=CCC[C@H](C)C(=O)C[C@@H](C(C)C)C(=O)C1
REMARK SMILES IDX 8 1 9 2 6 3 7 4 5 5 4 6 3 7 2 8 1 9 10 11 11 12 15 13 16 14
REMARK SMILES IDX 17 15 12 17 13 18 14 19
REMARK H PARENT
REMARK Flexibility Score: 70.00
ROOT
ATOM      1  C   UNL     1      28.080  31.316 137.435  1.00  0.00     0.136 C 
ATOM      2  O   UNL     1      28.325  30.606 136.469  1.00  0.00    -0.299 OA
ENDROOT
BRANCH   1   3
ATOM      3  C   UNL     1      27.234  30.777 138.566  1.00  0.00     0.053 C 
ATOM      4  C   UNL     1      25.834  30.415 138.053  1.00  0.00     0.016 C 
BRANCH   3   5
ATOM      5  C   UNL     1      27.902  29.560 139.233  1.00  0.00     0.015 C 
BRANCH   5   6
ATOM      6  C   UNL     1      28.881  29.957 140.358  1.00  0.00     0.028 C 
BRANCH   6   7
ATOM      7  C   UNL     1      28.360  31.126 141.163  1.00  0.00    -0.028 C 
ATOM      8  C   UNL     1      28.917  32.355 141.280  1.00  0.00    -0.070 CG0
ATOM      9  C   UNL     1      28.176  33.375 142.109  1.00  0.00     0.039 C 
ATOM     10  G   UNL     1      30.240  32.770 140.656  1.00  0.00     0.000 G0
ENDBRANCH   6   7
ENDBRANCH   5   6
ENDBRANCH   3   5
ENDBRANCH   1   3
BRANCH   1  11
ATOM     11  C   UNL     1      28.560  32.749 137.471  1.00  0.00     0.087 C 
BRANCH  11  12
ATOM     12  C   UNL     1      30.003  32.905 138.009  1.00  0.00     0.066 C 
BRANCH  12  13
ATOM     13  C   UNL     1      30.073  33.550 139.388  1.00  0.00     0.140 C 
ATOM     14  O   UNL     1      29.910  34.758 139.467  1.00  0.00    -0.299 OA
BRANCH  13  15
ATOM     15  C   UNL     1      30.262  32.761 140.664  1.00  0.00     0.106 CG0
ATOM     16  G   UNL     1      28.925  32.387 141.281  1.00  0.00     0.000 G0
ENDBRANCH  13  15
ENDBRANCH  12  13
BRANCH  12  17
ATOM     17  C   UNL     1      30.949  33.582 136.971  1.00  0.00    -0.006 C 
ATOM     18  C   UNL     1      30.185  33.991 135.701  1.00  0.00     0.008 C 
ATOM     19  C   UNL     1      32.175  32.736 136.592  1.00  0.00     0.008 C 
ENDBRANCH  12  17
ENDBRANCH  11  12
ENDBRANCH   1  11
TORSDOF 1
ENDMDL
MODEL 6
REMARK VINA RESULT:    -3.117     10.798     12.626
REMARK INTER + INTRA:          -5.093
REMARK INTER:                  -4.848
REMARK INTRA:                  -0.245
REMARK UNBOUND:                -0.336
REMARK SMILES CC1=CCC[C@H](C)C(=O)C[C@@H](C(C)C)C(=O)C1
REMARK SMILES IDX 8 1 9 2 6 3 7 4 5 5 4 6 3 7 2 8 1 9 10 11 11 12 15 13 16 14
REMARK SMILES IDX 17 15 12 17 13 18 14 19
REMARK H PARENT
REMARK Flexibility Score: 70.00
ROOT
ATOM      1  C   UNL     1      25.344  32.654 138.376  1.00  0.00     0.136 C 
ATOM      2  O   UNL     1      24.794  33.254 137.462  1.00  0.00    -0.299 OA
ENDROOT
BRANCH   1   3
ATOM      3  C   UNL     1      24.541  31.711 139.242  1.00  0.00     0.053 C 
ATOM      4  C   UNL     1      23.158  32.307 139.534  1.00  0.00     0.016 C 
BRANCH   3   5
ATOM      5  C   UNL     1      24.409  30.323 138.586  1.00  0.00     0.015 C 
BRANCH   5   6
ATOM      6  C   UNL     1      24.954  29.186 139.477  1.00  0.00     0.028 C 
BRANCH   6   7
ATOM      7  C   UNL     1      25.353  29.693 140.844  1.00  0.00    -0.028 C 
ATOM      8  C   UNL     1      26.601  30.000 141.273  1.00  0.00    -0.070 CG0
ATOM      9  C   UNL     1      26.737  30.536 142.677  1.00  0.00     0.039 C 
ATOM     10  G   UNL     1      27.867  29.824 140.452  1.00  0.00     0.000 G0
ENDBRANCH   6   7
ENDBRANCH   5   6
ENDBRANCH   3   5
ENDBRANCH   1   3
BRANCH   1  11
ATOM     11  C   UNL     1      26.802  32.902 138.684  1.00  0.00     0.087 C 
BRANCH  11  12
ATOM     12  C   UNL     1      27.696  31.651 138.499  1.00  0.00     0.066 C 
BRANCH  12  13
ATOM     13  C   UNL     1      28.302  31.137 139.799  1.00  0.00     0.140 C 
ATOM     14  O   UNL     1      29.124  31.840 140.368  1.00  0.00    -0.299 OA
BRANCH  13  15
ATOM     15  C   UNL     1      27.886  29.838 140.452  1.00  0.00     0.106 CG0
ATOM     16  G   UNL     1      26.615  30.017 141.266  1.00  0.00     0.000 G0
ENDBRANCH  13  15
ENDBRANCH  12  13
BRANCH  12  17
ATOM     17  C   UNL     1      28.752  31.844 137.369  1.00  0.00    -0.006 C 
ATOM     18  C   UNL     1      28.861  33.319 136.949  1.00  0.00     0.008 C 
ATOM     19  C   UNL     1      28.514  30.966 136.129  1.00  0.00     0.008 C 
ENDBRANCH  12  17
ENDBRANCH  11  12
ENDBRANCH   1  11
TORSDOF 1
ENDMDL
MODEL 7
REMARK VINA RESULT:    -3.095      2.006      4.077
REMARK INTER + INTRA:          -5.059
REMARK INTER:                  -4.839
REMARK INTRA:                  -0.220
REMARK UNBOUND:                -0.336
REMARK SMILES CC1=CCC[C@H](C)C(=O)C[C@@H](C(C)C)C(=O)C1
REMARK SMILES IDX 8 1 9 2 6 3 7 4 5 5 4 6 3 7 2 8 1 9 10 11 11 12 15 13 16 14
REMARK SMILES IDX 17 15 12 17 13 18 14 19
REMARK H PARENT
REMARK Flexibility Score: 70.00
ROOT
ATOM      1  C   UNL     1      26.132  44.522 142.049  1.00  0.00     0.136 C 
ATOM      2  O   UNL     1      26.858  45.474 141.795  1.00  0.00    -0.299 OA
ENDROOT
BRANCH   1   3
ATOM      3  C   UNL     1      24.779  44.414 141.385  1.00  0.00     0.053 C 
ATOM      4  C   UNL     1      23.844  45.513 141.907  1.00  0.00     0.016 C 
BRANCH   3   5
ATOM      5  C   UNL     1      24.901  44.486 139.850  1.00  0.00     0.015 C 
BRANCH   5   6
ATOM      6  C   UNL     1      25.350  43.149 139.223  1.00  0.00     0.028 C 
BRANCH   6   7
ATOM      7  C   UNL     1      24.653  41.971 139.865  1.00  0.00    -0.028 C 
ATOM      8  C   UNL     1      25.225  40.957 140.558  1.00  0.00    -0.070 CG0
ATOM      9  C   UNL     1      24.305  39.916 141.147  1.00  0.00     0.039 C 
ATOM     10  G   UNL     1      26.721  40.784 140.763  1.00  0.00     0.000 G0
ENDBRANCH   6   7
ENDBRANCH   5   6
ENDBRANCH   3   5
ENDBRANCH   1   3
BRANCH   1  11
ATOM     11  C   UNL     1      26.553  43.492 143.072  1.00  0.00     0.087 C 
BRANCH  11  12
ATOM     12  C   UNL     1      27.654  42.529 142.565  1.00  0.00     0.066 C 
BRANCH  12  13
ATOM     13  C   UNL     1      27.130  41.151 142.180  1.00  0.00     0.140 C 
ATOM     14  O   UNL     1      26.970  40.328 143.069  1.00  0.00    -0.299 OA
BRANCH  13  15
ATOM     15  C   UNL     1      26.734  40.778 140.769  1.00  0.00     0.106 CG0
ATOM     16  G   UNL     1      25.237  40.933 140.561  1.00  0.00     0.000 G0
ENDBRANCH  13  15
ENDBRANCH  12  13
BRANCH  12  17
ATOM     17  C   UNL     1      28.875  42.468 143.533  1.00  0.00    -0.006 C 
ATOM     18  C   UNL     1      28.840  43.620 144.551  1.00  0.00     0.008 C 
ATOM     19  C   UNL     1      30.239  42.441 142.824  1.00  0.00     0.008 C 
ENDBRANCH  12  17
ENDBRANCH  11  12
ENDBRANCH   1  11
TORSDOF 1
ENDMDL
MODEL 8
REMARK VINA RESULT:    -3.040      9.928     12.111
REMARK INTER + INTRA:          -4.976
REMARK INTER:                  -4.829
REMARK INTRA:                  -0.147
REMARK UNBOUND:                -0.336
REMARK SMILES CC1=CCC[C@H](C)C(=O)C[C@@H](C(C)C)C(=O)C1
REMARK SMILES IDX 8 1 9 2 6 3 7 4 5 5 4 6 3 7 2 8 1 9 10 11 11 12 15 13 16 14
REMARK SMILES IDX 17 15 12 17 13 18 14 19
REMARK H PARENT
REMARK Flexibility Score: 70.00
ROOT
ATOM      1  C   UNL     1      26.972  31.630 138.324  1.00  0.00     0.136 C 
ATOM      2  O   UNL     1      26.995  32.826 138.063  1.00  0.00    -0.299 OA
ENDROOT
BRANCH   1   3
ATOM      3  C   UNL     1      28.065  30.728 137.800  1.00  0.00     0.053 C 
ATOM      4  C   UNL     1      28.598  31.262 136.464  1.00  0.00     0.016 C 
BRANCH   3   5
ATOM      5  C   UNL     1      29.208  30.581 138.823  1.00  0.00     0.015 C 
BRANCH   5   6
ATOM      6  C   UNL     1      28.819  29.703 140.032  1.00  0.00     0.028 C 
BRANCH   6   7
ATOM      7  C   UNL     1      28.836  30.492 141.321  1.00  0.00    -0.028 C 
ATOM      8  C   UNL     1      27.799  30.702 142.168  1.00  0.00    -0.070 CG0
ATOM      9  C   UNL     1      28.079  31.490 143.424  1.00  0.00     0.039 C 
ATOM     10  G   UNL     1      26.377  30.219 141.933  1.00  0.00     0.000 G0
ENDBRANCH   6   7
ENDBRANCH   5   6
ENDBRANCH   3   5
ENDBRANCH   1   3
BRANCH   1  11
ATOM     11  C   UNL     1      25.822  31.042 139.108  1.00  0.00     0.087 C 
BRANCH  11  12
ATOM     12  C   UNL     1      25.286  31.979 140.218  1.00  0.00     0.066 C 
BRANCH  12  13
ATOM     13  C   UNL     1      25.468  31.424 141.625  1.00  0.00     0.140 C 
ATOM     14  O   UNL     1      24.814  31.922 142.530  1.00  0.00    -0.299 OA
BRANCH  13  15
ATOM     15  C   UNL     1      26.362  30.246 141.944  1.00  0.00     0.106 CG0
ATOM     16  G   UNL     1      27.800  30.690 142.152  1.00  0.00     0.000 G0
ENDBRANCH  13  15
ENDBRANCH  12  13
BRANCH  12  17
ATOM     17  C   UNL     1      23.829  32.455 139.935  1.00  0.00    -0.006 C 
ATOM     18  C   UNL     1      23.282  31.840 138.637  1.00  0.00     0.008 C 
ATOM     19  C   UNL     1      23.662  33.983 139.899  1.00  0.00     0.008 C 
ENDBRANCH  12  17
ENDBRANCH  11  12
ENDBRANCH   1  11
TORSDOF 1
ENDMDL
MODEL 9
REMARK VINA RESULT:    -2.943      2.704      4.026
REMARK INTER + INTRA:          -4.828
REMARK INTER:                  -4.552
REMARK INTRA:                  -0.276
REMARK UNBOUND:                -0.336
REMARK SMILES CC1=CCC[C@H](C)C(=O)C[C@@H](C(C)C)C(=O)C1
REMARK SMILES IDX 8 1 9 2 6 3 7 4 5 5 4 6 3 7 2 8 1 9 10 11 11 12 15 13 16 14
REMARK SMILES IDX 17 15 12 17 13 18 14 19
REMARK H PARENT
REMARK Flexibility Score: 70.00
ROOT
ATOM      1  C   UNL     1      25.901  43.039 142.532  1.00  0.00     0.136 C 
ATOM      2  O   UNL     1      24.961  43.320 143.263  1.00  0.00    -0.299 OA
ENDROOT
BRANCH   1   3
ATOM      3  C   UNL     1      27.095  43.964 142.459  1.00  0.00     0.053 C 
ATOM      4  C   UNL     1      26.689  45.304 141.833  1.00  0.00     0.016 C 
BRANCH   3   5
ATOM      5  C   UNL     1      27.721  44.180 143.851  1.00  0.00     0.015 C 
BRANCH   5   6
ATOM      6  C   UNL     1      28.650  43.022 144.274  1.00  0.00     0.028 C 
BRANCH   6   7
ATOM      7  C   UNL     1      29.773  42.820 143.283  1.00  0.00    -0.028 C 
ATOM      8  C   UNL     1      30.019  41.716 142.536  1.00  0.00    -0.070 CG0
ATOM      9  C   UNL     1      31.183  41.775 141.577  1.00  0.00     0.039 C 
ATOM     10  G   UNL     1      29.223  40.424 142.611  1.00  0.00     0.000 G0
ENDBRANCH   6   7
ENDBRANCH   5   6
ENDBRANCH   3   5
ENDBRANCH   1   3
BRANCH   1  11
ATOM     11  C   UNL     1      25.845  41.813 141.652  1.00  0.00     0.087 C 
BRANCH  11  12
ATOM     12  C   UNL     1      26.598  40.594 142.239  1.00  0.00     0.066 C 
BRANCH  12  13
ATOM     13  C   UNL     1      28.018  40.441 141.709  1.00  0.00     0.140 C 
ATOM     14  O   UNL     1      28.180  40.401 140.498  1.00  0.00    -0.299 OA
BRANCH  13  15
ATOM     15  C   UNL     1      29.238  40.409 142.602  1.00  0.00     0.106 CG0
ATOM     16  G   UNL     1      30.005  41.719 142.530  1.00  0.00     0.000 G0
ENDBRANCH  13  15
ENDBRANCH  12  13
BRANCH  12  17
ATOM     17  C   UNL     1      25.765  39.280 142.135  1.00  0.00    -0.006 C 
ATOM     18  C   UNL     1      24.413  39.417 142.854  1.00  0.00     0.008 C 
ATOM     19  C   UNL     1      26.499  38.028 142.641  1.00  0.00     0.008 C 
ENDBRANCH  12  17
ENDBRANCH  11  12
ENDBRANCH   1  11
TORSDOF 1
ENDMDL
