MODEL 1
REMARK VINA RESULT:    -5.112      0.000      0.000
REMARK INTER + INTRA:         -10.429
REMARK INTER:                  -9.296
REMARK INTRA:                  -1.133
REMARK UNBOUND:                -1.133
REMARK SMILES CCCCCCCCCCCCCC[C@H](C)C(=O)[O-]
REMARK SMILES IDX 9 1 10 2 11 3 12 4 13 5 14 6 15 7 16 8 17 9 18 10 19 11 8 12
REMARK SMILES IDX 7 13 6 14 5 15 4 16 3 17 2 18 1 19
REMARK H PARENT
REMARK Flexibility Score: inf
ROOT
ATOM      1  C   UNL     1       5.780  -7.229 -22.494  1.00  0.00     0.000 C 
ENDROOT
BRANCH   1   2
ATOM      2  C   UNL     1       5.933  -8.743 -22.267  1.00  0.00     0.000 C 
BRANCH   2   3
ATOM      3  C   UNL     1       6.996  -9.375 -23.178  1.00  0.00     0.000 C 
BRANCH   3   4
ATOM      4  C   UNL     1       6.490 -10.691 -23.779  1.00  0.00     0.000 C 
BRANCH   4   5
ATOM      5  C   UNL     1       5.098 -11.050 -23.233  1.00  0.00     0.001 C 
BRANCH   5   6
ATOM      6  C   UNL     1       5.060 -12.464 -22.614  1.00  0.00     0.009 C 
BRANCH   6   7
ATOM      7  C   UNL     1       3.634 -13.049 -22.494  1.00  0.00     0.032 C 
ATOM      8  C   UNL     1       2.700 -12.157 -21.666  1.00  0.00     0.014 C 
BRANCH   7   9
ATOM      9  C   UNL     1       3.699 -14.420 -21.880  1.00  0.00     0.044 C 
ATOM     10  O   UNL     1       2.653 -14.969 -21.444  1.00  0.00    -0.550 OA
ATOM     11  O   UNL     1       4.912 -15.094 -21.795  1.00  0.00    -0.550 OA
ENDBRANCH   7   9
ENDBRANCH   6   7
ENDBRANCH   5   6
ENDBRANCH   4   5
ENDBRANCH   3   4
ENDBRANCH   2   3
ENDBRANCH   1   2
BRANCH   1  12
ATOM     12  C   UNL     1       4.793  -6.581 -21.508  1.00  0.00     0.000 C 
BRANCH  12  13
ATOM     13  C   UNL     1       4.336  -7.548 -20.400  1.00  0.00    -0.000 C 
BRANCH  13  14
ATOM     14  C   UNL     1       3.043  -7.140 -19.666  1.00  0.00    -0.000 C 
BRANCH  14  15
ATOM     15  C   UNL     1       2.635  -5.662 -19.831  1.00  0.00    -0.000 C 
BRANCH  15  16
ATOM     16  C   UNL     1       2.904  -4.774 -18.601  1.00  0.00    -0.000 C 
BRANCH  16  17
ATOM     17  C   UNL     1       3.541  -3.404 -18.912  1.00  0.00    -0.000 C 
BRANCH  17  18
ATOM     18  C   UNL     1       5.075  -3.363 -18.795  1.00  0.00    -0.003 C 
ATOM     19  C   UNL     1       5.608  -4.208 -17.639  1.00  0.00     0.004 C 
ENDBRANCH  17  18
ENDBRANCH  16  17
ENDBRANCH  15  16
ENDBRANCH  14  15
ENDBRANCH  13  14
ENDBRANCH  12  13
ENDBRANCH   1  12
TORSDOF 14
ENDMDL
MODEL 2
REMARK VINA RESULT:    -5.103      4.246      7.770
REMARK INTER + INTRA:         -10.412
REMARK INTER:                  -8.476
REMARK INTRA:                  -1.937
REMARK UNBOUND:                -1.133
REMARK SMILES CCCCCCCCCCCCCC[C@H](C)C(=O)[O-]
REMARK SMILES IDX 9 1 10 2 11 3 12 4 13 5 14 6 15 7 16 8 17 9 18 10 19 11 8 12
REMARK SMILES IDX 7 13 6 14 5 15 4 16 3 17 2 18 1 19
REMARK H PARENT
REMARK Flexibility Score: inf
ROOT
ATOM      1  C   UNL     1       4.158  -8.910 -20.771  1.00  0.00     0.000 C 
ENDROOT
BRANCH   1   2
ATOM      2  C   UNL     1       4.988  -9.024 -22.061  1.00  0.00     0.000 C 
BRANCH   2   3
ATOM      3  C   UNL     1       5.927  -7.827 -22.270  1.00  0.00     0.000 C 
BRANCH   3   4
ATOM      4  C   UNL     1       5.133  -6.560 -22.609  1.00  0.00     0.000 C 
BRANCH   4   5
ATOM      5  C   UNL     1       5.503  -5.405 -21.664  1.00  0.00     0.001 C 
BRANCH   5   6
ATOM      6  C   UNL     1       4.335  -5.015 -20.733  1.00  0.00     0.009 C 
BRANCH   6   7
ATOM      7  C   UNL     1       4.588  -5.357 -19.246  1.00  0.00     0.032 C 
ATOM      8  C   UNL     1       3.332  -5.887 -18.544  1.00  0.00     0.014 C 
BRANCH   7   9
ATOM      9  C   UNL     1       5.094  -4.138 -18.526  1.00  0.00     0.044 C 
ATOM     10  O   UNL     1       4.992  -3.001 -19.057  1.00  0.00    -0.550 OA
ATOM     11  O   UNL     1       5.672  -4.256 -17.268  1.00  0.00    -0.550 OA
ENDBRANCH   7   9
ENDBRANCH   6   7
ENDBRANCH   5   6
ENDBRANCH   4   5
ENDBRANCH   3   4
ENDBRANCH   2   3
ENDBRANCH   1   2
BRANCH   1  12
ATOM     12  C   UNL     1       2.644  -8.900 -21.043  1.00  0.00     0.000 C 
BRANCH  12  13
ATOM     13  C   UNL     1       2.307  -8.940 -22.545  1.00  0.00    -0.000 C 
BRANCH  13  14
ATOM     14  C   UNL     1       1.654 -10.248 -23.035  1.00  0.00    -0.000 C 
BRANCH  14  15
ATOM     15  C   UNL     1       2.513 -11.086 -24.002  1.00  0.00    -0.000 C 
BRANCH  15  16
ATOM     16  C   UNL     1       2.946 -12.462 -23.459  1.00  0.00    -0.000 C 
BRANCH  16  17
ATOM     17  C   UNL     1       3.827 -12.417 -22.194  1.00  0.00    -0.000 C 
BRANCH  17  18
ATOM     18  C   UNL     1       5.260 -12.943 -22.384  1.00  0.00    -0.003 C 
ATOM     19  C   UNL     1       5.518 -14.252 -21.639  1.00  0.00     0.004 C 
ENDBRANCH  17  18
ENDBRANCH  16  17
ENDBRANCH  15  16
ENDBRANCH  14  15
ENDBRANCH  13  14
ENDBRANCH  12  13
ENDBRANCH   1  12
TORSDOF 14
ENDMDL
MODEL 3
REMARK VINA RESULT:    -5.030      4.052      8.284
REMARK INTER + INTRA:         -10.279
REMARK INTER:                  -8.718
REMARK INTRA:                  -1.561
REMARK UNBOUND:                -1.133
REMARK SMILES CCCCCCCCCCCCCC[C@H](C)C(=O)[O-]
REMARK SMILES IDX 9 1 10 2 11 3 12 4 13 5 14 6 15 7 16 8 17 9 18 10 19 11 8 12
REMARK SMILES IDX 7 13 6 14 5 15 4 16 3 17 2 18 1 19
REMARK H PARENT
REMARK Flexibility Score: inf
ROOT
ATOM      1  C   UNL     1       4.520  -7.487 -21.951  1.00  0.00     0.000 C 
ENDROOT
BRANCH   1   2
ATOM      2  C   UNL     1       4.447  -7.889 -20.469  1.00  0.00     0.000 C 
BRANCH   2   3
ATOM      3  C   UNL     1       3.741  -6.836 -19.602  1.00  0.00     0.000 C 
BRANCH   3   4
ATOM      4  C   UNL     1       2.297  -6.619 -20.072  1.00  0.00     0.000 C 
BRANCH   4   5
ATOM      5  C   UNL     1       1.795  -5.218 -19.688  1.00  0.00     0.001 C 
BRANCH   5   6
ATOM      6  C   UNL     1       2.389  -4.731 -18.348  1.00  0.00     0.009 C 
BRANCH   6   7
ATOM      7  C   UNL     1       2.938  -3.287 -18.403  1.00  0.00     0.032 C 
ATOM      8  C   UNL     1       2.138  -2.390 -19.355  1.00  0.00     0.014 C 
BRANCH   7   9
ATOM      9  C   UNL     1       4.382  -3.310 -18.822  1.00  0.00     0.044 C 
ATOM     10  O   UNL     1       4.730  -2.807 -19.922  1.00  0.00    -0.550 OA
ATOM     11  O   UNL     1       5.343  -3.880 -17.996  1.00  0.00    -0.550 OA
ENDBRANCH   7   9
ENDBRANCH   6   7
ENDBRANCH   5   6
ENDBRANCH   4   5
ENDBRANCH   3   4
ENDBRANCH   2   3
ENDBRANCH   1   2
BRANCH   1  12
ATOM     12  C   UNL     1       5.922  -7.691 -22.550  1.00  0.00     0.000 C 
BRANCH  12  13
ATOM     13  C   UNL     1       6.397  -9.154 -22.472  1.00  0.00    -0.000 C 
BRANCH  13  14
ATOM     14  C   UNL     1       6.950  -9.734 -23.789  1.00  0.00    -0.000 C 
BRANCH  14  15
ATOM     15  C   UNL     1       6.578 -11.204 -24.064  1.00  0.00    -0.000 C 
BRANCH  15  16
ATOM     16  C   UNL     1       5.462 -11.770 -23.164  1.00  0.00    -0.000 C 
BRANCH  16  17
ATOM     17  C   UNL     1       4.042 -11.692 -23.759  1.00  0.00    -0.000 C 
BRANCH  17  18
ATOM     18  C   UNL     1       3.062 -10.796 -22.980  1.00  0.00    -0.003 C 
ATOM     19  C   UNL     1       2.967 -11.164 -21.500  1.00  0.00     0.004 C 
ENDBRANCH  17  18
ENDBRANCH  16  17
ENDBRANCH  15  16
ENDBRANCH  14  15
ENDBRANCH  13  14
ENDBRANCH  12  13
ENDBRANCH   1  12
TORSDOF 14
ENDMDL
MODEL 4
REMARK VINA RESULT:    -5.020      1.395      2.158
REMARK INTER + INTRA:         -10.261
REMARK INTER:                  -8.775
REMARK INTRA:                  -1.486
REMARK UNBOUND:                -1.133
REMARK SMILES CCCCCCCCCCCCCC[C@H](C)C(=O)[O-]
REMARK SMILES IDX 9 1 10 2 11 3 12 4 13 5 14 6 15 7 16 8 17 9 18 10 19 11 8 12
REMARK SMILES IDX 7 13 6 14 5 15 4 16 3 17 2 18 1 19
REMARK H PARENT
REMARK Flexibility Score: inf
ROOT
ATOM      1  C   UNL     1       5.918  -8.812 -22.393  1.00  0.00     0.000 C 
ENDROOT
BRANCH   1   2
ATOM      2  C   UNL     1       7.014  -9.407 -23.293  1.00  0.00     0.000 C 
BRANCH   2   3
ATOM      3  C   UNL     1       6.652 -10.802 -23.825  1.00  0.00     0.000 C 
BRANCH   3   4
ATOM      4  C   UNL     1       5.229 -11.194 -23.409  1.00  0.00     0.000 C 
BRANCH   4   5
ATOM      5  C   UNL     1       5.233 -12.483 -22.572  1.00  0.00     0.001 C 
BRANCH   5   6
ATOM      6  C   UNL     1       3.938 -12.649 -21.748  1.00  0.00     0.009 C 
BRANCH   6   7
ATOM      7  C   UNL     1       2.984 -11.436 -21.842  1.00  0.00     0.032 C 
ATOM      8  C   UNL     1       2.922 -10.634 -20.537  1.00  0.00     0.014 C 
BRANCH   7   9
ATOM      9  C   UNL     1       1.604 -11.906 -22.213  1.00  0.00     0.044 C 
ATOM     10  O   UNL     1       1.385 -13.129 -22.417  1.00  0.00    -0.550 OA
ATOM     11  O   UNL     1       0.560 -10.996 -22.326  1.00  0.00    -0.550 OA
ENDBRANCH   7   9
ENDBRANCH   6   7
ENDBRANCH   5   6
ENDBRANCH   4   5
ENDBRANCH   3   4
ENDBRANCH   2   3
ENDBRANCH   1   2
BRANCH   1  12
ATOM     12  C   UNL     1       5.670  -7.320 -22.675  1.00  0.00     0.000 C 
BRANCH  12  13
ATOM     13  C   UNL     1       5.164  -6.555 -21.438  1.00  0.00    -0.000 C 
BRANCH  13  14
ATOM     14  C   UNL     1       4.356  -7.398 -20.431  1.00  0.00    -0.000 C 
BRANCH  14  15
ATOM     15  C   UNL     1       3.084  -6.722 -19.884  1.00  0.00    -0.000 C 
BRANCH  15  16
ATOM     16  C   UNL     1       3.235  -6.090 -18.486  1.00  0.00    -0.000 C 
BRANCH  16  17
ATOM     17  C   UNL     1       2.990  -4.568 -18.429  1.00  0.00    -0.000 C 
BRANCH  17  18
ATOM     18  C   UNL     1       4.146  -3.706 -18.966  1.00  0.00    -0.003 C 
ATOM     19  C   UNL     1       5.405  -3.794 -18.106  1.00  0.00     0.004 C 
ENDBRANCH  17  18
ENDBRANCH  16  17
ENDBRANCH  15  16
ENDBRANCH  14  15
ENDBRANCH  13  14
ENDBRANCH  12  13
ENDBRANCH   1  12
TORSDOF 14
ENDMDL
MODEL 5
REMARK VINA RESULT:    -4.972      1.561      2.690
REMARK INTER + INTRA:         -10.174
REMARK INTER:                  -8.488
REMARK INTRA:                  -1.686
REMARK UNBOUND:                -1.133
REMARK SMILES CCCCCCCCCCCCCC[C@H](C)C(=O)[O-]
REMARK SMILES IDX 9 1 10 2 11 3 12 4 13 5 14 6 15 7 16 8 17 9 18 10 19 11 8 12
REMARK SMILES IDX 7 13 6 14 5 15 4 16 3 17 2 18 1 19
REMARK H PARENT
REMARK Flexibility Score: inf
ROOT
ATOM      1  C   UNL     1       4.460  -6.875 -20.212  1.00  0.00     0.000 C 
ENDROOT
BRANCH   1   2
ATOM      2  C   UNL     1       4.318  -7.369 -21.662  1.00  0.00     0.000 C 
BRANCH   2   3
ATOM      3  C   UNL     1       5.651  -7.364 -22.424  1.00  0.00     0.000 C 
BRANCH   3   4
ATOM      4  C   UNL     1       6.267  -8.768 -22.461  1.00  0.00     0.000 C 
BRANCH   4   5
ATOM      5  C   UNL     1       5.182  -9.851 -22.346  1.00  0.00     0.001 C 
BRANCH   5   6
ATOM      6  C   UNL     1       5.501 -11.092 -23.207  1.00  0.00     0.009 C 
BRANCH   6   7
ATOM      7  C   UNL     1       4.294 -12.038 -23.402  1.00  0.00     0.032 C 
ATOM      8  C   UNL     1       3.019 -11.287 -23.804  1.00  0.00     0.014 C 
BRANCH   7   9
ATOM      9  C   UNL     1       4.049 -12.812 -22.137  1.00  0.00     0.044 C 
ATOM     10  O   UNL     1       2.892 -12.864 -21.641  1.00  0.00    -0.550 OA
ATOM     11  O   UNL     1       5.092 -13.484 -21.511  1.00  0.00    -0.550 OA
ENDBRANCH   7   9
ENDBRANCH   6   7
ENDBRANCH   5   6
ENDBRANCH   4   5
ENDBRANCH   3   4
ENDBRANCH   2   3
ENDBRANCH   1   2
BRANCH   1  12
ATOM     12  C   UNL     1       3.122  -6.409 -19.614  1.00  0.00     0.000 C 
BRANCH  12  13
ATOM     13  C   UNL     1       3.292  -5.284 -18.577  1.00  0.00    -0.000 C 
BRANCH  13  14
ATOM     14  C   UNL     1       4.748  -4.851 -18.312  1.00  0.00    -0.000 C 
BRANCH  14  15
ATOM     15  C   UNL     1       5.102  -3.425 -18.779  1.00  0.00    -0.000 C 
BRANCH  15  16
ATOM     16  C   UNL     1       3.974  -2.688 -19.526  1.00  0.00    -0.000 C 
BRANCH  16  17
ATOM     17  C   UNL     1       4.253  -2.409 -21.017  1.00  0.00    -0.000 C 
BRANCH  17  18
ATOM     18  C   UNL     1       3.928  -3.576 -21.966  1.00  0.00    -0.003 C 
ATOM     19  C   UNL     1       5.012  -3.810 -23.017  1.00  0.00     0.004 C 
ENDBRANCH  17  18
ENDBRANCH  16  17
ENDBRANCH  15  16
ENDBRANCH  14  15
ENDBRANCH  13  14
ENDBRANCH  12  13
ENDBRANCH   1  12
TORSDOF 14
ENDMDL
MODEL 6
REMARK VINA RESULT:    -4.930      1.467      2.489
REMARK INTER + INTRA:         -10.098
REMARK INTER:                  -8.695
REMARK INTRA:                  -1.403
REMARK UNBOUND:                -1.133
REMARK SMILES CCCCCCCCCCCCCC[C@H](C)C(=O)[O-]
REMARK SMILES IDX 9 1 10 2 11 3 12 4 13 5 14 6 15 7 16 8 17 9 18 10 19 11 8 12
REMARK SMILES IDX 7 13 6 14 5 15 4 16 3 17 2 18 1 19
REMARK H PARENT
REMARK Flexibility Score: inf
ROOT
ATOM      1  C   UNL     1       4.899  -6.907 -22.393  1.00  0.00     0.000 C 
ENDROOT
BRANCH   1   2
ATOM      2  C   UNL     1       5.312  -8.268 -21.808  1.00  0.00     0.000 C 
BRANCH   2   3
ATOM      3  C   UNL     1       4.175  -8.948 -21.029  1.00  0.00     0.000 C 
BRANCH   3   4
ATOM      4  C   UNL     1       3.811 -10.298 -21.659  1.00  0.00     0.000 C 
BRANCH   4   5
ATOM      5  C   UNL     1       4.976 -10.851 -22.495  1.00  0.00     0.001 C 
BRANCH   5   6
ATOM      6  C   UNL     1       4.746 -12.318 -22.919  1.00  0.00     0.009 C 
BRANCH   6   7
ATOM      7  C   UNL     1       4.684 -13.304 -21.730  1.00  0.00     0.032 C 
ATOM      8  C   UNL     1       5.938 -14.181 -21.626  1.00  0.00     0.014 C 
BRANCH   7   9
ATOM      9  C   UNL     1       3.466 -14.176 -21.859  1.00  0.00     0.044 C 
ATOM     10  O   UNL     1       2.316 -13.663 -21.851  1.00  0.00    -0.550 OA
ATOM     11  O   UNL     1       3.599 -15.553 -21.997  1.00  0.00    -0.550 OA
ENDBRANCH   7   9
ENDBRANCH   6   7
ENDBRANCH   5   6
ENDBRANCH   4   5
ENDBRANCH   3   4
ENDBRANCH   2   3
ENDBRANCH   1   2
BRANCH   1  12
ATOM     12  C   UNL     1       5.716  -5.742 -21.809  1.00  0.00     0.000 C 
BRANCH  12  13
ATOM     13  C   UNL     1       4.831  -4.631 -21.214  1.00  0.00    -0.000 C 
BRANCH  13  14
ATOM     14  C   UNL     1       4.903  -4.486 -19.681  1.00  0.00    -0.000 C 
BRANCH  14  15
ATOM     15  C   UNL     1       4.544  -5.757 -18.886  1.00  0.00    -0.000 C 
BRANCH  15  16
ATOM     16  C   UNL     1       3.085  -5.823 -18.392  1.00  0.00    -0.000 C 
BRANCH  16  17
ATOM     17  C   UNL     1       2.017  -5.737 -19.501  1.00  0.00    -0.000 C 
BRANCH  17  18
ATOM     18  C   UNL     1       1.239  -4.410 -19.548  1.00  0.00    -0.003 C 
ATOM     19  C   UNL     1       1.416  -3.570 -18.285  1.00  0.00     0.004 C 
ENDBRANCH  17  18
ENDBRANCH  16  17
ENDBRANCH  15  16
ENDBRANCH  14  15
ENDBRANCH  13  14
ENDBRANCH  12  13
ENDBRANCH   1  12
TORSDOF 14
ENDMDL
MODEL 7
REMARK VINA RESULT:    -4.913      4.314      7.697
REMARK INTER + INTRA:         -10.067
REMARK INTER:                  -8.400
REMARK INTRA:                  -1.666
REMARK UNBOUND:                -1.133
REMARK SMILES CCCCCCCCCCCCCC[C@H](C)C(=O)[O-]
REMARK SMILES IDX 9 1 10 2 11 3 12 4 13 5 14 6 15 7 16 8 17 9 18 10 19 11 8 12
REMARK SMILES IDX 7 13 6 14 5 15 4 16 3 17 2 18 1 19
REMARK H PARENT
REMARK Flexibility Score: inf
ROOT
ATOM      1  C   UNL     1       5.616  -9.371 -22.423  1.00  0.00     0.000 C 
ENDROOT
BRANCH   1   2
ATOM      2  C   UNL     1       6.060  -7.899 -22.481  1.00  0.00     0.000 C 
BRANCH   2   3
ATOM      3  C   UNL     1       5.128  -6.967 -21.692  1.00  0.00     0.000 C 
BRANCH   3   4
ATOM      4  C   UNL     1       4.455  -7.715 -20.535  1.00  0.00     0.000 C 
BRANCH   4   5
ATOM      5  C   UNL     1       3.268  -6.916 -19.975  1.00  0.00     0.001 C 
BRANCH   5   6
ATOM      6  C   UNL     1       3.671  -6.034 -18.774  1.00  0.00     0.009 C 
BRANCH   6   7
ATOM      7  C   UNL     1       3.970  -4.566 -19.156  1.00  0.00     0.032 C 
ATOM      8  C   UNL     1       5.265  -4.045 -18.522  1.00  0.00     0.014 C 
BRANCH   7   9
ATOM      9  C   UNL     1       2.818  -3.692 -18.746  1.00  0.00     0.044 C 
ATOM     10  O   UNL     1       2.809  -2.470 -19.052  1.00  0.00    -0.550 OA
ATOM     11  O   UNL     1       1.750  -4.225 -18.033  1.00  0.00    -0.550 OA
ENDBRANCH   7   9
ENDBRANCH   6   7
ENDBRANCH   5   6
ENDBRANCH   4   5
ENDBRANCH   3   4
ENDBRANCH   2   3
ENDBRANCH   1   2
BRANCH   1  12
ATOM     12  C   UNL     1       6.412 -10.266 -23.388  1.00  0.00     0.000 C 
BRANCH  12  13
ATOM     13  C   UNL     1       5.703 -11.599 -23.688  1.00  0.00    -0.000 C 
BRANCH  13  14
ATOM     14  C   UNL     1       4.410 -11.848 -22.887  1.00  0.00    -0.000 C 
BRANCH  14  15
ATOM     15  C   UNL     1       3.146 -12.075 -23.739  1.00  0.00    -0.000 C 
BRANCH  15  16
ATOM     16  C   UNL     1       2.290 -10.815 -23.979  1.00  0.00    -0.000 C 
BRANCH  16  17
ATOM     17  C   UNL     1       2.071  -9.929 -22.735  1.00  0.00    -0.000 C 
BRANCH  17  18
ATOM     18  C   UNL     1       1.843  -8.437 -23.036  1.00  0.00    -0.003 C 
ATOM     19  C   UNL     1       1.042  -8.203 -24.316  1.00  0.00     0.004 C 
ENDBRANCH  17  18
ENDBRANCH  16  17
ENDBRANCH  15  16
ENDBRANCH  14  15
ENDBRANCH  13  14
ENDBRANCH  12  13
ENDBRANCH   1  12
TORSDOF 14
ENDMDL
MODEL 8
REMARK VINA RESULT:    -4.889      1.605      3.278
REMARK INTER + INTRA:         -10.023
REMARK INTER:                  -7.839
REMARK INTRA:                  -2.184
REMARK UNBOUND:                -1.133
REMARK SMILES CCCCCCCCCCCCCC[C@H](C)C(=O)[O-]
REMARK SMILES IDX 9 1 10 2 11 3 12 4 13 5 14 6 15 7 16 8 17 9 18 10 19 11 8 12
REMARK SMILES IDX 7 13 6 14 5 15 4 16 3 17 2 18 1 19
REMARK H PARENT
REMARK Flexibility Score: inf
ROOT
ATOM      1  C   UNL     1       4.466  -6.305 -21.559  1.00  0.00     0.000 C 
ENDROOT
BRANCH   1   2
ATOM      2  C   UNL     1       5.518  -6.982 -22.453  1.00  0.00     0.000 C 
BRANCH   2   3
ATOM      3  C   UNL     1       5.800  -8.435 -22.041  1.00  0.00     0.000 C 
BRANCH   3   4
ATOM      4  C   UNL     1       6.801  -9.092 -22.998  1.00  0.00     0.000 C 
BRANCH   4   5
ATOM      5  C   UNL     1       6.293 -10.462 -23.475  1.00  0.00     0.001 C 
BRANCH   5   6
ATOM      6  C   UNL     1       4.993 -10.886 -22.758  1.00  0.00     0.009 C 
BRANCH   6   7
ATOM      7  C   UNL     1       4.368 -12.182 -23.324  1.00  0.00     0.032 C 
ATOM      8  C   UNL     1       3.049 -11.925 -24.062  1.00  0.00     0.014 C 
BRANCH   7   9
ATOM      9  C   UNL     1       4.140 -13.162 -22.207  1.00  0.00     0.044 C 
ATOM     10  O   UNL     1       2.995 -13.652 -22.018  1.00  0.00    -0.550 OA
ATOM     11  O   UNL     1       5.191 -13.541 -21.380  1.00  0.00    -0.550 OA
ENDBRANCH   7   9
ENDBRANCH   6   7
ENDBRANCH   5   6
ENDBRANCH   4   5
ENDBRANCH   3   4
ENDBRANCH   2   3
ENDBRANCH   1   2
BRANCH   1  12
ATOM     12  C   UNL     1       4.480  -6.845 -20.119  1.00  0.00     0.000 C 
BRANCH  12  13
ATOM     13  C   UNL     1       3.199  -6.500 -19.339  1.00  0.00    -0.000 C 
BRANCH  13  14
ATOM     14  C   UNL     1       2.369  -5.338 -19.923  1.00  0.00    -0.000 C 
BRANCH  14  15
ATOM     15  C   UNL     1       0.994  -5.738 -20.493  1.00  0.00    -0.000 C 
BRANCH  15  16
ATOM     16  C   UNL     1       0.786  -7.253 -20.684  1.00  0.00    -0.000 C 
BRANCH  16  17
ATOM     17  C   UNL     1       1.124  -7.786 -22.091  1.00  0.00    -0.000 C 
BRANCH  17  18
ATOM     18  C   UNL     1       1.652  -9.231 -22.126  1.00  0.00    -0.003 C 
ATOM     19  C   UNL     1       2.189  -9.702 -20.776  1.00  0.00     0.004 C 
ENDBRANCH  17  18
ENDBRANCH  16  17
ENDBRANCH  15  16
ENDBRANCH  14  15
ENDBRANCH  13  14
ENDBRANCH  12  13
ENDBRANCH   1  12
TORSDOF 14
ENDMDL
MODEL 9
REMARK VINA RESULT:    -4.868      2.195      4.359
REMARK INTER + INTRA:          -9.985
REMARK INTER:                  -7.327
REMARK INTRA:                  -2.658
REMARK UNBOUND:                -1.133
REMARK SMILES CCCCCCCCCCCCCC[C@H](C)C(=O)[O-]
REMARK SMILES IDX 9 1 10 2 11 3 12 4 13 5 14 6 15 7 16 8 17 9 18 10 19 11 8 12
REMARK SMILES IDX 7 13 6 14 5 15 4 16 3 17 2 18 1 19
REMARK H PARENT
REMARK Flexibility Score: inf
ROOT
ATOM      1  C   UNL     1       0.989  -5.465 -20.092  1.00  0.00     0.000 C 
ENDROOT
BRANCH   1   2
ATOM      2  C   UNL     1       1.276  -5.558 -21.600  1.00  0.00     0.000 C 
BRANCH   2   3
ATOM      3  C   UNL     1       1.938  -6.886 -21.996  1.00  0.00     0.000 C 
BRANCH   3   4
ATOM      4  C   UNL     1       2.024  -7.835 -20.795  1.00  0.00     0.000 C 
BRANCH   4   5
ATOM      5  C   UNL     1       3.352  -8.609 -20.795  1.00  0.00     0.001 C 
BRANCH   5   6
ATOM      6  C   UNL     1       3.755  -9.081 -22.209  1.00  0.00     0.009 C 
BRANCH   6   7
ATOM      7  C   UNL     1       5.038  -9.942 -22.232  1.00  0.00     0.032 C 
ATOM      8  C   UNL     1       6.293  -9.118 -22.548  1.00  0.00     0.014 C 
BRANCH   7   9
ATOM      9  C   UNL     1       4.890 -11.044 -23.244  1.00  0.00     0.044 C 
ATOM     10  O   UNL     1       3.757 -11.545 -23.472  1.00  0.00    -0.550 OA
ATOM     11  O   UNL     1       5.998 -11.514 -23.939  1.00  0.00    -0.550 OA
ENDBRANCH   7   9
ENDBRANCH   6   7
ENDBRANCH   5   6
ENDBRANCH   4   5
ENDBRANCH   3   4
ENDBRANCH   2   3
ENDBRANCH   1   2
BRANCH   1  12
ATOM     12  C   UNL     1       1.319  -4.078 -19.514  1.00  0.00     0.000 C 
BRANCH  12  13
ATOM     13  C   UNL     1       2.387  -4.132 -18.407  1.00  0.00    -0.000 C 
BRANCH  13  14
ATOM     14  C   UNL     1       3.054  -5.508 -18.206  1.00  0.00    -0.000 C 
BRANCH  14  15
ATOM     15  C   UNL     1       4.394  -5.699 -18.943  1.00  0.00    -0.000 C 
BRANCH  15  16
ATOM     16  C   UNL     1       4.942  -4.435 -19.632  1.00  0.00    -0.000 C 
BRANCH  16  17
ATOM     17  C   UNL     1       4.794  -4.412 -21.167  1.00  0.00    -0.000 C 
BRANCH  17  18
ATOM     18  C   UNL     1       5.434  -5.606 -21.897  1.00  0.00    -0.003 C 
ATOM     19  C   UNL     1       5.084  -5.654 -23.383  1.00  0.00     0.004 C 
ENDBRANCH  17  18
ENDBRANCH  16  17
ENDBRANCH  15  16
ENDBRANCH  14  15
ENDBRANCH  13  14
ENDBRANCH  12  13
ENDBRANCH   1  12
TORSDOF 14
ENDMDL
