MODEL 1
REMARK VINA RESULT:    -4.567      0.000      0.000
REMARK INTER + INTRA:          -7.481
REMARK INTER:                  -6.970
REMARK INTRA:                  -0.511
REMARK UNBOUND:                -0.511
REMARK SMILES O=C([O-])CCCCCCCCC(=O)[O-]
REMARK SMILES IDX 7 1 6 2 5 3 4 4 2 5 1 6 3 7 8 8 9 9 10 10 11 11 12 12 13 13
REMARK SMILES IDX 14 14
REMARK H PARENT
REMARK Flexibility Score: inf
ROOT
ATOM      1  C   UNL     1      13.653 -31.463  21.115  1.00  0.00     0.000 C 
ENDROOT
BRANCH   1   2
ATOM      2  C   UNL     1      14.739 -30.435  21.476  1.00  0.00     0.000 C 
BRANCH   2   3
ATOM      3  C   UNL     1      14.645 -29.965  22.936  1.00  0.00     0.006 C 
BRANCH   3   4
ATOM      4  C   UNL     1      13.320 -30.364  23.598  1.00  0.00     0.053 C 
BRANCH   4   5
ATOM      5  C   UNL     1      12.417 -29.177  23.718  1.00  0.00     0.041 C 
ATOM      6  O   UNL     1      12.607 -28.327  24.628  1.00  0.00    -0.550 OA
ATOM      7  O   UNL     1      11.336 -29.036  22.858  1.00  0.00    -0.550 OA
ENDBRANCH   4   5
ENDBRANCH   3   4
ENDBRANCH   2   3
ENDBRANCH   1   2
BRANCH   1   8
ATOM      8  C   UNL     1      14.235 -32.832  20.717  1.00  0.00     0.000 C 
BRANCH   8   9
ATOM      9  C   UNL     1      15.551 -33.206  21.424  1.00  0.00     0.000 C 
BRANCH   9  10
ATOM     10  C   UNL     1      15.887 -34.701  21.314  1.00  0.00     0.006 C 
BRANCH  10  11
ATOM     11  C   UNL     1      15.871 -35.161  19.854  1.00  0.00     0.053 C 
BRANCH  11  12
ATOM     12  C   UNL     1      17.228 -35.634  19.438  1.00  0.00     0.041 C 
ATOM     13  O   UNL     1      18.120 -34.805  19.122  1.00  0.00    -0.550 OA
ATOM     14  O   UNL     1      17.523 -36.992  19.448  1.00  0.00    -0.550 OA
ENDBRANCH  11  12
ENDBRANCH  10  11
ENDBRANCH   9  10
ENDBRANCH   8   9
ENDBRANCH   1   8
TORSDOF 9
ENDMDL
MODEL 2
REMARK VINA RESULT:    -4.449      2.362      6.368
REMARK INTER + INTRA:          -7.300
REMARK INTER:                  -6.652
REMARK INTRA:                  -0.648
REMARK UNBOUND:                -0.511
REMARK SMILES O=C([O-])CCCCCCCCC(=O)[O-]
REMARK SMILES IDX 7 1 6 2 5 3 4 4 2 5 1 6 3 7 8 8 9 9 10 10 11 11 12 12 13 13
REMARK SMILES IDX 14 14
REMARK H PARENT
REMARK Flexibility Score: inf
ROOT
ATOM      1  C   UNL     1      18.776 -31.773  20.781  1.00  0.00     0.000 C 
ENDROOT
BRANCH   1   2
ATOM      2  C   UNL     1      18.256 -33.218  20.886  1.00  0.00     0.000 C 
BRANCH   2   3
ATOM      3  C   UNL     1      18.128 -33.900  19.515  1.00  0.00     0.006 C 
BRANCH   3   4
ATOM      4  C   UNL     1      16.668 -34.059  19.071  1.00  0.00     0.053 C 
BRANCH   4   5
ATOM      5  C   UNL     1      15.966 -35.062  19.931  1.00  0.00     0.041 C 
ATOM      6  O   UNL     1      16.180 -36.293  19.770  1.00  0.00    -0.550 OA
ATOM      7  O   UNL     1      15.038 -34.642  20.874  1.00  0.00    -0.550 OA
ENDBRANCH   4   5
ENDBRANCH   3   4
ENDBRANCH   2   3
ENDBRANCH   1   2
BRANCH   1   8
ATOM      8  C   UNL     1      17.657 -30.724  20.914  1.00  0.00     0.000 C 
BRANCH   8   9
ATOM      9  C   UNL     1      16.403 -31.208  21.665  1.00  0.00     0.000 C 
BRANCH   9  10
ATOM     10  C   UNL     1      15.230 -30.220  21.574  1.00  0.00     0.006 C 
BRANCH  10  11
ATOM     11  C   UNL     1      14.032 -30.714  22.389  1.00  0.00     0.053 C 
BRANCH  11  12
ATOM     12  C   UNL     1      12.901 -31.089  21.484  1.00  0.00     0.041 C 
ATOM     13  O   UNL     1      11.736 -30.676  21.719  1.00  0.00    -0.550 OA
ATOM     14  O   UNL     1      13.144 -31.856  20.350  1.00  0.00    -0.550 OA
ENDBRANCH  11  12
ENDBRANCH  10  11
ENDBRANCH   9  10
ENDBRANCH   8   9
ENDBRANCH   1   8
TORSDOF 9
ENDMDL
MODEL 3
REMARK VINA RESULT:    -4.434      1.392      1.965
REMARK INTER + INTRA:          -7.278
REMARK INTER:                  -6.576
REMARK INTRA:                  -0.702
REMARK UNBOUND:                -0.511
REMARK SMILES O=C([O-])CCCCCCCCC(=O)[O-]
REMARK SMILES IDX 7 1 6 2 5 3 4 4 2 5 1 6 3 7 8 8 9 9 10 10 11 11 12 12 13 13
REMARK SMILES IDX 14 14
REMARK H PARENT
REMARK Flexibility Score: inf
ROOT
ATOM      1  C   UNL     1      14.943 -30.572  21.533  1.00  0.00     0.000 C 
ENDROOT
BRANCH   1   2
ATOM      2  C   UNL     1      13.582 -31.262  21.341  1.00  0.00     0.000 C 
BRANCH   2   3
ATOM      3  C   UNL     1      12.545 -30.822  22.386  1.00  0.00     0.006 C 
BRANCH   3   4
ATOM      4  C   UNL     1      13.154 -29.947  23.488  1.00  0.00     0.053 C 
BRANCH   4   5
ATOM      5  C   UNL     1      12.207 -28.854  23.871  1.00  0.00     0.041 C 
ATOM      6  O   UNL     1      11.135 -28.691  23.229  1.00  0.00    -0.550 OA
ATOM      7  O   UNL     1      12.531 -27.983  24.903  1.00  0.00    -0.550 OA
ENDBRANCH   4   5
ENDBRANCH   3   4
ENDBRANCH   2   3
ENDBRANCH   1   2
BRANCH   1   8
ATOM      8  C   UNL     1      16.119 -31.566  21.553  1.00  0.00     0.000 C 
BRANCH   8   9
ATOM      9  C   UNL     1      16.203 -32.444  22.815  1.00  0.00     0.000 C 
BRANCH   9  10
ATOM     10  C   UNL     1      15.893 -33.922  22.538  1.00  0.00     0.006 C 
BRANCH  10  11
ATOM     11  C   UNL     1      16.694 -34.437  21.339  1.00  0.00     0.053 C 
BRANCH  11  12
ATOM     12  C   UNL     1      15.777 -34.988  20.294  1.00  0.00     0.041 C 
ATOM     13  O   UNL     1      14.750 -34.348  19.949  1.00  0.00    -0.550 OA
ATOM     14  O   UNL     1      16.085 -36.188  19.663  1.00  0.00    -0.550 OA
ENDBRANCH  11  12
ENDBRANCH  10  11
ENDBRANCH   9  10
ENDBRANCH   8   9
ENDBRANCH   1   8
TORSDOF 9
ENDMDL
MODEL 4
REMARK VINA RESULT:    -4.405      2.413      2.949
REMARK INTER + INTRA:          -7.233
REMARK INTER:                  -6.386
REMARK INTRA:                  -0.847
REMARK UNBOUND:                -0.511
REMARK SMILES O=C([O-])CCCCCCCCC(=O)[O-]
REMARK SMILES IDX 7 1 6 2 5 3 4 4 2 5 1 6 3 7 8 8 9 9 10 10 11 11 12 12 13 13
REMARK SMILES IDX 14 14
REMARK H PARENT
REMARK Flexibility Score: inf
ROOT
ATOM      1  C   UNL     1      17.507 -31.118  20.891  1.00  0.00     0.000 C 
ENDROOT
BRANCH   1   2
ATOM      2  C   UNL     1      16.906 -30.920  22.293  1.00  0.00     0.000 C 
BRANCH   2   3
ATOM      3  C   UNL     1      15.485 -30.337  22.249  1.00  0.00     0.006 C 
BRANCH   3   4
ATOM      4  C   UNL     1      14.664 -30.694  23.495  1.00  0.00     0.053 C 
BRANCH   4   5
ATOM      5  C   UNL     1      13.281 -30.136  23.387  1.00  0.00     0.041 C 
ATOM      6  O   UNL     1      12.850 -29.338  24.262  1.00  0.00    -0.550 OA
ATOM      7  O   UNL     1      12.448 -30.537  22.351  1.00  0.00    -0.550 OA
ENDBRANCH   4   5
ENDBRANCH   3   4
ENDBRANCH   2   3
ENDBRANCH   1   2
BRANCH   1   8
ATOM      8  C   UNL     1      18.376 -32.385  20.787  1.00  0.00     0.000 C 
BRANCH   8   9
ATOM      9  C   UNL     1      17.960 -33.366  19.676  1.00  0.00     0.000 C 
BRANCH   9  10
ATOM     10  C   UNL     1      17.113 -34.537  20.195  1.00  0.00     0.006 C 
BRANCH  10  11
ATOM     11  C   UNL     1      15.662 -34.417  19.721  1.00  0.00     0.053 C 
BRANCH  11  12
ATOM     12  C   UNL     1      14.832 -33.710  20.746  1.00  0.00     0.041 C 
ATOM     13  O   UNL     1      15.022 -33.921  21.972  1.00  0.00    -0.550 OA
ATOM     14  O   UNL     1      13.881 -32.778  20.347  1.00  0.00    -0.550 OA
ENDBRANCH  11  12
ENDBRANCH  10  11
ENDBRANCH   9  10
ENDBRANCH   8   9
ENDBRANCH   1   8
TORSDOF 9
ENDMDL
MODEL 5
REMARK VINA RESULT:    -4.372      2.034      6.518
REMARK INTER + INTRA:          -7.183
REMARK INTER:                  -6.377
REMARK INTRA:                  -0.806
REMARK UNBOUND:                -0.511
REMARK SMILES O=C([O-])CCCCCCCCC(=O)[O-]
REMARK SMILES IDX 7 1 6 2 5 3 4 4 2 5 1 6 3 7 8 8 9 9 10 10 11 11 12 12 13 13
REMARK SMILES IDX 14 14
REMARK H PARENT
REMARK Flexibility Score: inf
ROOT
ATOM      1  C   UNL     1      16.062 -33.284  22.895  1.00  0.00     0.000 C 
ENDROOT
BRANCH   1   2
ATOM      2  C   UNL     1      15.283 -34.125  21.869  1.00  0.00     0.000 C 
BRANCH   2   3
ATOM      3  C   UNL     1      15.852 -33.998  20.448  1.00  0.00     0.006 C 
BRANCH   3   4
ATOM      4  C   UNL     1      16.104 -35.362  19.791  1.00  0.00     0.053 C 
BRANCH   4   5
ATOM      5  C   UNL     1      17.392 -35.947  20.278  1.00  0.00     0.041 C 
ATOM      6  O   UNL     1      18.364 -35.194  20.555  1.00  0.00    -0.550 OA
ATOM      7  O   UNL     1      17.537 -37.324  20.377  1.00  0.00    -0.550 OA
ENDBRANCH   4   5
ENDBRANCH   3   4
ENDBRANCH   2   3
ENDBRANCH   1   2
BRANCH   1   8
ATOM      8  C   UNL     1      15.327 -33.153  24.242  1.00  0.00     0.000 C 
BRANCH   8   9
ATOM      9  C   UNL     1      13.880 -32.638  24.143  1.00  0.00     0.000 C 
BRANCH   9  10
ATOM     10  C   UNL     1      13.797 -31.125  23.892  1.00  0.00     0.006 C 
BRANCH  10  11
ATOM     11  C   UNL     1      12.880 -30.815  22.706  1.00  0.00     0.053 C 
BRANCH  11  12
ATOM     12  C   UNL     1      13.609 -31.010  21.414  1.00  0.00     0.041 C 
ATOM     13  O   UNL     1      14.748 -30.503  21.245  1.00  0.00    -0.550 OA
ATOM     14  O   UNL     1      13.050 -31.796  20.414  1.00  0.00    -0.550 OA
ENDBRANCH  11  12
ENDBRANCH  10  11
ENDBRANCH   9  10
ENDBRANCH   8   9
ENDBRANCH   1   8
TORSDOF 9
ENDMDL
MODEL 6
REMARK VINA RESULT:    -4.356      1.465      7.119
REMARK INTER + INTRA:          -7.158
REMARK INTER:                  -6.569
REMARK INTRA:                  -0.589
REMARK UNBOUND:                -0.511
REMARK SMILES O=C([O-])CCCCCCCCC(=O)[O-]
REMARK SMILES IDX 7 1 6 2 5 3 4 4 2 5 1 6 3 7 8 8 9 9 10 10 11 11 12 12 13 13
REMARK SMILES IDX 14 14
REMARK H PARENT
REMARK Flexibility Score: inf
ROOT
ATOM      1  C   UNL     1      15.619 -33.609  22.933  1.00  0.00     0.000 C 
ENDROOT
BRANCH   1   2
ATOM      2  C   UNL     1      14.877 -33.626  21.585  1.00  0.00     0.000 C 
BRANCH   2   3
ATOM      3  C   UNL     1      15.571 -34.514  20.540  1.00  0.00     0.006 C 
BRANCH   3   4
ATOM      4  C   UNL     1      16.885 -35.114  21.058  1.00  0.00     0.053 C 
BRANCH   4   5
ATOM      5  C   UNL     1      17.207 -36.377  20.324  1.00  0.00     0.041 C 
ATOM      6  O   UNL     1      16.801 -36.544  19.143  1.00  0.00    -0.550 OA
ATOM      7  O   UNL     1      17.912 -37.391  20.960  1.00  0.00    -0.550 OA
ENDBRANCH   4   5
ENDBRANCH   3   4
ENDBRANCH   2   3
ENDBRANCH   1   2
BRANCH   1   8
ATOM      8  C   UNL     1      15.186 -32.440  23.838  1.00  0.00     0.000 C 
BRANCH   8   9
ATOM      9  C   UNL     1      15.828 -31.084  23.494  1.00  0.00     0.000 C 
BRANCH   9  10
ATOM     10  C   UNL     1      14.794 -29.997  23.164  1.00  0.00     0.006 C 
BRANCH  10  11
ATOM     11  C   UNL     1      13.381 -30.455  23.533  1.00  0.00     0.053 C 
BRANCH  11  12
ATOM     12  C   UNL     1      12.463 -30.320  22.360  1.00  0.00     0.041 C 
ATOM     13  O   UNL     1      12.649 -31.014  21.326  1.00  0.00    -0.550 OA
ATOM     14  O   UNL     1      11.370 -29.464  22.427  1.00  0.00    -0.550 OA
ENDBRANCH  11  12
ENDBRANCH  10  11
ENDBRANCH   9  10
ENDBRANCH   8   9
ENDBRANCH   1   8
TORSDOF 9
ENDMDL
MODEL 7
REMARK VINA RESULT:    -4.352      2.325      6.177
REMARK INTER + INTRA:          -7.152
REMARK INTER:                  -6.301
REMARK INTRA:                  -0.851
REMARK UNBOUND:                -0.511
REMARK SMILES O=C([O-])CCCCCCCCC(=O)[O-]
REMARK SMILES IDX 7 1 6 2 5 3 4 4 2 5 1 6 3 7 8 8 9 9 10 10 11 11 12 12 13 13
REMARK SMILES IDX 14 14
REMARK H PARENT
REMARK Flexibility Score: inf
ROOT
ATOM      1  C   UNL     1      18.487 -31.295  20.873  1.00  0.00     0.000 C 
ENDROOT
BRANCH   1   2
ATOM      2  C   UNL     1      17.502 -32.421  20.515  1.00  0.00     0.000 C 
BRANCH   2   3
ATOM      3  C   UNL     1      17.541 -33.581  21.522  1.00  0.00     0.006 C 
BRANCH   3   4
ATOM      4  C   UNL     1      16.171 -33.858  22.155  1.00  0.00     0.053 C 
BRANCH   4   5
ATOM      5  C   UNL     1      15.127 -34.012  21.094  1.00  0.00     0.041 C 
ATOM      6  O   UNL     1      15.155 -35.003  20.317  1.00  0.00    -0.550 OA
ATOM      7  O   UNL     1      14.152 -33.036  20.930  1.00  0.00    -0.550 OA
ENDBRANCH   4   5
ENDBRANCH   3   4
ENDBRANCH   2   3
ENDBRANCH   1   2
BRANCH   1   8
ATOM      8  C   UNL     1      17.851 -30.202  21.752  1.00  0.00     0.000 C 
BRANCH   8   9
ATOM      9  C   UNL     1      16.312 -30.161  21.723  1.00  0.00     0.000 C 
BRANCH   9  10
ATOM     10  C   UNL     1      15.698 -29.728  23.062  1.00  0.00     0.006 C 
BRANCH  10  11
ATOM     11  C   UNL     1      14.584 -30.688  23.490  1.00  0.00     0.053 C 
BRANCH  11  12
ATOM     12  C   UNL     1      13.244 -30.049  23.311  1.00  0.00     0.041 C 
ATOM     13  O   UNL     1      12.837 -29.186  24.132  1.00  0.00    -0.550 OA
ATOM     14  O   UNL     1      12.463 -30.371  22.207  1.00  0.00    -0.550 OA
ENDBRANCH  11  12
ENDBRANCH  10  11
ENDBRANCH   9  10
ENDBRANCH   8   9
ENDBRANCH   1   8
TORSDOF 9
ENDMDL
MODEL 8
REMARK VINA RESULT:    -4.325      1.624      2.202
REMARK INTER + INTRA:          -7.112
REMARK INTER:                  -6.437
REMARK INTRA:                  -0.674
REMARK UNBOUND:                -0.511
REMARK SMILES O=C([O-])CCCCCCCCC(=O)[O-]
REMARK SMILES IDX 7 1 6 2 5 3 4 4 2 5 1 6 3 7 8 8 9 9 10 10 11 11 12 12 13 13
REMARK SMILES IDX 14 14
REMARK H PARENT
REMARK Flexibility Score: inf
ROOT
ATOM      1  C   UNL     1      16.203 -32.229  21.364  1.00  0.00     0.000 C 
ENDROOT
BRANCH   1   2
ATOM      2  C   UNL     1      15.656 -30.798  21.503  1.00  0.00     0.000 C 
BRANCH   2   3
ATOM      3  C   UNL     1      15.675 -30.297  22.956  1.00  0.00     0.006 C 
BRANCH   3   4
ATOM      4  C   UNL     1      14.306 -29.787  23.421  1.00  0.00     0.053 C 
BRANCH   4   5
ATOM      5  C   UNL     1      13.293 -30.886  23.368  1.00  0.00     0.041 C 
ATOM      6  O   UNL     1      12.284 -30.783  22.620  1.00  0.00    -0.550 OA
ATOM      7  O   UNL     1      13.434 -32.002  24.183  1.00  0.00    -0.550 OA
ENDBRANCH   4   5
ENDBRANCH   3   4
ENDBRANCH   2   3
ENDBRANCH   1   2
BRANCH   1   8
ATOM      8  C   UNL     1      15.089 -33.289  21.276  1.00  0.00     0.000 C 
BRANCH   8   9
ATOM      9  C   UNL     1      14.927 -33.944  19.892  1.00  0.00     0.000 C 
BRANCH   9  10
ATOM     10  C   UNL     1      16.238 -34.529  19.347  1.00  0.00     0.006 C 
BRANCH  10  11
ATOM     11  C   UNL     1      16.351 -36.020  19.673  1.00  0.00     0.053 C 
BRANCH  11  12
ATOM     12  C   UNL     1      17.475 -36.264  20.630  1.00  0.00     0.041 C 
ATOM     13  O   UNL     1      17.810 -37.440  20.929  1.00  0.00    -0.550 OA
ATOM     14  O   UNL     1      18.186 -35.191  21.155  1.00  0.00    -0.550 OA
ENDBRANCH  11  12
ENDBRANCH  10  11
ENDBRANCH   9  10
ENDBRANCH   8   9
ENDBRANCH   1   8
TORSDOF 9
ENDMDL
MODEL 9
REMARK VINA RESULT:    -4.281      2.088      2.694
REMARK INTER + INTRA:          -7.043
REMARK INTER:                  -6.289
REMARK INTRA:                  -0.754
REMARK UNBOUND:                -0.511
REMARK SMILES O=C([O-])CCCCCCCCC(=O)[O-]
REMARK SMILES IDX 7 1 6 2 5 3 4 4 2 5 1 6 3 7 8 8 9 9 10 10 11 11 12 12 13 13
REMARK SMILES IDX 14 14
REMARK H PARENT
REMARK Flexibility Score: inf
ROOT
ATOM      1  C   UNL     1      17.249 -30.739  22.923  1.00  0.00     0.000 C 
ENDROOT
BRANCH   1   2
ATOM      2  C   UNL     1      15.978 -29.898  23.131  1.00  0.00     0.000 C 
BRANCH   2   3
ATOM      3  C   UNL     1      14.762 -30.753  23.521  1.00  0.00     0.006 C 
BRANCH   3   4
ATOM      4  C   UNL     1      13.435 -30.004  23.345  1.00  0.00     0.053 C 
BRANCH   4   5
ATOM      5  C   UNL     1      12.651 -30.589  22.213  1.00  0.00     0.041 C 
ATOM      6  O   UNL     1      13.208 -31.365  21.392  1.00  0.00    -0.550 OA
ATOM      7  O   UNL     1      11.319 -30.239  22.035  1.00  0.00    -0.550 OA
ENDBRANCH   4   5
ENDBRANCH   3   4
ENDBRANCH   2   3
ENDBRANCH   1   2
BRANCH   1   8
ATOM      8  C   UNL     1      17.605 -30.925  21.436  1.00  0.00     0.000 C 
BRANCH   8   9
ATOM      9  C   UNL     1      17.206 -32.288  20.841  1.00  0.00     0.000 C 
BRANCH   9  10
ATOM     10  C   UNL     1      17.003 -33.373  21.909  1.00  0.00     0.006 C 
BRANCH  10  11
ATOM     11  C   UNL     1      15.593 -33.964  21.829  1.00  0.00     0.053 C 
BRANCH  11  12
ATOM     12  C   UNL     1      15.327 -34.505  20.460  1.00  0.00     0.041 C 
ATOM     13  O   UNL     1      14.535 -33.908  19.685  1.00  0.00    -0.550 OA
ATOM     14  O   UNL     1      15.994 -35.642  20.021  1.00  0.00    -0.550 OA
ENDBRANCH  11  12
ENDBRANCH  10  11
ENDBRANCH   9  10
ENDBRANCH   8   9
ENDBRANCH   1   8
TORSDOF 9
ENDMDL
