MODEL 1
REMARK VINA RESULT:    -5.494      0.000      0.000
REMARK INTER + INTRA:          -7.448
REMARK INTER:                  -6.939
REMARK INTRA:                  -0.508
REMARK UNBOUND:                -0.508
REMARK SMILES Oc1cc(O)cc(CCc2ccccc2O)c1
REMARK SMILES IDX 9 1 10 2 12 3 13 4 11 5 14 6 15 7 16 8 8 10 7 11 6 12 17 13
REMARK SMILES IDX 4 14 2 15 3 16 5 17 1 19
REMARK H PARENT 16 9 5 18 1 20
REMARK Flexibility Score: inf
ROOT
ATOM      1  C   UNL     1     163.418 161.679 182.945  1.00  0.00     0.044 C 
ENDROOT
BRANCH   1   2
ATOM      2  C   UNL     1     162.245 161.249 182.095  1.00  0.00    -0.006 A 
ATOM      3  C   UNL     1     161.391 160.396 179.984  1.00  0.00     0.001 A 
ATOM      4  C   UNL     1     160.103 160.350 180.518  1.00  0.00     0.004 A 
ATOM      5  C   UNL     1     162.458 160.841 180.767  1.00  0.00     0.007 A 
ATOM      6  C   UNL     1     159.878 160.747 181.839  1.00  0.00     0.046 A 
ATOM      7  C   UNL     1     160.944 161.194 182.634  1.00  0.00     0.118 A 
BRANCH   7   8
ATOM      8  O   UNL     1     160.714 161.577 183.955  1.00  0.00    -0.508 OA
ATOM      9  H   UNL     1     161.128 162.417 184.344  1.00  0.00     0.293 HD
ENDBRANCH   7   8
ENDBRANCH   1   2
BRANCH   1  10
ATOM     10  C   UNL     1     164.368 160.510 183.240  1.00  0.00     0.040 C 
BRANCH  10  11
ATOM     11  C   UNL     1     165.805 160.874 182.964  1.00  0.00    -0.040 A 
ATOM     12  C   UNL     1     166.406 161.942 183.648  1.00  0.00     0.050 A 
ATOM     13  C   UNL     1     166.533 160.190 181.977  1.00  0.00     0.050 A 
ATOM     14  C   UNL     1     167.726 162.314 183.358  1.00  0.00     0.119 A 
ATOM     15  C   UNL     1     167.852 160.563 181.684  1.00  0.00     0.119 A 
ATOM     16  C   UNL     1     168.445 161.621 182.378  1.00  0.00     0.092 A 
BRANCH  14  17
ATOM     17  O   UNL     1     168.331 163.371 184.034  1.00  0.00    -0.508 OA
ATOM     18  H   UNL     1     169.181 163.239 184.570  1.00  0.00     0.293 HD
ENDBRANCH  14  17
BRANCH  15  19
ATOM     19  O   UNL     1     168.578 159.890 180.704  1.00  0.00    -0.508 OA
ATOM     20  H   UNL     1     169.572 160.045 180.580  1.00  0.00     0.293 HD
ENDBRANCH  15  19
ENDBRANCH  10  11
ENDBRANCH   1  10
TORSDOF 6
ENDMDL
MODEL 2
REMARK VINA RESULT:    -5.421      2.262      6.518
REMARK INTER + INTRA:          -7.356
REMARK INTER:                  -6.748
REMARK INTRA:                  -0.608
REMARK UNBOUND:                -0.508
REMARK SMILES Oc1cc(O)cc(CCc2ccccc2O)c1
REMARK SMILES IDX 9 1 10 2 12 3 13 4 11 5 14 6 15 7 16 8 8 10 7 11 6 12 17 13
REMARK SMILES IDX 4 14 2 15 3 16 5 17 1 19
REMARK H PARENT 16 9 5 18 1 20
REMARK Flexibility Score: inf
ROOT
ATOM      1  C   UNL     1     164.542 163.436 182.667  1.00  0.00     0.044 C 
ENDROOT
BRANCH   1   2
ATOM      2  C   UNL     1     165.462 162.436 183.327  1.00  0.00    -0.006 A 
ATOM      3  C   UNL     1     166.200 160.135 183.602  1.00  0.00     0.001 A 
ATOM      4  C   UNL     1     167.216 160.559 184.459  1.00  0.00     0.004 A 
ATOM      5  C   UNL     1     165.327 161.067 183.036  1.00  0.00     0.007 A 
ATOM      6  C   UNL     1     167.365 161.917 184.752  1.00  0.00     0.046 A 
ATOM      7  C   UNL     1     166.494 162.860 184.187  1.00  0.00     0.118 A 
BRANCH   7   8
ATOM      8  O   UNL     1     166.656 164.216 184.474  1.00  0.00    -0.508 OA
ATOM      9  H   UNL     1     165.860 164.833 184.587  1.00  0.00     0.293 HD
ENDBRANCH   7   8
ENDBRANCH   1   2
BRANCH   1  10
ATOM     10  C   UNL     1     163.221 163.589 183.434  1.00  0.00     0.040 C 
BRANCH  10  11
ATOM     11  C   UNL     1     162.073 162.938 182.706  1.00  0.00    -0.040 A 
ATOM     12  C   UNL     1     161.511 161.748 183.194  1.00  0.00     0.050 A 
ATOM     13  C   UNL     1     161.599 163.480 181.500  1.00  0.00     0.050 A 
ATOM     14  C   UNL     1     160.477 161.114 182.493  1.00  0.00     0.119 A 
ATOM     15  C   UNL     1     160.566 162.845 180.796  1.00  0.00     0.119 A 
ATOM     16  C   UNL     1     160.006 161.667 181.296  1.00  0.00     0.092 A 
BRANCH  14  17
ATOM     17  O   UNL     1     159.911 159.934 182.973  1.00  0.00    -0.508 OA
ATOM     18  H   UNL     1     160.290 159.458 183.783  1.00  0.00     0.293 HD
ENDBRANCH  14  17
BRANCH  15  19
ATOM     19  O   UNL     1     160.094 163.376 179.598  1.00  0.00    -0.508 OA
ATOM     20  H   UNL     1     160.257 162.913 178.712  1.00  0.00     0.293 HD
ENDBRANCH  15  19
ENDBRANCH  10  11
ENDBRANCH   1  10
TORSDOF 6
ENDMDL
MODEL 3
REMARK VINA RESULT:    -5.390      2.245      6.499
REMARK INTER + INTRA:          -7.316
REMARK INTER:                  -6.711
REMARK INTRA:                  -0.605
REMARK UNBOUND:                -0.508
REMARK SMILES Oc1cc(O)cc(CCc2ccccc2O)c1
REMARK SMILES IDX 9 1 10 2 12 3 13 4 11 5 14 6 15 7 16 8 8 10 7 11 6 12 17 13
REMARK SMILES IDX 4 14 2 15 3 16 5 17 1 19
REMARK H PARENT 16 9 5 18 1 20
REMARK Flexibility Score: inf
ROOT
ATOM      1  C   UNL     1     164.623 163.410 182.664  1.00  0.00     0.044 C 
ENDROOT
BRANCH   1   2
ATOM      2  C   UNL     1     165.513 162.385 183.328  1.00  0.00    -0.006 A 
ATOM      3  C   UNL     1     166.219 160.070 183.571  1.00  0.00     0.001 A 
ATOM      4  C   UNL     1     167.215 160.464 184.466  1.00  0.00     0.004 A 
ATOM      5  C   UNL     1     165.373 161.025 183.002  1.00  0.00     0.007 A 
ATOM      6  C   UNL     1     167.369 161.813 184.793  1.00  0.00     0.046 A 
ATOM      7  C   UNL     1     166.525 162.779 184.226  1.00  0.00     0.118 A 
BRANCH   7   8
ATOM      8  O   UNL     1     166.692 164.126 184.548  1.00  0.00    -0.508 OA
ATOM      9  H   UNL     1     167.558 164.616 184.348  1.00  0.00     0.293 HD
ENDBRANCH   7   8
ENDBRANCH   1   2
BRANCH   1  10
ATOM     10  C   UNL     1     163.282 163.560 183.396  1.00  0.00     0.040 C 
BRANCH  10  11
ATOM     11  C   UNL     1     162.164 162.864 182.662  1.00  0.00    -0.040 A 
ATOM     12  C   UNL     1     161.678 163.388 181.454  1.00  0.00     0.050 A 
ATOM     13  C   UNL     1     161.558 161.722 183.211  1.00  0.00     0.050 A 
ATOM     14  C   UNL     1     160.607 162.771 180.794  1.00  0.00     0.119 A 
ATOM     15  C   UNL     1     160.484 161.106 182.554  1.00  0.00     0.119 A 
ATOM     16  C   UNL     1     160.015 161.630 181.346  1.00  0.00     0.092 A 
BRANCH  14  17
ATOM     17  O   UNL     1     160.121 163.284 179.593  1.00  0.00    -0.508 OA
ATOM     18  H   UNL     1     159.373 162.826 179.087  1.00  0.00     0.293 HD
ENDBRANCH  14  17
BRANCH  15  19
ATOM     19  O   UNL     1     159.876 159.975 183.095  1.00  0.00    -0.508 OA
ATOM     20  H   UNL     1     158.885 159.800 182.982  1.00  0.00     0.293 HD
ENDBRANCH  15  19
ENDBRANCH  10  11
ENDBRANCH   1  10
TORSDOF 6
ENDMDL
MODEL 4
REMARK VINA RESULT:    -5.367      5.558      7.768
REMARK INTER + INTRA:          -7.287
REMARK INTER:                  -6.870
REMARK INTRA:                  -0.417
REMARK UNBOUND:                -0.508
REMARK SMILES Oc1cc(O)cc(CCc2ccccc2O)c1
REMARK SMILES IDX 9 1 10 2 12 3 13 4 11 5 14 6 15 7 16 8 8 10 7 11 6 12 17 13
REMARK SMILES IDX 4 14 2 15 3 16 5 17 1 19
REMARK H PARENT 16 9 5 18 1 20
REMARK Flexibility Score: inf
ROOT
ATOM      1  C   UNL     1     160.653 164.427 181.147  1.00  0.00     0.044 C 
ENDROOT
BRANCH   1   2
ATOM      2  C   UNL     1     160.522 163.015 181.671  1.00  0.00    -0.006 A 
ATOM      3  C   UNL     1     160.441 161.482 183.557  1.00  0.00     0.001 A 
ATOM      4  C   UNL     1     160.184 160.420 182.688  1.00  0.00     0.004 A 
ATOM      5  C   UNL     1     160.608 162.774 183.053  1.00  0.00     0.007 A 
ATOM      6  C   UNL     1     160.091 160.648 181.313  1.00  0.00     0.046 A 
ATOM      7  C   UNL     1     160.255 161.942 180.798  1.00  0.00     0.118 A 
BRANCH   7   8
ATOM      8  O   UNL     1     160.147 162.164 179.425  1.00  0.00    -0.508 OA
ATOM      9  H   UNL     1     159.374 161.790 178.885  1.00  0.00     0.293 HD
ENDBRANCH   7   8
ENDBRANCH   1   2
BRANCH   1  10
ATOM     10  C   UNL     1     161.128 165.398 182.237  1.00  0.00     0.040 C 
BRANCH  10  11
ATOM     11  C   UNL     1     160.709 166.815 181.943  1.00  0.00    -0.040 A 
ATOM     12  C   UNL     1     160.612 167.262 180.615  1.00  0.00     0.050 A 
ATOM     13  C   UNL     1     160.475 167.719 182.993  1.00  0.00     0.050 A 
ATOM     14  C   UNL     1     160.270 168.593 180.340  1.00  0.00     0.119 A 
ATOM     15  C   UNL     1     160.136 169.051 182.718  1.00  0.00     0.119 A 
ATOM     16  C   UNL     1     160.032 169.482 181.393  1.00  0.00     0.092 A 
BRANCH  14  17
ATOM     17  O   UNL     1     160.168 169.043 179.025  1.00  0.00    -0.508 OA
ATOM     18  H   UNL     1     160.850 168.782 178.323  1.00  0.00     0.293 HD
ENDBRANCH  14  17
BRANCH  15  19
ATOM     19  O   UNL     1     159.906 169.952 183.755  1.00  0.00    -0.508 OA
ATOM     20  H   UNL     1     159.492 170.861 183.586  1.00  0.00     0.293 HD
ENDBRANCH  15  19
ENDBRANCH  10  11
ENDBRANCH   1  10
TORSDOF 6
ENDMDL
MODEL 5
REMARK VINA RESULT:    -5.343      5.668      7.691
REMARK INTER + INTRA:          -7.257
REMARK INTER:                  -6.858
REMARK INTRA:                  -0.399
REMARK UNBOUND:                -0.508
REMARK SMILES Oc1cc(O)cc(CCc2ccccc2O)c1
REMARK SMILES IDX 9 1 10 2 12 3 13 4 11 5 14 6 15 7 16 8 8 10 7 11 6 12 17 13
REMARK SMILES IDX 4 14 2 15 3 16 5 17 1 19
REMARK H PARENT 16 9 5 18 1 20
REMARK Flexibility Score: inf
ROOT
ATOM      1  C   UNL     1     160.210 164.599 181.352  1.00  0.00     0.044 C 
ENDROOT
BRANCH   1   2
ATOM      2  C   UNL     1     160.394 163.181 181.838  1.00  0.00    -0.006 A 
ATOM      3  C   UNL     1     160.655 161.618 183.684  1.00  0.00     0.001 A 
ATOM      4  C   UNL     1     160.639 160.549 182.786  1.00  0.00     0.004 A 
ATOM      5  C   UNL     1     160.532 162.928 183.214  1.00  0.00     0.007 A 
ATOM      6  C   UNL     1     160.496 160.786 181.417  1.00  0.00     0.046 A 
ATOM      7  C   UNL     1     160.370 162.098 180.936  1.00  0.00     0.118 A 
BRANCH   7   8
ATOM      8  O   UNL     1     160.215 162.326 179.569  1.00  0.00    -0.508 OA
ATOM      9  H   UNL     1     159.303 162.302 179.126  1.00  0.00     0.293 HD
ENDBRANCH   7   8
ENDBRANCH   1   2
BRANCH   1  10
ATOM     10  C   UNL     1     161.212 165.561 182.005  1.00  0.00     0.040 C 
BRANCH  10  11
ATOM     11  C   UNL     1     160.786 166.999 181.854  1.00  0.00    -0.040 A 
ATOM     12  C   UNL     1     160.551 167.789 182.991  1.00  0.00     0.050 A 
ATOM     13  C   UNL     1     160.560 167.542 180.579  1.00  0.00     0.050 A 
ATOM     14  C   UNL     1     160.108 169.111 182.854  1.00  0.00     0.119 A 
ATOM     15  C   UNL     1     160.113 168.863 180.441  1.00  0.00     0.119 A 
ATOM     16  C   UNL     1     159.892 169.645 181.578  1.00  0.00     0.092 A 
BRANCH  14  17
ATOM     17  O   UNL     1     159.875 169.903 183.976  1.00  0.00    -0.508 OA
ATOM     18  H   UNL     1     160.370 170.775 184.121  1.00  0.00     0.293 HD
ENDBRANCH  14  17
BRANCH  15  19
ATOM     19  O   UNL     1     159.884 169.405 179.179  1.00  0.00    -0.508 OA
ATOM     20  H   UNL     1     159.747 168.817 178.365  1.00  0.00     0.293 HD
ENDBRANCH  15  19
ENDBRANCH  10  11
ENDBRANCH   1  10
TORSDOF 6
ENDMDL
MODEL 6
REMARK VINA RESULT:    -5.259      1.211      2.635
REMARK INTER + INTRA:          -7.150
REMARK INTER:                  -6.891
REMARK INTRA:                  -0.259
REMARK UNBOUND:                -0.508
REMARK SMILES Oc1cc(O)cc(CCc2ccccc2O)c1
REMARK SMILES IDX 9 1 10 2 12 3 13 4 11 5 14 6 15 7 16 8 8 10 7 11 6 12 17 13
REMARK SMILES IDX 4 14 2 15 3 16 5 17 1 19
REMARK H PARENT 16 9 5 18 1 20
REMARK Flexibility Score: inf
ROOT
ATOM      1  C   UNL     1     163.571 161.486 182.867  1.00  0.00     0.044 C 
ENDROOT
BRANCH   1   2
ATOM      2  C   UNL     1     162.290 161.066 182.184  1.00  0.00    -0.006 A 
ATOM      3  C   UNL     1     159.882 160.735 182.274  1.00  0.00     0.001 A 
ATOM      4  C   UNL     1     159.876 160.387 180.922  1.00  0.00     0.004 A 
ATOM      5  C   UNL     1     161.082 161.075 182.903  1.00  0.00     0.007 A 
ATOM      6  C   UNL     1     161.069 160.381 180.195  1.00  0.00     0.046 A 
ATOM      7  C   UNL     1     162.278 160.722 180.818  1.00  0.00     0.118 A 
BRANCH   7   8
ATOM      8  O   UNL     1     163.463 160.725 180.083  1.00  0.00    -0.508 OA
ATOM      9  H   UNL     1     164.081 161.530 180.075  1.00  0.00     0.293 HD
ENDBRANCH   7   8
ENDBRANCH   1   2
BRANCH   1  10
ATOM     10  C   UNL     1     164.563 160.321 182.986  1.00  0.00     0.040 C 
BRANCH  10  11
ATOM     11  C   UNL     1     165.978 160.762 182.712  1.00  0.00    -0.040 A 
ATOM     12  C   UNL     1     166.736 160.126 181.717  1.00  0.00     0.050 A 
ATOM     13  C   UNL     1     166.570 161.769 183.492  1.00  0.00     0.050 A 
ATOM     14  C   UNL     1     168.067 160.501 181.493  1.00  0.00     0.119 A 
ATOM     15  C   UNL     1     167.903 162.143 183.271  1.00  0.00     0.119 A 
ATOM     16  C   UNL     1     168.646 161.510 182.271  1.00  0.00     0.092 A 
BRANCH  14  17
ATOM     17  O   UNL     1     168.825 159.876 180.505  1.00  0.00    -0.508 OA
ATOM     18  H   UNL     1     169.624 159.297 180.738  1.00  0.00     0.293 HD
ENDBRANCH  14  17
BRANCH  15  19
ATOM     19  O   UNL     1     168.497 163.138 184.044  1.00  0.00    -0.508 OA
ATOM     20  H   UNL     1     168.694 162.999 185.028  1.00  0.00     0.293 HD
ENDBRANCH  15  19
ENDBRANCH  10  11
ENDBRANCH   1  10
TORSDOF 6
ENDMDL
MODEL 7
REMARK VINA RESULT:    -5.256     18.069     19.380
REMARK INTER + INTRA:          -7.148
REMARK INTER:                  -6.544
REMARK INTRA:                  -0.604
REMARK UNBOUND:                -0.508
REMARK SMILES Oc1cc(O)cc(CCc2ccccc2O)c1
REMARK SMILES IDX 9 1 10 2 12 3 13 4 11 5 14 6 15 7 16 8 8 10 7 11 6 12 17 13
REMARK SMILES IDX 4 14 2 15 3 16 5 17 1 19
REMARK H PARENT 16 9 5 18 1 20
REMARK Flexibility Score: inf
ROOT
ATOM      1  C   UNL     1     174.075 175.866 181.614  1.00  0.00     0.044 C 
ENDROOT
BRANCH   1   2
ATOM      2  C   UNL     1     173.572 177.263 181.897  1.00  0.00    -0.006 A 
ATOM      3  C   UNL     1     171.862 178.724 182.821  1.00  0.00     0.001 A 
ATOM      4  C   UNL     1     172.649 179.839 182.527  1.00  0.00     0.004 A 
ATOM      5  C   UNL     1     172.320 177.442 182.510  1.00  0.00     0.007 A 
ATOM      6  C   UNL     1     173.898 179.674 181.924  1.00  0.00     0.046 A 
ATOM      7  C   UNL     1     174.368 178.390 181.609  1.00  0.00     0.118 A 
BRANCH   7   8
ATOM      8  O   UNL     1     175.621 178.232 181.018  1.00  0.00    -0.508 OA
ATOM      9  H   UNL     1     176.109 177.343 181.037  1.00  0.00     0.293 HD
ENDBRANCH   7   8
ENDBRANCH   1   2
BRANCH   1  10
ATOM     10  C   UNL     1     174.636 175.195 182.876  1.00  0.00     0.040 C 
BRANCH  10  11
ATOM     11  C   UNL     1     176.143 175.174 182.874  1.00  0.00    -0.040 A 
ATOM     12  C   UNL     1     176.841 174.647 181.776  1.00  0.00     0.050 A 
ATOM     13  C   UNL     1     176.860 175.622 183.995  1.00  0.00     0.050 A 
ATOM     14  C   UNL     1     178.241 174.582 181.792  1.00  0.00     0.119 A 
ATOM     15  C   UNL     1     178.260 175.554 184.014  1.00  0.00     0.119 A 
ATOM     16  C   UNL     1     178.946 175.038 182.911  1.00  0.00     0.092 A 
BRANCH  14  17
ATOM     17  O   UNL     1     178.940 174.063 180.704  1.00  0.00    -0.508 OA
ATOM     18  H   UNL     1     178.494 173.451 180.032  1.00  0.00     0.293 HD
ENDBRANCH  14  17
BRANCH  15  19
ATOM     19  O   UNL     1     178.976 175.994 185.125  1.00  0.00    -0.508 OA
ATOM     20  H   UNL     1     178.629 175.860 186.067  1.00  0.00     0.293 HD
ENDBRANCH  15  19
ENDBRANCH  10  11
ENDBRANCH   1  10
TORSDOF 6
ENDMDL
MODEL 8
REMARK VINA RESULT:    -5.234      2.453      6.247
REMARK INTER + INTRA:          -7.119
REMARK INTER:                  -6.430
REMARK INTRA:                  -0.689
REMARK UNBOUND:                -0.508
REMARK SMILES Oc1cc(O)cc(CCc2ccccc2O)c1
REMARK SMILES IDX 9 1 10 2 12 3 13 4 11 5 14 6 15 7 16 8 8 10 7 11 6 12 17 13
REMARK SMILES IDX 4 14 2 15 3 16 5 17 1 19
REMARK H PARENT 16 9 5 18 1 20
REMARK Flexibility Score: inf
ROOT
ATOM      1  C   UNL     1     165.150 163.222 181.929  1.00  0.00     0.044 C 
ENDROOT
BRANCH   1   2
ATOM      2  C   UNL     1     165.768 162.173 182.824  1.00  0.00    -0.006 A 
ATOM      3  C   UNL     1     167.252 161.603 184.665  1.00  0.00     0.001 A 
ATOM      4  C   UNL     1     166.863 160.266 184.570  1.00  0.00     0.004 A 
ATOM      5  C   UNL     1     166.707 162.553 183.798  1.00  0.00     0.007 A 
ATOM      6  C   UNL     1     165.926 159.876 183.611  1.00  0.00     0.046 A 
ATOM      7  C   UNL     1     165.372 160.823 182.737  1.00  0.00     0.118 A 
BRANCH   7   8
ATOM      8  O   UNL     1     164.427 160.428 181.790  1.00  0.00    -0.508 OA
ATOM      9  H   UNL     1     164.688 160.232 180.830  1.00  0.00     0.293 HD
ENDBRANCH   7   8
ENDBRANCH   1   2
BRANCH   1  10
ATOM     10  C   UNL     1     164.090 164.050 182.668  1.00  0.00     0.040 C 
BRANCH  10  11
ATOM     11  C   UNL     1     162.702 163.508 182.446  1.00  0.00    -0.040 A 
ATOM     12  C   UNL     1     162.097 162.693 183.416  1.00  0.00     0.050 A 
ATOM     13  C   UNL     1     162.026 163.761 181.241  1.00  0.00     0.050 A 
ATOM     14  C   UNL     1     160.826 162.148 183.191  1.00  0.00     0.119 A 
ATOM     15  C   UNL     1     160.756 163.213 181.012  1.00  0.00     0.119 A 
ATOM     16  C   UNL     1     160.159 162.411 181.990  1.00  0.00     0.092 A 
BRANCH  14  17
ATOM     17  O   UNL     1     160.219 161.340 184.150  1.00  0.00    -0.508 OA
ATOM     18  H   UNL     1     159.558 161.719 184.818  1.00  0.00     0.293 HD
ENDBRANCH  14  17
BRANCH  15  19
ATOM     19  O   UNL     1     160.083 163.457 179.818  1.00  0.00    -0.508 OA
ATOM     20  H   UNL     1     160.575 163.754 178.983  1.00  0.00     0.293 HD
ENDBRANCH  15  19
ENDBRANCH  10  11
ENDBRANCH   1  10
TORSDOF 6
ENDMDL
MODEL 9
REMARK VINA RESULT:    -5.153      2.863      3.826
REMARK INTER + INTRA:          -7.017
REMARK INTER:                  -6.248
REMARK INTRA:                  -0.769
REMARK UNBOUND:                -0.508
REMARK SMILES Oc1cc(O)cc(CCc2ccccc2O)c1
REMARK SMILES IDX 9 1 10 2 12 3 13 4 11 5 14 6 15 7 16 8 8 10 7 11 6 12 17 13
REMARK SMILES IDX 4 14 2 15 3 16 5 17 1 19
REMARK H PARENT 16 9 5 18 1 20
REMARK Flexibility Score: inf
ROOT
ATOM      1  C   UNL     1     160.219 161.846 182.213  1.00  0.00     0.044 C 
ENDROOT
BRANCH   1   2
ATOM      2  C   UNL     1     160.446 163.148 181.482  1.00  0.00    -0.006 A 
ATOM      3  C   UNL     1     160.302 165.575 181.435  1.00  0.00     0.001 A 
ATOM      4  C   UNL     1     160.943 165.594 180.195  1.00  0.00     0.004 A 
ATOM      5  C   UNL     1     160.056 164.360 182.077  1.00  0.00     0.007 A 
ATOM      6  C   UNL     1     161.342 164.397 179.595  1.00  0.00     0.046 A 
ATOM      7  C   UNL     1     161.100 163.172 180.233  1.00  0.00     0.118 A 
BRANCH   7   8
ATOM      8  O   UNL     1     161.513 161.981 179.634  1.00  0.00    -0.508 OA
ATOM      9  H   UNL     1     161.320 161.080 180.057  1.00  0.00     0.293 HD
ENDBRANCH   7   8
ENDBRANCH   1   2
BRANCH   1  10
ATOM     10  C   UNL     1     161.032 161.772 183.513  1.00  0.00     0.040 C 
BRANCH  10  11
ATOM     11  C   UNL     1     162.514 161.864 183.251  1.00  0.00    -0.040 A 
ATOM     12  C   UNL     1     163.219 163.031 183.584  1.00  0.00     0.050 A 
ATOM     13  C   UNL     1     163.188 160.809 182.615  1.00  0.00     0.050 A 
ATOM     14  C   UNL     1     164.586 163.138 183.297  1.00  0.00     0.119 A 
ATOM     15  C   UNL     1     164.556 160.916 182.324  1.00  0.00     0.119 A 
ATOM     16  C   UNL     1     165.250 162.078 182.669  1.00  0.00     0.092 A 
BRANCH  14  17
ATOM     17  O   UNL     1     165.294 164.292 183.627  1.00  0.00    -0.508 OA
ATOM     18  H   UNL     1     166.302 164.285 183.724  1.00  0.00     0.293 HD
ENDBRANCH  14  17
BRANCH  15  19
ATOM     19  O   UNL     1     165.229 159.875 181.690  1.00  0.00    -0.508 OA
ATOM     20  H   UNL     1     164.745 159.220 181.086  1.00  0.00     0.293 HD
ENDBRANCH  15  19
ENDBRANCH  10  11
ENDBRANCH   1  10
TORSDOF 6
ENDMDL
