MODEL 1
REMARK VINA RESULT:    -3.842      0.000      0.000
REMARK INTER + INTRA:          -6.209
REMARK INTER:                  -5.863
REMARK INTRA:                  -0.346
REMARK UNBOUND:                -0.346
REMARK SMILES CC1=CCC[C@@H](C)C(=O)C[C@@H](C(C)C)C(=O)C1
REMARK SMILES IDX 8 1 9 2 6 3 7 4 5 5 4 6 3 7 2 8 1 9 10 11 11 12 15 13 16 14
REMARK SMILES IDX 17 15 12 17 13 18 14 19
REMARK H PARENT
REMARK Flexibility Score: 70.00
ROOT
ATOM      1  C   UNL     1      87.835  37.223  24.540  1.00  0.00     0.136 C 
ATOM      2  O   UNL     1      88.938  37.227  24.013  1.00  0.00    -0.299 OA
ENDROOT
BRANCH   1   3
ATOM      3  C   UNL     1      86.831  36.149  24.179  1.00  0.00     0.053 C 
ATOM      4  C   UNL     1      85.443  36.779  24.028  1.00  0.00     0.016 C 
BRANCH   3   5
ATOM      5  C   UNL     1      86.787  35.008  25.224  1.00  0.00     0.015 C 
BRANCH   5   6
ATOM      6  C   UNL     1      85.622  35.121  26.218  1.00  0.00     0.028 C 
BRANCH   6   7
ATOM      7  C   UNL     1      86.089  34.910  27.639  1.00  0.00    -0.028 C 
ATOM      8  C   UNL     1      86.339  35.897  28.527  1.00  0.00    -0.070 CG0
ATOM      9  C   UNL     1      86.796  35.508  29.910  1.00  0.00     0.039 C 
ATOM     10  G   UNL     1      86.168  37.368  28.195  1.00  0.00     0.000 G0
ENDBRANCH   6   7
ENDBRANCH   5   6
ENDBRANCH   3   5
ENDBRANCH   1   3
BRANCH   1  11
ATOM     11  C   UNL     1      87.517  38.259  25.592  1.00  0.00     0.087 C 
BRANCH  11  12
ATOM     12  C   UNL     1      88.361  38.119  26.887  1.00  0.00     0.066 C 
BRANCH  12  13
ATOM     13  C   UNL     1      87.456  38.157  28.116  1.00  0.00     0.140 C 
ATOM     14  O   UNL     1      87.825  38.785  29.098  1.00  0.00    -0.299 OA
BRANCH  13  15
ATOM     15  C   UNL     1      86.161  37.374  28.217  1.00  0.00     0.106 CG0
ATOM     16  G   UNL     1      86.345  35.898  28.517  1.00  0.00     0.000 G0
ENDBRANCH  13  15
ENDBRANCH  12  13
BRANCH  12  17
ATOM     17  C   UNL     1      89.450  39.236  26.982  1.00  0.00    -0.006 C 
ATOM     18  C   UNL     1      90.871  38.645  26.942  1.00  0.00     0.008 C 
ATOM     19  C   UNL     1      89.315  40.277  25.855  1.00  0.00     0.008 C 
ENDBRANCH  12  17
ENDBRANCH  11  12
ENDBRANCH   1  11
TORSDOF 1
ENDMDL
MODEL 2
REMARK VINA RESULT:    -3.326      2.038      4.097
REMARK INTER + INTRA:          -5.422
REMARK INTER:                  -5.245
REMARK INTRA:                  -0.177
REMARK UNBOUND:                -0.346
REMARK SMILES CC1=CCC[C@@H](C)C(=O)C[C@@H](C(C)C)C(=O)C1
REMARK SMILES IDX 8 1 9 2 6 3 7 4 5 5 4 6 3 7 2 8 1 9 10 11 11 12 15 13 16 14
REMARK SMILES IDX 17 15 12 17 13 18 14 19
REMARK H PARENT
REMARK Flexibility Score: 70.00
ROOT
ATOM      1  C   UNL     1      87.719  37.882  25.792  1.00  0.00     0.136 C 
ATOM      2  O   UNL     1      88.204  38.197  24.715  1.00  0.00    -0.299 OA
ENDROOT
BRANCH   1   3
ATOM      3  C   UNL     1      88.125  38.625  27.047  1.00  0.00     0.053 C 
ATOM      4  C   UNL     1      89.602  39.019  26.951  1.00  0.00     0.016 C 
BRANCH   3   5
ATOM      5  C   UNL     1      87.878  37.795  28.329  1.00  0.00     0.015 C 
BRANCH   5   6
ATOM      6  C   UNL     1      86.813  38.393  29.262  1.00  0.00     0.028 C 
BRANCH   6   7
ATOM      7  C   UNL     1      85.908  37.322  29.821  1.00  0.00    -0.028 C 
ATOM      8  C   UNL     1      84.718  36.959  29.293  1.00  0.00    -0.070 CG0
ATOM      9  C   UNL     1      83.941  35.864  29.979  1.00  0.00     0.039 C 
ATOM     10  G   UNL     1      84.143  37.596  28.041  1.00  0.00     0.000 G0
ENDBRANCH   6   7
ENDBRANCH   5   6
ENDBRANCH   3   5
ENDBRANCH   1   3
BRANCH   1  11
ATOM     11  C   UNL     1      86.673  36.794  25.839  1.00  0.00     0.087 C 
BRANCH  11  12
ATOM     12  C   UNL     1      85.224  37.305  25.625  1.00  0.00     0.066 C 
BRANCH  12  13
ATOM     13  C   UNL     1      84.321  36.831  26.760  1.00  0.00     0.140 C 
ATOM     14  O   UNL     1      83.662  35.812  26.602  1.00  0.00    -0.299 OA
BRANCH  13  15
ATOM     15  C   UNL     1      84.123  37.612  28.045  1.00  0.00     0.106 CG0
ATOM     16  G   UNL     1      84.717  36.953  29.276  1.00  0.00     0.000 G0
ENDBRANCH  13  15
ENDBRANCH  12  13
BRANCH  12  17
ATOM     17  C   UNL     1      84.651  36.838  24.248  1.00  0.00    -0.006 C 
ATOM     18  C   UNL     1      84.097  38.021  23.434  1.00  0.00     0.008 C 
ATOM     19  C   UNL     1      85.707  36.106  23.398  1.00  0.00     0.008 C 
ENDBRANCH  12  17
ENDBRANCH  11  12
ENDBRANCH   1  11
TORSDOF 1
ENDMDL
MODEL 3
REMARK VINA RESULT:    -3.228      3.984      6.108
REMARK INTER + INTRA:          -5.273
REMARK INTER:                  -4.982
REMARK INTRA:                  -0.291
REMARK UNBOUND:                -0.346
REMARK SMILES CC1=CCC[C@@H](C)C(=O)C[C@@H](C(C)C)C(=O)C1
REMARK SMILES IDX 8 1 9 2 6 3 7 4 5 5 4 6 3 7 2 8 1 9 10 11 11 12 15 13 16 14
REMARK SMILES IDX 17 15 12 17 13 18 14 19
REMARK H PARENT
REMARK Flexibility Score: 70.00
ROOT
ATOM      1  C   UNL     1      87.147  34.351  31.006  1.00  0.00     0.136 C 
ATOM      2  O   UNL     1      87.295  33.256  30.482  1.00  0.00    -0.299 OA
ENDROOT
BRANCH   1   3
ATOM      3  C   UNL     1      87.165  34.474  32.515  1.00  0.00     0.053 C 
ATOM      4  C   UNL     1      88.527  34.014  33.046  1.00  0.00     0.016 C 
BRANCH   3   5
ATOM      5  C   UNL     1      86.030  33.665  33.186  1.00  0.00     0.015 C 
BRANCH   5   6
ATOM      6  C   UNL     1      84.630  34.255  32.963  1.00  0.00     0.028 C 
BRANCH   6   7
ATOM      7  C   UNL     1      83.786  33.355  32.091  1.00  0.00    -0.028 C 
ATOM      8  C   UNL     1      83.167  33.737  30.953  1.00  0.00    -0.070 CG0
ATOM      9  C   UNL     1      82.365  32.705  30.201  1.00  0.00     0.039 C 
ATOM     10  G   UNL     1      83.255  35.147  30.400  1.00  0.00     0.000 G0
ENDBRANCH   6   7
ENDBRANCH   5   6
ENDBRANCH   3   5
ENDBRANCH   1   3
BRANCH   1  11
ATOM     11  C   UNL     1      87.008  35.574  30.130  1.00  0.00     0.087 C 
BRANCH  11  12
ATOM     12  C   UNL     1      85.652  36.310  30.289  1.00  0.00     0.066 C 
BRANCH  12  13
ATOM     13  C   UNL     1      84.527  35.492  29.660  1.00  0.00     0.140 C 
ATOM     14  O   UNL     1      84.635  35.145  28.492  1.00  0.00    -0.299 OA
BRANCH  13  15
ATOM     15  C   UNL     1      83.234  35.166  30.381  1.00  0.00     0.106 CG0
ATOM     16  G   UNL     1      83.161  33.752  30.927  1.00  0.00     0.000 G0
ENDBRANCH  13  15
ENDBRANCH  12  13
BRANCH  12  17
ATOM     17  C   UNL     1      85.700  37.739  29.656  1.00  0.00    -0.006 C 
ATOM     18  C   UNL     1      85.259  38.818  30.661  1.00  0.00     0.008 C 
ATOM     19  C   UNL     1      87.104  38.095  29.132  1.00  0.00     0.008 C 
ENDBRANCH  12  17
ENDBRANCH  11  12
ENDBRANCH   1  11
TORSDOF 1
ENDMDL
MODEL 4
REMARK VINA RESULT:    -3.176      2.164      3.328
REMARK INTER + INTRA:          -5.193
REMARK INTER:                  -5.335
REMARK INTRA:                   0.143
REMARK UNBOUND:                -0.346
REMARK SMILES CC1=CCC[C@@H](C)C(=O)C[C@@H](C(C)C)C(=O)C1
REMARK SMILES IDX 8 1 9 2 6 3 7 4 5 5 4 6 3 7 2 8 1 9 10 11 11 12 15 13 16 14
REMARK SMILES IDX 17 15 12 17 13 18 14 19
REMARK H PARENT
REMARK Flexibility Score: 70.00
ROOT
ATOM      1  C   UNL     1      87.710  36.810  24.271  1.00  0.00     0.136 C 
ATOM      2  O   UNL     1      88.808  37.267  23.984  1.00  0.00    -0.299 OA
ENDROOT
BRANCH   1   3
ATOM      3  C   UNL     1      87.257  35.500  23.664  1.00  0.00     0.053 C 
ATOM      4  C   UNL     1      88.385  34.918  22.806  1.00  0.00     0.016 C 
BRANCH   3   5
ATOM      5  C   UNL     1      85.971  35.656  22.818  1.00  0.00     0.015 C 
BRANCH   5   6
ATOM      6  C   UNL     1      84.775  34.852  23.350  1.00  0.00     0.028 C 
BRANCH   6   7
ATOM      7  C   UNL     1      85.204  33.860  24.405  1.00  0.00    -0.028 C 
ATOM      8  C   UNL     1      84.927  33.963  25.724  1.00  0.00    -0.070 CG0
ATOM      9  C   UNL     1      85.431  32.877  26.641  1.00  0.00     0.039 C 
ATOM     10  G   UNL     1      84.126  35.110  26.311  1.00  0.00     0.000 G0
ENDBRANCH   6   7
ENDBRANCH   5   6
ENDBRANCH   3   5
ENDBRANCH   1   3
BRANCH   1  11
ATOM     11  C   UNL     1      86.851  37.538  25.278  1.00  0.00     0.087 C 
BRANCH  11  12
ATOM     12  C   UNL     1      86.310  36.629  26.414  1.00  0.00     0.066 C 
BRANCH  12  13
ATOM     13  C   UNL     1      84.799  36.455  26.279  1.00  0.00     0.140 C 
ATOM     14  O   UNL     1      84.095  37.454  26.214  1.00  0.00    -0.299 OA
BRANCH  13  15
ATOM     15  C   UNL     1      84.112  35.104  26.319  1.00  0.00     0.106 CG0
ATOM     16  G   UNL     1      84.924  33.972  25.716  1.00  0.00     0.000 G0
ENDBRANCH  13  15
ENDBRANCH  12  13
BRANCH  12  17
ATOM     17  C   UNL     1      86.664  37.205  27.823  1.00  0.00    -0.006 C 
ATOM     18  C   UNL     1      86.810  36.088  28.871  1.00  0.00     0.008 C 
ATOM     19  C   UNL     1      87.962  38.035  27.802  1.00  0.00     0.008 C 
ENDBRANCH  12  17
ENDBRANCH  11  12
ENDBRANCH   1  11
TORSDOF 1
ENDMDL
MODEL 5
REMARK VINA RESULT:    -3.160      2.136      3.232
REMARK INTER + INTRA:          -5.169
REMARK INTER:                  -5.000
REMARK INTRA:                  -0.169
REMARK UNBOUND:                -0.346
REMARK SMILES CC1=CCC[C@@H](C)C(=O)C[C@@H](C(C)C)C(=O)C1
REMARK SMILES IDX 8 1 9 2 6 3 7 4 5 5 4 6 3 7 2 8 1 9 10 11 11 12 15 13 16 14
REMARK SMILES IDX 17 15 12 17 13 18 14 19
REMARK H PARENT
REMARK Flexibility Score: 70.00
ROOT
ATOM      1  C   UNL     1      87.130  37.515  25.471  1.00  0.00     0.136 C 
ATOM      2  O   UNL     1      88.064  38.262  25.726  1.00  0.00    -0.299 OA
ENDROOT
BRANCH   1   3
ATOM      3  C   UNL     1      86.963  36.967  24.070  1.00  0.00     0.053 C 
ATOM      4  C   UNL     1      85.484  37.025  23.674  1.00  0.00     0.016 C 
BRANCH   3   5
ATOM      5  C   UNL     1      87.493  35.519  23.937  1.00  0.00     0.015 C 
BRANCH   5   6
ATOM      6  C   UNL     1      86.397  34.446  24.012  1.00  0.00     0.028 C 
BRANCH   6   7
ATOM      7  C   UNL     1      86.802  33.309  24.919  1.00  0.00    -0.028 C 
ATOM      8  C   UNL     1      86.485  33.212  26.229  1.00  0.00    -0.070 CG0
ATOM      9  C   UNL     1      86.970  32.003  26.989  1.00  0.00     0.039 C 
ATOM     10  G   UNL     1      85.659  34.256  26.957  1.00  0.00     0.000 G0
ENDBRANCH   6   7
ENDBRANCH   5   6
ENDBRANCH   3   5
ENDBRANCH   1   3
BRANCH   1  11
ATOM     11  C   UNL     1      86.192  37.105  26.582  1.00  0.00     0.087 C 
BRANCH  11  12
ATOM     12  C   UNL     1      86.906  36.469  27.804  1.00  0.00     0.066 C 
BRANCH  12  13
ATOM     13  C   UNL     1      86.402  35.046  28.031  1.00  0.00     0.140 C 
ATOM     14  O   UNL     1      86.686  34.481  29.078  1.00  0.00    -0.299 OA
BRANCH  13  15
ATOM     15  C   UNL     1      85.645  34.256  26.980  1.00  0.00     0.106 CG0
ATOM     16  G   UNL     1      86.487  33.230  26.243  1.00  0.00     0.000 G0
ENDBRANCH  13  15
ENDBRANCH  12  13
BRANCH  12  17
ATOM     17  C   UNL     1      86.702  37.327  29.094  1.00  0.00    -0.006 C 
ATOM     18  C   UNL     1      87.717  38.481  29.173  1.00  0.00     0.008 C 
ATOM     19  C   UNL     1      85.280  37.912  29.184  1.00  0.00     0.008 C 
ENDBRANCH  12  17
ENDBRANCH  11  12
ENDBRANCH   1  11
TORSDOF 1
ENDMDL
MODEL 6
REMARK VINA RESULT:    -3.077      2.427      4.621
REMARK INTER + INTRA:          -5.041
REMARK INTER:                  -4.694
REMARK INTRA:                  -0.347
REMARK UNBOUND:                -0.346
REMARK SMILES CC1=CCC[C@@H](C)C(=O)C[C@@H](C(C)C)C(=O)C1
REMARK SMILES IDX 8 1 9 2 6 3 7 4 5 5 4 6 3 7 2 8 1 9 10 11 11 12 15 13 16 14
REMARK SMILES IDX 17 15 12 17 13 18 14 19
REMARK H PARENT
REMARK Flexibility Score: 70.00
ROOT
ATOM      1  C   UNL     1      86.813  37.847  29.104  1.00  0.00     0.136 C 
ATOM      2  O   UNL     1      87.594  38.779  29.230  1.00  0.00    -0.299 OA
ENDROOT
BRANCH   1   3
ATOM      3  C   UNL     1      85.523  37.832  29.896  1.00  0.00     0.053 C 
ATOM      4  C   UNL     1      85.309  39.203  30.546  1.00  0.00     0.016 C 
BRANCH   3   5
ATOM      5  C   UNL     1      85.505  36.723  30.974  1.00  0.00     0.015 C 
BRANCH   5   6
ATOM      6  C   UNL     1      84.423  35.656  30.751  1.00  0.00     0.028 C 
BRANCH   6   7
ATOM      7  C   UNL     1      85.014  34.267  30.738  1.00  0.00    -0.028 C 
ATOM      8  C   UNL     1      85.168  33.501  29.635  1.00  0.00    -0.070 CG0
ATOM      9  C   UNL     1      85.782  32.133  29.801  1.00  0.00     0.039 C 
ATOM     10  G   UNL     1      84.762  33.962  28.247  1.00  0.00     0.000 G0
ENDBRANCH   6   7
ENDBRANCH   5   6
ENDBRANCH   3   5
ENDBRANCH   1   3
BRANCH   1  11
ATOM     11  C   UNL     1      87.125  36.753  28.110  1.00  0.00     0.087 C 
BRANCH  11  12
ATOM     12  C   UNL     1      85.879  36.211  27.360  1.00  0.00     0.066 C 
BRANCH  12  13
ATOM     13  C   UNL     1      85.822  34.689  27.459  1.00  0.00     0.140 C 
ATOM     14  O   UNL     1      86.630  34.028  26.822  1.00  0.00    -0.299 OA
BRANCH  13  15
ATOM     15  C   UNL     1      84.749  33.947  28.232  1.00  0.00     0.106 CG0
ATOM     16  G   UNL     1      85.179  33.486  29.613  1.00  0.00     0.000 G0
ENDBRANCH  13  15
ENDBRANCH  12  13
BRANCH  12  17
ATOM     17  C   UNL     1      85.876  36.657  25.862  1.00  0.00    -0.006 C 
ATOM     18  C   UNL     1      84.631  37.495  25.524  1.00  0.00     0.008 C 
ATOM     19  C   UNL     1      87.133  37.468  25.495  1.00  0.00     0.008 C 
ENDBRANCH  12  17
ENDBRANCH  11  12
ENDBRANCH   1  11
TORSDOF 1
ENDMDL
MODEL 7
REMARK VINA RESULT:    -3.075      2.233      4.698
REMARK INTER + INTRA:          -5.038
REMARK INTER:                  -4.843
REMARK INTRA:                  -0.196
REMARK UNBOUND:                -0.346
REMARK SMILES CC1=CCC[C@@H](C)C(=O)C[C@@H](C(C)C)C(=O)C1
REMARK SMILES IDX 8 1 9 2 6 3 7 4 5 5 4 6 3 7 2 8 1 9 10 11 11 12 15 13 16 14
REMARK SMILES IDX 17 15 12 17 13 18 14 19
REMARK H PARENT
REMARK Flexibility Score: 70.00
ROOT
ATOM      1  C   UNL     1      87.405  37.662  27.418  1.00  0.00     0.136 C 
ATOM      2  O   UNL     1      87.833  38.309  28.363  1.00  0.00    -0.299 OA
ENDROOT
BRANCH   1   3
ATOM      3  C   UNL     1      88.135  37.689  26.092  1.00  0.00     0.053 C 
ATOM      4  C   UNL     1      89.004  38.949  26.015  1.00  0.00     0.016 C 
BRANCH   3   5
ATOM      5  C   UNL     1      87.169  37.635  24.885  1.00  0.00     0.015 C 
BRANCH   5   6
ATOM      6  C   UNL     1      87.413  36.444  23.946  1.00  0.00     0.028 C 
BRANCH   6   7
ATOM      7  C   UNL     1      86.122  35.745  23.596  1.00  0.00    -0.028 C 
ATOM      8  C   UNL     1      85.617  34.675  24.249  1.00  0.00    -0.070 CG0
ATOM      9  C   UNL     1      84.308  34.102  23.767  1.00  0.00     0.039 C 
ATOM     10  G   UNL     1      86.302  34.041  25.445  1.00  0.00     0.000 G0
ENDBRANCH   6   7
ENDBRANCH   5   6
ENDBRANCH   3   5
ENDBRANCH   1   3
BRANCH   1  11
ATOM     11  C   UNL     1      86.183  36.796  27.612  1.00  0.00     0.087 C 
BRANCH  11  12
ATOM     12  C   UNL     1      86.504  35.291  27.810  1.00  0.00     0.066 C 
BRANCH  12  13
ATOM     13  C   UNL     1      85.730  34.446  26.801  1.00  0.00     0.140 C 
ATOM     14  O   UNL     1      84.628  34.019  27.115  1.00  0.00    -0.299 OA
BRANCH  13  15
ATOM     15  C   UNL     1      86.299  34.026  25.460  1.00  0.00     0.106 CG0
ATOM     16  G   UNL     1      85.614  34.661  24.264  1.00  0.00     0.000 G0
ENDBRANCH  13  15
ENDBRANCH  12  13
BRANCH  12  17
ATOM     17  C   UNL     1      86.181  34.825  29.267  1.00  0.00    -0.006 C 
ATOM     18  C   UNL     1      87.391  34.135  29.922  1.00  0.00     0.008 C 
ATOM     19  C   UNL     1      85.733  35.994  30.164  1.00  0.00     0.008 C 
ENDBRANCH  12  17
ENDBRANCH  11  12
ENDBRANCH   1  11
TORSDOF 1
ENDMDL
MODEL 8
REMARK VINA RESULT:    -3.059      2.559      4.602
REMARK INTER + INTRA:          -5.015
REMARK INTER:                  -4.845
REMARK INTRA:                  -0.170
REMARK UNBOUND:                -0.346
REMARK SMILES CC1=CCC[C@@H](C)C(=O)C[C@@H](C(C)C)C(=O)C1
REMARK SMILES IDX 8 1 9 2 6 3 7 4 5 5 4 6 3 7 2 8 1 9 10 11 11 12 15 13 16 14
REMARK SMILES IDX 17 15 12 17 13 18 14 19
REMARK H PARENT
REMARK Flexibility Score: 70.00
ROOT
ATOM      1  C   UNL     1      87.141  37.367  27.827  1.00  0.00     0.136 C 
ATOM      2  O   UNL     1      87.993  38.186  27.513  1.00  0.00    -0.299 OA
ENDROOT
BRANCH   1   3
ATOM      3  C   UNL     1      86.764  37.191  29.282  1.00  0.00     0.053 C 
ATOM      4  C   UNL     1      86.249  35.765  29.506  1.00  0.00     0.016 C 
BRANCH   3   5
ATOM      5  C   UNL     1      85.704  38.219  29.745  1.00  0.00     0.015 C 
BRANCH   5   6
ATOM      6  C   UNL     1      84.260  37.700  29.669  1.00  0.00     0.028 C 
BRANCH   6   7
ATOM      7  C   UNL     1      83.394  38.609  28.830  1.00  0.00    -0.028 C 
ATOM      8  C   UNL     1      83.069  38.393  27.536  1.00  0.00    -0.070 CG0
ATOM      9  C   UNL     1      82.187  39.404  26.848  1.00  0.00     0.039 C 
ATOM     10  G   UNL     1      83.544  37.179  26.758  1.00  0.00     0.000 G0
ENDBRANCH   6   7
ENDBRANCH   5   6
ENDBRANCH   3   5
ENDBRANCH   1   3
BRANCH   1  11
ATOM     11  C   UNL     1      86.436  36.587  26.743  1.00  0.00     0.087 C 
BRANCH  11  12
ATOM     12  C   UNL     1      85.937  37.462  25.562  1.00  0.00     0.066 C 
BRANCH  12  13
ATOM     13  C   UNL     1      84.411  37.501  25.539  1.00  0.00     0.140 C 
ATOM     14  O   UNL     1      83.848  37.883  24.524  1.00  0.00    -0.299 OA
BRANCH  13  15
ATOM     15  C   UNL     1      83.555  37.182  26.750  1.00  0.00     0.106 CG0
ATOM     16  G   UNL     1      83.080  38.401  27.519  1.00  0.00     0.000 G0
ENDBRANCH  13  15
ENDBRANCH  12  13
BRANCH  12  17
ATOM     17  C   UNL     1      86.485  36.940  24.194  1.00  0.00    -0.006 C 
ATOM     18  C   UNL     1      87.981  37.262  24.024  1.00  0.00     0.008 C 
ATOM     19  C   UNL     1      86.284  35.422  24.028  1.00  0.00     0.008 C 
ENDBRANCH  12  17
ENDBRANCH  11  12
ENDBRANCH   1  11
TORSDOF 1
ENDMDL
MODEL 9
REMARK VINA RESULT:    -2.981      3.477      5.646
REMARK INTER + INTRA:          -4.896
REMARK INTER:                  -4.559
REMARK INTRA:                  -0.336
REMARK UNBOUND:                -0.346
REMARK SMILES CC1=CCC[C@@H](C)C(=O)C[C@@H](C(C)C)C(=O)C1
REMARK SMILES IDX 8 1 9 2 6 3 7 4 5 5 4 6 3 7 2 8 1 9 10 11 11 12 15 13 16 14
REMARK SMILES IDX 17 15 12 17 13 18 14 19
REMARK H PARENT
REMARK Flexibility Score: 70.00
ROOT
ATOM      1  C   UNL     1      85.882  35.998  23.242  1.00  0.00     0.136 C 
ATOM      2  O   UNL     1      86.775  35.386  22.673  1.00  0.00    -0.299 OA
ENDROOT
BRANCH   1   3
ATOM      3  C   UNL     1      86.205  36.861  24.443  1.00  0.00     0.053 C 
ATOM      4  C   UNL     1      87.597  37.476  24.267  1.00  0.00     0.016 C 
BRANCH   3   5
ATOM      5  C   UNL     1      86.135  36.072  25.772  1.00  0.00     0.015 C 
BRANCH   5   6
ATOM      6  C   UNL     1      84.705  35.835  26.280  1.00  0.00     0.028 C 
BRANCH   6   7
ATOM      7  C   UNL     1      83.978  37.138  26.504  1.00  0.00    -0.028 C 
ATOM      8  C   UNL     1      82.909  37.562  25.793  1.00  0.00    -0.070 CG0
ATOM      9  C   UNL     1      82.300  38.894  26.153  1.00  0.00     0.039 C 
ATOM     10  G   UNL     1      82.297  36.754  24.664  1.00  0.00     0.000 G0
ENDBRANCH   6   7
ENDBRANCH   5   6
ENDBRANCH   3   5
ENDBRANCH   1   3
BRANCH   1  11
ATOM     11  C   UNL     1      84.476  35.927  22.694  1.00  0.00     0.087 C 
BRANCH  11  12
ATOM     12  C   UNL     1      83.796  37.312  22.527  1.00  0.00     0.066 C 
BRANCH  12  13
ATOM     13  C   UNL     1      82.464  37.342  23.272  1.00  0.00     0.140 C 
ATOM     14  O   UNL     1      81.521  37.933  22.766  1.00  0.00    -0.299 OA
BRANCH  13  15
ATOM     15  C   UNL     1      82.275  36.756  24.658  1.00  0.00     0.106 CG0
ATOM     16  G   UNL     1      82.906  37.571  25.772  1.00  0.00     0.000 G0
ENDBRANCH  13  15
ENDBRANCH  12  13
BRANCH  12  17
ATOM     17  C   UNL     1      83.581  37.664  21.020  1.00  0.00    -0.006 C 
ATOM     18  C   UNL     1      84.132  39.061  20.680  1.00  0.00     0.008 C 
ATOM     19  C   UNL     1      84.237  36.633  20.082  1.00  0.00     0.008 C 
ENDBRANCH  12  17
ENDBRANCH  11  12
ENDBRANCH   1  11
TORSDOF 1
ENDMDL
