MODEL 1
REMARK VINA RESULT:    -5.016      0.000      0.000
REMARK INTER + INTRA:          -5.994
REMARK INTER:                  -5.895
REMARK INTRA:                  -0.099
REMARK UNBOUND:                -0.099
REMARK SMILES O=C([O-])C=Cc1ccc(O)c(O)c1
REMARK SMILES IDX 6 1 13 2 7 3 11 4 8 5 9 6 5 7 4 8 2 9 1 10 3 11 12 12 10 14
REMARK H PARENT 12 13 10 15
REMARK Flexibility Score: inf
ROOT
ATOM      1  C   UNL     1      32.138   7.952 -21.518  1.00  0.00    -0.022 A 
ATOM      2  C   UNL     1      30.987   7.529 -20.836  1.00  0.00     0.058 A 
ATOM      3  C   UNL     1      32.343   7.533 -22.843  1.00  0.00     0.012 A 
ATOM      4  C   UNL     1      30.026   6.739 -21.483  1.00  0.00     0.157 A 
ATOM      5  C   UNL     1      31.386   6.747 -23.490  1.00  0.00     0.051 A 
ATOM      6  C   UNL     1      30.226   6.350 -22.819  1.00  0.00     0.157 A 
ENDROOT
BRANCH   1   7
ATOM      7  C   UNL     1      33.159   8.738 -20.797  1.00  0.00     0.010 C 
ATOM      8  C   UNL     1      34.383   8.301 -20.463  1.00  0.00     0.025 C 
BRANCH   8   9
ATOM      9  C   UNL     1      34.993   7.037 -20.917  1.00  0.00     0.064 C 
ATOM     10  O   UNL     1      35.760   7.047 -21.914  1.00  0.00    -0.545 OA
ATOM     11  O   UNL     1      34.684   5.824 -20.312  1.00  0.00    -0.545 OA
ENDBRANCH   8   9
ENDBRANCH   1   7
BRANCH   4  12
ATOM     12  O   UNL     1      28.877   6.338 -20.803  1.00  0.00    -0.504 OA
ATOM     13  H   UNL     1      28.581   6.792 -19.946  1.00  0.00     0.293 HD
ENDBRANCH   4  12
BRANCH   6  14
ATOM     14  O   UNL     1      29.287   5.568 -23.490  1.00  0.00    -0.504 OA
ATOM     15  H   UNL     1      29.222   4.567 -23.351  1.00  0.00     0.293 HD
ENDBRANCH   6  14
TORSDOF 4
ENDMDL
MODEL 2
REMARK VINA RESULT:    -4.976     11.303     13.168
REMARK INTER + INTRA:          -5.948
REMARK INTER:                  -5.720
REMARK INTRA:                  -0.228
REMARK UNBOUND:                -0.099
REMARK SMILES O=C([O-])C=Cc1ccc(O)c(O)c1
REMARK SMILES IDX 6 1 13 2 7 3 11 4 8 5 9 6 5 7 4 8 2 9 1 10 3 11 12 12 10 14
REMARK H PARENT 12 13 10 15
REMARK Flexibility Score: inf
ROOT
ATOM      1  C   UNL     1      27.876   9.931 -34.216  1.00  0.00    -0.022 A 
ATOM      2  C   UNL     1      28.013  11.130 -33.500  1.00  0.00     0.058 A 
ATOM      3  C   UNL     1      27.545   8.753 -33.526  1.00  0.00     0.012 A 
ATOM      4  C   UNL     1      27.773  11.166 -32.119  1.00  0.00     0.157 A 
ATOM      5  C   UNL     1      27.304   8.787 -32.149  1.00  0.00     0.051 A 
ATOM      6  C   UNL     1      27.412   9.988 -31.442  1.00  0.00     0.157 A 
ENDROOT
BRANCH   1   7
ATOM      7  C   UNL     1      28.187   9.910 -35.659  1.00  0.00     0.010 C 
ATOM      8  C   UNL     1      29.418   9.843 -36.188  1.00  0.00     0.025 C 
BRANCH   8   9
ATOM      9  C   UNL     1      30.661   9.589 -35.434  1.00  0.00     0.064 C 
ATOM     10  O   UNL     1      31.166   8.437 -35.452  1.00  0.00    -0.545 OA
ATOM     11  O   UNL     1      31.245  10.574 -34.645  1.00  0.00    -0.545 OA
ENDBRANCH   8   9
ENDBRANCH   1   7
BRANCH   4  12
ATOM     12  O   UNL     1      27.894  12.365 -31.418  1.00  0.00    -0.504 OA
ATOM     13  H   UNL     1      27.727  12.416 -30.419  1.00  0.00     0.293 HD
ENDBRANCH   4  12
BRANCH   6  14
ATOM     14  O   UNL     1      27.164   9.992 -30.070  1.00  0.00    -0.504 OA
ATOM     15  H   UNL     1      26.441  10.568 -29.656  1.00  0.00     0.293 HD
ENDBRANCH   6  14
TORSDOF 4
ENDMDL
MODEL 3
REMARK VINA RESULT:    -4.923     12.206     13.391
REMARK INTER + INTRA:          -5.885
REMARK INTER:                  -5.609
REMARK INTRA:                  -0.276
REMARK UNBOUND:                -0.099
REMARK SMILES O=C([O-])C=Cc1ccc(O)c(O)c1
REMARK SMILES IDX 6 1 13 2 7 3 11 4 8 5 9 6 5 7 4 8 2 9 1 10 3 11 12 12 10 14
REMARK H PARENT 12 13 10 15
REMARK Flexibility Score: inf
ROOT
ATOM      1  C   UNL     1      28.433  12.019 -32.711  1.00  0.00    -0.022 A 
ATOM      2  C   UNL     1      27.822  10.883 -32.159  1.00  0.00     0.058 A 
ATOM      3  C   UNL     1      27.639  13.125 -33.059  1.00  0.00     0.012 A 
ATOM      4  C   UNL     1      26.443  10.867 -31.910  1.00  0.00     0.157 A 
ATOM      5  C   UNL     1      26.264  13.111 -32.811  1.00  0.00     0.051 A 
ATOM      6  C   UNL     1      25.661  11.989 -32.234  1.00  0.00     0.157 A 
ENDROOT
BRANCH   1   7
ATOM      7  C   UNL     1      29.879  11.990 -33.013  1.00  0.00     0.010 C 
ATOM      8  C   UNL     1      30.435  11.421 -34.092  1.00  0.00     0.025 C 
BRANCH   8   9
ATOM      9  C   UNL     1      29.700  10.892 -35.257  1.00  0.00     0.064 C 
ATOM     10  O   UNL     1      29.363  11.679 -36.180  1.00  0.00    -0.545 OA
ATOM     11  O   UNL     1      29.306   9.561 -35.323  1.00  0.00    -0.545 OA
ENDBRANCH   8   9
ENDBRANCH   1   7
BRANCH   4  12
ATOM     12  O   UNL     1      25.847   9.740 -31.346  1.00  0.00    -0.504 OA
ATOM     13  H   UNL     1      24.957   9.386 -31.679  1.00  0.00     0.293 HD
ENDBRANCH   4  12
BRANCH   6  14
ATOM     14  O   UNL     1      24.288  12.005 -31.996  1.00  0.00    -0.504 OA
ATOM     15  H   UNL     1      23.897  12.330 -31.120  1.00  0.00     0.293 HD
ENDBRANCH   6  14
TORSDOF 4
ENDMDL
MODEL 4
REMARK VINA RESULT:    -4.884      2.032      4.387
REMARK INTER + INTRA:          -5.839
REMARK INTER:                  -5.573
REMARK INTRA:                  -0.266
REMARK UNBOUND:                -0.099
REMARK SMILES O=C([O-])C=Cc1ccc(O)c(O)c1
REMARK SMILES IDX 6 1 13 2 7 3 11 4 8 5 9 6 5 7 4 8 2 9 1 10 3 11 12 12 10 14
REMARK H PARENT 12 13 10 15
REMARK Flexibility Score: inf
ROOT
ATOM      1  C   UNL     1      32.596   7.098 -23.213  1.00  0.00    -0.022 A 
ATOM      2  C   UNL     1      31.752   7.510 -22.169  1.00  0.00     0.058 A 
ATOM      3  C   UNL     1      33.988   7.135 -23.026  1.00  0.00     0.012 A 
ATOM      4  C   UNL     1      32.288   7.905 -20.936  1.00  0.00     0.157 A 
ATOM      5  C   UNL     1      34.523   7.529 -21.797  1.00  0.00     0.051 A 
ATOM      6  C   UNL     1      33.681   7.910 -20.748  1.00  0.00     0.157 A 
ENDROOT
BRANCH   1   7
ATOM      7  C   UNL     1      32.009   6.737 -24.519  1.00  0.00     0.010 C 
ATOM      8  C   UNL     1      31.599   5.510 -24.874  1.00  0.00     0.025 C 
BRANCH   8   9
ATOM      9  C   UNL     1      31.486   4.350 -23.969  1.00  0.00     0.064 C 
ATOM     10  O   UNL     1      30.362   4.055 -23.486  1.00  0.00    -0.545 OA
ATOM     11  O   UNL     1      32.604   3.621 -23.580  1.00  0.00    -0.545 OA
ENDBRANCH   8   9
ENDBRANCH   1   7
BRANCH   4  12
ATOM     12  O   UNL     1      31.442   8.296 -19.898  1.00  0.00    -0.504 OA
ATOM     13  H   UNL     1      31.166   7.651 -19.166  1.00  0.00     0.293 HD
ENDBRANCH   4  12
BRANCH   6  14
ATOM     14  O   UNL     1      34.243   8.296 -19.532  1.00  0.00    -0.504 OA
ATOM     15  H   UNL     1      33.835   8.034 -18.643  1.00  0.00     0.293 HD
ENDBRANCH   6  14
TORSDOF 4
ENDMDL
MODEL 5
REMARK VINA RESULT:    -4.881      0.805      1.889
REMARK INTER + INTRA:          -5.836
REMARK INTER:                  -5.755
REMARK INTRA:                  -0.081
REMARK UNBOUND:                -0.099
REMARK SMILES O=C([O-])C=Cc1ccc(O)c(O)c1
REMARK SMILES IDX 6 1 13 2 7 3 11 4 8 5 9 6 5 7 4 8 2 9 1 10 3 11 12 12 10 14
REMARK H PARENT 12 13 10 15
REMARK Flexibility Score: inf
ROOT
ATOM      1  C   UNL     1      31.911   7.848 -21.537  1.00  0.00    -0.022 A 
ATOM      2  C   UNL     1      32.068   7.461 -22.877  1.00  0.00     0.058 A 
ATOM      3  C   UNL     1      30.722   7.523 -20.863  1.00  0.00     0.012 A 
ATOM      4  C   UNL     1      31.073   6.714 -23.522  1.00  0.00     0.157 A 
ATOM      5  C   UNL     1      29.730   6.778 -21.505  1.00  0.00     0.051 A 
ATOM      6  C   UNL     1      29.900   6.367 -22.830  1.00  0.00     0.157 A 
ENDROOT
BRANCH   1   7
ATOM      7  C   UNL     1      32.951   8.680 -20.897  1.00  0.00     0.010 C 
ATOM      8  C   UNL     1      34.200   8.280 -20.614  1.00  0.00     0.025 C 
BRANCH   8   9
ATOM      9  C   UNL     1      34.815   7.015 -21.058  1.00  0.00     0.064 C 
ATOM     10  O   UNL     1      35.536   7.010 -22.090  1.00  0.00    -0.545 OA
ATOM     11  O   UNL     1      34.557   5.815 -20.406  1.00  0.00    -0.545 OA
ENDBRANCH   8   9
ENDBRANCH   1   7
BRANCH   4  12
ATOM     12  O   UNL     1      31.245   6.317 -24.848  1.00  0.00    -0.504 OA
ATOM     13  H   UNL     1      30.615   6.626 -25.581  1.00  0.00     0.293 HD
ENDBRANCH   4  12
BRANCH   6  14
ATOM     14  O   UNL     1      28.894   5.623 -23.444  1.00  0.00    -0.504 OA
ATOM     15  H   UNL     1      27.927   5.676 -23.147  1.00  0.00     0.293 HD
ENDBRANCH   6  14
TORSDOF 4
ENDMDL
MODEL 6
REMARK VINA RESULT:    -4.856      1.589      2.301
REMARK INTER + INTRA:          -5.807
REMARK INTER:                  -5.577
REMARK INTRA:                  -0.230
REMARK UNBOUND:                -0.099
REMARK SMILES O=C([O-])C=Cc1ccc(O)c(O)c1
REMARK SMILES IDX 6 1 13 2 7 3 11 4 8 5 9 6 5 7 4 8 2 9 1 10 3 11 12 12 10 14
REMARK H PARENT 12 13 10 15
REMARK Flexibility Score: inf
ROOT
ATOM      1  C   UNL     1      32.442   6.970 -22.896  1.00  0.00    -0.022 A 
ATOM      2  C   UNL     1      32.272   7.486 -21.602  1.00  0.00     0.058 A 
ATOM      3  C   UNL     1      31.396   6.243 -23.488  1.00  0.00     0.012 A 
ATOM      4  C   UNL     1      31.055   7.322 -20.925  1.00  0.00     0.157 A 
ATOM      5  C   UNL     1      30.182   6.079 -22.815  1.00  0.00     0.051 A 
ATOM      6  C   UNL     1      30.004   6.619 -21.538  1.00  0.00     0.157 A 
ENDROOT
BRANCH   1   7
ATOM      7  C   UNL     1      33.751   7.111 -23.565  1.00  0.00     0.010 C 
ATOM      8  C   UNL     1      34.860   6.423 -23.254  1.00  0.00     0.025 C 
BRANCH   8   9
ATOM      9  C   UNL     1      34.925   5.279 -22.325  1.00  0.00     0.064 C 
ATOM     10  O   UNL     1      35.489   5.424 -21.209  1.00  0.00    -0.545 OA
ATOM     11  O   UNL     1      34.443   4.026 -22.682  1.00  0.00    -0.545 OA
ENDBRANCH   8   9
ENDBRANCH   1   7
BRANCH   4  12
ATOM     12  O   UNL     1      30.889   7.853 -19.647  1.00  0.00    -0.504 OA
ATOM     13  H   UNL     1      30.510   7.299 -18.887  1.00  0.00     0.293 HD
ENDBRANCH   4  12
BRANCH   6  14
ATOM     14  O   UNL     1      28.781   6.442 -20.891  1.00  0.00    -0.504 OA
ATOM     15  H   UNL     1      27.997   5.984 -21.339  1.00  0.00     0.293 HD
ENDBRANCH   6  14
TORSDOF 4
ENDMDL
MODEL 7
REMARK VINA RESULT:    -4.799     11.148     12.644
REMARK INTER + INTRA:          -5.739
REMARK INTER:                  -5.450
REMARK INTRA:                  -0.289
REMARK UNBOUND:                -0.099
REMARK SMILES O=C([O-])C=Cc1ccc(O)c(O)c1
REMARK SMILES IDX 6 1 13 2 7 3 11 4 8 5 9 6 5 7 4 8 2 9 1 10 3 11 12 12 10 14
REMARK H PARENT 12 13 10 15
REMARK Flexibility Score: inf
ROOT
ATOM      1  C   UNL     1      27.321   9.531 -33.187  1.00  0.00    -0.022 A 
ATOM      2  C   UNL     1      27.168  10.707 -32.437  1.00  0.00     0.058 A 
ATOM      3  C   UNL     1      28.521   9.310 -33.882  1.00  0.00     0.012 A 
ATOM      4  C   UNL     1      28.220  11.629 -32.338  1.00  0.00     0.157 A 
ATOM      5  C   UNL     1      29.571  10.228 -33.784  1.00  0.00     0.051 A 
ATOM      6  C   UNL     1      29.429  11.385 -33.012  1.00  0.00     0.157 A 
ENDROOT
BRANCH   1   7
ATOM      7  C   UNL     1      26.179   8.603 -33.318  1.00  0.00     0.010 C 
ATOM      8  C   UNL     1      25.947   7.541 -32.532  1.00  0.00     0.025 C 
BRANCH   8   9
ATOM      9  C   UNL     1      26.676   7.221 -31.289  1.00  0.00     0.064 C 
ATOM     10  O   UNL     1      26.210   7.609 -30.187  1.00  0.00    -0.545 OA
ATOM     11  O   UNL     1      27.900   6.564 -31.315  1.00  0.00    -0.545 OA
ENDBRANCH   8   9
ENDBRANCH   1   7
BRANCH   4  12
ATOM     12  O   UNL     1      28.067  12.786 -31.575  1.00  0.00    -0.504 OA
ATOM     13  H   UNL     1      27.255  12.930 -30.985  1.00  0.00     0.293 HD
ENDBRANCH   4  12
BRANCH   6  14
ATOM     14  O   UNL     1      30.494  12.281 -32.930  1.00  0.00    -0.504 OA
ATOM     15  H   UNL     1      30.648  12.999 -33.628  1.00  0.00     0.293 HD
ENDBRANCH   6  14
TORSDOF 4
ENDMDL
MODEL 8
REMARK VINA RESULT:    -4.791     12.172     14.100
REMARK INTER + INTRA:          -5.730
REMARK INTER:                  -5.500
REMARK INTRA:                  -0.230
REMARK UNBOUND:                -0.099
REMARK SMILES O=C([O-])C=Cc1ccc(O)c(O)c1
REMARK SMILES IDX 6 1 13 2 7 3 11 4 8 5 9 6 5 7 4 8 2 9 1 10 3 11 12 12 10 14
REMARK H PARENT 12 13 10 15
REMARK Flexibility Score: inf
ROOT
ATOM      1  C   UNL     1      28.977  12.279 -33.753  1.00  0.00    -0.022 A 
ATOM      2  C   UNL     1      28.244  12.068 -34.931  1.00  0.00     0.058 A 
ATOM      3  C   UNL     1      30.194  11.601 -33.570  1.00  0.00     0.012 A 
ATOM      4  C   UNL     1      28.743  11.230 -35.938  1.00  0.00     0.157 A 
ATOM      5  C   UNL     1      30.692  10.766 -34.573  1.00  0.00     0.051 A 
ATOM      6  C   UNL     1      29.976  10.579 -35.759  1.00  0.00     0.157 A 
ENDROOT
BRANCH   1   7
ATOM      7  C   UNL     1      28.405  13.125 -32.686  1.00  0.00     0.010 C 
ATOM      8  C   UNL     1      27.391  12.777 -31.879  1.00  0.00     0.025 C 
BRANCH   8   9
ATOM      9  C   UNL     1      26.797  11.430 -31.784  1.00  0.00     0.064 C 
ATOM     10  O   UNL     1      25.647  11.231 -32.254  1.00  0.00    -0.545 OA
ATOM     11  O   UNL     1      27.447  10.395 -31.123  1.00  0.00    -0.545 OA
ENDBRANCH   8   9
ENDBRANCH   1   7
BRANCH   4  12
ATOM     12  O   UNL     1      28.017  11.040 -37.113  1.00  0.00    -0.504 OA
ATOM     13  H   UNL     1      27.896  11.785 -37.790  1.00  0.00     0.293 HD
ENDBRANCH   4  12
BRANCH   6  14
ATOM     14  O   UNL     1      30.499   9.742 -36.744  1.00  0.00    -0.504 OA
ATOM     15  H   UNL     1      31.272  10.023 -37.334  1.00  0.00     0.293 HD
ENDBRANCH   6  14
TORSDOF 4
ENDMDL
MODEL 9
REMARK VINA RESULT:    -4.775     11.657     12.941
REMARK INTER + INTRA:          -5.711
REMARK INTER:                  -5.426
REMARK INTRA:                  -0.285
REMARK UNBOUND:                -0.099
REMARK SMILES O=C([O-])C=Cc1ccc(O)c(O)c1
REMARK SMILES IDX 6 1 13 2 7 3 11 4 8 5 9 6 5 7 4 8 2 9 1 10 3 11 12 12 10 14
REMARK H PARENT 12 13 10 15
REMARK Flexibility Score: inf
ROOT
ATOM      1  C   UNL     1      27.072   9.087 -31.470  1.00  0.00    -0.022 A 
ATOM      2  C   UNL     1      27.177  10.448 -31.144  1.00  0.00     0.058 A 
ATOM      3  C   UNL     1      27.719   8.605 -32.620  1.00  0.00     0.012 A 
ATOM      4  C   UNL     1      27.959  11.309 -31.927  1.00  0.00     0.157 A 
ATOM      5  C   UNL     1      28.500   9.461 -33.401  1.00  0.00     0.051 A 
ATOM      6  C   UNL     1      28.627  10.811 -33.059  1.00  0.00     0.157 A 
ENDROOT
BRANCH   1   7
ATOM      7  C   UNL     1      26.200   8.213 -30.660  1.00  0.00     0.010 C 
ATOM      8  C   UNL     1      24.885   8.030 -30.857  1.00  0.00     0.025 C 
BRANCH   8   9
ATOM      9  C   UNL     1      24.120   8.513 -32.022  1.00  0.00     0.064 C 
ATOM     10  O   UNL     1      24.019   7.778 -33.039  1.00  0.00    -0.545 OA
ATOM     11  O   UNL     1      23.569   9.788 -32.050  1.00  0.00    -0.545 OA
ENDBRANCH   8   9
ENDBRANCH   1   7
BRANCH   4  12
ATOM     12  O   UNL     1      28.071  12.656 -31.586  1.00  0.00    -0.504 OA
ATOM     13  H   UNL     1      28.831  13.231 -31.934  1.00  0.00     0.293 HD
ENDBRANCH   4  12
BRANCH   6  14
ATOM     14  O   UNL     1      29.414  11.641 -33.855  1.00  0.00    -0.504 OA
ATOM     15  H   UNL     1      30.348  11.923 -33.581  1.00  0.00     0.293 HD
ENDBRANCH   6  14
TORSDOF 4
ENDMDL
