MODEL 1
REMARK VINA RESULT:    -4.834      0.000      0.000
REMARK INTER + INTRA:          -7.011
REMARK INTER:                  -6.529
REMARK INTRA:                  -0.481
REMARK UNBOUND:                -0.481
REMARK SMILES [NH3+]CCCC[C@@H]([NH3+])C(=O)[O-]
REMARK SMILES IDX 4 1 3 2 2 3 1 4 5 8 6 9 7 10 8 14 9 15 10 16
REMARK H PARENT 1 5 1 6 1 7 7 11 7 12 7 13
REMARK Flexibility Score: inf
ROOT
ATOM      1  C   UNL     1     -22.808   3.673  12.219  1.00  0.00     0.012 C 
ENDROOT
BRANCH   1   2
ATOM      2  C   UNL     1     -21.887   4.896  12.331  1.00  0.00     0.061 C 
BRANCH   2   3
ATOM      3  C   UNL     1     -22.585   6.103  12.980  1.00  0.00     0.258 C 
BRANCH   3   4
ATOM      4  N   UNL     1     -22.753   5.932  14.425  1.00  0.00    -0.358 N 
ATOM      5  H   UNL     1     -22.838   6.862  14.895  1.00  0.00     0.344 HD
ATOM      6  H   UNL     1     -23.596   5.349  14.628  1.00  0.00     0.344 HD
ATOM      7  H   UNL     1     -21.910   5.446  14.809  1.00  0.00     0.344 HD
ENDBRANCH   3   4
ENDBRANCH   2   3
ENDBRANCH   1   2
BRANCH   1   8
ATOM      8  C   UNL     1     -24.226   4.089  11.797  1.00  0.00     0.072 C 
BRANCH   8   9
ATOM      9  C   UNL     1     -25.317   3.371  12.621  1.00  0.00     0.227 C 
BRANCH   9  10
ATOM     10  N   UNL     1     -24.707   2.498  13.632  1.00  0.00    -0.350 N 
ATOM     11  H   UNL     1     -24.209   1.706  13.165  1.00  0.00     0.345 HD
ATOM     12  H   UNL     1     -25.436   2.114  14.277  1.00  0.00     0.345 HD
ATOM     13  H   UNL     1     -24.008   3.039  14.191  1.00  0.00     0.345 HD
ENDBRANCH   9  10
BRANCH   9  14
ATOM     14  C   UNL     1     -26.242   4.361  13.281  1.00  0.00     0.099 C 
ATOM     15  O   UNL     1     -27.470   4.377  12.995  1.00  0.00    -0.544 OA
ATOM     16  O   UNL     1     -25.745   5.258  14.219  1.00  0.00    -0.544 OA
ENDBRANCH   9  14
ENDBRANCH   8   9
ENDBRANCH   1   8
TORSDOF 7
ENDMDL
MODEL 2
REMARK VINA RESULT:    -4.819      2.424      3.149
REMARK INTER + INTRA:          -6.991
REMARK INTER:                  -6.471
REMARK INTRA:                  -0.521
REMARK UNBOUND:                -0.481
REMARK SMILES [NH3+]CCCC[C@@H]([NH3+])C(=O)[O-]
REMARK SMILES IDX 4 1 3 2 2 3 1 4 5 8 6 9 7 10 8 14 9 15 10 16
REMARK H PARENT 1 5 1 6 1 7 7 11 7 12 7 13
REMARK Flexibility Score: inf
ROOT
ATOM      1  C   UNL     1     -25.751   5.600  13.126  1.00  0.00     0.012 C 
ENDROOT
BRANCH   1   2
ATOM      2  C   UNL     1     -25.390   5.491  14.614  1.00  0.00     0.061 C 
BRANCH   2   3
ATOM      3  C   UNL     1     -24.423   6.598  15.070  1.00  0.00     0.258 C 
BRANCH   3   4
ATOM      4  N   UNL     1     -23.030   6.147  15.075  1.00  0.00    -0.358 N 
ATOM      5  H   UNL     1     -22.547   6.444  14.196  1.00  0.00     0.344 HD
ATOM      6  H   UNL     1     -22.526   6.526  15.907  1.00  0.00     0.344 HD
ATOM      7  H   UNL     1     -23.013   5.101  15.121  1.00  0.00     0.344 HD
ENDBRANCH   3   4
ENDBRANCH   2   3
ENDBRANCH   1   2
BRANCH   1   8
ATOM      8  C   UNL     1     -25.357   4.321  12.370  1.00  0.00     0.072 C 
BRANCH   8   9
ATOM      9  C   UNL     1     -24.387   3.436  13.182  1.00  0.00     0.227 C 
BRANCH   9  10
ATOM     10  N   UNL     1     -24.893   2.061  13.268  1.00  0.00    -0.350 N 
ATOM     11  H   UNL     1     -25.925   2.050  13.098  1.00  0.00     0.345 HD
ATOM     12  H   UNL     1     -24.695   1.652  14.211  1.00  0.00     0.345 HD
ATOM     13  H   UNL     1     -24.435   1.470  12.536  1.00  0.00     0.345 HD
ENDBRANCH   9  10
BRANCH   9  14
ATOM     14  C   UNL     1     -23.006   3.445  12.578  1.00  0.00     0.099 C 
ATOM     15  O   UNL     1     -22.513   2.390  12.097  1.00  0.00    -0.544 OA
ATOM     16  O   UNL     1     -22.272   4.624  12.541  1.00  0.00    -0.544 OA
ENDBRANCH   9  14
ENDBRANCH   8   9
ENDBRANCH   1   8
TORSDOF 7
ENDMDL
MODEL 3
REMARK VINA RESULT:    -4.810      1.685      1.997
REMARK INTER + INTRA:          -6.979
REMARK INTER:                  -6.814
REMARK INTRA:                  -0.164
REMARK UNBOUND:                -0.481
REMARK SMILES [NH3+]CCCC[C@@H]([NH3+])C(=O)[O-]
REMARK SMILES IDX 4 1 3 2 2 3 1 4 5 8 6 9 7 10 8 14 9 15 10 16
REMARK H PARENT 1 5 1 6 1 7 7 11 7 12 7 13
REMARK Flexibility Score: inf
ROOT
ATOM      1  C   UNL     1     -24.164   2.473  12.186  1.00  0.00     0.012 C 
ENDROOT
BRANCH   1   2
ATOM      2  C   UNL     1     -22.649   2.683  12.324  1.00  0.00     0.061 C 
BRANCH   2   3
ATOM      3  C   UNL     1     -22.266   4.169  12.427  1.00  0.00     0.258 C 
BRANCH   3   4
ATOM      4  N   UNL     1     -21.025   4.469  11.708  1.00  0.00    -0.358 N 
ATOM      5  H   UNL     1     -20.313   4.867  12.362  1.00  0.00     0.344 HD
ATOM      6  H   UNL     1     -20.650   3.608  11.250  1.00  0.00     0.344 HD
ATOM      7  H   UNL     1     -21.226   5.182  10.969  1.00  0.00     0.344 HD
ENDBRANCH   3   4
ENDBRANCH   2   3
ENDBRANCH   1   2
BRANCH   1   8
ATOM      8  C   UNL     1     -24.900   3.820  12.101  1.00  0.00     0.072 C 
BRANCH   8   9
ATOM      9  C   UNL     1     -25.892   4.020  13.266  1.00  0.00     0.227 C 
BRANCH   9  10
ATOM     10  N   UNL     1     -25.233   4.689  14.395  1.00  0.00    -0.350 N 
ATOM     11  H   UNL     1     -25.859   4.675  15.232  1.00  0.00     0.345 HD
ATOM     12  H   UNL     1     -25.002   5.680  14.153  1.00  0.00     0.345 HD
ATOM     13  H   UNL     1     -24.350   4.182  14.639  1.00  0.00     0.345 HD
ENDBRANCH   9  10
BRANCH   9  14
ATOM     14  C   UNL     1     -27.097   4.812  12.826  1.00  0.00     0.099 C 
ATOM     15  O   UNL     1     -28.232   4.266  12.763  1.00  0.00    -0.544 OA
ATOM     16  O   UNL     1     -26.963   6.155  12.497  1.00  0.00    -0.544 OA
ENDBRANCH   9  14
ENDBRANCH   8   9
ENDBRANCH   1   8
TORSDOF 7
ENDMDL
MODEL 4
REMARK VINA RESULT:    -4.795      1.471      1.731
REMARK INTER + INTRA:          -6.958
REMARK INTER:                  -6.431
REMARK INTRA:                  -0.527
REMARK UNBOUND:                -0.481
REMARK SMILES [NH3+]CCCC[C@@H]([NH3+])C(=O)[O-]
REMARK SMILES IDX 4 1 3 2 2 3 1 4 5 8 6 9 7 10 8 14 9 15 10 16
REMARK H PARENT 1 5 1 6 1 7 7 11 7 12 7 13
REMARK Flexibility Score: inf
ROOT
ATOM      1  C   UNL     1     -23.917   3.335  12.011  1.00  0.00     0.012 C 
ENDROOT
BRANCH   1   2
ATOM      2  C   UNL     1     -22.490   3.707  12.439  1.00  0.00     0.061 C 
BRANCH   2   3
ATOM      3  C   UNL     1     -22.200   5.210  12.285  1.00  0.00     0.258 C 
BRANCH   3   4
ATOM      4  N   UNL     1     -22.031   5.875  13.579  1.00  0.00    -0.358 N 
ATOM      5  H   UNL     1     -21.066   6.267  13.663  1.00  0.00     0.344 HD
ATOM      6  H   UNL     1     -22.739   6.636  13.694  1.00  0.00     0.344 HD
ATOM      7  H   UNL     1     -22.168   5.172  14.342  1.00  0.00     0.344 HD
ENDBRANCH   3   4
ENDBRANCH   2   3
ENDBRANCH   1   2
BRANCH   1   8
ATOM      8  C   UNL     1     -24.875   3.361  13.212  1.00  0.00     0.072 C 
BRANCH   8   9
ATOM      9  C   UNL     1     -26.022   4.376  13.024  1.00  0.00     0.227 C 
BRANCH   9  10
ATOM     10  N   UNL     1     -27.271   3.855  13.594  1.00  0.00    -0.350 N 
ATOM     11  H   UNL     1     -27.151   2.849  13.853  1.00  0.00     0.345 HD
ATOM     12  H   UNL     1     -28.056   3.943  12.908  1.00  0.00     0.345 HD
ATOM     13  H   UNL     1     -27.513   4.389  14.461  1.00  0.00     0.345 HD
ENDBRANCH   9  10
BRANCH   9  14
ATOM     14  C   UNL     1     -25.682   5.706  13.648  1.00  0.00     0.099 C 
ATOM     15  O   UNL     1     -26.162   6.773  13.180  1.00  0.00    -0.544 OA
ATOM     16  O   UNL     1     -24.841   5.759  14.752  1.00  0.00    -0.544 OA
ENDBRANCH   9  14
ENDBRANCH   8   9
ENDBRANCH   1   8
TORSDOF 7
ENDMDL
MODEL 5
REMARK VINA RESULT:    -4.619      2.370      3.781
REMARK INTER + INTRA:          -6.720
REMARK INTER:                  -6.233
REMARK INTRA:                  -0.487
REMARK UNBOUND:                -0.481
REMARK SMILES [NH3+]CCCC[C@@H]([NH3+])C(=O)[O-]
REMARK SMILES IDX 4 1 3 2 2 3 1 4 5 8 6 9 7 10 8 14 9 15 10 16
REMARK H PARENT 1 5 1 6 1 7 7 11 7 12 7 13
REMARK Flexibility Score: inf
ROOT
ATOM      1  C   UNL     1     -24.872   6.298  12.293  1.00  0.00     0.012 C 
ENDROOT
BRANCH   1   2
ATOM      2  C   UNL     1     -26.343   6.034  12.642  1.00  0.00     0.061 C 
BRANCH   2   3
ATOM      3  C   UNL     1     -26.504   5.177  13.909  1.00  0.00     0.258 C 
BRANCH   3   4
ATOM      4  N   UNL     1     -27.159   3.897  13.630  1.00  0.00    -0.358 N 
ATOM      5  H   UNL     1     -27.894   4.016  12.896  1.00  0.00     0.344 HD
ATOM      6  H   UNL     1     -26.457   3.186  13.322  1.00  0.00     0.344 HD
ATOM      7  H   UNL     1     -27.620   3.554  14.504  1.00  0.00     0.344 HD
ENDBRANCH   3   4
ENDBRANCH   2   3
ENDBRANCH   1   2
BRANCH   1   8
ATOM      8  C   UNL     1     -24.255   5.094  11.564  1.00  0.00     0.072 C 
BRANCH   8   9
ATOM      9  C   UNL     1     -23.082   4.471  12.352  1.00  0.00     0.227 C 
BRANCH   9  10
ATOM     10  N   UNL     1     -22.897   5.164  13.633  1.00  0.00    -0.350 N 
ATOM     11  H   UNL     1     -23.156   6.172  13.533  1.00  0.00     0.345 HD
ATOM     12  H   UNL     1     -21.902   5.094  13.950  1.00  0.00     0.345 HD
ATOM     13  H   UNL     1     -23.517   4.737  14.359  1.00  0.00     0.345 HD
ENDBRANCH   9  10
BRANCH   9  14
ATOM     14  C   UNL     1     -23.304   2.998  12.586  1.00  0.00     0.099 C 
ATOM     15  O   UNL     1     -22.453   2.154  12.197  1.00  0.00    -0.544 OA
ATOM     16  O   UNL     1     -24.449   2.564  13.243  1.00  0.00    -0.544 OA
ENDBRANCH   9  14
ENDBRANCH   8   9
ENDBRANCH   1   8
TORSDOF 7
ENDMDL
MODEL 6
REMARK VINA RESULT:    -4.617      2.361      3.718
REMARK INTER + INTRA:          -6.717
REMARK INTER:                  -6.536
REMARK INTRA:                  -0.181
REMARK UNBOUND:                -0.481
REMARK SMILES [NH3+]CCCC[C@@H]([NH3+])C(=O)[O-]
REMARK SMILES IDX 4 1 3 2 2 3 1 4 5 8 6 9 7 10 8 14 9 15 10 16
REMARK H PARENT 1 5 1 6 1 7 7 11 7 12 7 13
REMARK Flexibility Score: inf
ROOT
ATOM      1  C   UNL     1     -25.498   5.023  12.819  1.00  0.00     0.012 C 
ENDROOT
BRANCH   1   2
ATOM      2  C   UNL     1     -24.417   4.349  11.963  1.00  0.00     0.061 C 
BRANCH   2   3
ATOM      3  C   UNL     1     -24.321   2.835  12.218  1.00  0.00     0.258 C 
BRANCH   3   4
ATOM      4  N   UNL     1     -24.239   2.520  13.645  1.00  0.00    -0.358 N 
ATOM      5  H   UNL     1     -24.477   3.361  14.219  1.00  0.00     0.344 HD
ATOM      6  H   UNL     1     -24.881   1.730  13.883  1.00  0.00     0.344 HD
ATOM      7  H   UNL     1     -23.258   2.234  13.873  1.00  0.00     0.344 HD
ENDBRANCH   3   4
ENDBRANCH   2   3
ENDBRANCH   1   2
BRANCH   1   8
ATOM      8  C   UNL     1     -24.972   6.324  13.444  1.00  0.00     0.072 C 
BRANCH   8   9
ATOM      9  C   UNL     1     -24.591   6.148  14.930  1.00  0.00     0.227 C 
BRANCH   9  10
ATOM     10  N   UNL     1     -23.132   6.120  15.089  1.00  0.00    -0.350 N 
ATOM     11  H   UNL     1     -22.821   6.941  15.657  1.00  0.00     0.345 HD
ATOM     12  H   UNL     1     -22.659   6.148  14.156  1.00  0.00     0.345 HD
ATOM     13  H   UNL     1     -22.847   5.248  15.590  1.00  0.00     0.345 HD
ENDBRANCH   9  10
BRANCH   9  14
ATOM     14  C   UNL     1     -25.185   7.243  15.779  1.00  0.00     0.099 C 
ATOM     15  O   UNL     1     -25.604   6.994  16.941  1.00  0.00    -0.544 OA
ATOM     16  O   UNL     1     -25.265   8.539  15.284  1.00  0.00    -0.544 OA
ENDBRANCH   9  14
ENDBRANCH   8   9
ENDBRANCH   1   8
TORSDOF 7
ENDMDL
MODEL 7
REMARK VINA RESULT:    -4.600      1.279      3.012
REMARK INTER + INTRA:          -6.695
REMARK INTER:                  -6.188
REMARK INTRA:                  -0.507
REMARK UNBOUND:                -0.481
REMARK SMILES [NH3+]CCCC[C@@H]([NH3+])C(=O)[O-]
REMARK SMILES IDX 4 1 3 2 2 3 1 4 5 8 6 9 7 10 8 14 9 15 10 16
REMARK H PARENT 1 5 1 6 1 7 7 11 7 12 7 13
REMARK Flexibility Score: inf
ROOT
ATOM      1  C   UNL     1     -22.836   4.782  11.816  1.00  0.00     0.012 C 
ENDROOT
BRANCH   1   2
ATOM      2  C   UNL     1     -22.787   3.428  12.539  1.00  0.00     0.061 C 
BRANCH   2   3
ATOM      3  C   UNL     1     -23.974   2.520  12.173  1.00  0.00     0.258 C 
BRANCH   3   4
ATOM      4  N   UNL     1     -24.796   2.190  13.338  1.00  0.00    -0.358 N 
ATOM      5  H   UNL     1     -24.739   2.952  14.052  1.00  0.00     0.344 HD
ATOM      6  H   UNL     1     -25.791   2.039  13.054  1.00  0.00     0.344 HD
ATOM      7  H   UNL     1     -24.434   1.308  13.770  1.00  0.00     0.344 HD
ENDBRANCH   3   4
ENDBRANCH   2   3
ENDBRANCH   1   2
BRANCH   1   8
ATOM      8  C   UNL     1     -22.876   5.941  12.824  1.00  0.00     0.072 C 
BRANCH   8   9
ATOM      9  C   UNL     1     -23.716   5.602  14.073  1.00  0.00     0.227 C 
BRANCH   9  10
ATOM     10  N   UNL     1     -23.192   6.303  15.252  1.00  0.00    -0.350 N 
ATOM     11  H   UNL     1     -22.530   7.056  14.954  1.00  0.00     0.345 HD
ATOM     12  H   UNL     1     -22.693   5.637  15.887  1.00  0.00     0.345 HD
ATOM     13  H   UNL     1     -23.979   6.750  15.777  1.00  0.00     0.345 HD
ENDBRANCH   9  10
BRANCH   9  14
ATOM     14  C   UNL     1     -25.168   5.951  13.865  1.00  0.00     0.099 C 
ATOM     15  O   UNL     1     -25.512   7.140  13.628  1.00  0.00    -0.544 OA
ATOM     16  O   UNL     1     -26.136   4.956  13.925  1.00  0.00    -0.544 OA
ENDBRANCH   9  14
ENDBRANCH   8   9
ENDBRANCH   1   8
TORSDOF 7
ENDMDL
MODEL 8
REMARK VINA RESULT:    -4.592      3.524      4.515
REMARK INTER + INTRA:          -6.684
REMARK INTER:                  -6.242
REMARK INTRA:                  -0.442
REMARK UNBOUND:                -0.481
REMARK SMILES [NH3+]CCCC[C@@H]([NH3+])C(=O)[O-]
REMARK SMILES IDX 4 1 3 2 2 3 1 4 5 8 6 9 7 10 8 14 9 15 10 16
REMARK H PARENT 1 5 1 6 1 7 7 11 7 12 7 13
REMARK Flexibility Score: inf
ROOT
ATOM      1  C   UNL     1     -26.208   7.809  10.953  1.00  0.00     0.012 C 
ENDROOT
BRANCH   1   2
ATOM      2  C   UNL     1     -27.358   8.262  11.864  1.00  0.00     0.061 C 
BRANCH   2   3
ATOM      3  C   UNL     1     -28.719   7.700  11.420  1.00  0.00     0.258 C 
BRANCH   3   4
ATOM      4  N   UNL     1     -29.337   6.868  12.454  1.00  0.00    -0.358 N 
ATOM      5  H   UNL     1     -29.561   7.442  13.299  1.00  0.00     0.344 HD
ATOM      6  H   UNL     1     -30.205   6.414  12.089  1.00  0.00     0.344 HD
ATOM      7  H   UNL     1     -28.661   6.120  12.736  1.00  0.00     0.344 HD
ENDBRANCH   3   4
ENDBRANCH   2   3
ENDBRANCH   1   2
BRANCH   1   8
ATOM      8  C   UNL     1     -25.087   7.148  11.771  1.00  0.00     0.072 C 
BRANCH   8   9
ATOM      9  C   UNL     1     -25.030   5.620  11.559  1.00  0.00     0.227 C 
BRANCH   9  10
ATOM     10  N   UNL     1     -23.643   5.178  11.369  1.00  0.00    -0.350 N 
ATOM     11  H   UNL     1     -23.342   4.592  12.182  1.00  0.00     0.345 HD
ATOM     12  H   UNL     1     -23.002   6.000  11.281  1.00  0.00     0.345 HD
ATOM     13  H   UNL     1     -23.573   4.595  10.503  1.00  0.00     0.345 HD
ENDBRANCH   9  10
BRANCH   9  14
ATOM     14  C   UNL     1     -25.656   4.885  12.717  1.00  0.00     0.099 C 
ATOM     15  O   UNL     1     -24.933   4.354  13.602  1.00  0.00    -0.544 OA
ATOM     16  O   UNL     1     -27.039   4.799  12.818  1.00  0.00    -0.544 OA
ENDBRANCH   9  14
ENDBRANCH   8   9
ENDBRANCH   1   8
TORSDOF 7
ENDMDL
MODEL 9
REMARK VINA RESULT:    -4.569      2.551      4.513
REMARK INTER + INTRA:          -6.653
REMARK INTER:                  -6.499
REMARK INTRA:                  -0.154
REMARK UNBOUND:                -0.481
REMARK SMILES [NH3+]CCCC[C@@H]([NH3+])C(=O)[O-]
REMARK SMILES IDX 4 1 3 2 2 3 1 4 5 8 6 9 7 10 8 14 9 15 10 16
REMARK H PARENT 1 5 1 6 1 7 7 11 7 12 7 13
REMARK Flexibility Score: inf
ROOT
ATOM      1  C   UNL     1     -26.182   5.630  12.911  1.00  0.00     0.012 C 
ENDROOT
BRANCH   1   2
ATOM      2  C   UNL     1     -27.157   4.446  12.831  1.00  0.00     0.061 C 
BRANCH   2   3
ATOM      3  C   UNL     1     -28.588   4.832  13.242  1.00  0.00     0.258 C 
BRANCH   3   4
ATOM      4  N   UNL     1     -28.883   4.462  14.628  1.00  0.00    -0.358 N 
ATOM      5  H   UNL     1     -29.812   3.986  14.688  1.00  0.00     0.344 HD
ATOM      6  H   UNL     1     -28.135   3.838  15.007  1.00  0.00     0.344 HD
ATOM      7  H   UNL     1     -28.921   5.330  15.210  1.00  0.00     0.344 HD
ENDBRANCH   3   4
ENDBRANCH   2   3
ENDBRANCH   1   2
BRANCH   1   8
ATOM      8  C   UNL     1     -25.269   5.508  14.141  1.00  0.00     0.072 C 
BRANCH   8   9
ATOM      9  C   UNL     1     -23.826   5.970  13.847  1.00  0.00     0.227 C 
BRANCH   9  10
ATOM     10  N   UNL     1     -23.067   6.117  15.096  1.00  0.00    -0.350 N 
ATOM     11  H   UNL     1     -22.431   6.944  15.030  1.00  0.00     0.345 HD
ATOM     12  H   UNL     1     -22.499   5.259  15.285  1.00  0.00     0.345 HD
ATOM     13  H   UNL     1     -23.726   6.273  15.893  1.00  0.00     0.345 HD
ENDBRANCH   9  10
BRANCH   9  14
ATOM     14  C   UNL     1     -23.123   5.008  12.923  1.00  0.00     0.099 C 
ATOM     15  O   UNL     1     -23.319   3.767  13.023  1.00  0.00    -0.544 OA
ATOM     16  O   UNL     1     -22.260   5.489  11.946  1.00  0.00    -0.544 OA
ENDBRANCH   9  14
ENDBRANCH   8   9
ENDBRANCH   1   8
TORSDOF 7
ENDMDL
