MODEL 1
REMARK VINA RESULT:    -3.434      0.000      0.000
REMARK INTER + INTRA:          -4.074
REMARK INTER:                  -4.036
REMARK INTRA:                  -0.038
REMARK UNBOUND:                -0.038
REMARK SMILES CCCCC(=O)[O-]
REMARK SMILES IDX 4 1 5 2 6 3 7 4 3 5 2 6 1 7
REMARK H PARENT
REMARK Flexibility Score: inf
ROOT
ATOM      1  C   UNL     1      75.001 -37.842  11.631  1.00  0.00     0.053 C 
ENDROOT
BRANCH   1   2
ATOM      2  C   UNL     1      76.357 -37.207  11.579  1.00  0.00     0.041 C 
ATOM      3  O   UNL     1      76.480 -36.001  11.240  1.00  0.00    -0.550 OA
ATOM      4  O   UNL     1      77.487 -37.958  11.877  1.00  0.00    -0.550 OA
ENDBRANCH   1   2
BRANCH   1   5
ATOM      5  C   UNL     1      74.118 -37.390  10.462  1.00  0.00     0.006 C 
BRANCH   5   6
ATOM      6  C   UNL     1      72.670 -37.123  10.896  1.00  0.00    -0.003 C 
ATOM      7  C   UNL     1      72.067 -38.344  11.585  1.00  0.00     0.004 C 
ENDBRANCH   5   6
ENDBRANCH   1   5
TORSDOF 3
ENDMDL
MODEL 2
REMARK VINA RESULT:    -3.311     14.306     15.482
REMARK INTER + INTRA:          -3.929
REMARK INTER:                  -3.888
REMARK INTRA:                  -0.041
REMARK UNBOUND:                -0.038
REMARK SMILES CCCCC(=O)[O-]
REMARK SMILES IDX 4 1 5 2 6 3 7 4 3 5 2 6 1 7
REMARK H PARENT
REMARK Flexibility Score: inf
ROOT
ATOM      1  C   UNL     1      63.161 -28.849  13.872  1.00  0.00     0.053 C 
ENDROOT
BRANCH   1   2
ATOM      2  C   UNL     1      62.843 -30.302  14.051  1.00  0.00     0.041 C 
ATOM      3  O   UNL     1      63.051 -31.117  13.114  1.00  0.00    -0.550 OA
ATOM      4  O   UNL     1      62.288 -30.751  15.244  1.00  0.00    -0.550 OA
ENDBRANCH   1   2
BRANCH   1   5
ATOM      5  C   UNL     1      62.317 -27.966  14.799  1.00  0.00     0.006 C 
BRANCH   5   6
ATOM      6  C   UNL     1      62.194 -26.527  14.277  1.00  0.00    -0.003 C 
ATOM      7  C   UNL     1      62.583 -26.441  12.804  1.00  0.00     0.004 C 
ENDBRANCH   5   6
ENDBRANCH   1   5
TORSDOF 3
ENDMDL
MODEL 3
REMARK VINA RESULT:    -3.268      0.987      1.727
REMARK INTER + INTRA:          -3.879
REMARK INTER:                  -3.833
REMARK INTRA:                  -0.046
REMARK UNBOUND:                -0.038
REMARK SMILES CCCCC(=O)[O-]
REMARK SMILES IDX 4 1 5 2 6 3 7 4 3 5 2 6 1 7
REMARK H PARENT
REMARK Flexibility Score: inf
ROOT
ATOM      1  C   UNL     1      74.222 -37.438  10.523  1.00  0.00     0.053 C 
ENDROOT
BRANCH   1   2
ATOM      2  C   UNL     1      75.417 -37.356  11.423  1.00  0.00     0.041 C 
ATOM      3  O   UNL     1      75.588 -38.211  12.331  1.00  0.00    -0.550 OA
ATOM      4  O   UNL     1      76.325 -36.314  11.278  1.00  0.00    -0.550 OA
ENDBRANCH   1   2
BRANCH   1   5
ATOM      5  C   UNL     1      72.925 -37.100  11.269  1.00  0.00     0.006 C 
BRANCH   5   6
ATOM      6  C   UNL     1      72.115 -38.355  11.625  1.00  0.00    -0.003 C 
ATOM      7  C   UNL     1      70.852 -38.454  10.776  1.00  0.00     0.004 C 
ENDBRANCH   5   6
ENDBRANCH   1   5
TORSDOF 3
ENDMDL
MODEL 4
REMARK VINA RESULT:    -3.068      6.952      7.942
REMARK INTER + INTRA:          -3.644
REMARK INTER:                  -3.543
REMARK INTRA:                  -0.101
REMARK UNBOUND:                -0.038
REMARK SMILES CCCCC(=O)[O-]
REMARK SMILES IDX 4 1 5 2 6 3 7 4 3 5 2 6 1 7
REMARK H PARENT
REMARK Flexibility Score: inf
ROOT
ATOM      1  C   UNL     1      69.858 -33.192   6.769  1.00  0.00     0.053 C 
ENDROOT
BRANCH   1   2
ATOM      2  C   UNL     1      69.428 -34.506   7.347  1.00  0.00     0.041 C 
ATOM      3  O   UNL     1      68.223 -34.699   7.655  1.00  0.00    -0.550 OA
ATOM      4  O   UNL     1      70.367 -35.505   7.573  1.00  0.00    -0.550 OA
ENDBRANCH   1   2
BRANCH   1   5
ATOM      5  C   UNL     1      71.372 -32.983   6.897  1.00  0.00     0.006 C 
BRANCH   5   6
ATOM      6  C   UNL     1      72.094 -33.121   5.549  1.00  0.00    -0.003 C 
ATOM      7  C   UNL     1      73.162 -34.209   5.606  1.00  0.00     0.004 C 
ENDBRANCH   5   6
ENDBRANCH   1   5
TORSDOF 3
ENDMDL
MODEL 5
REMARK VINA RESULT:    -3.042      3.351      4.612
REMARK INTER + INTRA:          -3.614
REMARK INTER:                  -3.596
REMARK INTRA:                  -0.018
REMARK UNBOUND:                -0.038
REMARK SMILES CCCCC(=O)[O-]
REMARK SMILES IDX 4 1 5 2 6 3 7 4 3 5 2 6 1 7
REMARK H PARENT
REMARK Flexibility Score: inf
ROOT
ATOM      1  C   UNL     1      72.578 -38.088  11.666  1.00  0.00     0.053 C 
ENDROOT
BRANCH   1   2
ATOM      2  C   UNL     1      71.337 -38.074  10.826  1.00  0.00     0.041 C 
ATOM      3  O   UNL     1      70.434 -38.930  11.014  1.00  0.00    -0.550 OA
ATOM      4  O   UNL     1      71.194 -37.132   9.814  1.00  0.00    -0.550 OA
ENDBRANCH   1   2
BRANCH   1   5
ATOM      5  C   UNL     1      73.773 -37.477  10.924  1.00  0.00     0.006 C 
BRANCH   5   6
ATOM      6  C   UNL     1      75.111 -37.828  11.589  1.00  0.00    -0.003 C 
ATOM      7  C   UNL     1      76.186 -36.804  11.237  1.00  0.00     0.004 C 
ENDBRANCH   5   6
ENDBRANCH   1   5
TORSDOF 3
ENDMDL
MODEL 6
REMARK VINA RESULT:    -2.990     15.633     16.218
REMARK INTER + INTRA:          -3.552
REMARK INTER:                  -3.520
REMARK INTRA:                  -0.031
REMARK UNBOUND:                -0.038
REMARK SMILES CCCCC(=O)[O-]
REMARK SMILES IDX 4 1 5 2 6 3 7 4 3 5 2 6 1 7
REMARK H PARENT
REMARK Flexibility Score: inf
ROOT
ATOM      1  C   UNL     1      61.636 -28.251  15.837  1.00  0.00     0.053 C 
ENDROOT
BRANCH   1   2
ATOM      2  C   UNL     1      62.274 -29.520  16.314  1.00  0.00     0.041 C 
ATOM      3  O   UNL     1      62.287 -30.540  15.577  1.00  0.00    -0.550 OA
ATOM      4  O   UNL     1      62.828 -29.583  17.587  1.00  0.00    -0.550 OA
ENDBRANCH   1   2
BRANCH   1   5
ATOM      5  C   UNL     1      61.869 -28.028  14.338  1.00  0.00     0.006 C 
BRANCH   5   6
ATOM      6  C   UNL     1      62.801 -26.838  14.066  1.00  0.00    -0.003 C 
ATOM      7  C   UNL     1      62.518 -26.220  12.700  1.00  0.00     0.004 C 
ENDBRANCH   5   6
ENDBRANCH   1   5
TORSDOF 3
ENDMDL
MODEL 7
REMARK VINA RESULT:    -2.945     11.278     11.613
REMARK INTER + INTRA:          -3.500
REMARK INTER:                  -3.403
REMARK INTRA:                  -0.096
REMARK UNBOUND:                -0.038
REMARK SMILES CCCCC(=O)[O-]
REMARK SMILES IDX 4 1 5 2 6 3 7 4 3 5 2 6 1 7
REMARK H PARENT
REMARK Flexibility Score: inf
ROOT
ATOM      1  C   UNL     1      74.993 -33.654  22.696  1.00  0.00     0.053 C 
ENDROOT
BRANCH   1   2
ATOM      2  C   UNL     1      73.964 -32.867  21.943  1.00  0.00     0.041 C 
ATOM      3  O   UNL     1      74.293 -32.205  20.924  1.00  0.00    -0.550 OA
ATOM      4  O   UNL     1      72.647 -32.841  22.387  1.00  0.00    -0.550 OA
ENDBRANCH   1   2
BRANCH   1   5
ATOM      5  C   UNL     1      75.071 -35.104  22.204  1.00  0.00     0.006 C 
BRANCH   5   6
ATOM      6  C   UNL     1      74.003 -35.997  22.853  1.00  0.00    -0.003 C 
ATOM      7  C   UNL     1      72.991 -36.482  21.820  1.00  0.00     0.004 C 
ENDBRANCH   5   6
ENDBRANCH   1   5
TORSDOF 3
ENDMDL
MODEL 8
REMARK VINA RESULT:    -2.936      5.846      6.693
REMARK INTER + INTRA:          -3.489
REMARK INTER:                  -3.370
REMARK INTRA:                  -0.119
REMARK UNBOUND:                -0.038
REMARK SMILES CCCCC(=O)[O-]
REMARK SMILES IDX 4 1 5 2 6 3 7 4 3 5 2 6 1 7
REMARK H PARENT
REMARK Flexibility Score: inf
ROOT
ATOM      1  C   UNL     1      72.525 -33.576   6.209  1.00  0.00     0.053 C 
ENDROOT
BRANCH   1   2
ATOM      2  C   UNL     1      72.684 -35.022   6.568  1.00  0.00     0.041 C 
ATOM      3  O   UNL     1      72.701 -35.901   5.667  1.00  0.00    -0.550 OA
ATOM      4  O   UNL     1      72.783 -35.400   7.901  1.00  0.00    -0.550 OA
ENDBRANCH   1   2
BRANCH   1   5
ATOM      5  C   UNL     1      71.362 -32.927   6.970  1.00  0.00     0.006 C 
BRANCH   5   6
ATOM      6  C   UNL     1      69.999 -33.277   6.356  1.00  0.00    -0.003 C 
ATOM      7  C   UNL     1      69.170 -34.133   7.309  1.00  0.00     0.004 C 
ENDBRANCH   5   6
ENDBRANCH   1   5
TORSDOF 3
ENDMDL
MODEL 9
REMARK VINA RESULT:    -2.904     11.754     12.016
REMARK INTER + INTRA:          -3.451
REMARK INTER:                  -3.402
REMARK INTRA:                  -0.049
REMARK UNBOUND:                -0.038
REMARK SMILES CCCCC(=O)[O-]
REMARK SMILES IDX 4 1 5 2 6 3 7 4 3 5 2 6 1 7
REMARK H PARENT
REMARK Flexibility Score: inf
ROOT
ATOM      1  C   UNL     1      75.118 -33.909  22.173  1.00  0.00     0.053 C 
ENDROOT
BRANCH   1   2
ATOM      2  C   UNL     1      75.990 -33.215  23.174  1.00  0.00     0.041 C 
ATOM      3  O   UNL     1      77.039 -32.627  22.803  1.00  0.00    -0.550 OA
ATOM      4  O   UNL     1      75.659 -33.246  24.523  1.00  0.00    -0.550 OA
ENDBRANCH   1   2
BRANCH   1   5
ATOM      5  C   UNL     1      75.170 -35.433  22.333  1.00  0.00     0.006 C 
BRANCH   5   6
ATOM      6  C   UNL     1      73.874 -35.999  22.931  1.00  0.00    -0.003 C 
ATOM      7  C   UNL     1      72.928 -36.483  21.836  1.00  0.00     0.004 C 
ENDBRANCH   5   6
ENDBRANCH   1   5
TORSDOF 3
ENDMDL
