MODEL 1
REMARK VINA RESULT:    -5.677      0.000      0.000
REMARK INTER + INTRA:          -9.261
REMARK INTER:                  -7.668
REMARK INTRA:                  -1.593
REMARK UNBOUND:                -1.593
REMARK SMILES CC[C@H](CC[C@H](C)[C@H]1CC[C@@H]2[C@H]3CC(=O)C4=CC(=O)CC[C@@]4(C)[C@H]3CC[C@]21C)C(C)C
REMARK SMILES IDX 4 1 3 2 2 3 1 4 29 5 30 6 31 7 5 8 6 9 7 10 8 11 9 12 27 13
REMARK SMILES IDX 10 14 11 15 26 16 28 17 12 18 25 19 24 20 13 21 22 22 14 23
REMARK SMILES IDX 16 24 21 25 23 26 15 27 17 28 20 29 18 30 19 31
REMARK H PARENT
REMARK Flexibility Score: inf
ROOT
ATOM      1  C   UNL     1      67.382  66.087  31.385  1.00  0.00     0.004 C 
ENDROOT
BRANCH   1   2
ATOM      2  C   UNL     1      67.975  66.638  30.052  1.00  0.00    -0.009 C 
BRANCH   2   3
ATOM      3  C   UNL     1      66.919  66.587  28.901  1.00  0.00     0.000 C 
ATOM      4  C   UNL     1      67.313  67.344  27.627  1.00  0.00     0.004 C 
ENDBRANCH   2   3
BRANCH   2   5
ATOM      5  C   UNL     1      68.631  68.055  30.239  1.00  0.00    -0.014 C 
ATOM      6  C   UNL     1      70.164  67.985  30.402  1.00  0.00     0.007 C 
ATOM      7  C   UNL     1      68.059  68.795  31.470  1.00  0.00     0.007 C 
ENDBRANCH   2   5
ENDBRANCH   1   2
BRANCH   1   8
ATOM      8  C   UNL     1      68.377  65.198  32.164  1.00  0.00     0.004 C 
BRANCH   8   9
ATOM      9  C   UNL     1      68.366  65.451  33.699  1.00  0.00    -0.011 C 
ATOM     10  C   UNL     1      67.258  66.461  34.071  1.00  0.00     0.008 C 
BRANCH   9  11
ATOM     11  C   UNL     1      69.812  65.837  34.188  1.00  0.00    -0.002 C 
ATOM     12  C   UNL     1      70.127  67.356  34.135  1.00  0.00     0.005 C 
ATOM     13  C   UNL     1      70.269  65.399  35.619  1.00  0.00    -0.026 C 
ATOM     14  C   UNL     1      70.444  67.815  35.568  1.00  0.00     0.005 C 
ATOM     15  C   UNL     1      70.000  66.660  36.460  1.00  0.00    -0.001 C 
ATOM     16  C   UNL     1      69.536  64.208  36.280  1.00  0.00     0.007 C 
ATOM     17  C   UNL     1      71.794  65.047  35.511  1.00  0.00     0.012 C 
ATOM     18  C   UNL     1      70.579  66.557  37.891  1.00  0.00     0.004 C 
ATOM     19  C   UNL     1      69.985  64.005  37.751  1.00  0.00     0.005 C 
ATOM     20  C   UNL     1      69.984  65.298  38.639  1.00  0.00     0.003 C 
ATOM     21  C   UNL     1      70.492  67.894  38.686  1.00  0.00     0.085 C 
ATOM     22  C   UNL     1      68.639  65.514  39.473  1.00  0.00    -0.000 C 
ATOM     23  C   UNL     1      69.724  67.788  39.960  1.00  0.00     0.159 C 
ATOM     24  C   UNL     1      68.534  66.944  39.983  1.00  0.00     0.005 C 
ATOM     25  C   UNL     1      67.345  65.193  38.662  1.00  0.00     0.020 C 
ATOM     26  C   UNL     1      68.698  64.586  40.721  1.00  0.00     0.017 C 
ATOM     27  O   UNL     1      70.029  68.505  40.951  1.00  0.00    -0.295 OA
ATOM     28  C   UNL     1      67.365  67.465  40.394  1.00  0.00     0.055 C 
ATOM     29  C   UNL     1      66.051  65.442  39.458  1.00  0.00     0.081 C 
ATOM     30  C   UNL     1      66.099  66.739  40.212  1.00  0.00     0.156 C 
ATOM     31  O   UNL     1      65.039  67.212  40.701  1.00  0.00    -0.295 OA
ENDBRANCH   9  11
ENDBRANCH   8   9
ENDBRANCH   1   8
TORSDOF 6
ENDMDL
MODEL 2
REMARK VINA RESULT:    -5.564      7.120     11.141
REMARK INTER + INTRA:          -9.108
REMARK INTER:                  -6.689
REMARK INTRA:                  -2.419
REMARK UNBOUND:                -1.593
REMARK SMILES CC[C@H](CC[C@H](C)[C@H]1CC[C@@H]2[C@H]3CC(=O)C4=CC(=O)CC[C@@]4(C)[C@H]3CC[C@]21C)C(C)C
REMARK SMILES IDX 4 1 3 2 2 3 1 4 29 5 30 6 31 7 5 8 6 9 7 10 8 11 9 12 27 13
REMARK SMILES IDX 10 14 11 15 26 16 28 17 12 18 25 19 24 20 13 21 22 22 14 23
REMARK SMILES IDX 16 24 21 25 23 26 15 27 17 28 20 29 18 30 19 31
REMARK H PARENT
REMARK Flexibility Score: inf
ROOT
ATOM      1  C   UNL     1      68.152  76.862  43.305  1.00  0.00     0.004 C 
ENDROOT
BRANCH   1   2
ATOM      2  C   UNL     1      69.533  77.428  42.851  1.00  0.00    -0.009 C 
BRANCH   2   3
ATOM      3  C   UNL     1      70.499  77.601  44.067  1.00  0.00     0.000 C 
ATOM      4  C   UNL     1      69.873  77.309  45.436  1.00  0.00     0.004 C 
ENDBRANCH   2   3
BRANCH   2   5
ATOM      5  C   UNL     1      70.152  76.594  41.669  1.00  0.00    -0.014 C 
ATOM      6  C   UNL     1      71.561  76.057  41.994  1.00  0.00     0.007 C 
ATOM      7  C   UNL     1      70.251  77.426  40.370  1.00  0.00     0.007 C 
ENDBRANCH   2   5
ENDBRANCH   1   2
BRANCH   1   8
ATOM      8  C   UNL     1      67.653  75.703  42.413  1.00  0.00     0.004 C 
BRANCH   8   9
ATOM      9  C   UNL     1      67.396  74.384  43.196  1.00  0.00    -0.011 C 
ATOM     10  C   UNL     1      65.949  74.351  43.735  1.00  0.00     0.008 C 
BRANCH   9  11
ATOM     11  C   UNL     1      68.518  74.177  44.280  1.00  0.00    -0.002 C 
ATOM     12  C   UNL     1      67.992  73.773  45.684  1.00  0.00     0.005 C 
ATOM     13  C   UNL     1      69.669  73.156  43.993  1.00  0.00    -0.026 C 
ATOM     14  C   UNL     1      68.594  72.401  46.029  1.00  0.00     0.005 C 
ATOM     15  C   UNL     1      69.185  71.888  44.719  1.00  0.00    -0.001 C 
ATOM     16  C   UNL     1      69.960  72.791  42.519  1.00  0.00     0.007 C 
ATOM     17  C   UNL     1      70.971  73.766  44.622  1.00  0.00     0.012 C 
ATOM     18  C   UNL     1      70.266  70.782  44.771  1.00  0.00     0.004 C 
ATOM     19  C   UNL     1      71.007  71.651  42.408  1.00  0.00     0.005 C 
ATOM     20  C   UNL     1      70.733  70.397  43.310  1.00  0.00     0.003 C 
ATOM     21  C   UNL     1      69.866  69.575  45.670  1.00  0.00     0.085 C 
ATOM     22  C   UNL     1      69.934  69.227  42.574  1.00  0.00    -0.000 C 
ATOM     23  C   UNL     1      69.848  68.268  44.952  1.00  0.00     0.159 C 
ATOM     24  C   UNL     1      69.357  68.240  43.578  1.00  0.00     0.005 C 
ATOM     25  C   UNL     1      68.765  69.741  41.676  1.00  0.00     0.020 C 
ATOM     26  C   UNL     1      70.945  68.443  41.689  1.00  0.00     0.017 C 
ATOM     27  O   UNL     1      70.135  67.201  45.560  1.00  0.00    -0.295 OA
ATOM     28  C   UNL     1      68.370  67.389  43.250  1.00  0.00     0.055 C 
ATOM     29  C   UNL     1      67.972  68.606  41.002  1.00  0.00     0.081 C 
ATOM     30  C   UNL     1      67.679  67.484  41.955  1.00  0.00     0.156 C 
ATOM     31  O   UNL     1      66.830  66.609  41.640  1.00  0.00    -0.295 OA
ENDBRANCH   9  11
ENDBRANCH   8   9
ENDBRANCH   1   8
TORSDOF 6
ENDMDL
MODEL 3
REMARK VINA RESULT:    -5.318      4.013      9.734
REMARK INTER + INTRA:          -8.777
REMARK INTER:                  -7.174
REMARK INTRA:                  -1.603
REMARK UNBOUND:                -1.593
REMARK SMILES CC[C@H](CC[C@H](C)[C@H]1CC[C@@H]2[C@H]3CC(=O)C4=CC(=O)CC[C@@]4(C)[C@H]3CC[C@]21C)C(C)C
REMARK SMILES IDX 4 1 3 2 2 3 1 4 29 5 30 6 31 7 5 8 6 9 7 10 8 11 9 12 27 13
REMARK SMILES IDX 10 14 11 15 26 16 28 17 12 18 25 19 24 20 13 21 22 22 14 23
REMARK SMILES IDX 16 24 21 25 23 26 15 27 17 28 20 29 18 30 19 31
REMARK H PARENT
REMARK Flexibility Score: inf
ROOT
ATOM      1  C   UNL     1      70.464  71.343  44.252  1.00  0.00     0.004 C 
ENDROOT
BRANCH   1   2
ATOM      2  C   UNL     1      69.741  70.885  45.555  1.00  0.00    -0.009 C 
BRANCH   2   3
ATOM      3  C   UNL     1      70.581  69.811  46.318  1.00  0.00     0.000 C 
ATOM      4  C   UNL     1      71.234  68.747  45.427  1.00  0.00     0.004 C 
ENDBRANCH   2   3
BRANCH   2   5
ATOM      5  C   UNL     1      69.315  72.104  46.454  1.00  0.00    -0.014 C 
ATOM      6  C   UNL     1      67.872  72.572  46.177  1.00  0.00     0.007 C 
ATOM      7  C   UNL     1      70.252  73.317  46.257  1.00  0.00     0.007 C 
ENDBRANCH   2   5
ENDBRANCH   1   2
BRANCH   1   8
ATOM      8  C   UNL     1      69.559  71.269  43.002  1.00  0.00     0.004 C 
BRANCH   8   9
ATOM      9  C   UNL     1      69.685  69.929  42.222  1.00  0.00    -0.011 C 
ATOM     10  C   UNL     1      69.496  70.168  40.707  1.00  0.00     0.008 C 
BRANCH   9  11
ATOM     11  C   UNL     1      68.728  68.850  42.852  1.00  0.00    -0.002 C 
ATOM     12  C   UNL     1      67.218  69.093  42.585  1.00  0.00     0.005 C 
ATOM     13  C   UNL     1      68.945  67.342  42.491  1.00  0.00    -0.026 C 
ATOM     14  C   UNL     1      66.682  67.878  41.809  1.00  0.00     0.005 C 
ATOM     15  C   UNL     1      67.925  67.117  41.360  1.00  0.00    -0.001 C 
ATOM     16  C   UNL     1      70.341  66.915  41.980  1.00  0.00     0.007 C 
ATOM     17  C   UNL     1      68.616  66.523  43.788  1.00  0.00     0.012 C 
ATOM     18  C   UNL     1      67.787  65.624  40.972  1.00  0.00     0.004 C 
ATOM     19  C   UNL     1      70.350  65.436  41.509  1.00  0.00     0.005 C 
ATOM     20  C   UNL     1      69.187  65.036  40.534  1.00  0.00     0.003 C 
ATOM     21  C   UNL     1      66.622  65.356  39.974  1.00  0.00     0.085 C 
ATOM     22  C   UNL     1      69.571  65.139  38.987  1.00  0.00    -0.000 C 
ATOM     23  C   UNL     1      67.056  64.716  38.699  1.00  0.00     0.159 C 
ATOM     24  C   UNL     1      68.326  65.133  38.112  1.00  0.00     0.005 C 
ATOM     25  C   UNL     1      70.402  66.413  38.636  1.00  0.00     0.020 C 
ATOM     26  C   UNL     1      70.399  63.876  38.615  1.00  0.00     0.017 C 
ATOM     27  O   UNL     1      66.287  63.926  38.086  1.00  0.00    -0.295 OA
ATOM     28  C   UNL     1      68.353  65.558  36.838  1.00  0.00     0.055 C 
ATOM     29  C   UNL     1      70.733  66.528  37.136  1.00  0.00     0.081 C 
ATOM     30  C   UNL     1      69.545  66.210  36.275  1.00  0.00     0.156 C 
ATOM     31  O   UNL     1      69.571  66.502  35.050  1.00  0.00    -0.295 OA
ENDBRANCH   9  11
ENDBRANCH   8   9
ENDBRANCH   1   8
TORSDOF 6
ENDMDL
MODEL 4
REMARK VINA RESULT:    -5.305      5.234      8.564
REMARK INTER + INTRA:          -8.759
REMARK INTER:                  -7.352
REMARK INTRA:                  -1.407
REMARK UNBOUND:                -1.593
REMARK SMILES CC[C@H](CC[C@H](C)[C@H]1CC[C@@H]2[C@H]3CC(=O)C4=CC(=O)CC[C@@]4(C)[C@H]3CC[C@]21C)C(C)C
REMARK SMILES IDX 4 1 3 2 2 3 1 4 29 5 30 6 31 7 5 8 6 9 7 10 8 11 9 12 27 13
REMARK SMILES IDX 10 14 11 15 26 16 28 17 12 18 25 19 24 20 13 21 22 22 14 23
REMARK SMILES IDX 16 24 21 25 23 26 15 27 17 28 20 29 18 30 19 31
REMARK H PARENT
REMARK Flexibility Score: inf
ROOT
ATOM      1  C   UNL     1      66.909  68.306  40.604  1.00  0.00     0.004 C 
ENDROOT
BRANCH   1   2
ATOM      2  C   UNL     1      66.580  66.861  40.119  1.00  0.00    -0.009 C 
BRANCH   2   3
ATOM      3  C   UNL     1      65.039  66.652  39.973  1.00  0.00     0.000 C 
ATOM      4  C   UNL     1      64.214  67.943  39.914  1.00  0.00     0.004 C 
ENDBRANCH   2   3
BRANCH   2   5
ATOM      5  C   UNL     1      67.392  66.473  38.828  1.00  0.00    -0.014 C 
ATOM      6  C   UNL     1      68.358  65.294  39.065  1.00  0.00     0.007 C 
ATOM      7  C   UNL     1      68.219  67.662  38.291  1.00  0.00     0.007 C 
ENDBRANCH   2   5
ENDBRANCH   1   2
BRANCH   1   8
ATOM      8  C   UNL     1      67.657  68.333  41.955  1.00  0.00     0.004 C 
BRANCH   8   9
ATOM      9  C   UNL     1      68.344  66.984  42.312  1.00  0.00    -0.011 C 
ATOM     10  C   UNL     1      67.725  66.388  43.596  1.00  0.00     0.008 C 
BRANCH   9  11
ATOM     11  C   UNL     1      69.906  67.172  42.349  1.00  0.00    -0.002 C 
ATOM     12  C   UNL     1      70.533  67.620  41.001  1.00  0.00     0.005 C 
ATOM     13  C   UNL     1      70.528  68.146  43.405  1.00  0.00    -0.026 C 
ATOM     14  C   UNL     1      71.219  68.976  41.236  1.00  0.00     0.005 C 
ATOM     15  C   UNL     1      70.714  69.443  42.598  1.00  0.00    -0.001 C 
ATOM     16  C   UNL     1      69.693  68.473  44.665  1.00  0.00     0.007 C 
ATOM     17  C   UNL     1      71.885  67.503  43.858  1.00  0.00     0.012 C 
ATOM     18  C   UNL     1      71.527  70.512  43.368  1.00  0.00     0.004 C 
ATOM     19  C   UNL     1      70.367  69.573  45.527  1.00  0.00     0.005 C 
ATOM     20  C   UNL     1      70.826  70.853  44.743  1.00  0.00     0.003 C 
ATOM     21  C   UNL     1      71.895  71.749  42.496  1.00  0.00     0.085 C 
ATOM     22  C   UNL     1      69.754  72.036  44.743  1.00  0.00    -0.000 C 
ATOM     23  C   UNL     1      71.388  73.041  43.040  1.00  0.00     0.159 C 
ATOM     24  C   UNL     1      70.069  73.061  43.663  1.00  0.00     0.005 C 
ATOM     25  C   UNL     1      68.287  71.546  44.530  1.00  0.00     0.020 C 
ATOM     26  C   UNL     1      69.850  72.767  46.113  1.00  0.00     0.017 C 
ATOM     27  O   UNL     1      72.034  74.109  42.854  1.00  0.00    -0.295 OA
ATOM     28  C   UNL     1      69.150  73.939  43.230  1.00  0.00     0.055 C 
ATOM     29  C   UNL     1      67.263  72.695  44.489  1.00  0.00     0.081 C 
ATOM     30  C   UNL     1      67.743  73.844  43.651  1.00  0.00     0.156 C 
ATOM     31  O   UNL     1      66.932  74.743  43.307  1.00  0.00    -0.295 OA
ENDBRANCH   9  11
ENDBRANCH   8   9
ENDBRANCH   1   8
TORSDOF 6
ENDMDL
MODEL 5
REMARK VINA RESULT:    -5.255      4.254      9.537
REMARK INTER + INTRA:          -8.691
REMARK INTER:                  -7.234
REMARK INTRA:                  -1.457
REMARK UNBOUND:                -1.593
REMARK SMILES CC[C@H](CC[C@H](C)[C@H]1CC[C@@H]2[C@H]3CC(=O)C4=CC(=O)CC[C@@]4(C)[C@H]3CC[C@]21C)C(C)C
REMARK SMILES IDX 4 1 3 2 2 3 1 4 29 5 30 6 31 7 5 8 6 9 7 10 8 11 9 12 27 13
REMARK SMILES IDX 10 14 11 15 26 16 28 17 12 18 25 19 24 20 13 21 22 22 14 23
REMARK SMILES IDX 16 24 21 25 23 26 15 27 17 28 20 29 18 30 19 31
REMARK H PARENT
REMARK Flexibility Score: inf
ROOT
ATOM      1  C   UNL     1      69.439  72.647  43.190  1.00  0.00     0.004 C 
ENDROOT
BRANCH   1   2
ATOM      2  C   UNL     1      68.169  72.788  44.085  1.00  0.00    -0.009 C 
BRANCH   2   3
ATOM      3  C   UNL     1      68.474  72.390  45.564  1.00  0.00     0.000 C 
ATOM      4  C   UNL     1      68.775  73.566  46.502  1.00  0.00     0.004 C 
ENDBRANCH   2   3
BRANCH   2   5
ATOM      5  C   UNL     1      67.500  74.205  43.941  1.00  0.00    -0.014 C 
ATOM      6  C   UNL     1      65.985  74.123  43.663  1.00  0.00     0.007 C 
ATOM      7  C   UNL     1      68.145  75.032  42.805  1.00  0.00     0.007 C 
ENDBRANCH   2   5
ENDBRANCH   1   2
BRANCH   1   8
ATOM      8  C   UNL     1      70.259  71.377  43.504  1.00  0.00     0.004 C 
BRANCH   8   9
ATOM      9  C   UNL     1      70.008  70.212  42.505  1.00  0.00    -0.011 C 
ATOM     10  C   UNL     1      69.541  70.764  41.140  1.00  0.00     0.008 C 
BRANCH   9  11
ATOM     11  C   UNL     1      69.052  69.144  43.156  1.00  0.00    -0.002 C 
ATOM     12  C   UNL     1      67.539  69.417  42.941  1.00  0.00     0.005 C 
ATOM     13  C   UNL     1      69.229  67.636  42.775  1.00  0.00    -0.026 C 
ATOM     14  C   UNL     1      66.956  68.220  42.173  1.00  0.00     0.005 C 
ATOM     15  C   UNL     1      68.169  67.440  41.676  1.00  0.00    -0.001 C 
ATOM     16  C   UNL     1      70.599  67.188  42.215  1.00  0.00     0.007 C 
ATOM     17  C   UNL     1      68.928  66.811  44.075  1.00  0.00     0.012 C 
ATOM     18  C   UNL     1      67.990  65.955  41.280  1.00  0.00     0.004 C 
ATOM     19  C   UNL     1      70.565  65.714  41.731  1.00  0.00     0.005 C 
ATOM     20  C   UNL     1      69.364  65.345  40.791  1.00  0.00     0.003 C 
ATOM     21  C   UNL     1      66.788  65.717  40.319  1.00  0.00     0.085 C 
ATOM     22  C   UNL     1      69.698  65.455  39.233  1.00  0.00    -0.000 C 
ATOM     23  C   UNL     1      67.168  65.082  39.024  1.00  0.00     0.159 C 
ATOM     24  C   UNL     1      68.425  65.481  38.400  1.00  0.00     0.005 C 
ATOM     25  C   UNL     1      70.541  66.717  38.866  1.00  0.00     0.020 C 
ATOM     26  C   UNL     1      70.490  64.180  38.823  1.00  0.00     0.017 C 
ATOM     27  O   UNL     1      66.365  64.312  38.430  1.00  0.00    -0.295 OA
ATOM     28  C   UNL     1      68.419  65.917  37.129  1.00  0.00     0.055 C 
ATOM     29  C   UNL     1      70.825  66.840  37.357  1.00  0.00     0.081 C 
ATOM     30  C   UNL     1      69.604  66.552  36.533  1.00  0.00     0.156 C 
ATOM     31  O   UNL     1      69.596  66.855  35.311  1.00  0.00    -0.295 OA
ENDBRANCH   9  11
ENDBRANCH   8   9
ENDBRANCH   1   8
TORSDOF 6
ENDMDL
MODEL 6
REMARK VINA RESULT:    -5.212      2.088      4.771
REMARK INTER + INTRA:          -8.633
REMARK INTER:                  -7.421
REMARK INTRA:                  -1.211
REMARK UNBOUND:                -1.593
REMARK SMILES CC[C@H](CC[C@H](C)[C@H]1CC[C@@H]2[C@H]3CC(=O)C4=CC(=O)CC[C@@]4(C)[C@H]3CC[C@]21C)C(C)C
REMARK SMILES IDX 4 1 3 2 2 3 1 4 29 5 30 6 31 7 5 8 6 9 7 10 8 11 9 12 27 13
REMARK SMILES IDX 10 14 11 15 26 16 28 17 12 18 25 19 24 20 13 21 22 22 14 23
REMARK SMILES IDX 16 24 21 25 23 26 15 27 17 28 20 29 18 30 19 31
REMARK H PARENT
REMARK Flexibility Score: inf
ROOT
ATOM      1  C   UNL     1      67.566  66.810  34.557  1.00  0.00     0.004 C 
ENDROOT
BRANCH   1   2
ATOM      2  C   UNL     1      68.169  67.375  33.234  1.00  0.00    -0.009 C 
BRANCH   2   3
ATOM      3  C   UNL     1      69.718  67.540  33.346  1.00  0.00     0.000 C 
ATOM      4  C   UNL     1      70.255  68.914  32.925  1.00  0.00     0.004 C 
ENDBRANCH   2   3
BRANCH   2   5
ATOM      5  C   UNL     1      67.714  66.547  31.977  1.00  0.00    -0.014 C 
ATOM      6  C   UNL     1      67.636  67.402  30.696  1.00  0.00     0.007 C 
ATOM      7  C   UNL     1      66.331  65.890  32.192  1.00  0.00     0.007 C 
ENDBRANCH   2   5
ENDBRANCH   1   2
BRANCH   1   8
ATOM      8  C   UNL     1      68.510  65.820  35.275  1.00  0.00     0.004 C 
BRANCH   8   9
ATOM      9  C   UNL     1      68.855  66.237  36.734  1.00  0.00    -0.011 C 
ATOM     10  C   UNL     1      70.381  66.405  36.900  1.00  0.00     0.008 C 
BRANCH   9  11
ATOM     11  C   UNL     1      68.178  65.241  37.748  1.00  0.00    -0.002 C 
ATOM     12  C   UNL     1      69.137  64.173  38.340  1.00  0.00     0.005 C 
ATOM     13  C   UNL     1      67.432  65.821  38.996  1.00  0.00    -0.026 C 
ATOM     14  C   UNL     1      69.165  64.367  39.865  1.00  0.00     0.005 C 
ATOM     15  C   UNL     1      68.497  65.717  40.103  1.00  0.00    -0.001 C 
ATOM     16  C   UNL     1      66.942  67.286  38.928  1.00  0.00     0.007 C 
ATOM     17  C   UNL     1      66.193  64.891  39.245  1.00  0.00     0.012 C 
ATOM     18  C   UNL     1      67.926  66.030  41.508  1.00  0.00     0.004 C 
ATOM     19  C   UNL     1      66.375  67.763  40.291  1.00  0.00     0.005 C 
ATOM     20  C   UNL     1      67.288  67.476  41.535  1.00  0.00     0.003 C 
ATOM     21  C   UNL     1      68.935  65.737  42.658  1.00  0.00     0.085 C 
ATOM     22  C   UNL     1      68.247  68.690  41.933  1.00  0.00    -0.000 C 
ATOM     23  C   UNL     1      69.242  66.924  43.507  1.00  0.00     0.159 C 
ATOM     24  C   UNL     1      69.362  68.226  42.859  1.00  0.00     0.005 C 
ATOM     25  C   UNL     1      68.901  69.395  40.704  1.00  0.00     0.020 C 
ATOM     26  C   UNL     1      67.398  69.729  42.720  1.00  0.00     0.017 C 
ATOM     27  O   UNL     1      69.510  66.782  44.731  1.00  0.00    -0.295 OA
ATOM     28  C   UNL     1      70.475  68.954  43.047  1.00  0.00     0.055 C 
ATOM     29  C   UNL     1      69.857  70.537  41.096  1.00  0.00     0.081 C 
ATOM     30  C   UNL     1      70.752  70.151  42.238  1.00  0.00     0.156 C 
ATOM     31  O   UNL     1      71.753  70.865  42.510  1.00  0.00    -0.295 OA
ENDBRANCH   9  11
ENDBRANCH   8   9
ENDBRANCH   1   8
TORSDOF 6
ENDMDL
MODEL 7
REMARK VINA RESULT:    -4.877     16.354     19.474
REMARK INTER + INTRA:          -8.181
REMARK INTER:                  -6.176
REMARK INTRA:                  -2.005
REMARK UNBOUND:                -1.593
REMARK SMILES CC[C@H](CC[C@H](C)[C@H]1CC[C@@H]2[C@H]3CC(=O)C4=CC(=O)CC[C@@]4(C)[C@H]3CC[C@]21C)C(C)C
REMARK SMILES IDX 4 1 3 2 2 3 1 4 29 5 30 6 31 7 5 8 6 9 7 10 8 11 9 12 27 13
REMARK SMILES IDX 10 14 11 15 26 16 28 17 12 18 25 19 24 20 13 21 22 22 14 23
REMARK SMILES IDX 16 24 21 25 23 26 15 27 17 28 20 29 18 30 19 31
REMARK H PARENT
REMARK Flexibility Score: inf
ROOT
ATOM      1  C   UNL     1      52.328  72.689  29.230  1.00  0.00     0.004 C 
ENDROOT
BRANCH   1   2
ATOM      2  C   UNL     1      53.081  71.365  29.567  1.00  0.00    -0.009 C 
BRANCH   2   3
ATOM      3  C   UNL     1      54.373  71.215  28.702  1.00  0.00     0.000 C 
ATOM      4  C   UNL     1      54.684  69.784  28.247  1.00  0.00     0.004 C 
ENDBRANCH   2   3
BRANCH   2   5
ATOM      5  C   UNL     1      53.338  71.210  31.112  1.00  0.00    -0.014 C 
ATOM      6  C   UNL     1      54.799  71.509  31.506  1.00  0.00     0.007 C 
ATOM      7  C   UNL     1      52.996  69.788  31.610  1.00  0.00     0.007 C 
ENDBRANCH   2   5
ENDBRANCH   1   2
BRANCH   1   8
ATOM      8  C   UNL     1      52.866  73.381  27.959  1.00  0.00     0.004 C 
BRANCH   8   9
ATOM      9  C   UNL     1      53.530  74.761  28.235  1.00  0.00    -0.011 C 
ATOM     10  C   UNL     1      54.399  75.191  27.033  1.00  0.00     0.008 C 
BRANCH   9  11
ATOM     11  C   UNL     1      54.277  74.727  29.621  1.00  0.00    -0.002 C 
ATOM     12  C   UNL     1      55.818  74.565  29.520  1.00  0.00     0.005 C 
ATOM     13  C   UNL     1      54.080  75.918  30.617  1.00  0.00    -0.026 C 
ATOM     14  C   UNL     1      56.458  75.803  30.168  1.00  0.00     0.005 C 
ATOM     15  C   UNL     1      55.314  76.797  30.339  1.00  0.00    -0.001 C 
ATOM     16  C   UNL     1      52.814  76.792  30.457  1.00  0.00     0.007 C 
ATOM     17  C   UNL     1      54.078  75.298  32.057  1.00  0.00     0.012 C 
ATOM     18  C   UNL     1      55.469  77.945  31.365  1.00  0.00     0.004 C 
ATOM     19  C   UNL     1      52.846  78.023  31.401  1.00  0.00     0.005 C 
ATOM     20  C   UNL     1      54.176  78.855  31.376  1.00  0.00     0.003 C 
ATOM     21  C   UNL     1      56.813  78.718  31.220  1.00  0.00     0.085 C 
ATOM     22  C   UNL     1      54.149  80.097  30.373  1.00  0.00    -0.000 C 
ATOM     23  C   UNL     1      56.644  80.178  30.966  1.00  0.00     0.159 C 
ATOM     24  C   UNL     1      55.555  80.607  30.094  1.00  0.00     0.005 C 
ATOM     25  C   UNL     1      53.472  79.775  29.003  1.00  0.00     0.020 C 
ATOM     26  C   UNL     1      53.369  81.252  31.064  1.00  0.00     0.017 C 
ATOM     27  O   UNL     1      57.495  81.004  31.396  1.00  0.00    -0.295 OA
ATOM     28  C   UNL     1      55.828  81.390  29.037  1.00  0.00     0.055 C 
ATOM     29  C   UNL     1      53.486  80.964  28.025  1.00  0.00     0.081 C 
ATOM     30  C   UNL     1      54.819  81.653  27.999  1.00  0.00     0.156 C 
ATOM     31  O   UNL     1      55.077  82.472  27.078  1.00  0.00    -0.295 OA
ENDBRANCH   9  11
ENDBRANCH   8   9
ENDBRANCH   1   8
TORSDOF 6
ENDMDL
MODEL 8
REMARK VINA RESULT:    -4.835      1.692      2.960
REMARK INTER + INTRA:          -8.124
REMARK INTER:                  -6.669
REMARK INTRA:                  -1.455
REMARK UNBOUND:                -1.593
REMARK SMILES CC[C@H](CC[C@H](C)[C@H]1CC[C@@H]2[C@H]3CC(=O)C4=CC(=O)CC[C@@]4(C)[C@H]3CC[C@]21C)C(C)C
REMARK SMILES IDX 4 1 3 2 2 3 1 4 29 5 30 6 31 7 5 8 6 9 7 10 8 11 9 12 27 13
REMARK SMILES IDX 10 14 11 15 26 16 28 17 12 18 25 19 24 20 13 21 22 22 14 23
REMARK SMILES IDX 16 24 21 25 23 26 15 27 17 28 20 29 18 30 19 31
REMARK H PARENT
REMARK Flexibility Score: inf
ROOT
ATOM      1  C   UNL     1      68.603  69.306  31.788  1.00  0.00     0.004 C 
ENDROOT
BRANCH   1   2
ATOM      2  C   UNL     1      68.979  69.497  30.286  1.00  0.00    -0.009 C 
BRANCH   2   3
ATOM      3  C   UNL     1      69.741  70.843  30.062  1.00  0.00     0.000 C 
ATOM      4  C   UNL     1      69.917  71.703  31.320  1.00  0.00     0.004 C 
ENDBRANCH   2   3
BRANCH   2   5
ATOM      5  C   UNL     1      69.730  68.245  29.701  1.00  0.00    -0.014 C 
ATOM      6  C   UNL     1      71.197  68.547  29.335  1.00  0.00     0.007 C 
ATOM      7  C   UNL     1      69.031  67.695  28.437  1.00  0.00     0.007 C 
ENDBRANCH   2   5
ENDBRANCH   1   2
BRANCH   1   8
ATOM      8  C   UNL     1      68.815  67.858  32.282  1.00  0.00     0.004 C 
BRANCH   8   9
ATOM      9  C   UNL     1      69.668  67.762  33.579  1.00  0.00    -0.011 C 
ATOM     10  C   UNL     1      70.692  68.916  33.637  1.00  0.00     0.008 C 
BRANCH   9  11
ATOM     11  C   UNL     1      70.281  66.318  33.710  1.00  0.00    -0.002 C 
ATOM     12  C   UNL     1      71.770  66.287  34.149  1.00  0.00     0.005 C 
ATOM     13  C   UNL     1      69.582  65.281  34.652  1.00  0.00    -0.026 C 
ATOM     14  C   UNL     1      71.848  65.517  35.477  1.00  0.00     0.005 C 
ATOM     15  C   UNL     1      70.402  65.397  35.949  1.00  0.00    -0.001 C 
ATOM     16  C   UNL     1      68.092  65.508  34.996  1.00  0.00     0.007 C 
ATOM     17  C   UNL     1      69.725  63.882  33.956  1.00  0.00     0.012 C 
ATOM     18  C   UNL     1      70.042  64.300  36.981  1.00  0.00     0.004 C 
ATOM     19  C   UNL     1      67.591  64.499  36.064  1.00  0.00     0.005 C 
ATOM     20  C   UNL     1      68.503  64.358  37.333  1.00  0.00     0.003 C 
ATOM     21  C   UNL     1      70.996  64.280  38.212  1.00  0.00     0.085 C 
ATOM     22  C   UNL     1      68.068  65.291  38.554  1.00  0.00    -0.000 C 
ATOM     23  C   UNL     1      70.300  64.469  39.517  1.00  0.00     0.159 C 
ATOM     24  C   UNL     1      69.188  65.412  39.578  1.00  0.00     0.005 C 
ATOM     25  C   UNL     1      67.653  66.731  38.119  1.00  0.00     0.020 C 
ATOM     26  C   UNL     1      66.864  64.612  39.269  1.00  0.00     0.017 C 
ATOM     27  O   UNL     1      70.742  63.919  40.562  1.00  0.00    -0.295 OA
ATOM     28  C   UNL     1      69.208  66.396  40.492  1.00  0.00     0.055 C 
ATOM     29  C   UNL     1      67.275  67.639  39.305  1.00  0.00     0.081 C 
ATOM     30  C   UNL     1      68.244  67.505  40.444  1.00  0.00     0.156 C 
ATOM     31  O   UNL     1      68.228  68.353  41.374  1.00  0.00    -0.295 OA
ENDBRANCH   9  11
ENDBRANCH   8   9
ENDBRANCH   1   8
TORSDOF 6
ENDMDL
