MODEL 1
REMARK VINA RESULT:    -0.290      0.000      0.000
REMARK INTER + INTRA:          -0.383
REMARK INTER:                  -0.332
REMARK INTRA:                  -0.050
REMARK UNBOUND:                -0.050
REMARK SMILES CC(C)[C@@H]([NH3+])C(=O)[O-]
REMARK SMILES IDX 4 1 5 2 6 6 7 7 8 8 2 9 1 10 3 11
REMARK H PARENT 5 3 5 4 5 5
REMARK Flexibility Score: inf
ROOT
ATOM      1  C   UNL     1       2.252  -0.060  -6.647  1.00  0.00     0.230 C 
ENDROOT
BRANCH   1   2
ATOM      2  N   UNL     1       3.687  -0.361  -6.517  1.00  0.00    -0.350 N 
ATOM      3  H   UNL     1       4.237   0.524  -6.606  1.00  0.00     0.345 HD
ATOM      4  H   UNL     1       3.891  -0.765  -5.575  1.00  0.00     0.345 HD
ATOM      5  H   UNL     1       4.008  -1.026  -7.257  1.00  0.00     0.345 HD
ENDBRANCH   1   2
BRANCH   1   6
ATOM      6  C   UNL     1       1.849   1.061  -5.719  1.00  0.00     0.099 C 
ATOM      7  O   UNL     1       2.647   1.496  -4.847  1.00  0.00    -0.544 OA
ATOM      8  O   UNL     1       0.601   1.654  -5.857  1.00  0.00    -0.544 OA
ENDBRANCH   1   6
BRANCH   1   9
ATOM      9  C   UNL     1       1.823   0.251  -8.112  1.00  0.00     0.047 C 
ATOM     10  C   UNL     1       3.005   0.355  -9.091  1.00  0.00     0.014 C 
ATOM     11  C   UNL     1       0.793  -0.761  -8.634  1.00  0.00     0.014 C 
ENDBRANCH   1   9
TORSDOF 3
ENDMDL
MODEL 2
REMARK VINA RESULT:     0.253      2.461      3.395
REMARK INTER + INTRA:           0.240
REMARK INTER:                  -0.509
REMARK INTRA:                   0.750
REMARK UNBOUND:                -0.050
REMARK SMILES CC(C)[C@@H]([NH3+])C(=O)[O-]
REMARK SMILES IDX 4 1 5 2 6 6 7 7 8 8 2 9 1 10 3 11
REMARK H PARENT 5 3 5 4 5 5
REMARK Flexibility Score: inf
ROOT
ATOM      1  C   UNL     1       1.662   0.072  -6.674  1.00  0.00     0.230 C 
ENDROOT
BRANCH   1   2
ATOM      2  N   UNL     1       1.126   1.409  -6.377  1.00  0.00    -0.350 N 
ATOM      3  H   UNL     1       1.829   2.134  -6.649  1.00  0.00     0.345 HD
ATOM      4  H   UNL     1       0.259   1.587  -6.933  1.00  0.00     0.345 HD
ATOM      5  H   UNL     1       0.913   1.520  -5.360  1.00  0.00     0.345 HD
ENDBRANCH   1   2
BRANCH   1   6
ATOM      6  C   UNL     1       1.776  -0.146  -8.163  1.00  0.00     0.099 C 
ATOM      7  O   UNL     1       1.013  -0.953  -8.758  1.00  0.00    -0.544 OA
ATOM      8  O   UNL     1       2.699   0.587  -8.898  1.00  0.00    -0.544 OA
ENDBRANCH   1   6
BRANCH   1   9
ATOM      9  C   UNL     1       3.021  -0.214  -5.965  1.00  0.00     0.047 C 
ATOM     10  C   UNL     1       4.223  -0.233  -6.924  1.00  0.00     0.014 C 
ATOM     11  C   UNL     1       3.281   0.765  -4.811  1.00  0.00     0.014 C 
ENDBRANCH   1   9
TORSDOF 3
ENDMDL
MODEL 3
REMARK VINA RESULT:     0.603      0.491      1.756
REMARK INTER + INTRA:           0.641
REMARK INTER:                  -0.110
REMARK INTRA:                   0.751
REMARK UNBOUND:                -0.050
REMARK SMILES CC(C)[C@@H]([NH3+])C(=O)[O-]
REMARK SMILES IDX 4 1 5 2 6 6 7 7 8 8 2 9 1 10 3 11
REMARK H PARENT 5 3 5 4 5 5
REMARK Flexibility Score: inf
ROOT
ATOM      1  C   UNL     1       2.601  -0.372  -6.622  1.00  0.00     0.230 C 
ENDROOT
BRANCH   1   2
ATOM      2  N   UNL     1       4.054  -0.384  -6.387  1.00  0.00    -0.350 N 
ATOM      3  H   UNL     1       4.482  -1.191  -6.896  1.00  0.00     0.345 HD
ATOM      4  H   UNL     1       4.491   0.490  -6.759  1.00  0.00     0.345 HD
ATOM      5  H   UNL     1       4.277  -0.477  -5.371  1.00  0.00     0.345 HD
ENDBRANCH   1   2
BRANCH   1   6
ATOM      6  C   UNL     1       1.962   0.841  -5.990  1.00  0.00     0.099 C 
ATOM      7  O   UNL     1       0.819   1.230  -6.347  1.00  0.00    -0.544 OA
ATOM      8  O   UNL     1       2.620   1.511  -4.966  1.00  0.00    -0.544 OA
ENDBRANCH   1   6
BRANCH   1   9
ATOM      9  C   UNL     1       2.225  -0.475  -8.131  1.00  0.00     0.047 C 
ATOM     10  C   UNL     1       0.710  -0.430  -8.392  1.00  0.00     0.014 C 
ATOM     11  C   UNL     1       2.938   0.591  -8.974  1.00  0.00     0.014 C 
ENDBRANCH   1   9
TORSDOF 3
ENDMDL
MODEL 4
REMARK VINA RESULT:     0.770      2.212      3.312
REMARK INTER + INTRA:           0.833
REMARK INTER:                   0.712
REMARK INTRA:                   0.121
REMARK UNBOUND:                -0.050
REMARK SMILES CC(C)[C@@H]([NH3+])C(=O)[O-]
REMARK SMILES IDX 4 1 5 2 6 6 7 7 8 8 2 9 1 10 3 11
REMARK H PARENT 5 3 5 4 5 5
REMARK Flexibility Score: inf
ROOT
ATOM      1  C   UNL     1       3.159   0.543  -7.208  1.00  0.00     0.230 C 
ENDROOT
BRANCH   1   2
ATOM      2  N   UNL     1       4.483  -0.099  -7.223  1.00  0.00    -0.350 N 
ATOM      3  H   UNL     1       4.926  -0.005  -6.280  1.00  0.00     0.345 HD
ATOM      4  H   UNL     1       4.392  -1.120  -7.426  1.00  0.00     0.345 HD
ATOM      5  H   UNL     1       5.114   0.341  -7.930  1.00  0.00     0.345 HD
ENDBRANCH   1   2
BRANCH   1   6
ATOM      6  C   UNL     1       2.299   0.032  -8.339  1.00  0.00     0.099 C 
ATOM      7  O   UNL     1       1.233  -0.597  -8.108  1.00  0.00    -0.544 OA
ATOM      8  O   UNL     1       2.660   0.301  -9.654  1.00  0.00    -0.544 OA
ENDBRANCH   1   6
BRANCH   1   9
ATOM      9  C   UNL     1       2.424   0.397  -5.842  1.00  0.00     0.047 C 
ATOM     10  C   UNL     1       3.366   0.441  -4.627  1.00  0.00     0.014 C 
ATOM     11  C   UNL     1       1.305   1.436  -5.680  1.00  0.00     0.014 C 
ENDBRANCH   1   9
TORSDOF 3
ENDMDL
MODEL 5
REMARK VINA RESULT:     1.190      1.669      2.303
REMARK INTER + INTRA:           1.314
REMARK INTER:                   1.363
REMARK INTRA:                  -0.049
REMARK UNBOUND:                -0.050
REMARK SMILES CC(C)[C@@H]([NH3+])C(=O)[O-]
REMARK SMILES IDX 4 1 5 2 6 6 7 7 8 8 2 9 1 10 3 11
REMARK H PARENT 5 3 5 4 5 5
REMARK Flexibility Score: inf
ROOT
ATOM      1  C   UNL     1       2.206   0.808  -6.999  1.00  0.00     0.230 C 
ENDROOT
BRANCH   1   2
ATOM      2  N   UNL     1       0.901   1.135  -6.402  1.00  0.00    -0.350 N 
ATOM      3  H   UNL     1       0.140   0.693  -6.968  1.00  0.00     0.345 HD
ATOM      4  H   UNL     1       0.836   0.749  -5.433  1.00  0.00     0.345 HD
ATOM      5  H   UNL     1       0.739   2.167  -6.376  1.00  0.00     0.345 HD
ENDBRANCH   1   2
BRANCH   1   6
ATOM      6  C   UNL     1       3.168   0.303  -5.950  1.00  0.00     0.099 C 
ATOM      7  O   UNL     1       4.134  -0.442  -6.264  1.00  0.00    -0.544 OA
ATOM      8  O   UNL     1       3.017   0.703  -4.628  1.00  0.00    -0.544 OA
ENDBRANCH   1   6
BRANCH   1   9
ATOM      9  C   UNL     1       2.102  -0.194  -8.187  1.00  0.00     0.047 C 
ATOM     10  C   UNL     1       0.659  -0.608  -8.519  1.00  0.00     0.014 C 
ATOM     11  C   UNL     1       2.803   0.335  -9.446  1.00  0.00     0.014 C 
ENDBRANCH   1   9
TORSDOF 3
ENDMDL
MODEL 6
REMARK VINA RESULT:     1.557      4.970      6.367
REMARK INTER + INTRA:           1.734
REMARK INTER:                   1.794
REMARK INTRA:                  -0.060
REMARK UNBOUND:                -0.050
REMARK SMILES CC(C)[C@@H]([NH3+])C(=O)[O-]
REMARK SMILES IDX 4 1 5 2 6 6 7 7 8 8 2 9 1 10 3 11
REMARK H PARENT 5 3 5 4 5 5
REMARK Flexibility Score: inf
ROOT
ATOM      1  C   UNL     1      -1.600   4.063  -4.932  1.00  0.00     0.230 C 
ENDROOT
BRANCH   1   2
ATOM      2  N   UNL     1      -1.423   5.136  -5.924  1.00  0.00    -0.350 N 
ATOM      3  H   UNL     1      -1.416   4.723  -6.885  1.00  0.00     0.345 HD
ATOM      4  H   UNL     1      -2.219   5.811  -5.877  1.00  0.00     0.345 HD
ATOM      5  H   UNL     1      -0.524   5.649  -5.777  1.00  0.00     0.345 HD
ENDBRANCH   1   2
BRANCH   1   6
ATOM      6  C   UNL     1      -0.754   2.862  -5.280  1.00  0.00     0.099 C 
ATOM      7  O   UNL     1      -1.122   2.048  -6.169  1.00  0.00    -0.544 OA
ATOM      8  O   UNL     1       0.469   2.675  -4.649  1.00  0.00    -0.544 OA
ENDBRANCH   1   6
BRANCH   1   9
ATOM      9  C   UNL     1      -1.327   4.530  -3.471  1.00  0.00     0.047 C 
ATOM     10  C   UNL     1      -1.501   6.044  -3.265  1.00  0.00     0.014 C 
ATOM     11  C   UNL     1      -2.181   3.758  -2.454  1.00  0.00     0.014 C 
ENDBRANCH   1   9
TORSDOF 3
ENDMDL
MODEL 7
REMARK VINA RESULT:     1.651      2.508      3.131
REMARK INTER + INTRA:           1.842
REMARK INTER:                   1.441
REMARK INTRA:                   0.401
REMARK UNBOUND:                -0.050
REMARK SMILES CC(C)[C@@H]([NH3+])C(=O)[O-]
REMARK SMILES IDX 4 1 5 2 6 6 7 7 8 8 2 9 1 10 3 11
REMARK H PARENT 5 3 5 4 5 5
REMARK Flexibility Score: inf
ROOT
ATOM      1  C   UNL     1       2.424  -0.231  -6.679  1.00  0.00     0.230 C 
ENDROOT
BRANCH   1   2
ATOM      2  N   UNL     1       1.903   0.003  -8.036  1.00  0.00    -0.350 N 
ATOM      3  H   UNL     1       2.561   0.626  -8.558  1.00  0.00     0.345 HD
ATOM      4  H   UNL     1       1.838  -0.898  -8.562  1.00  0.00     0.345 HD
ATOM      5  H   UNL     1       0.964   0.460  -8.012  1.00  0.00     0.345 HD
ENDBRANCH   1   2
BRANCH   1   6
ATOM      6  C   UNL     1       3.927  -0.085  -6.646  1.00  0.00     0.099 C 
ATOM      7  O   UNL     1       4.589  -0.450  -5.638  1.00  0.00    -0.544 OA
ATOM      8  O   UNL     1       4.595   0.412  -7.757  1.00  0.00    -0.544 OA
ENDBRANCH   1   6
BRANCH   1   9
ATOM      9  C   UNL     1       1.754   0.673  -5.602  1.00  0.00     0.047 C 
ATOM     10  C   UNL     1       2.740   1.606  -4.880  1.00  0.00     0.014 C 
ATOM     11  C   UNL     1       0.587   1.485  -6.182  1.00  0.00     0.014 C 
ENDBRANCH   1   9
TORSDOF 3
ENDMDL
MODEL 8
REMARK VINA RESULT:     1.659      3.788      4.969
REMARK INTER + INTRA:           1.852
REMARK INTER:                   1.907
REMARK INTRA:                  -0.055
REMARK UNBOUND:                -0.050
REMARK SMILES CC(C)[C@@H]([NH3+])C(=O)[O-]
REMARK SMILES IDX 4 1 5 2 6 6 7 7 8 8 2 9 1 10 3 11
REMARK H PARENT 5 3 5 4 5 5
REMARK Flexibility Score: inf
ROOT
ATOM      1  C   UNL     1      -0.751   2.398  -5.253  1.00  0.00     0.230 C 
ENDROOT
BRANCH   1   2
ATOM      2  N   UNL     1      -1.484   2.288  -6.524  1.00  0.00    -0.350 N 
ATOM      3  H   UNL     1      -1.225   3.089  -7.146  1.00  0.00     0.345 HD
ATOM      4  H   UNL     1      -1.225   1.407  -7.021  1.00  0.00     0.345 HD
ATOM      5  H   UNL     1      -2.518   2.309  -6.372  1.00  0.00     0.345 HD
ENDBRANCH   1   2
BRANCH   1   6
ATOM      6  C   UNL     1       0.695   1.998  -5.429  1.00  0.00     0.099 C 
ATOM      7  O   UNL     1       1.581   2.411  -4.634  1.00  0.00    -0.544 OA
ATOM      8  O   UNL     1       1.049   1.125  -6.450  1.00  0.00    -0.544 OA
ENDBRANCH   1   6
BRANCH   1   9
ATOM      9  C   UNL     1      -0.862   3.809  -4.602  1.00  0.00     0.047 C 
ATOM     10  C   UNL     1      -1.604   4.833  -5.476  1.00  0.00     0.014 C 
ATOM     11  C   UNL     1      -1.498   3.746  -3.206  1.00  0.00     0.014 C 
ENDBRANCH   1   9
TORSDOF 3
ENDMDL
MODEL 9
REMARK VINA RESULT:     2.083      6.247      7.269
REMARK INTER + INTRA:           2.337
REMARK INTER:                   2.185
REMARK INTRA:                   0.152
REMARK UNBOUND:                -0.050
REMARK SMILES CC(C)[C@@H]([NH3+])C(=O)[O-]
REMARK SMILES IDX 4 1 5 2 6 6 7 7 8 8 2 9 1 10 3 11
REMARK H PARENT 5 3 5 4 5 5
REMARK Flexibility Score: inf
ROOT
ATOM      1  C   UNL     1      -1.826   5.450  -4.721  1.00  0.00     0.230 C 
ENDROOT
BRANCH   1   2
ATOM      2  N   UNL     1      -3.290   5.352  -4.834  1.00  0.00    -0.350 N 
ATOM      3  H   UNL     1      -3.677   6.273  -5.146  1.00  0.00     0.345 HD
ATOM      4  H   UNL     1      -3.555   4.640  -5.551  1.00  0.00     0.345 HD
ATOM      5  H   UNL     1      -3.729   5.102  -3.919  1.00  0.00     0.345 HD
ENDBRANCH   1   2
BRANCH   1   6
ATOM      6  C   UNL     1      -1.419   6.761  -4.095  1.00  0.00     0.099 C 
ATOM      7  O   UNL     1      -1.262   6.862  -2.849  1.00  0.00    -0.544 OA
ATOM      8  O   UNL     1      -1.166   7.862  -4.904  1.00  0.00    -0.544 OA
ENDBRANCH   1   6
BRANCH   1   9
ATOM      9  C   UNL     1      -1.190   4.248  -3.960  1.00  0.00     0.047 C 
ATOM     10  C   UNL     1      -1.992   3.809  -2.723  1.00  0.00     0.014 C 
ATOM     11  C   UNL     1      -0.947   3.048  -4.885  1.00  0.00     0.014 C 
ENDBRANCH   1   9
TORSDOF 3
ENDMDL
