MODEL 1
REMARK VINA RESULT:    -3.816      0.000      0.000
REMARK INTER + INTRA:          -4.278
REMARK INTER:                  -4.263
REMARK INTRA:                  -0.016
REMARK UNBOUND:                -0.016
REMARK SMILES CCCC(=O)[O-]
REMARK SMILES IDX 3 1 4 2 5 3 6 4 2 5 1 6
REMARK H PARENT
REMARK Flexibility Score: inf
ROOT
ATOM      1  C   UNL     1       7.378   7.900  -2.372  1.00  0.00     0.052 C 
ENDROOT
BRANCH   1   2
ATOM      2  C   UNL     1       6.295   7.249  -1.571  1.00  0.00     0.041 C 
ATOM      3  O   UNL     1       5.654   6.275  -2.047  1.00  0.00    -0.550 OA
ATOM      4  O   UNL     1       5.959   7.749  -0.320  1.00  0.00    -0.550 OA
ENDBRANCH   1   2
BRANCH   1   5
ATOM      5  C   UNL     1       8.183   8.866  -1.498  1.00  0.00     0.003 C 
ATOM      6  C   UNL     1       9.678   8.748  -1.778  1.00  0.00     0.004 C 
ENDBRANCH   1   5
TORSDOF 2
ENDMDL
MODEL 2
REMARK VINA RESULT:    -3.388      2.079      3.193
REMARK INTER + INTRA:          -3.799
REMARK INTER:                  -3.776
REMARK INTRA:                  -0.023
REMARK UNBOUND:                -0.016
REMARK SMILES CCCC(=O)[O-]
REMARK SMILES IDX 3 1 4 2 5 3 6 4 2 5 1 6
REMARK H PARENT
REMARK Flexibility Score: inf
ROOT
ATOM      1  C   UNL     1       7.135   8.133  -2.624  1.00  0.00     0.052 C 
ENDROOT
BRANCH   1   2
ATOM      2  C   UNL     1       8.351   8.518  -1.842  1.00  0.00     0.041 C 
ATOM      3  O   UNL     1       9.482   8.539  -2.396  1.00  0.00    -0.550 OA
ATOM      4  O   UNL     1       8.242   8.806  -0.487  1.00  0.00    -0.550 OA
ENDBRANCH   1   2
BRANCH   1   5
ATOM      5  C   UNL     1       6.671   6.727  -2.236  1.00  0.00     0.003 C 
ATOM      6  C   UNL     1       5.522   6.784  -1.233  1.00  0.00     0.004 C 
ENDBRANCH   1   5
TORSDOF 2
ENDMDL
MODEL 3
REMARK VINA RESULT:    -2.719     21.909     22.234
REMARK INTER + INTRA:          -3.052
REMARK INTER:                  -3.041
REMARK INTRA:                  -0.011
REMARK UNBOUND:                -0.016
REMARK SMILES CCCC(=O)[O-]
REMARK SMILES IDX 3 1 4 2 5 3 6 4 2 5 1 6
REMARK H PARENT
REMARK Flexibility Score: inf
ROOT
ATOM      1  C   UNL     1      -8.818  -4.473   8.762  1.00  0.00     0.052 C 
ENDROOT
BRANCH   1   2
ATOM      2  C   UNL     1      -9.085  -3.028   8.479  1.00  0.00     0.041 C 
ATOM      3  O   UNL     1      -9.356  -2.651   7.309  1.00  0.00    -0.550 OA
ATOM      4  O   UNL     1      -8.986  -2.091   9.500  1.00  0.00    -0.550 OA
ENDBRANCH   1   2
BRANCH   1   5
ATOM      5  C   UNL     1      -7.798  -4.618   9.894  1.00  0.00     0.003 C 
ATOM      6  C   UNL     1      -6.763  -5.691   9.569  1.00  0.00     0.004 C 
ENDBRANCH   1   5
TORSDOF 2
ENDMDL
MODEL 4
REMARK VINA RESULT:    -2.651     11.807     12.485
REMARK INTER + INTRA:          -2.977
REMARK INTER:                  -2.970
REMARK INTRA:                  -0.007
REMARK UNBOUND:                -0.016
REMARK SMILES CCCC(=O)[O-]
REMARK SMILES IDX 3 1 4 2 5 3 6 4 2 5 1 6
REMARK H PARENT
REMARK Flexibility Score: inf
ROOT
ATOM      1  C   UNL     1       8.969  -3.982  -4.147  1.00  0.00     0.052 C 
ENDROOT
BRANCH   1   2
ATOM      2  C   UNL     1       9.624  -3.094  -3.137  1.00  0.00     0.041 C 
ATOM      3  O   UNL     1       9.765  -1.865  -3.370  1.00  0.00    -0.550 OA
ATOM      4  O   UNL     1      10.125  -3.634  -1.959  1.00  0.00    -0.550 OA
ENDBRANCH   1   2
BRANCH   1   5
ATOM      5  C   UNL     1       9.810  -5.239  -4.382  1.00  0.00     0.003 C 
ATOM      6  C   UNL     1       9.813  -5.634  -5.856  1.00  0.00     0.004 C 
ENDBRANCH   1   5
TORSDOF 2
ENDMDL
MODEL 5
REMARK VINA RESULT:    -2.472     20.672     21.676
REMARK INTER + INTRA:          -2.776
REMARK INTER:                  -2.710
REMARK INTRA:                  -0.066
REMARK UNBOUND:                -0.016
REMARK SMILES CCCC(=O)[O-]
REMARK SMILES IDX 3 1 4 2 5 3 6 4 2 5 1 6
REMARK H PARENT
REMARK Flexibility Score: inf
ROOT
ATOM      1  C   UNL     1      -6.968  -7.148  -7.907  1.00  0.00     0.052 C 
ENDROOT
BRANCH   1   2
ATOM      2  C   UNL     1      -6.644  -8.518  -8.415  1.00  0.00     0.041 C 
ATOM      3  O   UNL     1      -6.316  -9.431  -7.612  1.00  0.00    -0.550 OA
ATOM      4  O   UNL     1      -6.655  -8.773  -9.781  1.00  0.00    -0.550 OA
ENDBRANCH   1   2
BRANCH   1   5
ATOM      5  C   UNL     1      -6.065  -6.104  -8.569  1.00  0.00     0.003 C 
ATOM      6  C   UNL     1      -4.596  -6.359  -8.245  1.00  0.00     0.004 C 
ENDBRANCH   1   5
TORSDOF 2
ENDMDL
MODEL 6
REMARK VINA RESULT:    -2.426     21.867     22.539
REMARK INTER + INTRA:          -2.726
REMARK INTER:                  -2.677
REMARK INTRA:                  -0.049
REMARK UNBOUND:                -0.016
REMARK SMILES CCCC(=O)[O-]
REMARK SMILES IDX 3 1 4 2 5 3 6 4 2 5 1 6
REMARK H PARENT
REMARK Flexibility Score: inf
ROOT
ATOM      1  C   UNL     1      -8.667  -3.789  10.052  1.00  0.00     0.052 C 
ENDROOT
BRANCH   1   2
ATOM      2  C   UNL     1      -7.833  -4.943   9.594  1.00  0.00     0.041 C 
ATOM      3  O   UNL     1      -6.576  -4.881   9.656  1.00  0.00    -0.550 OA
ATOM      4  O   UNL     1      -8.441  -6.068   9.051  1.00  0.00    -0.550 OA
ENDBRANCH   1   2
BRANCH   1   5
ATOM      5  C   UNL     1      -8.654  -2.669   9.008  1.00  0.00     0.003 C 
ATOM      6  C   UNL     1      -9.623  -2.968   7.868  1.00  0.00     0.004 C 
ENDBRANCH   1   5
TORSDOF 2
ENDMDL
MODEL 7
REMARK VINA RESULT:    -2.425     20.280     21.215
REMARK INTER + INTRA:          -2.725
REMARK INTER:                  -2.685
REMARK INTRA:                  -0.040
REMARK UNBOUND:                -0.016
REMARK SMILES CCCC(=O)[O-]
REMARK SMILES IDX 3 1 4 2 5 3 6 4 2 5 1 6
REMARK H PARENT
REMARK Flexibility Score: inf
ROOT
ATOM      1  C   UNL     1      -6.421  -6.739  -7.830  1.00  0.00     0.052 C 
ENDROOT
BRANCH   1   2
ATOM      2  C   UNL     1      -5.904  -5.978  -9.010  1.00  0.00     0.041 C 
ATOM      3  O   UNL     1      -6.698  -5.347  -9.756  1.00  0.00    -0.550 OA
ATOM      4  O   UNL     1      -4.548  -6.006  -9.314  1.00  0.00    -0.550 OA
ENDBRANCH   1   2
BRANCH   1   5
ATOM      5  C   UNL     1      -6.854  -8.146  -8.248  1.00  0.00     0.003 C 
ATOM      6  C   UNL     1      -5.790  -9.180  -7.889  1.00  0.00     0.004 C 
ENDBRANCH   1   5
TORSDOF 2
ENDMDL
MODEL 8
REMARK VINA RESULT:    -2.353     22.403     23.294
REMARK INTER + INTRA:          -2.644
REMARK INTER:                  -2.572
REMARK INTRA:                  -0.072
REMARK UNBOUND:                -0.016
REMARK SMILES CCCC(=O)[O-]
REMARK SMILES IDX 3 1 4 2 5 3 6 4 2 5 1 6
REMARK H PARENT
REMARK Flexibility Score: inf
ROOT
ATOM      1  C   UNL     1      -8.205  -6.125   9.914  1.00  0.00     0.052 C 
ENDROOT
BRANCH   1   2
ATOM      2  C   UNL     1      -8.756  -6.635   8.619  1.00  0.00     0.041 C 
ATOM      3  O   UNL     1      -7.983  -7.097   7.739  1.00  0.00    -0.550 OA
ATOM      4  O   UNL     1     -10.119  -6.553   8.365  1.00  0.00    -0.550 OA
ENDBRANCH   1   2
BRANCH   1   5
ATOM      5  C   UNL     1      -7.273  -4.936   9.668  1.00  0.00     0.003 C 
ATOM      6  C   UNL     1      -8.045  -3.728   9.145  1.00  0.00     0.004 C 
ENDBRANCH   1   5
TORSDOF 2
ENDMDL
MODEL 9
REMARK VINA RESULT:    -2.315     15.998     16.859
REMARK INTER + INTRA:          -2.601
REMARK INTER:                  -2.563
REMARK INTRA:                  -0.038
REMARK UNBOUND:                -0.016
REMARK SMILES CCCC(=O)[O-]
REMARK SMILES IDX 3 1 4 2 5 3 6 4 2 5 1 6
REMARK H PARENT
REMARK Flexibility Score: inf
ROOT
ATOM      1  C   UNL     1      -6.565   6.916   9.095  1.00  0.00     0.052 C 
ENDROOT
BRANCH   1   2
ATOM      2  C   UNL     1      -5.146   7.143   8.679  1.00  0.00     0.041 C 
ATOM      3  O   UNL     1      -4.313   6.200   8.726  1.00  0.00    -0.550 OA
ATOM      4  O   UNL     1      -4.732   8.410   8.288  1.00  0.00    -0.550 OA
ENDBRANCH   1   2
BRANCH   1   5
ATOM      5  C   UNL     1      -7.130   5.667   8.412  1.00  0.00     0.003 C 
ATOM      6  C   UNL     1      -7.887   6.031   7.138  1.00  0.00     0.004 C 
ENDBRANCH   1   5
TORSDOF 2
ENDMDL
