MODEL 1
REMARK VINA RESULT:    -4.749      0.000      0.000
REMARK INTER + INTRA:          -9.886
REMARK INTER:                  -8.914
REMARK INTRA:                  -0.972
REMARK UNBOUND:                -0.972
REMARK SMILES O=C([O-])CCCCCCCCCCCCCCC(=O)[O-]
REMARK SMILES IDX 10 1 9 2 8 3 7 4 6 5 5 6 4 7 2 8 1 9 3 10 11 11 12 12 13 13
REMARK SMILES IDX 14 14 15 15 16 16 17 17 18 18 19 19 20 20
REMARK H PARENT
REMARK Flexibility Score: inf
ROOT
ATOM      1  C   UNL     1      -7.523 -39.729 -13.800  1.00  0.00     0.000 C 
ENDROOT
BRANCH   1   2
ATOM      2  C   UNL     1      -7.388 -39.359 -12.315  1.00  0.00     0.000 C 
BRANCH   2   3
ATOM      3  C   UNL     1      -6.258 -40.132 -11.613  1.00  0.00     0.000 C 
BRANCH   3   4
ATOM      4  C   UNL     1      -5.651 -39.349 -10.438  1.00  0.00     0.000 C 
BRANCH   4   5
ATOM      5  C   UNL     1      -6.724 -38.742  -9.518  1.00  0.00     0.000 C 
BRANCH   5   6
ATOM      6  C   UNL     1      -6.329 -37.355  -8.985  1.00  0.00     0.006 C 
BRANCH   6   7
ATOM      7  C   UNL     1      -5.007 -36.852  -9.580  1.00  0.00     0.053 C 
BRANCH   7   8
ATOM      8  C   UNL     1      -4.486 -35.694  -8.789  1.00  0.00     0.041 C 
ATOM      9  O   UNL     1      -5.151 -34.629  -8.711  1.00  0.00    -0.550 OA
ATOM     10  O   UNL     1      -3.240 -35.774  -8.178  1.00  0.00    -0.550 OA
ENDBRANCH   7   8
ENDBRANCH   6   7
ENDBRANCH   5   6
ENDBRANCH   4   5
ENDBRANCH   3   4
ENDBRANCH   2   3
ENDBRANCH   1   2
BRANCH   1  11
ATOM     11  C   UNL     1      -6.605 -40.892 -14.205  1.00  0.00     0.000 C 
BRANCH  11  12
ATOM     12  C   UNL     1      -6.283 -40.838 -15.706  1.00  0.00     0.000 C 
BRANCH  12  13
ATOM     13  C   UNL     1      -7.264 -39.954 -16.491  1.00  0.00     0.000 C 
BRANCH  13  14
ATOM     14  C   UNL     1      -7.305 -40.296 -17.991  1.00  0.00     0.000 C 
BRANCH  14  15
ATOM     15  C   UNL     1      -6.718 -39.166 -18.865  1.00  0.00     0.000 C 
BRANCH  15  16
ATOM     16  C   UNL     1      -7.104 -37.755 -18.384  1.00  0.00     0.006 C 
BRANCH  16  17
ATOM     17  C   UNL     1      -8.470 -37.274 -18.894  1.00  0.00     0.053 C 
BRANCH  17  18
ATOM     18  C   UNL     1      -9.241 -36.555 -17.829  1.00  0.00     0.041 C 
ATOM     19  O   UNL     1      -9.653 -35.382 -18.029  1.00  0.00    -0.550 OA
ATOM     20  O   UNL     1      -9.526 -37.187 -16.626  1.00  0.00    -0.550 OA
ENDBRANCH  17  18
ENDBRANCH  16  17
ENDBRANCH  15  16
ENDBRANCH  14  15
ENDBRANCH  13  14
ENDBRANCH  12  13
ENDBRANCH  11  12
ENDBRANCH   1  11
TORSDOF 15
ENDMDL
MODEL 2
REMARK VINA RESULT:    -4.561      2.141      3.165
REMARK INTER + INTRA:          -9.532
REMARK INTER:                  -8.625
REMARK INTRA:                  -0.908
REMARK UNBOUND:                -0.972
REMARK SMILES O=C([O-])CCCCCCCCCCCCCCC(=O)[O-]
REMARK SMILES IDX 10 1 9 2 8 3 7 4 6 5 5 6 4 7 2 8 1 9 3 10 11 11 12 12 13 13
REMARK SMILES IDX 14 14 15 15 16 16 17 17 18 18 19 19 20 20
REMARK H PARENT
REMARK Flexibility Score: inf
ROOT
ATOM      1  C   UNL     1      -6.973 -39.503 -11.353  1.00  0.00     0.000 C 
ENDROOT
BRANCH   1   2
ATOM      2  C   UNL     1      -5.736 -39.174 -10.503  1.00  0.00     0.000 C 
BRANCH   2   3
ATOM      3  C   UNL     1      -5.998 -38.049  -9.487  1.00  0.00     0.000 C 
BRANCH   3   4
ATOM      4  C   UNL     1      -4.831 -37.052  -9.399  1.00  0.00     0.000 C 
BRANCH   4   5
ATOM      5  C   UNL     1      -5.308 -35.590  -9.355  1.00  0.00     0.000 C 
BRANCH   5   6
ATOM      6  C   UNL     1      -6.233 -35.235 -10.530  1.00  0.00     0.006 C 
BRANCH   6   7
ATOM      7  C   UNL     1      -7.478 -34.457 -10.084  1.00  0.00     0.053 C 
BRANCH   7   8
ATOM      8  C   UNL     1      -8.688 -35.335 -10.132  1.00  0.00     0.041 C 
ATOM      9  O   UNL     1      -8.911 -36.158  -9.206  1.00  0.00    -0.550 OA
ATOM     10  O   UNL     1      -9.544 -35.280 -11.226  1.00  0.00    -0.550 OA
ENDBRANCH   7   8
ENDBRANCH   6   7
ENDBRANCH   5   6
ENDBRANCH   4   5
ENDBRANCH   3   4
ENDBRANCH   2   3
ENDBRANCH   1   2
BRANCH   1  11
ATOM     11  C   UNL     1      -6.619 -40.247 -12.649  1.00  0.00     0.000 C 
BRANCH  11  12
ATOM     12  C   UNL     1      -7.539 -39.809 -13.800  1.00  0.00     0.000 C 
BRANCH  12  13
ATOM     13  C   UNL     1      -7.084 -40.353 -15.163  1.00  0.00     0.000 C 
BRANCH  13  14
ATOM     14  C   UNL     1      -7.439 -39.412 -16.327  1.00  0.00     0.000 C 
BRANCH  14  15
ATOM     15  C   UNL     1      -8.952 -39.113 -16.398  1.00  0.00     0.000 C 
BRANCH  15  16
ATOM     16  C   UNL     1      -9.280 -37.608 -16.426  1.00  0.00     0.006 C 
BRANCH  16  17
ATOM     17  C   UNL     1      -9.898 -37.129 -17.748  1.00  0.00     0.053 C 
BRANCH  17  18
ATOM     18  C   UNL     1      -8.900 -36.401 -18.598  1.00  0.00     0.041 C 
ATOM     19  O   UNL     1      -7.671 -36.475 -18.332  1.00  0.00    -0.550 OA
ATOM     20  O   UNL     1      -9.323 -35.663 -19.695  1.00  0.00    -0.550 OA
ENDBRANCH  17  18
ENDBRANCH  16  17
ENDBRANCH  15  16
ENDBRANCH  14  15
ENDBRANCH  13  14
ENDBRANCH  12  13
ENDBRANCH  11  12
ENDBRANCH   1  11
TORSDOF 15
ENDMDL
MODEL 3
REMARK VINA RESULT:    -4.494      1.401      7.872
REMARK INTER + INTRA:          -9.407
REMARK INTER:                  -8.603
REMARK INTRA:                  -0.804
REMARK UNBOUND:                -0.972
REMARK SMILES O=C([O-])CCCCCCCCCCCCCCC(=O)[O-]
REMARK SMILES IDX 10 1 9 2 8 3 7 4 6 5 5 6 4 7 2 8 1 9 3 10 11 11 12 12 13 13
REMARK SMILES IDX 14 14 15 15 16 16 17 17 18 18 19 19 20 20
REMARK H PARENT
REMARK Flexibility Score: inf
ROOT
ATOM      1  C   UNL     1      -7.362 -40.807 -13.855  1.00  0.00     0.000 C 
ENDROOT
BRANCH   1   2
ATOM      2  C   UNL     1      -6.469 -40.862 -15.104  1.00  0.00     0.000 C 
BRANCH   2   3
ATOM      3  C   UNL     1      -7.142 -40.241 -16.341  1.00  0.00     0.000 C 
BRANCH   3   4
ATOM      4  C   UNL     1      -6.373 -40.535 -17.639  1.00  0.00     0.000 C 
BRANCH   4   5
ATOM      5  C   UNL     1      -6.613 -39.466 -18.720  1.00  0.00     0.000 C 
BRANCH   5   6
ATOM      6  C   UNL     1      -7.940 -38.717 -18.525  1.00  0.00     0.006 C 
BRANCH   6   7
ATOM      7  C   UNL     1      -7.735 -37.246 -18.142  1.00  0.00     0.053 C 
BRANCH   7   8
ATOM      8  C   UNL     1      -8.994 -36.673 -17.573  1.00  0.00     0.041 C 
ATOM      9  O   UNL     1      -9.457 -35.592 -18.020  1.00  0.00    -0.550 OA
ATOM     10  O   UNL     1      -9.631 -37.309 -16.513  1.00  0.00    -0.550 OA
ENDBRANCH   7   8
ENDBRANCH   6   7
ENDBRANCH   5   6
ENDBRANCH   4   5
ENDBRANCH   3   4
ENDBRANCH   2   3
ENDBRANCH   1   2
BRANCH   1  11
ATOM     11  C   UNL     1      -6.672 -40.125 -12.664  1.00  0.00     0.000 C 
BRANCH  11  12
ATOM     12  C   UNL     1      -6.910 -40.916 -11.368  1.00  0.00     0.000 C 
BRANCH  12  13
ATOM     13  C   UNL     1      -6.385 -40.186 -10.123  1.00  0.00     0.000 C 
BRANCH  13  14
ATOM     14  C   UNL     1      -5.199 -39.256 -10.434  1.00  0.00     0.000 C 
BRANCH  14  15
ATOM     15  C   UNL     1      -5.351 -37.872  -9.766  1.00  0.00     0.000 C 
BRANCH  15  16
ATOM     16  C   UNL     1      -6.811 -37.502  -9.445  1.00  0.00     0.006 C 
BRANCH  16  17
ATOM     17  C   UNL     1      -6.994 -36.058  -8.953  1.00  0.00     0.053 C 
BRANCH  17  18
ATOM     18  C   UNL     1      -7.211 -35.105 -10.090  1.00  0.00     0.041 C 
ATOM     19  O   UNL     1      -6.236 -34.485 -10.589  1.00  0.00    -0.550 OA
ATOM     20  O   UNL     1      -8.484 -34.921 -10.614  1.00  0.00    -0.550 OA
ENDBRANCH  17  18
ENDBRANCH  16  17
ENDBRANCH  15  16
ENDBRANCH  14  15
ENDBRANCH  13  14
ENDBRANCH  12  13
ENDBRANCH  11  12
ENDBRANCH   1  11
TORSDOF 15
ENDMDL
MODEL 4
REMARK VINA RESULT:    -4.405      0.981      8.323
REMARK INTER + INTRA:          -9.240
REMARK INTER:                  -8.627
REMARK INTRA:                  -0.613
REMARK UNBOUND:                -0.972
REMARK SMILES O=C([O-])CCCCCCCCCCCCCCC(=O)[O-]
REMARK SMILES IDX 10 1 9 2 8 3 7 4 6 5 5 6 4 7 2 8 1 9 3 10 11 11 12 12 13 13
REMARK SMILES IDX 14 14 15 15 16 16 17 17 18 18 19 19 20 20
REMARK H PARENT
REMARK Flexibility Score: inf
ROOT
ATOM      1  C   UNL     1      -6.711 -40.542 -15.735  1.00  0.00     0.000 C 
ENDROOT
BRANCH   1   2
ATOM      2  C   UNL     1      -5.989 -41.099 -16.973  1.00  0.00     0.000 C 
BRANCH   2   3
ATOM      3  C   UNL     1      -6.747 -40.807 -18.280  1.00  0.00     0.000 C 
BRANCH   3   4
ATOM      4  C   UNL     1      -6.168 -39.602 -19.039  1.00  0.00     0.000 C 
BRANCH   4   5
ATOM      5  C   UNL     1      -6.928 -38.298 -18.741  1.00  0.00     0.000 C 
BRANCH   5   6
ATOM      6  C   UNL     1      -8.432 -38.412 -19.037  1.00  0.00     0.006 C 
BRANCH   6   7
ATOM      7  C   UNL     1      -9.081 -37.050 -19.317  1.00  0.00     0.053 C 
BRANCH   7   8
ATOM      8  C   UNL     1      -9.357 -36.329 -18.035  1.00  0.00     0.041 C 
ATOM      9  O   UNL     1      -9.473 -35.076 -18.025  1.00  0.00    -0.550 OA
ATOM     10  O   UNL     1      -9.436 -37.038 -16.842  1.00  0.00    -0.550 OA
ENDBRANCH   7   8
ENDBRANCH   6   7
ENDBRANCH   5   6
ENDBRANCH   4   5
ENDBRANCH   3   4
ENDBRANCH   2   3
ENDBRANCH   1   2
BRANCH   1  11
ATOM     11  C   UNL     1      -6.207 -41.170 -14.426  1.00  0.00     0.000 C 
BRANCH  11  12
ATOM     12  C   UNL     1      -6.797 -40.441 -13.209  1.00  0.00     0.000 C 
BRANCH  12  13
ATOM     13  C   UNL     1      -6.733 -41.283 -11.925  1.00  0.00     0.000 C 
BRANCH  13  14
ATOM     14  C   UNL     1      -6.864 -40.434 -10.649  1.00  0.00     0.000 C 
BRANCH  14  15
ATOM     15  C   UNL     1      -5.710 -39.418 -10.501  1.00  0.00     0.000 C 
BRANCH  15  16
ATOM     16  C   UNL     1      -6.071 -38.202  -9.628  1.00  0.00     0.006 C 
BRANCH  16  17
ATOM     17  C   UNL     1      -4.949 -37.158  -9.519  1.00  0.00     0.053 C 
BRANCH  17  18
ATOM     18  C   UNL     1      -5.483 -35.800  -9.173  1.00  0.00     0.041 C 
ATOM     19  O   UNL     1      -5.513 -35.420  -7.973  1.00  0.00    -0.550 OA
ATOM     20  O   UNL     1      -5.926 -34.948 -10.176  1.00  0.00    -0.550 OA
ENDBRANCH  17  18
ENDBRANCH  16  17
ENDBRANCH  15  16
ENDBRANCH  14  15
ENDBRANCH  13  14
ENDBRANCH  12  13
ENDBRANCH  11  12
ENDBRANCH   1  11
TORSDOF 15
ENDMDL
MODEL 5
REMARK VINA RESULT:    -4.403      1.599      2.255
REMARK INTER + INTRA:          -9.236
REMARK INTER:                  -8.402
REMARK INTRA:                  -0.834
REMARK UNBOUND:                -0.972
REMARK SMILES O=C([O-])CCCCCCCCCCCCCCC(=O)[O-]
REMARK SMILES IDX 10 1 9 2 8 3 7 4 6 5 5 6 4 7 2 8 1 9 3 10 11 11 12 12 13 13
REMARK SMILES IDX 14 14 15 15 16 16 17 17 18 18 19 19 20 20
REMARK H PARENT
REMARK Flexibility Score: inf
ROOT
ATOM      1  C   UNL     1      -6.714 -40.134 -12.161  1.00  0.00     0.000 C 
ENDROOT
BRANCH   1   2
ATOM      2  C   UNL     1      -7.020 -40.860 -10.842  1.00  0.00     0.000 C 
BRANCH   2   3
ATOM      3  C   UNL     1      -6.260 -40.261  -9.645  1.00  0.00     0.000 C 
BRANCH   3   4
ATOM      4  C   UNL     1      -5.665 -38.878  -9.960  1.00  0.00     0.000 C 
BRANCH   4   5
ATOM      5  C   UNL     1      -6.580 -37.727  -9.507  1.00  0.00     0.000 C 
BRANCH   5   6
ATOM      6  C   UNL     1      -5.791 -36.475  -9.093  1.00  0.00     0.006 C 
BRANCH   6   7
ATOM      7  C   UNL     1      -5.839 -35.370 -10.156  1.00  0.00     0.053 C 
BRANCH   7   8
ATOM      8  C   UNL     1      -7.019 -34.479  -9.930  1.00  0.00     0.041 C 
ATOM      9  O   UNL     1      -6.930 -33.495  -9.150  1.00  0.00    -0.550 OA
ATOM     10  O   UNL     1      -8.234 -34.764 -10.543  1.00  0.00    -0.550 OA
ENDBRANCH   7   8
ENDBRANCH   6   7
ENDBRANCH   5   6
ENDBRANCH   4   5
ENDBRANCH   3   4
ENDBRANCH   2   3
ENDBRANCH   1   2
BRANCH   1  11
ATOM     11  C   UNL     1      -7.976 -39.579 -12.837  1.00  0.00     0.000 C 
BRANCH  11  12
ATOM     12  C   UNL     1      -7.816 -39.562 -14.365  1.00  0.00     0.000 C 
BRANCH  12  13
ATOM     13  C   UNL     1      -6.853 -40.647 -14.872  1.00  0.00     0.000 C 
BRANCH  13  14
ATOM     14  C   UNL     1      -6.571 -40.536 -16.380  1.00  0.00     0.000 C 
BRANCH  14  15
ATOM     15  C   UNL     1      -7.497 -39.514 -17.074  1.00  0.00     0.000 C 
BRANCH  15  16
ATOM     16  C   UNL     1      -7.237 -39.377 -18.586  1.00  0.00     0.006 C 
BRANCH  16  17
ATOM     17  C   UNL     1      -8.029 -38.244 -19.255  1.00  0.00     0.053 C 
BRANCH  17  18
ATOM     18  C   UNL     1      -7.976 -36.979 -18.453  1.00  0.00     0.041 C 
ATOM     19  O   UNL     1      -6.893 -36.347 -18.339  1.00  0.00    -0.550 OA
ATOM     20  O   UNL     1      -9.126 -36.485 -17.851  1.00  0.00    -0.550 OA
ENDBRANCH  17  18
ENDBRANCH  16  17
ENDBRANCH  15  16
ENDBRANCH  14  15
ENDBRANCH  13  14
ENDBRANCH  12  13
ENDBRANCH  11  12
ENDBRANCH   1  11
TORSDOF 15
ENDMDL
MODEL 6
REMARK VINA RESULT:    -4.387      5.127      7.378
REMARK INTER + INTRA:          -9.207
REMARK INTER:                  -7.231
REMARK INTRA:                  -1.976
REMARK UNBOUND:                -0.972
REMARK SMILES O=C([O-])CCCCCCCCCCCCCCC(=O)[O-]
REMARK SMILES IDX 10 1 9 2 8 3 7 4 6 5 5 6 4 7 2 8 1 9 3 10 11 11 12 12 13 13
REMARK SMILES IDX 14 14 15 15 16 16 17 17 18 18 19 19 20 20
REMARK H PARENT
REMARK Flexibility Score: inf
ROOT
ATOM      1  C   UNL     1      -4.119 -35.713  -8.598  1.00  0.00     0.000 C 
ENDROOT
BRANCH   1   2
ATOM      2  C   UNL     1      -5.406 -35.091  -8.034  1.00  0.00     0.000 C 
BRANCH   2   3
ATOM      3  C   UNL     1      -5.987 -34.000  -8.952  1.00  0.00     0.000 C 
BRANCH   3   4
ATOM      4  C   UNL     1      -7.495 -34.176  -9.192  1.00  0.00     0.000 C 
BRANCH   4   5
ATOM      5  C   UNL     1      -7.797 -35.004 -10.454  1.00  0.00     0.000 C 
BRANCH   5   6
ATOM      6  C   UNL     1      -9.056 -35.873 -10.302  1.00  0.00     0.006 C 
BRANCH   6   7
ATOM      7  C   UNL     1      -9.232 -36.408  -8.875  1.00  0.00     0.053 C 
BRANCH   7   8
ATOM      8  C   UNL     1      -9.287 -37.903  -8.882  1.00  0.00     0.041 C 
ATOM      9  O   UNL     1      -9.963 -38.509  -9.754  1.00  0.00    -0.550 OA
ATOM     10  O   UNL     1      -8.633 -38.628  -7.892  1.00  0.00    -0.550 OA
ENDBRANCH   7   8
ENDBRANCH   6   7
ENDBRANCH   5   6
ENDBRANCH   4   5
ENDBRANCH   3   4
ENDBRANCH   2   3
ENDBRANCH   1   2
BRANCH   1  11
ATOM     11  C   UNL     1      -4.396 -36.740  -9.706  1.00  0.00     0.000 C 
BRANCH  11  12
ATOM     12  C   UNL     1      -5.596 -37.627  -9.342  1.00  0.00     0.000 C 
BRANCH  12  13
ATOM     13  C   UNL     1      -5.556 -38.995 -10.040  1.00  0.00     0.000 C 
BRANCH  13  14
ATOM     14  C   UNL     1      -6.679 -39.167 -11.078  1.00  0.00     0.000 C 
BRANCH  14  15
ATOM     15  C   UNL     1      -6.740 -40.604 -11.642  1.00  0.00     0.000 C 
BRANCH  15  16
ATOM     16  C   UNL     1      -8.052 -41.339 -11.308  1.00  0.00     0.006 C 
BRANCH  16  17
ATOM     17  C   UNL     1      -8.179 -41.750  -9.833  1.00  0.00     0.053 C 
BRANCH  17  18
ATOM     18  C   UNL     1      -7.018 -42.587  -9.386  1.00  0.00     0.041 C 
ATOM     19  O   UNL     1      -6.287 -42.198  -8.438  1.00  0.00    -0.550 OA
ATOM     20  O   UNL     1      -6.759 -43.806  -9.999  1.00  0.00    -0.550 OA
ENDBRANCH  17  18
ENDBRANCH  16  17
ENDBRANCH  15  16
ENDBRANCH  14  15
ENDBRANCH  13  14
ENDBRANCH  12  13
ENDBRANCH  11  12
ENDBRANCH   1  11
TORSDOF 15
ENDMDL
MODEL 7
REMARK VINA RESULT:    -4.341      3.263      3.993
REMARK INTER + INTRA:          -9.119
REMARK INTER:                  -8.175
REMARK INTRA:                  -0.944
REMARK UNBOUND:                -0.972
REMARK SMILES O=C([O-])CCCCCCCCCCCCCCC(=O)[O-]
REMARK SMILES IDX 10 1 9 2 8 3 7 4 6 5 5 6 4 7 2 8 1 9 3 10 11 11 12 12 13 13
REMARK SMILES IDX 14 14 15 15 16 16 17 17 18 18 19 19 20 20
REMARK H PARENT
REMARK Flexibility Score: inf
ROOT
ATOM      1  C   UNL     1      -7.566 -39.657 -13.731  1.00  0.00     0.000 C 
ENDROOT
BRANCH   1   2
ATOM      2  C   UNL     1      -7.552 -39.277 -12.242  1.00  0.00     0.000 C 
BRANCH   2   3
ATOM      3  C   UNL     1      -6.475 -40.037 -11.448  1.00  0.00     0.000 C 
BRANCH   3   4
ATOM      4  C   UNL     1      -6.188 -39.393 -10.081  1.00  0.00     0.000 C 
BRANCH   4   5
ATOM      5  C   UNL     1      -4.940 -38.494 -10.104  1.00  0.00     0.000 C 
BRANCH   5   6
ATOM      6  C   UNL     1      -5.196 -37.114  -9.478  1.00  0.00     0.006 C 
BRANCH   6   7
ATOM      7  C   UNL     1      -6.690 -36.827  -9.277  1.00  0.00     0.053 C 
BRANCH   7   8
ATOM      8  C   UNL     1      -7.161 -35.800 -10.257  1.00  0.00     0.041 C 
ATOM      9  O   UNL     1      -6.355 -34.955 -10.727  1.00  0.00    -0.550 OA
ATOM     10  O   UNL     1      -8.503 -35.745 -10.616  1.00  0.00    -0.550 OA
ENDBRANCH   7   8
ENDBRANCH   6   7
ENDBRANCH   5   6
ENDBRANCH   4   5
ENDBRANCH   3   4
ENDBRANCH   2   3
ENDBRANCH   1   2
BRANCH   1  11
ATOM     11  C   UNL     1      -6.604 -40.810 -14.055  1.00  0.00     0.000 C 
BRANCH  11  12
ATOM     12  C   UNL     1      -6.390 -40.933 -15.572  1.00  0.00     0.000 C 
BRANCH  12  13
ATOM     13  C   UNL     1      -7.570 -40.377 -16.384  1.00  0.00     0.000 C 
BRANCH  13  14
ATOM     14  C   UNL     1      -7.125 -39.699 -17.692  1.00  0.00     0.000 C 
BRANCH  14  15
ATOM     15  C   UNL     1      -5.997 -40.480 -18.401  1.00  0.00     0.000 C 
BRANCH  15  16
ATOM     16  C   UNL     1      -6.156 -40.532 -19.932  1.00  0.00     0.006 C 
BRANCH  16  17
ATOM     17  C   UNL     1      -4.987 -39.899 -20.702  1.00  0.00     0.053 C 
BRANCH  17  18
ATOM     18  C   UNL     1      -4.053 -40.937 -21.249  1.00  0.00     0.041 C 
ATOM     19  O   UNL     1      -3.381 -41.658 -20.466  1.00  0.00    -0.550 OA
ATOM     20  O   UNL     1      -3.943 -41.123 -22.621  1.00  0.00    -0.550 OA
ENDBRANCH  17  18
ENDBRANCH  16  17
ENDBRANCH  15  16
ENDBRANCH  14  15
ENDBRANCH  13  14
ENDBRANCH  12  13
ENDBRANCH  11  12
ENDBRANCH   1  11
TORSDOF 15
ENDMDL
MODEL 8
REMARK VINA RESULT:    -4.331      3.145      8.912
REMARK INTER + INTRA:          -9.101
REMARK INTER:                  -8.205
REMARK INTRA:                  -0.897
REMARK UNBOUND:                -0.972
REMARK SMILES O=C([O-])CCCCCCCCCCCCCCC(=O)[O-]
REMARK SMILES IDX 10 1 9 2 8 3 7 4 6 5 5 6 4 7 2 8 1 9 3 10 11 11 12 12 13 13
REMARK SMILES IDX 14 14 15 15 16 16 17 17 18 18 19 19 20 20
REMARK H PARENT
REMARK Flexibility Score: inf
ROOT
ATOM      1  C   UNL     1      -6.797 -40.576 -15.317  1.00  0.00     0.000 C 
ENDROOT
BRANCH   1   2
ATOM      2  C   UNL     1      -6.733 -40.365 -16.838  1.00  0.00     0.000 C 
BRANCH   2   3
ATOM      3  C   UNL     1      -7.760 -39.332 -17.335  1.00  0.00     0.000 C 
BRANCH   3   4
ATOM      4  C   UNL     1      -7.273 -38.571 -18.579  1.00  0.00     0.000 C 
BRANCH   4   5
ATOM      5  C   UNL     1      -5.992 -39.178 -19.177  1.00  0.00     0.000 C 
BRANCH   5   6
ATOM      6  C   UNL     1      -6.209 -39.740 -20.591  1.00  0.00     0.006 C 
BRANCH   6   7
ATOM      7  C   UNL     1      -4.894 -40.137 -21.274  1.00  0.00     0.053 C 
BRANCH   7   8
ATOM      8  C   UNL     1      -4.497 -41.524 -20.876  1.00  0.00     0.041 C 
ATOM      9  O   UNL     1      -3.352 -41.743 -20.402  1.00  0.00    -0.550 OA
ATOM     10  O   UNL     1      -5.375 -42.583 -21.076  1.00  0.00    -0.550 OA
ENDBRANCH   7   8
ENDBRANCH   6   7
ENDBRANCH   5   6
ENDBRANCH   4   5
ENDBRANCH   3   4
ENDBRANCH   2   3
ENDBRANCH   1   2
BRANCH   1  11
ATOM     11  C   UNL     1      -7.575 -39.463 -14.598  1.00  0.00     0.000 C 
BRANCH  11  12
ATOM     12  C   UNL     1      -7.767 -39.803 -13.112  1.00  0.00     0.000 C 
BRANCH  12  13
ATOM     13  C   UNL     1      -6.467 -40.268 -12.437  1.00  0.00     0.000 C 
BRANCH  13  14
ATOM     14  C   UNL     1      -6.479 -40.057 -10.913  1.00  0.00     0.000 C 
BRANCH  14  15
ATOM     15  C   UNL     1      -5.318 -39.157 -10.437  1.00  0.00     0.000 C 
BRANCH  15  16
ATOM     16  C   UNL     1      -5.786 -37.898  -9.684  1.00  0.00     0.006 C 
BRANCH  16  17
ATOM     17  C   UNL     1      -7.147 -37.361 -10.153  1.00  0.00     0.053 C 
BRANCH  17  18
ATOM     18  C   UNL     1      -7.131 -35.871 -10.317  1.00  0.00     0.041 C 
ATOM     19  O   UNL     1      -8.212 -35.226 -10.334  1.00  0.00    -0.550 OA
ATOM     20  O   UNL     1      -5.924 -35.193 -10.427  1.00  0.00    -0.550 OA
ENDBRANCH  17  18
ENDBRANCH  16  17
ENDBRANCH  15  16
ENDBRANCH  14  15
ENDBRANCH  13  14
ENDBRANCH  12  13
ENDBRANCH  11  12
ENDBRANCH   1  11
TORSDOF 15
ENDMDL
MODEL 9
REMARK VINA RESULT:    -4.309      2.756      4.192
REMARK INTER + INTRA:          -9.059
REMARK INTER:                  -8.224
REMARK INTRA:                  -0.836
REMARK UNBOUND:                -0.972
REMARK SMILES O=C([O-])CCCCCCCCCCCCCCC(=O)[O-]
REMARK SMILES IDX 10 1 9 2 8 3 7 4 6 5 5 6 4 7 2 8 1 9 3 10 11 11 12 12 13 13
REMARK SMILES IDX 14 14 15 15 16 16 17 17 18 18 19 19 20 20
REMARK H PARENT
REMARK Flexibility Score: inf
ROOT
ATOM      1  C   UNL     1      -5.634 -39.374 -10.505  1.00  0.00     0.000 C 
ENDROOT
BRANCH   1   2
ATOM      2  C   UNL     1      -6.054 -38.092  -9.768  1.00  0.00     0.000 C 
BRANCH   2   3
ATOM      3  C   UNL     1      -4.848 -37.267  -9.284  1.00  0.00     0.000 C 
BRANCH   3   4
ATOM      4  C   UNL     1      -4.964 -35.781  -9.659  1.00  0.00     0.000 C 
BRANCH   4   5
ATOM      5  C   UNL     1      -5.524 -34.925  -8.509  1.00  0.00     0.000 C 
BRANCH   5   6
ATOM      6  C   UNL     1      -6.731 -34.077  -8.939  1.00  0.00     0.006 C 
BRANCH   6   7
ATOM      7  C   UNL     1      -7.278 -34.486 -10.314  1.00  0.00     0.053 C 
BRANCH   7   8
ATOM      8  C   UNL     1      -8.589 -35.190 -10.166  1.00  0.00     0.041 C 
ATOM      9  O   UNL     1      -8.847 -35.836  -9.117  1.00  0.00    -0.550 OA
ATOM     10  O   UNL     1      -9.508 -35.175 -11.209  1.00  0.00    -0.550 OA
ENDBRANCH   7   8
ENDBRANCH   6   7
ENDBRANCH   5   6
ENDBRANCH   4   5
ENDBRANCH   3   4
ENDBRANCH   2   3
ENDBRANCH   1   2
BRANCH   1  11
ATOM     11  C   UNL     1      -6.572 -39.718 -11.672  1.00  0.00     0.000 C 
BRANCH  11  12
ATOM     12  C   UNL     1      -6.831 -41.232 -11.736  1.00  0.00     0.000 C 
BRANCH  12  13
ATOM     13  C   UNL     1      -7.034 -41.738 -13.173  1.00  0.00     0.000 C 
BRANCH  13  14
ATOM     14  C   UNL     1      -6.296 -40.881 -14.216  1.00  0.00     0.000 C 
BRANCH  14  15
ATOM     15  C   UNL     1      -7.269 -40.071 -15.102  1.00  0.00     0.000 C 
BRANCH  15  16
ATOM     16  C   UNL     1      -7.476 -40.681 -16.501  1.00  0.00     0.006 C 
BRANCH  16  17
ATOM     17  C   UNL     1      -6.220 -40.651 -17.386  1.00  0.00     0.053 C 
BRANCH  17  18
ATOM     18  C   UNL     1      -6.508 -40.081 -18.742  1.00  0.00     0.041 C 
ATOM     19  O   UNL     1      -5.716 -39.249 -19.258  1.00  0.00    -0.550 OA
ATOM     20  O   UNL     1      -7.635 -40.486 -19.446  1.00  0.00    -0.550 OA
ENDBRANCH  17  18
ENDBRANCH  16  17
ENDBRANCH  15  16
ENDBRANCH  14  15
ENDBRANCH  13  14
ENDBRANCH  12  13
ENDBRANCH  11  12
ENDBRANCH   1  11
TORSDOF 15
ENDMDL
