MODEL 1
REMARK VINA RESULT:    -5.824      0.000      0.000
REMARK INTER + INTRA:          -6.164
REMARK INTER:                  -6.164
REMARK INTRA:                   0.000
REMARK UNBOUND:                 0.000
REMARK SMILES O=c1ccc2cc(O)c(O)cc2o1
REMARK SMILES IDX 4 1 3 2 2 3 1 4 13 5 12 6 11 7 9 8 7 9 6 10 5 11 8 12 10 14
REMARK H PARENT 8 13 10 15
REMARK Flexibility Score: inf
ROOT
ATOM      1  C   UNL     1     -35.774  -5.074 -13.352  1.00  0.00     0.019 A 
ATOM      2  C   UNL     1     -36.369  -4.053 -12.612  1.00  0.00     0.094 A 
ATOM      3  C   UNL     1     -37.761  -4.044 -12.468  1.00  0.00     0.336 A 
ATOM      4  O   UNL     1     -38.317  -3.132 -11.802  1.00  0.00    -0.246 OA
ATOM      5  O   UNL     1     -38.503  -4.996 -13.029  1.00  0.00    -0.423 OA
ATOM      6  C   UNL     1     -37.975  -5.988 -13.742  1.00  0.00     0.142 A 
ATOM      7  C   UNL     1     -38.804  -6.961 -14.308  1.00  0.00     0.098 A 
ATOM      8  C   UNL     1     -38.253  -8.007 -15.062  1.00  0.00     0.161 A 
ATOM      9  C   UNL     1     -36.865  -8.082 -15.249  1.00  0.00     0.158 A 
ATOM     10  C   UNL     1     -36.027  -7.108 -14.684  1.00  0.00     0.062 A 
ATOM     11  C   UNL     1     -36.578  -6.061 -13.931  1.00  0.00     0.022 A 
ENDROOT
BRANCH   9  12
ATOM     12  O   UNL     1     -36.326  -9.124 -15.999  1.00  0.00    -0.504 OA
ATOM     13  H   UNL     1     -35.753  -9.844 -15.572  1.00  0.00     0.293 HD
ENDBRANCH   9  12
BRANCH   8  14
ATOM     14  O   UNL     1     -39.078  -8.978 -15.627  1.00  0.00    -0.504 OA
ATOM     15  H   UNL     1     -40.085  -8.951 -15.514  1.00  0.00     0.293 HD
ENDBRANCH   8  14
TORSDOF 2
ENDMDL
MODEL 2
REMARK VINA RESULT:    -5.528      1.040      2.237
REMARK INTER + INTRA:          -5.851
REMARK INTER:                  -5.851
REMARK INTRA:                   0.000
REMARK UNBOUND:                 0.000
REMARK SMILES O=c1ccc2cc(O)c(O)cc2o1
REMARK SMILES IDX 4 1 3 2 2 3 1 4 13 5 12 6 11 7 9 8 7 9 6 10 5 11 8 12 10 14
REMARK H PARENT 8 13 10 15
REMARK Flexibility Score: inf
ROOT
ATOM      1  C   UNL     1     -38.996  -5.061 -13.024  1.00  0.00     0.019 A 
ATOM      2  C   UNL     1     -38.193  -4.075 -12.452  1.00  0.00     0.094 A 
ATOM      3  C   UNL     1     -36.807  -4.137 -12.637  1.00  0.00     0.336 A 
ATOM      4  O   UNL     1     -36.066  -3.255 -12.129  1.00  0.00    -0.246 OA
ATOM      5  O   UNL     1     -36.266  -5.124 -13.348  1.00  0.00    -0.423 OA
ATOM      6  C   UNL     1     -36.996  -6.084 -13.911  1.00  0.00     0.142 A 
ATOM      7  C   UNL     1     -36.371  -7.095 -14.647  1.00  0.00     0.098 A 
ATOM      8  C   UNL     1     -37.136  -8.110 -15.242  1.00  0.00     0.161 A 
ATOM      9  C   UNL     1     -38.531  -8.113 -15.099  1.00  0.00     0.158 A 
ATOM     10  C   UNL     1     -39.163  -7.101 -14.361  1.00  0.00     0.062 A 
ATOM     11  C   UNL     1     -38.400  -6.086 -13.766  1.00  0.00     0.022 A 
ENDROOT
BRANCH   9  12
ATOM     12  O   UNL     1     -39.282  -9.125 -15.693  1.00  0.00    -0.504 OA
ATOM     13  H   UNL     1     -38.976  -9.584 -16.543  1.00  0.00     0.293 HD
ENDBRANCH   9  12
BRANCH   8  14
ATOM     14  O   UNL     1     -36.516  -9.120 -15.976  1.00  0.00    -0.504 OA
ATOM     15  H   UNL     1     -36.728  -9.270 -16.956  1.00  0.00     0.293 HD
ENDBRANCH   8  14
TORSDOF 2
ENDMDL
MODEL 3
REMARK VINA RESULT:    -5.521      3.301      5.113
REMARK INTER + INTRA:          -5.844
REMARK INTER:                  -5.844
REMARK INTRA:                   0.000
REMARK UNBOUND:                 0.000
REMARK SMILES O=c1ccc2cc(O)c(O)cc2o1
REMARK SMILES IDX 4 1 3 2 2 3 1 4 13 5 12 6 11 7 9 8 7 9 6 10 5 11 8 12 10 14
REMARK H PARENT 8 13 10 15
REMARK Flexibility Score: inf
ROOT
ATOM      1  C   UNL     1     -36.155  -5.884 -14.073  1.00  0.00     0.019 A 
ATOM      2  C   UNL     1     -36.279  -7.270 -14.160  1.00  0.00     0.094 A 
ATOM      3  C   UNL     1     -36.264  -7.875 -15.421  1.00  0.00     0.336 A 
ATOM      4  O   UNL     1     -36.374  -9.125 -15.519  1.00  0.00    -0.246 OA
ATOM      5  O   UNL     1     -36.134  -7.136 -16.520  1.00  0.00    -0.423 OA
ATOM      6  C   UNL     1     -36.012  -5.811 -16.482  1.00  0.00     0.142 A 
ATOM      7  C   UNL     1     -35.878  -5.087 -17.671  1.00  0.00     0.098 A 
ATOM      8  C   UNL     1     -35.751  -3.691 -17.636  1.00  0.00     0.161 A 
ATOM      9  C   UNL     1     -35.757  -3.016 -16.407  1.00  0.00     0.158 A 
ATOM     10  C   UNL     1     -35.891  -3.737 -15.211  1.00  0.00     0.062 A 
ATOM     11  C   UNL     1     -36.019  -5.133 -15.244  1.00  0.00     0.022 A 
ENDROOT
BRANCH   9  12
ATOM     12  O   UNL     1     -35.630  -1.629 -16.382  1.00  0.00    -0.504 OA
ATOM     13  H   UNL     1     -35.850  -1.061 -17.193  1.00  0.00     0.293 HD
ENDBRANCH   9  12
BRANCH   8  14
ATOM     14  O   UNL     1     -35.617  -2.966 -18.820  1.00  0.00    -0.504 OA
ATOM     15  H   UNL     1     -34.767  -2.459 -19.038  1.00  0.00     0.293 HD
ENDBRANCH   8  14
TORSDOF 2
ENDMDL
MODEL 4
REMARK VINA RESULT:    -5.511      6.326      7.631
REMARK INTER + INTRA:          -5.833
REMARK INTER:                  -5.833
REMARK INTRA:                   0.000
REMARK UNBOUND:                 0.000
REMARK SMILES O=c1ccc2cc(O)c(O)cc2o1
REMARK SMILES IDX 4 1 3 2 2 3 1 4 13 5 12 6 11 7 9 8 7 9 6 10 5 11 8 12 10 14
REMARK H PARENT 8 13 10 15
REMARK Flexibility Score: inf
ROOT
ATOM      1  C   UNL     1     -35.330  -5.754 -21.221  1.00  0.00     0.019 A 
ATOM      2  C   UNL     1     -36.470  -5.850 -22.018  1.00  0.00     0.094 A 
ATOM      3  C   UNL     1     -37.572  -5.040 -21.726  1.00  0.00     0.336 A 
ATOM      4  O   UNL     1     -38.610  -5.112 -22.436  1.00  0.00    -0.246 OA
ATOM      5  O   UNL     1     -37.531  -4.190 -20.703  1.00  0.00    -0.423 OA
ATOM      6  C   UNL     1     -36.464  -4.066 -19.918  1.00  0.00     0.142 A 
ATOM      7  C   UNL     1     -36.479  -3.156 -18.856  1.00  0.00     0.098 A 
ATOM      8  C   UNL     1     -35.357  -3.022 -18.025  1.00  0.00     0.161 A 
ATOM      9  C   UNL     1     -34.214  -3.803 -18.257  1.00  0.00     0.158 A 
ATOM     10  C   UNL     1     -34.194  -4.718 -19.321  1.00  0.00     0.062 A 
ATOM     11  C   UNL     1     -35.315  -4.852 -20.152  1.00  0.00     0.022 A 
ENDROOT
BRANCH   9  12
ATOM     12  O   UNL     1     -33.104  -3.663 -17.427  1.00  0.00    -0.504 OA
ATOM     13  H   UNL     1     -32.380  -2.980 -17.619  1.00  0.00     0.293 HD
ENDBRANCH   9  12
BRANCH   8  14
ATOM     14  O   UNL     1     -35.369  -2.116 -16.967  1.00  0.00    -0.504 OA
ATOM     15  H   UNL     1     -35.432  -1.116 -17.124  1.00  0.00     0.293 HD
ENDBRANCH   8  14
TORSDOF 2
ENDMDL
MODEL 5
REMARK VINA RESULT:    -5.467      5.448      6.348
REMARK INTER + INTRA:          -5.787
REMARK INTER:                  -5.787
REMARK INTRA:                   0.000
REMARK UNBOUND:                 0.000
REMARK SMILES O=c1ccc2cc(O)c(O)cc2o1
REMARK SMILES IDX 4 1 3 2 2 3 1 4 13 5 12 6 11 7 9 8 7 9 6 10 5 11 8 12 10 14
REMARK H PARENT 8 13 10 15
REMARK Flexibility Score: inf
ROOT
ATOM      1  C   UNL     1     -35.269  -3.942 -16.422  1.00  0.00     0.019 A 
ATOM      2  C   UNL     1     -36.471  -4.581 -16.122  1.00  0.00     0.094 A 
ATOM      3  C   UNL     1     -37.106  -5.333 -17.116  1.00  0.00     0.336 A 
ATOM      4  O   UNL     1     -38.191  -5.919 -16.863  1.00  0.00    -0.246 OA
ATOM      5  O   UNL     1     -36.569  -5.436 -18.329  1.00  0.00    -0.423 OA
ATOM      6  C   UNL     1     -35.423  -4.843 -18.657  1.00  0.00     0.142 A 
ATOM      7  C   UNL     1     -34.907  -4.987 -19.949  1.00  0.00     0.098 A 
ATOM      8  C   UNL     1     -33.701  -4.363 -20.300  1.00  0.00     0.161 A 
ATOM      9  C   UNL     1     -33.008  -3.592 -19.355  1.00  0.00     0.158 A 
ATOM     10  C   UNL     1     -33.521  -3.444 -18.057  1.00  0.00     0.062 A 
ATOM     11  C   UNL     1     -34.727  -4.067 -17.706  1.00  0.00     0.022 A 
ENDROOT
BRANCH   9  12
ATOM     12  O   UNL     1     -31.811  -2.976 -19.712  1.00  0.00    -0.504 OA
ATOM     13  H   UNL     1     -30.942  -3.186 -19.234  1.00  0.00     0.293 HD
ENDBRANCH   9  12
BRANCH   8  14
ATOM     14  O   UNL     1     -33.183  -4.504 -21.587  1.00  0.00    -0.504 OA
ATOM     15  H   UNL     1     -32.565  -5.270 -21.829  1.00  0.00     0.293 HD
ENDBRANCH   8  14
TORSDOF 2
ENDMDL
MODEL 6
REMARK VINA RESULT:    -5.457      2.555      4.167
REMARK INTER + INTRA:          -5.776
REMARK INTER:                  -5.776
REMARK INTRA:                   0.000
REMARK UNBOUND:                 0.000
REMARK SMILES O=c1ccc2cc(O)c(O)cc2o1
REMARK SMILES IDX 4 1 3 2 2 3 1 4 13 5 12 6 11 7 9 8 7 9 6 10 5 11 8 12 10 14
REMARK H PARENT 8 13 10 15
REMARK Flexibility Score: inf
ROOT
ATOM      1  C   UNL     1     -36.626  -8.580 -15.442  1.00  0.00     0.019 A 
ATOM      2  C   UNL     1     -35.773  -8.953 -14.404  1.00  0.00     0.094 A 
ATOM      3  C   UNL     1     -35.346  -7.980 -13.494  1.00  0.00     0.336 A 
ATOM      4  O   UNL     1     -34.577  -8.298 -12.550  1.00  0.00    -0.246 OA
ATOM      5  O   UNL     1     -35.749  -6.717 -13.619  1.00  0.00    -0.423 OA
ATOM      6  C   UNL     1     -36.563  -6.319 -14.594  1.00  0.00     0.142 A 
ATOM      7  C   UNL     1     -36.953  -4.979 -14.676  1.00  0.00     0.098 A 
ATOM      8  C   UNL     1     -37.809  -4.554 -15.702  1.00  0.00     0.161 A 
ATOM      9  C   UNL     1     -38.278  -5.474 -16.651  1.00  0.00     0.158 A 
ATOM     10  C   UNL     1     -37.890  -6.821 -16.575  1.00  0.00     0.062 A 
ATOM     11  C   UNL     1     -37.034  -7.246 -15.549  1.00  0.00     0.022 A 
ENDROOT
BRANCH   9  12
ATOM     12  O   UNL     1     -39.129  -5.044 -17.667  1.00  0.00    -0.504 OA
ATOM     13  H   UNL     1     -39.220  -4.061 -17.901  1.00  0.00     0.293 HD
ENDBRANCH   9  12
BRANCH   8  14
ATOM     14  O   UNL     1     -38.200  -3.218 -15.785  1.00  0.00    -0.504 OA
ATOM     15  H   UNL     1     -38.902  -2.911 -16.448  1.00  0.00     0.293 HD
ENDBRANCH   8  14
TORSDOF 2
ENDMDL
MODEL 7
REMARK VINA RESULT:    -5.455      2.827      3.305
REMARK INTER + INTRA:          -5.774
REMARK INTER:                  -5.774
REMARK INTRA:                   0.000
REMARK UNBOUND:                 0.000
REMARK SMILES O=c1ccc2cc(O)c(O)cc2o1
REMARK SMILES IDX 4 1 3 2 2 3 1 4 13 5 12 6 11 7 9 8 7 9 6 10 5 11 8 12 10 14
REMARK H PARENT 8 13 10 15
REMARK Flexibility Score: inf
ROOT
ATOM      1  C   UNL     1     -36.119  -3.724 -14.507  1.00  0.00     0.019 A 
ATOM      2  C   UNL     1     -36.275  -2.763 -15.505  1.00  0.00     0.094 A 
ATOM      3  C   UNL     1     -36.448  -3.183 -16.829  1.00  0.00     0.336 A 
ATOM      4  O   UNL     1     -36.592  -2.330 -17.744  1.00  0.00    -0.246 OA
ATOM      5  O   UNL     1     -36.464  -4.479 -17.128  1.00  0.00    -0.423 OA
ATOM      6  C   UNL     1     -36.319  -5.428 -16.206  1.00  0.00     0.142 A 
ATOM      7  C   UNL     1     -36.344  -6.775 -16.580  1.00  0.00     0.098 A 
ATOM      8  C   UNL     1     -36.191  -7.779 -15.612  1.00  0.00     0.161 A 
ATOM      9  C   UNL     1     -36.013  -7.434 -14.264  1.00  0.00     0.158 A 
ATOM     10  C   UNL     1     -35.987  -6.083 -13.883  1.00  0.00     0.062 A 
ATOM     11  C   UNL     1     -36.140  -5.079 -14.850  1.00  0.00     0.022 A 
ENDROOT
BRANCH   9  12
ATOM     12  O   UNL     1     -35.862  -8.437 -13.310  1.00  0.00    -0.504 OA
ATOM     13  H   UNL     1     -36.397  -8.435 -12.449  1.00  0.00     0.293 HD
ENDBRANCH   9  12
BRANCH   8  14
ATOM     14  O   UNL     1     -36.216  -9.123 -15.982  1.00  0.00    -0.504 OA
ATOM     15  H   UNL     1     -36.140  -9.408 -16.952  1.00  0.00     0.293 HD
ENDBRANCH   8  14
TORSDOF 2
ENDMDL
MODEL 8
REMARK VINA RESULT:    -5.353      2.361      3.399
REMARK INTER + INTRA:          -5.666
REMARK INTER:                  -5.666
REMARK INTRA:                   0.000
REMARK UNBOUND:                 0.000
REMARK SMILES O=c1ccc2cc(O)c(O)cc2o1
REMARK SMILES IDX 4 1 3 2 2 3 1 4 13 5 12 6 11 7 9 8 7 9 6 10 5 11 8 12 10 14
REMARK H PARENT 8 13 10 15
REMARK Flexibility Score: inf
ROOT
ATOM      1  C   UNL     1     -36.550  -6.938 -16.413  1.00  0.00     0.019 A 
ATOM      2  C   UNL     1     -35.916  -5.770 -16.835  1.00  0.00     0.094 A 
ATOM      3  C   UNL     1     -36.217  -4.564 -16.192  1.00  0.00     0.336 A 
ATOM      4  O   UNL     1     -35.654  -3.500 -16.559  1.00  0.00    -0.246 OA
ATOM      5  O   UNL     1     -37.096  -4.535 -15.193  1.00  0.00    -0.423 OA
ATOM      6  C   UNL     1     -37.723  -5.626 -14.759  1.00  0.00     0.142 A 
ATOM      7  C   UNL     1     -38.637  -5.534 -13.705  1.00  0.00     0.098 A 
ATOM      8  C   UNL     1     -39.301  -6.681 -13.244  1.00  0.00     0.161 A 
ATOM      9  C   UNL     1     -39.049  -7.925 -13.841  1.00  0.00     0.158 A 
ATOM     10  C   UNL     1     -38.133  -8.023 -14.899  1.00  0.00     0.062 A 
ATOM     11  C   UNL     1     -37.469  -6.878 -15.360  1.00  0.00     0.022 A 
ENDROOT
BRANCH   9  12
ATOM     12  O   UNL     1     -39.713  -9.058 -13.377  1.00  0.00    -0.504 OA
ATOM     13  H   UNL     1     -40.715  -9.061 -13.225  1.00  0.00     0.293 HD
ENDBRANCH   9  12
BRANCH   8  14
ATOM     14  O   UNL     1     -40.212  -6.592 -12.193  1.00  0.00    -0.504 OA
ATOM     15  H   UNL     1     -40.734  -5.742 -12.014  1.00  0.00     0.293 HD
ENDBRANCH   8  14
TORSDOF 2
ENDMDL
MODEL 9
REMARK VINA RESULT:    -5.302      2.495      4.182
REMARK INTER + INTRA:          -5.612
REMARK INTER:                  -5.612
REMARK INTRA:                   0.000
REMARK UNBOUND:                 0.000
REMARK SMILES O=c1ccc2cc(O)c(O)cc2o1
REMARK SMILES IDX 4 1 3 2 2 3 1 4 13 5 12 6 11 7 9 8 7 9 6 10 5 11 8 12 10 14
REMARK H PARENT 8 13 10 15
REMARK Flexibility Score: inf
ROOT
ATOM      1  C   UNL     1     -37.510  -8.219 -16.006  1.00  0.00     0.019 A 
ATOM      2  C   UNL     1     -38.479  -8.663 -15.107  1.00  0.00     0.094 A 
ATOM      3  C   UNL     1     -38.937  -7.788 -14.116  1.00  0.00     0.336 A 
ATOM      4  O   UNL     1     -39.813  -8.171 -13.297  1.00  0.00    -0.246 OA
ATOM      5  O   UNL     1     -38.454  -6.551 -14.034  1.00  0.00    -0.423 OA
ATOM      6  C   UNL     1     -37.530  -6.087 -14.872  1.00  0.00     0.142 A 
ATOM      7  C   UNL     1     -37.059  -4.777 -14.736  1.00  0.00     0.098 A 
ATOM      8  C   UNL     1     -36.084  -4.283 -15.615  1.00  0.00     0.161 A 
ATOM      9  C   UNL     1     -35.577  -5.103 -16.634  1.00  0.00     0.158 A 
ATOM     10  C   UNL     1     -36.045  -6.419 -16.774  1.00  0.00     0.062 A 
ATOM     11  C   UNL     1     -37.020  -6.913 -15.896  1.00  0.00     0.022 A 
ENDROOT
BRANCH   9  12
ATOM     12  O   UNL     1     -34.609  -4.605 -17.503  1.00  0.00    -0.504 OA
ATOM     13  H   UNL     1     -34.092  -3.758 -17.292  1.00  0.00     0.293 HD
ENDBRANCH   9  12
BRANCH   8  14
ATOM     14  O   UNL     1     -35.613  -2.978 -15.483  1.00  0.00    -0.504 OA
ATOM     15  H   UNL     1     -36.019  -2.332 -14.816  1.00  0.00     0.293 HD
ENDBRANCH   8  14
TORSDOF 2
ENDMDL
