MODEL 1
REMARK VINA RESULT:    -4.393      0.000      0.000
REMARK INTER + INTRA:          -5.626
REMARK INTER:                  -5.421
REMARK INTRA:                  -0.205
REMARK UNBOUND:                -0.205
REMARK SMILES CCCCC=CC(C)=O
REMARK SMILES IDX 4 1 3 2 2 3 1 4 5 5 6 6 7 7 9 8 8 9
REMARK H PARENT
REMARK Flexibility Score: inf
ROOT
ATOM      1  C   UNL     1     133.879 136.436 115.793  1.00  0.00     0.027 C 
ENDROOT
BRANCH   1   2
ATOM      2  C   UNL     1     133.657 135.475 114.618  1.00  0.00     0.004 C 
BRANCH   2   3
ATOM      3  C   UNL     1     133.616 134.021 115.099  1.00  0.00    -0.003 C 
ATOM      4  C   UNL     1     134.577 133.147 114.298  1.00  0.00     0.004 C 
ENDBRANCH   2   3
ENDBRANCH   1   2
BRANCH   1   5
ATOM      5  C   UNL     1     135.048 136.006 116.631  1.00  0.00    -0.023 C 
ATOM      6  C   UNL     1     135.052 136.164 117.960  1.00  0.00     0.042 C 
BRANCH   6   7
ATOM      7  C   UNL     1     136.194 135.762 118.800  1.00  0.00     0.152 C 
ATOM      8  O   UNL     1     137.234 135.271 118.284  1.00  0.00    -0.295 OA
ATOM      9  C   UNL     1     136.119 135.934 120.283  1.00  0.00     0.093 C 
ENDBRANCH   6   7
ENDBRANCH   1   5
TORSDOF 4
ENDMDL
MODEL 2
REMARK VINA RESULT:    -4.325      8.854      9.648
REMARK INTER + INTRA:          -5.541
REMARK INTER:                  -5.394
REMARK INTRA:                  -0.148
REMARK UNBOUND:                -0.205
REMARK SMILES CCCCC=CC(C)=O
REMARK SMILES IDX 4 1 3 2 2 3 1 4 5 5 6 6 7 7 9 8 8 9
REMARK H PARENT
REMARK Flexibility Score: inf
ROOT
ATOM      1  C   UNL     1     142.731 142.500 115.474  1.00  0.00     0.027 C 
ENDROOT
BRANCH   1   2
ATOM      2  C   UNL     1     142.365 142.771 114.010  1.00  0.00     0.004 C 
BRANCH   2   3
ATOM      3  C   UNL     1     143.067 141.778 113.077  1.00  0.00    -0.003 C 
ATOM      4  C   UNL     1     144.227 141.083 113.784  1.00  0.00     0.004 C 
ENDBRANCH   2   3
ENDBRANCH   1   2
BRANCH   1   5
ATOM      5  C   UNL     1     141.605 141.818 116.198  1.00  0.00    -0.023 C 
ATOM      6  C   UNL     1     141.420 141.979 117.513  1.00  0.00     0.042 C 
BRANCH   6   7
ATOM      7  C   UNL     1     140.330 141.309 118.246  1.00  0.00     0.152 C 
ATOM      8  O   UNL     1     139.144 141.357 117.822  1.00  0.00    -0.295 OA
ATOM      9  C   UNL     1     140.633 140.567 119.507  1.00  0.00     0.093 C 
ENDBRANCH   6   7
ENDBRANCH   1   5
TORSDOF 4
ENDMDL
MODEL 3
REMARK VINA RESULT:    -4.257      8.487      9.383
REMARK INTER + INTRA:          -5.458
REMARK INTER:                  -5.168
REMARK INTRA:                  -0.290
REMARK UNBOUND:                -0.205
REMARK SMILES CCCCC=CC(C)=O
REMARK SMILES IDX 4 1 3 2 2 3 1 4 5 5 6 6 7 7 9 8 8 9
REMARK H PARENT
REMARK Flexibility Score: inf
ROOT
ATOM      1  C   UNL     1     143.072 140.500 115.043  1.00  0.00     0.027 C 
ENDROOT
BRANCH   1   2
ATOM      2  C   UNL     1     143.169 141.988 114.685  1.00  0.00     0.004 C 
BRANCH   2   3
ATOM      3  C   UNL     1     142.705 142.236 113.245  1.00  0.00    -0.003 C 
ATOM      4  C   UNL     1     141.211 142.543 113.192  1.00  0.00     0.004 C 
ENDBRANCH   2   3
ENDBRANCH   1   2
BRANCH   1   5
ATOM      5  C   UNL     1     142.071 140.269 116.138  1.00  0.00    -0.023 C 
ATOM      6  C   UNL     1     141.435 141.286 116.730  1.00  0.00     0.042 C 
BRANCH   6   7
ATOM      7  C   UNL     1     140.458 141.083 117.815  1.00  0.00     0.152 C 
ATOM      8  O   UNL     1     139.235 141.333 117.638  1.00  0.00    -0.295 OA
ATOM      9  C   UNL     1     140.922 140.577 119.143  1.00  0.00     0.093 C 
ENDBRANCH   6   7
ENDBRANCH   1   5
TORSDOF 4
ENDMDL
MODEL 4
REMARK VINA RESULT:    -4.240      8.947     10.187
REMARK INTER + INTRA:          -5.437
REMARK INTER:                  -5.266
REMARK INTRA:                  -0.171
REMARK UNBOUND:                -0.205
REMARK SMILES CCCCC=CC(C)=O
REMARK SMILES IDX 4 1 3 2 2 3 1 4 5 5 6 6 7 7 9 8 8 9
REMARK H PARENT
REMARK Flexibility Score: inf
ROOT
ATOM      1  C   UNL     1     141.530 142.059 117.202  1.00  0.00     0.027 C 
ENDROOT
BRANCH   1   2
ATOM      2  C   UNL     1     139.999 141.970 117.241  1.00  0.00     0.004 C 
BRANCH   2   3
ATOM      3  C   UNL     1     139.535 140.982 118.317  1.00  0.00    -0.003 C 
ATOM      4  C   UNL     1     140.662 140.663 119.296  1.00  0.00     0.004 C 
ENDBRANCH   2   3
ENDBRANCH   1   2
BRANCH   1   5
ATOM      5  C   UNL     1     142.074 141.493 115.923  1.00  0.00    -0.023 C 
ATOM      6  C   UNL     1     142.874 142.210 115.125  1.00  0.00     0.042 C 
BRANCH   6   7
ATOM      7  C   UNL     1     143.408 141.678 113.858  1.00  0.00     0.152 C 
ATOM      8  O   UNL     1     142.970 142.089 112.750  1.00  0.00    -0.295 OA
ATOM      9  C   UNL     1     144.479 140.636 113.886  1.00  0.00     0.093 C 
ENDBRANCH   6   7
ENDBRANCH   1   5
TORSDOF 4
ENDMDL
MODEL 5
REMARK VINA RESULT:    -4.236      1.253      2.011
REMARK INTER + INTRA:          -5.431
REMARK INTER:                  -5.239
REMARK INTRA:                  -0.192
REMARK UNBOUND:                -0.205
REMARK SMILES CCCCC=CC(C)=O
REMARK SMILES IDX 4 1 3 2 2 3 1 4 5 5 6 6 7 7 9 8 8 9
REMARK H PARENT
REMARK Flexibility Score: inf
ROOT
ATOM      1  C   UNL     1     133.780 133.866 115.278  1.00  0.00     0.027 C 
ENDROOT
BRANCH   1   2
ATOM      2  C   UNL     1     133.885 134.103 113.766  1.00  0.00     0.004 C 
BRANCH   2   3
ATOM      3  C   UNL     1     133.456 135.529 113.404  1.00  0.00    -0.003 C 
ATOM      4  C   UNL     1     132.023 135.805 113.851  1.00  0.00     0.004 C 
ENDBRANCH   2   3
ENDBRANCH   1   2
BRANCH   1   5
ATOM      5  C   UNL     1     134.872 134.582 116.017  1.00  0.00    -0.023 C 
ATOM      6  C   UNL     1     134.994 134.491 117.346  1.00  0.00     0.042 C 
BRANCH   6   7
ATOM      7  C   UNL     1     136.051 135.197 118.093  1.00  0.00     0.152 C 
ATOM      8  O   UNL     1     137.250 135.161 117.704  1.00  0.00    -0.295 OA
ATOM      9  C   UNL     1     135.699 135.962 119.328  1.00  0.00     0.093 C 
ENDBRANCH   6   7
ENDBRANCH   1   5
TORSDOF 4
ENDMDL
MODEL 6
REMARK VINA RESULT:    -4.197      2.011      2.584
REMARK INTER + INTRA:          -5.384
REMARK INTER:                  -5.072
REMARK INTRA:                  -0.312
REMARK UNBOUND:                -0.205
REMARK SMILES CCCCC=CC(C)=O
REMARK SMILES IDX 4 1 3 2 2 3 1 4 5 5 6 6 7 7 9 8 8 9
REMARK H PARENT
REMARK Flexibility Score: inf
ROOT
ATOM      1  C   UNL     1     132.757 135.634 114.241  1.00  0.00     0.027 C 
ENDROOT
BRANCH   1   2
ATOM      2  C   UNL     1     133.071 134.520 113.234  1.00  0.00     0.004 C 
BRANCH   2   3
ATOM      3  C   UNL     1     133.978 135.037 112.112  1.00  0.00    -0.003 C 
ATOM      4  C   UNL     1     135.341 134.350 112.143  1.00  0.00     0.004 C 
ENDBRANCH   2   3
ENDBRANCH   1   2
BRANCH   1   5
ATOM      5  C   UNL     1     133.837 135.750 115.277  1.00  0.00    -0.023 C 
ATOM      6  C   UNL     1     134.392 134.667 115.834  1.00  0.00     0.042 C 
BRANCH   6   7
ATOM      7  C   UNL     1     135.443 134.758 116.863  1.00  0.00     0.152 C 
ATOM      8  O   UNL     1     135.228 134.369 118.042  1.00  0.00    -0.295 OA
ATOM      9  C   UNL     1     136.781 135.321 116.506  1.00  0.00     0.093 C 
ENDBRANCH   6   7
ENDBRANCH   1   5
TORSDOF 4
ENDMDL
MODEL 7
REMARK VINA RESULT:    -4.135      2.532      4.942
REMARK INTER + INTRA:          -5.307
REMARK INTER:                  -5.058
REMARK INTRA:                  -0.250
REMARK UNBOUND:                -0.205
REMARK SMILES CCCCC=CC(C)=O
REMARK SMILES IDX 4 1 3 2 2 3 1 4 5 5 6 6 7 7 9 8 8 9
REMARK H PARENT
REMARK Flexibility Score: inf
ROOT
ATOM      1  C   UNL     1     136.258 134.059 116.715  1.00  0.00     0.027 C 
ENDROOT
BRANCH   1   2
ATOM      2  C   UNL     1     136.891 135.350 117.248  1.00  0.00     0.004 C 
BRANCH   2   3
ATOM      3  C   UNL     1     136.536 135.565 118.723  1.00  0.00    -0.003 C 
ATOM      4  C   UNL     1     135.057 135.903 118.891  1.00  0.00     0.004 C 
ENDBRANCH   2   3
ENDBRANCH   1   2
BRANCH   1   5
ATOM      5  C   UNL     1     135.506 134.309 115.439  1.00  0.00    -0.023 C 
ATOM      6  C   UNL     1     134.176 134.458 115.429  1.00  0.00     0.042 C 
BRANCH   6   7
ATOM      7  C   UNL     1     133.417 134.690 114.187  1.00  0.00     0.152 C 
ATOM      8  O   UNL     1     133.627 133.988 113.161  1.00  0.00    -0.295 OA
ATOM      9  C   UNL     1     132.389 135.774 114.140  1.00  0.00     0.093 C 
ENDBRANCH   6   7
ENDBRANCH   1   5
TORSDOF 4
ENDMDL
MODEL 8
REMARK VINA RESULT:    -4.074      3.308      4.212
REMARK INTER + INTRA:          -5.232
REMARK INTER:                  -4.932
REMARK INTRA:                  -0.300
REMARK UNBOUND:                -0.205
REMARK SMILES CCCCC=CC(C)=O
REMARK SMILES IDX 4 1 3 2 2 3 1 4 5 5 6 6 7 7 9 8 8 9
REMARK H PARENT
REMARK Flexibility Score: inf
ROOT
ATOM      1  C   UNL     1     135.266 133.385 114.563  1.00  0.00     0.027 C 
ENDROOT
BRANCH   1   2
ATOM      2  C   UNL     1     133.805 133.755 114.846  1.00  0.00     0.004 C 
BRANCH   2   3
ATOM      3  C   UNL     1     133.180 134.475 113.645  1.00  0.00    -0.003 C 
ATOM      4  C   UNL     1     132.442 135.737 114.082  1.00  0.00     0.004 C 
ENDBRANCH   2   3
ENDBRANCH   1   2
BRANCH   1   5
ATOM      5  C   UNL     1     135.992 134.514 113.891  1.00  0.00    -0.023 C 
ATOM      6  C   UNL     1     136.609 135.468 114.597  1.00  0.00     0.042 C 
BRANCH   6   7
ATOM      7  C   UNL     1     137.316 136.593 113.957  1.00  0.00     0.152 C 
ATOM      8  O   UNL     1     138.237 137.204 114.562  1.00  0.00    -0.295 OA
ATOM      9  C   UNL     1     136.934 137.016 112.575  1.00  0.00     0.093 C 
ENDBRANCH   6   7
ENDBRANCH   1   5
TORSDOF 4
ENDMDL
MODEL 9
REMARK VINA RESULT:    -4.014      9.225      9.817
REMARK INTER + INTRA:          -5.158
REMARK INTER:                  -4.874
REMARK INTRA:                  -0.284
REMARK UNBOUND:                -0.205
REMARK SMILES CCCCC=CC(C)=O
REMARK SMILES IDX 4 1 3 2 2 3 1 4 5 5 6 6 7 7 9 8 8 9
REMARK H PARENT
REMARK Flexibility Score: inf
ROOT
ATOM      1  C   UNL     1     143.256 142.193 113.726  1.00  0.00     0.027 C 
ENDROOT
BRANCH   1   2
ATOM      2  C   UNL     1     143.772 140.777 114.011  1.00  0.00     0.004 C 
BRANCH   2   3
ATOM      3  C   UNL     1     143.578 139.867 112.793  1.00  0.00    -0.003 C 
ATOM      4  C   UNL     1     142.195 139.222 112.801  1.00  0.00     0.004 C 
ENDBRANCH   2   3
ENDBRANCH   1   2
BRANCH   1   5
ATOM      5  C   UNL     1     142.277 142.636 114.775  1.00  0.00    -0.023 C 
ATOM      6  C   UNL     1     141.623 141.753 115.539  1.00  0.00     0.042 C 
BRANCH   6   7
ATOM      7  C   UNL     1     140.648 142.166 116.565  1.00  0.00     0.152 C 
ATOM      8  O   UNL     1     139.571 142.733 116.239  1.00  0.00    -0.295 OA
ATOM      9  C   UNL     1     140.942 141.913 118.008  1.00  0.00     0.093 C 
ENDBRANCH   6   7
ENDBRANCH   1   5
TORSDOF 4
ENDMDL
