MODEL 1
REMARK VINA RESULT:    -3.239      0.000      0.000
REMARK INTER + INTRA:          -3.640
REMARK INTER:                  -3.617
REMARK INTRA:                  -0.022
REMARK UNBOUND:                -0.022
REMARK SMILES CCCC(=O)[O-]
REMARK SMILES IDX 3 1 4 2 5 3 6 4 2 5 1 6
REMARK H PARENT
REMARK Flexibility Score: inf
ROOT
ATOM      1  C   UNL     1      -5.946  18.933  -8.875  1.00  0.00     0.052 C 
ENDROOT
BRANCH   1   2
ATOM      2  C   UNL     1      -6.138  19.980  -9.929  1.00  0.00     0.041 C 
ATOM      3  O   UNL     1      -6.451  21.156  -9.606  1.00  0.00    -0.550 OA
ATOM      4  O   UNL     1      -5.939  19.664 -11.268  1.00  0.00    -0.550 OA
ENDBRANCH   1   2
BRANCH   1   5
ATOM      5  C   UNL     1      -7.287  18.375  -8.380  1.00  0.00     0.003 C 
ATOM      6  C   UNL     1      -7.804  19.114  -7.146  1.00  0.00     0.004 C 
ENDBRANCH   1   5
TORSDOF 2
ENDMDL
MODEL 2
REMARK VINA RESULT:    -3.233      0.114      1.324
REMARK INTER + INTRA:          -3.633
REMARK INTER:                  -3.610
REMARK INTRA:                  -0.024
REMARK UNBOUND:                -0.022
REMARK SMILES CCCC(=O)[O-]
REMARK SMILES IDX 3 1 4 2 5 3 6 4 2 5 1 6
REMARK H PARENT
REMARK Flexibility Score: inf
ROOT
ATOM      1  C   UNL     1      -5.962  18.926  -8.864  1.00  0.00     0.052 C 
ENDROOT
BRANCH   1   2
ATOM      2  C   UNL     1      -6.116  19.937  -9.959  1.00  0.00     0.041 C 
ATOM      3  O   UNL     1      -5.989  19.593 -11.163  1.00  0.00    -0.550 OA
ATOM      4  O   UNL     1      -6.433  21.254  -9.650  1.00  0.00    -0.550 OA
ENDBRANCH   1   2
BRANCH   1   5
ATOM      5  C   UNL     1      -7.321  18.462  -8.325  1.00  0.00     0.003 C 
ATOM      6  C   UNL     1      -7.786  19.290  -7.129  1.00  0.00     0.004 C 
ENDBRANCH   1   5
TORSDOF 2
ENDMDL
MODEL 3
REMARK VINA RESULT:    -3.043     12.570     13.575
REMARK INTER + INTRA:          -3.421
REMARK INTER:                  -3.411
REMARK INTRA:                  -0.010
REMARK UNBOUND:                -0.022
REMARK SMILES CCCC(=O)[O-]
REMARK SMILES IDX 3 1 4 2 5 3 6 4 2 5 1 6
REMARK H PARENT
REMARK Flexibility Score: inf
ROOT
ATOM      1  C   UNL     1     -16.810  19.245  -0.584  1.00  0.00     0.052 C 
ENDROOT
BRANCH   1   2
ATOM      2  C   UNL     1     -16.804  18.066  -1.509  1.00  0.00     0.041 C 
ATOM      3  O   UNL     1     -17.880  17.479  -1.797  1.00  0.00    -0.550 OA
ATOM      4  O   UNL     1     -15.611  17.635  -2.077  1.00  0.00    -0.550 OA
ENDBRANCH   1   2
BRANCH   1   5
ATOM      5  C   UNL     1     -18.182  19.930  -0.549  1.00  0.00     0.003 C 
ATOM      6  C   UNL     1     -18.093  21.386  -0.096  1.00  0.00     0.004 C 
ENDBRANCH   1   5
TORSDOF 2
ENDMDL
MODEL 4
REMARK VINA RESULT:    -2.777      2.263      3.324
REMARK INTER + INTRA:          -3.124
REMARK INTER:                  -3.080
REMARK INTRA:                  -0.044
REMARK UNBOUND:                -0.022
REMARK SMILES CCCC(=O)[O-]
REMARK SMILES IDX 3 1 4 2 5 3 6 4 2 5 1 6
REMARK H PARENT
REMARK Flexibility Score: inf
ROOT
ATOM      1  C   UNL     1      -6.551  20.259  -8.903  1.00  0.00     0.052 C 
ENDROOT
BRANCH   1   2
ATOM      2  C   UNL     1      -7.324  19.186  -8.198  1.00  0.00     0.041 C 
ATOM      3  O   UNL     1      -7.415  18.036  -8.701  1.00  0.00    -0.550 OA
ATOM      4  O   UNL     1      -7.917  19.449  -6.969  1.00  0.00    -0.550 OA
ENDBRANCH   1   2
BRANCH   1   5
ATOM      5  C   UNL     1      -6.622  20.102 -10.427  1.00  0.00     0.003 C 
ATOM      6  C   UNL     1      -7.884  20.726 -11.018  1.00  0.00     0.004 C 
ENDBRANCH   1   5
TORSDOF 2
ENDMDL
MODEL 5
REMARK VINA RESULT:    -2.618      1.238      2.023
REMARK INTER + INTRA:          -2.946
REMARK INTER:                  -2.928
REMARK INTRA:                  -0.018
REMARK UNBOUND:                -0.022
REMARK SMILES CCCC(=O)[O-]
REMARK SMILES IDX 3 1 4 2 5 3 6 4 2 5 1 6
REMARK H PARENT
REMARK Flexibility Score: inf
ROOT
ATOM      1  C   UNL     1      -6.612  20.351  -9.965  1.00  0.00     0.052 C 
ENDROOT
BRANCH   1   2
ATOM      2  C   UNL     1      -5.781  20.481 -11.204  1.00  0.00     0.041 C 
ATOM      3  O   UNL     1      -5.760  19.553 -12.054  1.00  0.00    -0.550 OA
ATOM      4  O   UNL     1      -5.053  21.642 -11.436  1.00  0.00    -0.550 OA
ENDBRANCH   1   2
BRANCH   1   5
ATOM      5  C   UNL     1      -6.079  19.252  -9.037  1.00  0.00     0.003 C 
ATOM      6  C   UNL     1      -7.201  18.417  -8.421  1.00  0.00     0.004 C 
ENDBRANCH   1   5
TORSDOF 2
ENDMDL
MODEL 6
REMARK VINA RESULT:    -2.512     13.840     14.299
REMARK INTER + INTRA:          -2.828
REMARK INTER:                  -2.822
REMARK INTRA:                  -0.006
REMARK UNBOUND:                -0.022
REMARK SMILES CCCC(=O)[O-]
REMARK SMILES IDX 3 1 4 2 5 3 6 4 2 5 1 6
REMARK H PARENT
REMARK Flexibility Score: inf
ROOT
ATOM      1  C   UNL     1     -17.229  24.304  -1.636  1.00  0.00     0.052 C 
ENDROOT
BRANCH   1   2
ATOM      2  C   UNL     1     -16.552  25.639  -1.584  1.00  0.00     0.041 C 
ATOM      3  O   UNL     1     -15.408  25.751  -1.070  1.00  0.00    -0.550 OA
ATOM      4  O   UNL     1     -17.172  26.755  -2.133  1.00  0.00    -0.550 OA
ENDBRANCH   1   2
BRANCH   1   5
ATOM      5  C   UNL     1     -17.681  23.843  -0.245  1.00  0.00     0.003 C 
ATOM      6  C   UNL     1     -18.361  22.475  -0.277  1.00  0.00     0.004 C 
ENDBRANCH   1   5
TORSDOF 2
ENDMDL
MODEL 7
REMARK VINA RESULT:    -2.467     12.332     12.797
REMARK INTER + INTRA:          -2.778
REMARK INTER:                  -2.743
REMARK INTRA:                  -0.035
REMARK UNBOUND:                -0.022
REMARK SMILES CCCC(=O)[O-]
REMARK SMILES IDX 3 1 4 2 5 3 6 4 2 5 1 6
REMARK H PARENT
REMARK Flexibility Score: inf
ROOT
ATOM      1  C   UNL     1     -15.656  27.605 -11.175  1.00  0.00     0.052 C 
ENDROOT
BRANCH   1   2
ATOM      2  C   UNL     1     -16.184  28.436 -12.304  1.00  0.00     0.041 C 
ATOM      3  O   UNL     1     -17.282  28.144 -12.848  1.00  0.00    -0.550 OA
ATOM      4  O   UNL     1     -15.479  29.554 -12.734  1.00  0.00    -0.550 OA
ENDBRANCH   1   2
BRANCH   1   5
ATOM      5  C   UNL     1     -14.123  27.633 -11.119  1.00  0.00     0.003 C 
ATOM      6  C   UNL     1     -13.600  28.152  -9.781  1.00  0.00     0.004 C 
ENDBRANCH   1   5
TORSDOF 2
ENDMDL
MODEL 8
REMARK VINA RESULT:    -2.449     19.646     20.370
REMARK INTER + INTRA:          -2.758
REMARK INTER:                  -2.751
REMARK INTRA:                  -0.007
REMARK UNBOUND:                -0.022
REMARK SMILES CCCC(=O)[O-]
REMARK SMILES IDX 3 1 4 2 5 3 6 4 2 5 1 6
REMARK H PARENT
REMARK Flexibility Score: inf
ROOT
ATOM      1  C   UNL     1     -17.482  34.207 -18.316  1.00  0.00     0.052 C 
ENDROOT
BRANCH   1   2
ATOM      2  C   UNL     1     -16.156  34.204 -17.620  1.00  0.00     0.041 C 
ATOM      3  O   UNL     1     -15.089  34.264 -18.285  1.00  0.00    -0.550 OA
ATOM      4  O   UNL     1     -16.099  34.166 -16.232  1.00  0.00    -0.550 OA
ENDBRANCH   1   2
BRANCH   1   5
ATOM      5  C   UNL     1     -18.533  35.001 -17.532  1.00  0.00     0.003 C 
ATOM      6  C   UNL     1     -19.854  35.125 -18.289  1.00  0.00     0.004 C 
ENDBRANCH   1   5
TORSDOF 2
ENDMDL
MODEL 9
REMARK VINA RESULT:    -2.407     10.950     11.428
REMARK INTER + INTRA:          -2.711
REMARK INTER:                  -2.665
REMARK INTRA:                  -0.046
REMARK UNBOUND:                -0.022
REMARK SMILES CCCC(=O)[O-]
REMARK SMILES IDX 3 1 4 2 5 3 6 4 2 5 1 6
REMARK H PARENT
REMARK Flexibility Score: inf
ROOT
ATOM      1  C   UNL     1     -14.347  28.060 -11.425  1.00  0.00     0.052 C 
ENDROOT
BRANCH   1   2
ATOM      2  C   UNL     1     -13.557  27.651 -10.220  1.00  0.00     0.041 C 
ATOM      3  O   UNL     1     -13.561  28.367  -9.185  1.00  0.00    -0.550 OA
ATOM      4  O   UNL     1     -12.839  26.460 -10.230  1.00  0.00    -0.550 OA
ENDBRANCH   1   2
BRANCH   1   5
ATOM      5  C   UNL     1     -15.835  27.724 -11.268  1.00  0.00     0.003 C 
ATOM      6  C   UNL     1     -16.166  26.311 -11.744  1.00  0.00     0.004 C 
ENDBRANCH   1   5
TORSDOF 2
ENDMDL
