MODEL 1
REMARK VINA RESULT:    -3.186      0.000      0.000
REMARK INTER + INTRA:          -3.465
REMARK INTER:                  -3.465
REMARK INTRA:                   0.000
REMARK UNBOUND:                 0.000
REMARK SMILES [NH3+]CC(=O)[O-]
REMARK SMILES IDX 2 1 1 2 3 6 4 7 5 8
REMARK H PARENT 1 3 1 4 1 5
REMARK Flexibility Score: inf
ROOT
ATOM      1  C   UNL     1     -17.190  63.756  11.239  1.00  0.00     0.312 C 
ENDROOT
BRANCH   1   2
ATOM      2  N   UNL     1     -15.780  64.056  11.483  1.00  0.00    -0.353 N 
ATOM      3  H   UNL     1     -15.391  63.353  12.150  1.00  0.00     0.344 HD
ATOM      4  H   UNL     1     -15.243  64.008  10.587  1.00  0.00     0.344 HD
ATOM      5  H   UNL     1     -15.684  65.011  11.901  1.00  0.00     0.344 HD
ENDBRANCH   1   2
BRANCH   1   6
ATOM      6  C   UNL     1     -17.364  62.323  10.840  1.00  0.00     0.096 C 
ATOM      7  O   UNL     1     -17.147  61.402  11.672  1.00  0.00    -0.544 OA
ATOM      8  O   UNL     1     -17.715  62.002   9.535  1.00  0.00    -0.544 OA
ENDBRANCH   1   6
TORSDOF 2
ENDMDL
MODEL 2
REMARK VINA RESULT:    -3.156      2.380      2.553
REMARK INTER + INTRA:          -3.433
REMARK INTER:                  -3.433
REMARK INTRA:                   0.000
REMARK UNBOUND:                 0.000
REMARK SMILES [NH3+]CC(=O)[O-]
REMARK SMILES IDX 2 1 1 2 3 6 4 7 5 8
REMARK H PARENT 1 3 1 4 1 5
REMARK Flexibility Score: inf
ROOT
ATOM      1  C   UNL     1     -17.491  62.077  10.464  1.00  0.00     0.312 C 
ENDROOT
BRANCH   1   2
ATOM      2  N   UNL     1     -18.690  61.389  10.941  1.00  0.00    -0.353 N 
ATOM      3  H   UNL     1     -18.472  60.909  11.843  1.00  0.00     0.344 HD
ATOM      4  H   UNL     1     -19.460  62.079  11.101  1.00  0.00     0.344 HD
ATOM      5  H   UNL     1     -18.996  60.674  10.241  1.00  0.00     0.344 HD
ENDBRANCH   1   2
BRANCH   1   6
ATOM      6  C   UNL     1     -17.223  63.302  11.284  1.00  0.00     0.096 C 
ATOM      7  O   UNL     1     -16.919  63.195  12.502  1.00  0.00    -0.544 OA
ATOM      8  O   UNL     1     -17.359  64.562  10.717  1.00  0.00    -0.544 OA
ENDBRANCH   1   6
TORSDOF 2
ENDMDL
MODEL 3
REMARK VINA RESULT:    -2.966     12.433     12.850
REMARK INTER + INTRA:          -3.226
REMARK INTER:                  -3.226
REMARK INTRA:                   0.000
REMARK UNBOUND:                 0.000
REMARK SMILES [NH3+]CC(=O)[O-]
REMARK SMILES IDX 2 1 1 2 3 6 4 7 5 8
REMARK H PARENT 1 3 1 4 1 5
REMARK Flexibility Score: inf
ROOT
ATOM      1  C   UNL     1     -19.021  68.506  -1.257  1.00  0.00     0.312 C 
ENDROOT
BRANCH   1   2
ATOM      2  N   UNL     1     -17.788  69.161  -0.823  1.00  0.00    -0.353 N 
ATOM      3  H   UNL     1     -17.715  69.096   0.218  1.00  0.00     0.344 HD
ATOM      4  H   UNL     1     -16.960  68.687  -1.252  1.00  0.00     0.344 HD
ATOM      5  H   UNL     1     -17.801  70.170  -1.101  1.00  0.00     0.344 HD
ENDBRANCH   1   2
BRANCH   1   6
ATOM      6  C   UNL     1     -19.079  67.098  -0.751  1.00  0.00     0.096 C 
ATOM      7  O   UNL     1     -18.898  66.855   0.472  1.00  0.00    -0.544 OA
ATOM      8  O   UNL     1     -19.280  66.048  -1.638  1.00  0.00    -0.544 OA
ENDBRANCH   1   6
TORSDOF 2
ENDMDL
MODEL 4
REMARK VINA RESULT:    -2.936     12.710     13.150
REMARK INTER + INTRA:          -3.193
REMARK INTER:                  -3.193
REMARK INTRA:                   0.000
REMARK UNBOUND:                 0.000
REMARK SMILES [NH3+]CC(=O)[O-]
REMARK SMILES IDX 2 1 1 2 3 6 4 7 5 8
REMARK H PARENT 1 3 1 4 1 5
REMARK Flexibility Score: inf
ROOT
ATOM      1  C   UNL     1     -21.743  68.017  -0.271  1.00  0.00     0.312 C 
ENDROOT
BRANCH   1   2
ATOM      2  N   UNL     1     -23.165  67.677  -0.238  1.00  0.00    -0.353 N 
ATOM      3  H   UNL     1     -23.281  66.737   0.203  1.00  0.00     0.344 HD
ATOM      4  H   UNL     1     -23.689  68.385   0.327  1.00  0.00     0.344 HD
ATOM      5  H   UNL     1     -23.549  67.646  -1.211  1.00  0.00     0.344 HD
ENDBRANCH   1   2
BRANCH   1   6
ATOM      6  C   UNL     1     -21.409  69.000   0.808  1.00  0.00     0.096 C 
ATOM      7  O   UNL     1     -21.306  68.618   2.004  1.00  0.00    -0.544 OA
ATOM      8  O   UNL     1     -21.262  70.346   0.501  1.00  0.00    -0.544 OA
ENDBRANCH   1   6
TORSDOF 2
ENDMDL
MODEL 5
REMARK VINA RESULT:    -2.928     12.507     13.005
REMARK INTER + INTRA:          -3.185
REMARK INTER:                  -3.185
REMARK INTRA:                   0.000
REMARK UNBOUND:                 0.000
REMARK SMILES [NH3+]CC(=O)[O-]
REMARK SMILES IDX 2 1 1 2 3 6 4 7 5 8
REMARK H PARENT 1 3 1 4 1 5
REMARK Flexibility Score: inf
ROOT
ATOM      1  C   UNL     1     -19.217  68.898  -0.828  1.00  0.00     0.312 C 
ENDROOT
BRANCH   1   2
ATOM      2  N   UNL     1     -17.849  69.390  -0.982  1.00  0.00    -0.353 N 
ATOM      3  H   UNL     1     -17.603  69.404  -1.997  1.00  0.00     0.344 HD
ATOM      4  H   UNL     1     -17.772  70.361  -0.600  1.00  0.00     0.344 HD
ATOM      5  H   UNL     1     -17.182  68.759  -0.479  1.00  0.00     0.344 HD
ENDBRANCH   1   2
BRANCH   1   6
ATOM      6  C   UNL     1     -19.232  67.405  -0.711  1.00  0.00     0.096 C 
ATOM      7  O   UNL     1     -19.615  66.697  -1.679  1.00  0.00    -0.544 OA
ATOM      8  O   UNL     1     -18.873  66.798   0.486  1.00  0.00    -0.544 OA
ENDBRANCH   1   6
TORSDOF 2
ENDMDL
MODEL 6
REMARK VINA RESULT:    -2.915     12.834     13.328
REMARK INTER + INTRA:          -3.171
REMARK INTER:                  -3.171
REMARK INTRA:                   0.000
REMARK UNBOUND:                 0.000
REMARK SMILES [NH3+]CC(=O)[O-]
REMARK SMILES IDX 2 1 1 2 3 6 4 7 5 8
REMARK H PARENT 1 3 1 4 1 5
REMARK Flexibility Score: inf
ROOT
ATOM      1  C   UNL     1     -19.907  66.309  -1.997  1.00  0.00     0.312 C 
ENDROOT
BRANCH   1   2
ATOM      2  N   UNL     1     -19.342  64.962  -1.972  1.00  0.00    -0.353 N 
ATOM      3  H   UNL     1     -19.857  64.389  -1.267  1.00  0.00     0.344 HD
ATOM      4  H   UNL     1     -19.441  64.513  -2.912  1.00  0.00     0.344 HD
ATOM      5  H   UNL     1     -18.331  65.001  -1.705  1.00  0.00     0.344 HD
ENDBRANCH   1   2
BRANCH   1   6
ATOM      6  C   UNL     1     -19.146  67.219  -1.083  1.00  0.00     0.096 C 
ATOM      7  O   UNL     1     -18.649  68.290  -1.523  1.00  0.00    -0.544 OA
ATOM      8  O   UNL     1     -18.939  66.859   0.242  1.00  0.00    -0.544 OA
ENDBRANCH   1   6
TORSDOF 2
ENDMDL
MODEL 7
REMARK VINA RESULT:    -2.906     12.812     13.317
REMARK INTER + INTRA:          -3.161
REMARK INTER:                  -3.161
REMARK INTRA:                   0.000
REMARK UNBOUND:                 0.000
REMARK SMILES [NH3+]CC(=O)[O-]
REMARK SMILES IDX 2 1 1 2 3 6 4 7 5 8
REMARK H PARENT 1 3 1 4 1 5
REMARK Flexibility Score: inf
ROOT
ATOM      1  C   UNL     1     -21.781  68.020  -0.361  1.00  0.00     0.312 C 
ENDROOT
BRANCH   1   2
ATOM      2  N   UNL     1     -23.200  67.669  -0.391  1.00  0.00    -0.353 N 
ATOM      3  H   UNL     1     -23.582  67.877  -1.342  1.00  0.00     0.344 HD
ATOM      4  H   UNL     1     -23.322  66.650  -0.191  1.00  0.00     0.344 HD
ATOM      5  H   UNL     1     -23.724  68.235   0.316  1.00  0.00     0.344 HD
ENDBRANCH   1   2
BRANCH   1   6
ATOM      6  C   UNL     1     -21.513  69.051   0.692  1.00  0.00     0.096 C 
ATOM      7  O   UNL     1     -21.433  70.269   0.380  1.00  0.00    -0.544 OA
ATOM      8  O   UNL     1     -21.300  68.662   2.008  1.00  0.00    -0.544 OA
ENDBRANCH   1   6
TORSDOF 2
ENDMDL
MODEL 8
REMARK VINA RESULT:    -2.858     13.255     13.379
REMARK INTER + INTRA:          -3.109
REMARK INTER:                  -3.109
REMARK INTRA:                   0.000
REMARK UNBOUND:                 0.000
REMARK SMILES [NH3+]CC(=O)[O-]
REMARK SMILES IDX 2 1 1 2 3 6 4 7 5 8
REMARK H PARENT 1 3 1 4 1 5
REMARK Flexibility Score: inf
ROOT
ATOM      1  C   UNL     1     -22.103  68.542   1.134  1.00  0.00     0.312 C 
ENDROOT
BRANCH   1   2
ATOM      2  N   UNL     1     -22.757  68.018  -0.063  1.00  0.00    -0.353 N 
ATOM      3  H   UNL     1     -22.588  68.673  -0.860  1.00  0.00     0.344 HD
ATOM      4  H   UNL     1     -22.364  67.080  -0.305  1.00  0.00     0.344 HD
ATOM      5  H   UNL     1     -23.788  67.938   0.098  1.00  0.00     0.344 HD
ENDBRANCH   1   2
BRANCH   1   6
ATOM      6  C   UNL     1     -21.329  69.784   0.813  1.00  0.00     0.096 C 
ATOM      7  O   UNL     1     -21.625  70.876   1.367  1.00  0.00    -0.544 OA
ATOM      8  O   UNL     1     -20.316  69.746  -0.136  1.00  0.00    -0.544 OA
ENDBRANCH   1   6
TORSDOF 2
ENDMDL
MODEL 9
REMARK VINA RESULT:    -2.828     12.751     13.212
REMARK INTER + INTRA:          -3.077
REMARK INTER:                  -3.077
REMARK INTRA:                   0.000
REMARK UNBOUND:                 0.000
REMARK SMILES [NH3+]CC(=O)[O-]
REMARK SMILES IDX 2 1 1 2 3 6 4 7 5 8
REMARK H PARENT 1 3 1 4 1 5
REMARK Flexibility Score: inf
ROOT
ATOM      1  C   UNL     1     -18.979  68.569  -1.097  1.00  0.00     0.312 C 
ENDROOT
BRANCH   1   2
ATOM      2  N   UNL     1     -17.748  69.333  -0.905  1.00  0.00    -0.353 N 
ATOM      3  H   UNL     1     -17.883  70.006  -0.118  1.00  0.00     0.344 HD
ATOM      4  H   UNL     1     -16.958  68.688  -0.670  1.00  0.00     0.344 HD
ATOM      5  H   UNL     1     -17.520  69.869  -1.775  1.00  0.00     0.344 HD
ENDBRANCH   1   2
BRANCH   1   6
ATOM      6  C   UNL     1     -19.991  68.925  -0.052  1.00  0.00     0.096 C 
ATOM      7  O   UNL     1     -20.333  68.078   0.815  1.00  0.00    -0.544 OA
ATOM      8  O   UNL     1     -20.596  70.175  -0.067  1.00  0.00    -0.544 OA
ENDBRANCH   1   6
TORSDOF 2
ENDMDL
