MODEL 1
REMARK VINA RESULT:    -4.483      0.000      0.000
REMARK INTER + INTRA:          -5.918
REMARK INTER:                  -5.794
REMARK INTRA:                  -0.124
REMARK UNBOUND:                -0.124
REMARK SMILES CCCCCCC(=O)[O-]
REMARK SMILES IDX 5 1 6 2 7 3 8 4 9 5 4 6 3 7 2 8 1 9
REMARK H PARENT
REMARK Flexibility Score: inf
ROOT
ATOM      1  C   UNL     1     218.548  -6.853  24.780  1.00  0.00     0.006 C 
ENDROOT
BRANCH   1   2
ATOM      2  C   UNL     1     217.522  -7.244  23.704  1.00  0.00     0.053 C 
BRANCH   2   3
ATOM      3  C   UNL     1     218.036  -8.324  22.804  1.00  0.00     0.041 C 
ATOM      4  O   UNL     1     217.359  -9.370  22.618  1.00  0.00    -0.550 OA
ATOM      5  O   UNL     1     219.279  -8.193  22.197  1.00  0.00    -0.550 OA
ENDBRANCH   2   3
ENDBRANCH   1   2
BRANCH   1   6
ATOM      6  C   UNL     1     218.175  -7.303  26.204  1.00  0.00     0.000 C 
BRANCH   6   7
ATOM      7  C   UNL     1     217.812  -8.793  26.283  1.00  0.00    -0.000 C 
BRANCH   7   8
ATOM      8  C   UNL     1     217.169  -9.129  27.633  1.00  0.00    -0.003 C 
ATOM      9  C   UNL     1     218.016  -8.610  28.792  1.00  0.00     0.004 C 
ENDBRANCH   7   8
ENDBRANCH   6   7
ENDBRANCH   1   6
TORSDOF 5
ENDMDL
MODEL 2
REMARK VINA RESULT:    -4.478      2.477      3.462
REMARK INTER + INTRA:          -5.911
REMARK INTER:                  -5.515
REMARK INTRA:                  -0.397
REMARK UNBOUND:                -0.124
REMARK SMILES CCCCCCC(=O)[O-]
REMARK SMILES IDX 5 1 6 2 7 3 8 4 9 5 4 6 3 7 2 8 1 9
REMARK H PARENT
REMARK Flexibility Score: inf
ROOT
ATOM      1  C   UNL     1     220.289  -7.774  23.028  1.00  0.00     0.006 C 
ENDROOT
BRANCH   1   2
ATOM      2  C   UNL     1     221.057  -9.106  23.018  1.00  0.00     0.053 C 
BRANCH   2   3
ATOM      3  C   UNL     1     220.473 -10.097  23.977  1.00  0.00     0.041 C 
ATOM      4  O   UNL     1     221.169 -10.547  24.926  1.00  0.00    -0.550 OA
ATOM      5  O   UNL     1     219.172 -10.552  23.802  1.00  0.00    -0.550 OA
ENDBRANCH   2   3
ENDBRANCH   1   2
BRANCH   1   6
ATOM      6  C   UNL     1     220.661  -6.836  24.191  1.00  0.00     0.000 C 
BRANCH   6   7
ATOM      7  C   UNL     1     219.433  -6.306  24.946  1.00  0.00    -0.000 C 
BRANCH   7   8
ATOM      8  C   UNL     1     218.185  -7.131  24.609  1.00  0.00    -0.003 C 
ATOM      9  C   UNL     1     217.659  -7.864  25.840  1.00  0.00     0.004 C 
ENDBRANCH   7   8
ENDBRANCH   6   7
ENDBRANCH   1   6
TORSDOF 5
ENDMDL
MODEL 3
REMARK VINA RESULT:    -4.440      1.117      1.907
REMARK INTER + INTRA:          -5.862
REMARK INTER:                  -5.581
REMARK INTRA:                  -0.281
REMARK UNBOUND:                -0.124
REMARK SMILES CCCCCCC(=O)[O-]
REMARK SMILES IDX 5 1 6 2 7 3 8 4 9 5 4 6 3 7 2 8 1 9
REMARK H PARENT
REMARK Flexibility Score: inf
ROOT
ATOM      1  C   UNL     1     217.613  -7.483  23.989  1.00  0.00     0.006 C 
ENDROOT
BRANCH   1   2
ATOM      2  C   UNL     1     218.236  -8.319  22.859  1.00  0.00     0.053 C 
BRANCH   2   3
ATOM      3  C   UNL     1     218.722  -9.649  23.346  1.00  0.00     0.041 C 
ATOM      4  O   UNL     1     219.958  -9.890  23.404  1.00  0.00    -0.550 OA
ATOM      5  O   UNL     1     217.812 -10.635  23.704  1.00  0.00    -0.550 OA
ENDBRANCH   2   3
ENDBRANCH   1   2
BRANCH   1   6
ATOM      6  C   UNL     1     218.639  -6.827  24.930  1.00  0.00     0.000 C 
BRANCH   6   7
ATOM      7  C   UNL     1     218.399  -7.171  26.407  1.00  0.00    -0.000 C 
BRANCH   7   8
ATOM      8  C   UNL     1     217.515  -8.417  26.542  1.00  0.00    -0.003 C 
ATOM      9  C   UNL     1     217.570  -8.983  27.958  1.00  0.00     0.004 C 
ENDBRANCH   7   8
ENDBRANCH   6   7
ENDBRANCH   1   6
TORSDOF 5
ENDMDL
MODEL 4
REMARK VINA RESULT:    -4.417      1.528      2.092
REMARK INTER + INTRA:          -5.832
REMARK INTER:                  -5.535
REMARK INTRA:                  -0.297
REMARK UNBOUND:                -0.124
REMARK SMILES CCCCCCC(=O)[O-]
REMARK SMILES IDX 5 1 6 2 7 3 8 4 9 5 4 6 3 7 2 8 1 9
REMARK H PARENT
REMARK Flexibility Score: inf
ROOT
ATOM      1  C   UNL     1     220.538  -6.906  24.227  1.00  0.00     0.006 C 
ENDROOT
BRANCH   1   2
ATOM      2  C   UNL     1     220.564  -7.639  22.876  1.00  0.00     0.053 C 
BRANCH   2   3
ATOM      3  C   UNL     1     219.541  -8.731  22.809  1.00  0.00     0.041 C 
ATOM      4  O   UNL     1     219.664  -9.761  23.523  1.00  0.00    -0.550 OA
ATOM      5  O   UNL     1     218.468  -8.627  21.931  1.00  0.00    -0.550 OA
ENDBRANCH   2   3
ENDBRANCH   1   2
BRANCH   1   6
ATOM      6  C   UNL     1     219.134  -6.464  24.680  1.00  0.00     0.000 C 
BRANCH   6   7
ATOM      7  C   UNL     1     218.746  -7.028  26.054  1.00  0.00    -0.000 C 
BRANCH   7   8
ATOM      8  C   UNL     1     217.520  -7.944  25.944  1.00  0.00    -0.003 C 
ATOM      9  C   UNL     1     217.373  -8.821  27.184  1.00  0.00     0.004 C 
ENDBRANCH   7   8
ENDBRANCH   6   7
ENDBRANCH   1   6
TORSDOF 5
ENDMDL
MODEL 5
REMARK VINA RESULT:    -4.397      2.198      3.356
REMARK INTER + INTRA:          -5.807
REMARK INTER:                  -5.397
REMARK INTRA:                  -0.410
REMARK UNBOUND:                -0.124
REMARK SMILES CCCCCCC(=O)[O-]
REMARK SMILES IDX 5 1 6 2 7 3 8 4 9 5 4 6 3 7 2 8 1 9
REMARK H PARENT
REMARK Flexibility Score: inf
ROOT
ATOM      1  C   UNL     1     221.313  -7.669  24.262  1.00  0.00     0.006 C 
ENDROOT
BRANCH   1   2
ATOM      2  C   UNL     1     221.656  -8.335  22.920  1.00  0.00     0.053 C 
BRANCH   2   3
ATOM      3  C   UNL     1     220.505  -9.121  22.372  1.00  0.00     0.041 C 
ATOM      4  O   UNL     1     219.853  -9.897  23.121  1.00  0.00    -0.550 OA
ATOM      5  O   UNL     1     220.172  -9.023  21.027  1.00  0.00    -0.550 OA
ENDBRANCH   2   3
ENDBRANCH   1   2
BRANCH   1   6
ATOM      6  C   UNL     1     220.328  -6.491  24.150  1.00  0.00     0.000 C 
BRANCH   6   7
ATOM      7  C   UNL     1     219.337  -6.429  25.322  1.00  0.00    -0.000 C 
BRANCH   7   8
ATOM      8  C   UNL     1     218.143  -7.358  25.078  1.00  0.00    -0.003 C 
ATOM      9  C   UNL     1     217.535  -7.126  23.697  1.00  0.00     0.004 C 
ENDBRANCH   7   8
ENDBRANCH   6   7
ENDBRANCH   1   6
TORSDOF 5
ENDMDL
MODEL 6
REMARK VINA RESULT:    -4.392      3.395      4.640
REMARK INTER + INTRA:          -5.799
REMARK INTER:                  -5.337
REMARK INTRA:                  -0.463
REMARK UNBOUND:                -0.124
REMARK SMILES CCCCCCC(=O)[O-]
REMARK SMILES IDX 5 1 6 2 7 3 8 4 9 5 4 6 3 7 2 8 1 9
REMARK H PARENT
REMARK Flexibility Score: inf
ROOT
ATOM      1  C   UNL     1     218.754  -9.806  21.389  1.00  0.00     0.006 C 
ENDROOT
BRANCH   1   2
ATOM      2  C   UNL     1     217.803 -10.113  22.557  1.00  0.00     0.053 C 
BRANCH   2   3
ATOM      3  C   UNL     1     218.534 -10.241  23.858  1.00  0.00     0.041 C 
ATOM      4  O   UNL     1     218.123  -9.629  24.880  1.00  0.00    -0.550 OA
ATOM      5  O   UNL     1     219.691 -11.007  23.935  1.00  0.00    -0.550 OA
ENDBRANCH   2   3
ENDBRANCH   1   2
BRANCH   1   6
ATOM      6  C   UNL     1     219.376  -8.398  21.431  1.00  0.00     0.000 C 
BRANCH   6   7
ATOM      7  C   UNL     1     220.906  -8.418  21.298  1.00  0.00    -0.000 C 
BRANCH   7   8
ATOM      8  C   UNL     1     221.576  -8.310  22.673  1.00  0.00    -0.003 C 
ATOM      9  C   UNL     1     220.863  -7.289  23.556  1.00  0.00     0.004 C 
ENDBRANCH   7   8
ENDBRANCH   6   7
ENDBRANCH   1   6
TORSDOF 5
ENDMDL
MODEL 7
REMARK VINA RESULT:    -4.360      2.588      4.347
REMARK INTER + INTRA:          -5.758
REMARK INTER:                  -5.339
REMARK INTRA:                  -0.419
REMARK UNBOUND:                -0.124
REMARK SMILES CCCCCCC(=O)[O-]
REMARK SMILES IDX 5 1 6 2 7 3 8 4 9 5 4 6 3 7 2 8 1 9
REMARK H PARENT
REMARK Flexibility Score: inf
ROOT
ATOM      1  C   UNL     1     220.510  -6.477  24.104  1.00  0.00     0.006 C 
ENDROOT
BRANCH   1   2
ATOM      2  C   UNL     1     219.312  -6.323  25.056  1.00  0.00     0.053 C 
BRANCH   2   3
ATOM      3  C   UNL     1     218.174  -7.218  24.675  1.00  0.00     0.041 C 
ATOM      4  O   UNL     1     217.954  -8.276  25.322  1.00  0.00    -0.550 OA
ATOM      5  O   UNL     1     217.375  -6.901  23.583  1.00  0.00    -0.550 OA
ENDBRANCH   2   3
ENDBRANCH   1   2
BRANCH   1   6
ATOM      6  C   UNL     1     221.326  -7.765  24.316  1.00  0.00     0.000 C 
BRANCH   6   7
ATOM      7  C   UNL     1     221.543  -8.553  23.016  1.00  0.00    -0.000 C 
BRANCH   7   8
ATOM      8  C   UNL     1     220.601  -8.060  21.913  1.00  0.00    -0.003 C 
ATOM      9  C   UNL     1     219.559  -9.118  21.562  1.00  0.00     0.004 C 
ENDBRANCH   7   8
ENDBRANCH   6   7
ENDBRANCH   1   6
TORSDOF 5
ENDMDL
MODEL 8
REMARK VINA RESULT:    -4.321      2.560      3.627
REMARK INTER + INTRA:          -5.708
REMARK INTER:                  -5.316
REMARK INTRA:                  -0.392
REMARK UNBOUND:                -0.124
REMARK SMILES CCCCCCC(=O)[O-]
REMARK SMILES IDX 5 1 6 2 7 3 8 4 9 5 4 6 3 7 2 8 1 9
REMARK H PARENT
REMARK Flexibility Score: inf
ROOT
ATOM      1  C   UNL     1     221.254  -9.370  23.516  1.00  0.00     0.006 C 
ENDROOT
BRANCH   1   2
ATOM      2  C   UNL     1     220.176 -10.257  24.161  1.00  0.00     0.053 C 
BRANCH   2   3
ATOM      3  C   UNL     1     218.912 -10.277  23.358  1.00  0.00     0.041 C 
ATOM      4  O   UNL     1     217.860 -10.770  23.844  1.00  0.00    -0.550 OA
ATOM      5  O   UNL     1     218.903  -9.783  22.059  1.00  0.00    -0.550 OA
ENDBRANCH   2   3
ENDBRANCH   1   2
BRANCH   1   6
ATOM      6  C   UNL     1     221.572  -8.086  24.305  1.00  0.00     0.000 C 
BRANCH   6   7
ATOM      7  C   UNL     1     220.723  -6.887  23.859  1.00  0.00    -0.000 C 
BRANCH   7   8
ATOM      8  C   UNL     1     219.717  -6.494  24.948  1.00  0.00    -0.003 C 
ATOM      9  C   UNL     1     218.294  -6.869  24.545  1.00  0.00     0.004 C 
ENDBRANCH   7   8
ENDBRANCH   6   7
ENDBRANCH   1   6
TORSDOF 5
ENDMDL
MODEL 9
REMARK VINA RESULT:    -4.269      2.436      3.898
REMARK INTER + INTRA:          -5.641
REMARK INTER:                  -5.188
REMARK INTRA:                  -0.453
REMARK UNBOUND:                -0.124
REMARK SMILES CCCCCCC(=O)[O-]
REMARK SMILES IDX 5 1 6 2 7 3 8 4 9 5 4 6 3 7 2 8 1 9
REMARK H PARENT
REMARK Flexibility Score: inf
ROOT
ATOM      1  C   UNL     1     218.965  -7.072  24.563  1.00  0.00     0.006 C 
ENDROOT
BRANCH   1   2
ATOM      2  C   UNL     1     217.841  -7.532  23.621  1.00  0.00     0.053 C 
BRANCH   2   3
ATOM      3  C   UNL     1     217.952  -8.986  23.281  1.00  0.00     0.041 C 
ATOM      4  O   UNL     1     218.072  -9.350  22.081  1.00  0.00    -0.550 OA
ATOM      5  O   UNL     1     217.890  -9.943  24.287  1.00  0.00    -0.550 OA
ENDBRANCH   2   3
ENDBRANCH   1   2
BRANCH   1   6
ATOM      6  C   UNL     1     220.342  -6.935  23.887  1.00  0.00     0.000 C 
BRANCH   6   7
ATOM      7  C   UNL     1     221.373  -7.936  24.427  1.00  0.00    -0.000 C 
BRANCH   7   8
ATOM      8  C   UNL     1     221.739  -8.974  23.359  1.00  0.00    -0.003 C 
ATOM      9  C   UNL     1     221.536  -8.416  21.954  1.00  0.00     0.004 C 
ENDBRANCH   7   8
ENDBRANCH   6   7
ENDBRANCH   1   6
TORSDOF 5
ENDMDL
