MODEL 1
REMARK VINA RESULT:    -3.339      0.000      0.000
REMARK INTER + INTRA:          -5.242
REMARK INTER:                  -4.705
REMARK INTRA:                  -0.538
REMARK UNBOUND:                -0.538
REMARK SMILES CCCCCCCCC(=O)[O-]
REMARK SMILES IDX 6 1 7 2 8 3 9 4 10 5 11 6 5 7 4 8 3 9 2 10 1 11
REMARK H PARENT
REMARK Flexibility Score: inf
ROOT
ATOM      1  C   UNL     1      49.846  34.600  55.549  1.00  0.00     0.000 C 
ENDROOT
BRANCH   1   2
ATOM      2  C   UNL     1      51.110  35.474  55.657  1.00  0.00     0.006 C 
BRANCH   2   3
ATOM      3  C   UNL     1      51.844  35.363  57.004  1.00  0.00     0.053 C 
BRANCH   3   4
ATOM      4  C   UNL     1      51.686  36.601  57.831  1.00  0.00     0.041 C 
ATOM      5  O   UNL     1      51.589  37.727  57.276  1.00  0.00    -0.550 OA
ATOM      6  O   UNL     1      51.679  36.515  59.218  1.00  0.00    -0.550 OA
ENDBRANCH   3   4
ENDBRANCH   2   3
ENDBRANCH   1   2
BRANCH   1   7
ATOM      7  C   UNL     1      50.068  33.335  54.701  1.00  0.00     0.000 C 
BRANCH   7   8
ATOM      8  C   UNL     1      49.499  32.071  55.368  1.00  0.00    -0.000 C 
BRANCH   8   9
ATOM      9  C   UNL     1      50.599  31.154  55.931  1.00  0.00    -0.000 C 
BRANCH   9  10
ATOM     10  C   UNL     1      50.606  31.120  57.467  1.00  0.00    -0.003 C 
ATOM     11  C   UNL     1      51.772  31.901  58.073  1.00  0.00     0.004 C 
ENDBRANCH   9  10
ENDBRANCH   8   9
ENDBRANCH   7   8
ENDBRANCH   1   7
TORSDOF 7
ENDMDL
MODEL 2
REMARK VINA RESULT:    -3.103     10.353     11.886
REMARK INTER + INTRA:          -4.910
REMARK INTER:                  -4.558
REMARK INTRA:                  -0.352
REMARK UNBOUND:                -0.538
REMARK SMILES CCCCCCCCC(=O)[O-]
REMARK SMILES IDX 6 1 7 2 8 3 9 4 10 5 11 6 5 7 4 8 3 9 2 10 1 11
REMARK H PARENT
REMARK Flexibility Score: inf
ROOT
ATOM      1  C   UNL     1      45.258  33.355  48.986  1.00  0.00     0.000 C 
ENDROOT
BRANCH   1   2
ATOM      2  C   UNL     1      45.921  31.998  48.686  1.00  0.00     0.006 C 
BRANCH   2   3
ATOM      3  C   UNL     1      45.371  30.825  49.514  1.00  0.00     0.053 C 
BRANCH   3   4
ATOM      4  C   UNL     1      45.078  29.627  48.665  1.00  0.00     0.041 C 
ATOM      5  O   UNL     1      44.916  28.497  49.196  1.00  0.00    -0.550 OA
ATOM      6  O   UNL     1      45.015  29.754  47.282  1.00  0.00    -0.550 OA
ENDBRANCH   3   4
ENDBRANCH   2   3
ENDBRANCH   1   2
BRANCH   1   7
ATOM      7  C   UNL     1      43.877  33.207  49.649  1.00  0.00     0.000 C 
BRANCH   7   8
ATOM      8  C   UNL     1      43.382  34.521  50.279  1.00  0.00    -0.000 C 
BRANCH   8   9
ATOM      9  C   UNL     1      42.421  35.292  49.357  1.00  0.00    -0.000 C 
BRANCH   9  10
ATOM     10  C   UNL     1      41.684  34.370  48.372  1.00  0.00    -0.003 C 
ATOM     11  C   UNL     1      40.786  35.135  47.401  1.00  0.00     0.004 C 
ENDBRANCH   9  10
ENDBRANCH   8   9
ENDBRANCH   7   8
ENDBRANCH   1   7
TORSDOF 7
ENDMDL
MODEL 3
REMARK VINA RESULT:    -3.070      9.331     11.169
REMARK INTER + INTRA:          -4.864
REMARK INTER:                  -4.571
REMARK INTRA:                  -0.293
REMARK UNBOUND:                -0.538
REMARK SMILES CCCCCCCCC(=O)[O-]
REMARK SMILES IDX 6 1 7 2 8 3 9 4 10 5 11 6 5 7 4 8 3 9 2 10 1 11
REMARK H PARENT
REMARK Flexibility Score: inf
ROOT
ATOM      1  C   UNL     1      45.553  33.097  49.073  1.00  0.00     0.000 C 
ENDROOT
BRANCH   1   2
ATOM      2  C   UNL     1      46.312  31.787  49.359  1.00  0.00     0.006 C 
BRANCH   2   3
ATOM      3  C   UNL     1      45.410  30.604  49.747  1.00  0.00     0.053 C 
BRANCH   3   4
ATOM      4  C   UNL     1      46.195  29.464  50.317  1.00  0.00     0.041 C 
ATOM      5  O   UNL     1      47.089  29.677  51.178  1.00  0.00    -0.550 OA
ATOM      6  O   UNL     1      45.963  28.168  49.873  1.00  0.00    -0.550 OA
ENDBRANCH   3   4
ENDBRANCH   2   3
ENDBRANCH   1   2
BRANCH   1   7
ATOM      7  C   UNL     1      44.042  32.979  49.338  1.00  0.00     0.000 C 
BRANCH   7   8
ATOM      8  C   UNL     1      43.505  34.126  50.211  1.00  0.00    -0.000 C 
BRANCH   8   9
ATOM      9  C   UNL     1      42.473  34.997  49.473  1.00  0.00    -0.000 C 
BRANCH   9  10
ATOM     10  C   UNL     1      41.854  34.277  48.265  1.00  0.00    -0.003 C 
ATOM     11  C   UNL     1      40.832  35.138  47.522  1.00  0.00     0.004 C 
ENDBRANCH   9  10
ENDBRANCH   8   9
ENDBRANCH   7   8
ENDBRANCH   1   7
TORSDOF 7
ENDMDL
MODEL 4
REMARK VINA RESULT:    -3.047     10.694     12.447
REMARK INTER + INTRA:          -4.832
REMARK INTER:                  -4.347
REMARK INTRA:                  -0.485
REMARK UNBOUND:                -0.538
REMARK SMILES CCCCCCCCC(=O)[O-]
REMARK SMILES IDX 6 1 7 2 8 3 9 4 10 5 11 6 5 7 4 8 3 9 2 10 1 11
REMARK H PARENT
REMARK Flexibility Score: inf
ROOT
ATOM      1  C   UNL     1      43.561  34.253  49.893  1.00  0.00     0.000 C 
ENDROOT
BRANCH   1   2
ATOM      2  C   UNL     1      43.859  33.090  48.928  1.00  0.00     0.006 C 
BRANCH   2   3
ATOM      3  C   UNL     1      44.869  32.063  49.465  1.00  0.00     0.053 C 
BRANCH   3   4
ATOM      4  C   UNL     1      44.997  30.877  48.560  1.00  0.00     0.041 C 
ATOM      5  O   UNL     1      45.081  29.717  49.042  1.00  0.00    -0.550 OA
ATOM      6  O   UNL     1      45.056  31.056  47.183  1.00  0.00    -0.550 OA
ENDBRANCH   3   4
ENDBRANCH   2   3
ENDBRANCH   1   2
BRANCH   1   7
ATOM      7  C   UNL     1      42.571  35.275  49.306  1.00  0.00     0.000 C 
BRANCH   7   8
ATOM      8  C   UNL     1      41.358  34.604  48.640  1.00  0.00    -0.000 C 
BRANCH   8   9
ATOM      9  C   UNL     1      41.092  35.140  47.222  1.00  0.00    -0.000 C 
BRANCH   9  10
ATOM     10  C   UNL     1      41.285  34.065  46.142  1.00  0.00    -0.003 C 
ATOM     11  C   UNL     1      42.699  34.055  45.560  1.00  0.00     0.004 C 
ENDBRANCH   9  10
ENDBRANCH   8   9
ENDBRANCH   7   8
ENDBRANCH   1   7
TORSDOF 7
ENDMDL
MODEL 5
REMARK VINA RESULT:    -3.044      8.662     10.037
REMARK INTER + INTRA:          -4.827
REMARK INTER:                  -4.409
REMARK INTRA:                  -0.418
REMARK UNBOUND:                -0.538
REMARK SMILES CCCCCCCCC(=O)[O-]
REMARK SMILES IDX 6 1 7 2 8 3 9 4 10 5 11 6 5 7 4 8 3 9 2 10 1 11
REMARK H PARENT
REMARK Flexibility Score: inf
ROOT
ATOM      1  C   UNL     1      45.434  32.365  49.097  1.00  0.00     0.000 C 
ENDROOT
BRANCH   1   2
ATOM      2  C   UNL     1      44.206  33.005  49.770  1.00  0.00     0.006 C 
BRANCH   2   3
ATOM      3  C   UNL     1      43.223  33.674  48.794  1.00  0.00     0.053 C 
BRANCH   3   4
ATOM      4  C   UNL     1      42.502  34.824  49.426  1.00  0.00     0.041 C 
ATOM      5  O   UNL     1      41.587  35.420  48.798  1.00  0.00    -0.550 OA
ATOM      6  O   UNL     1      42.862  35.258  50.695  1.00  0.00    -0.550 OA
ENDBRANCH   3   4
ENDBRANCH   2   3
ENDBRANCH   1   2
BRANCH   1   7
ATOM      7  C   UNL     1      45.081  31.102  48.292  1.00  0.00     0.000 C 
BRANCH   7   8
ATOM      8  C   UNL     1      45.905  29.877  48.726  1.00  0.00    -0.000 C 
BRANCH   8   9
ATOM      9  C   UNL     1      45.595  29.439  50.168  1.00  0.00    -0.000 C 
BRANCH   9  10
ATOM     10  C   UNL     1      46.868  29.188  50.993  1.00  0.00    -0.003 C 
ATOM     11  C   UNL     1      47.824  30.381  50.985  1.00  0.00     0.004 C 
ENDBRANCH   9  10
ENDBRANCH   8   9
ENDBRANCH   7   8
ENDBRANCH   1   7
TORSDOF 7
ENDMDL
MODEL 6
REMARK VINA RESULT:    -3.010     10.148     11.371
REMARK INTER + INTRA:          -4.779
REMARK INTER:                  -4.542
REMARK INTRA:                  -0.237
REMARK UNBOUND:                -0.538
REMARK SMILES CCCCCCCCC(=O)[O-]
REMARK SMILES IDX 6 1 7 2 8 3 9 4 10 5 11 6 5 7 4 8 3 9 2 10 1 11
REMARK H PARENT
REMARK Flexibility Score: inf
ROOT
ATOM      1  C   UNL     1      43.779  33.324  49.780  1.00  0.00     0.000 C 
ENDROOT
BRANCH   1   2
ATOM      2  C   UNL     1      43.295  34.292  48.685  1.00  0.00     0.006 C 
BRANCH   2   3
ATOM      3  C   UNL     1      41.772  34.501  48.650  1.00  0.00     0.053 C 
BRANCH   3   4
ATOM      4  C   UNL     1      41.251  34.598  47.249  1.00  0.00     0.041 C 
ATOM      5  O   UNL     1      41.694  33.832  46.353  1.00  0.00    -0.550 OA
ATOM      6  O   UNL     1      40.300  35.558  46.926  1.00  0.00    -0.550 OA
ENDBRANCH   3   4
ENDBRANCH   2   3
ENDBRANCH   1   2
BRANCH   1   7
ATOM      7  C   UNL     1      44.594  32.147  49.216  1.00  0.00     0.000 C 
BRANCH   7   8
ATOM      8  C   UNL     1      46.106  32.312  49.447  1.00  0.00    -0.000 C 
BRANCH   8   9
ATOM      9  C   UNL     1      46.827  30.965  49.621  1.00  0.00    -0.000 C 
BRANCH   9  10
ATOM     10  C   UNL     1      45.874  29.838  50.048  1.00  0.00    -0.003 C 
ATOM     11  C   UNL     1      46.541  28.809  50.960  1.00  0.00     0.004 C 
ENDBRANCH   9  10
ENDBRANCH   8   9
ENDBRANCH   7   8
ENDBRANCH   1   7
TORSDOF 7
ENDMDL
MODEL 7
REMARK VINA RESULT:    -2.995      9.053     10.888
REMARK INTER + INTRA:          -4.759
REMARK INTER:                  -4.545
REMARK INTRA:                  -0.214
REMARK UNBOUND:                -0.538
REMARK SMILES CCCCCCCCC(=O)[O-]
REMARK SMILES IDX 6 1 7 2 8 3 9 4 10 5 11 6 5 7 4 8 3 9 2 10 1 11
REMARK H PARENT
REMARK Flexibility Score: inf
ROOT
ATOM      1  C   UNL     1      45.193  32.376  48.915  1.00  0.00     0.000 C 
ENDROOT
BRANCH   1   2
ATOM      2  C   UNL     1      45.598  31.050  49.586  1.00  0.00     0.006 C 
BRANCH   2   3
ATOM      3  C   UNL     1      47.028  31.037  50.151  1.00  0.00     0.053 C 
BRANCH   3   4
ATOM      4  C   UNL     1      47.425  29.677  50.638  1.00  0.00     0.041 C 
ATOM      5  O   UNL     1      46.576  28.928  51.189  1.00  0.00    -0.550 OA
ATOM      6  O   UNL     1      48.741  29.251  50.512  1.00  0.00    -0.550 OA
ENDBRANCH   3   4
ENDBRANCH   2   3
ENDBRANCH   1   2
BRANCH   1   7
ATOM      7  C   UNL     1      43.880  32.951  49.477  1.00  0.00     0.000 C 
BRANCH   7   8
ATOM      8  C   UNL     1      43.939  34.476  49.670  1.00  0.00    -0.000 C 
BRANCH   8   9
ATOM      9  C   UNL     1      42.544  35.124  49.676  1.00  0.00    -0.000 C 
BRANCH   9  10
ATOM     10  C   UNL     1      41.620  34.542  48.595  1.00  0.00    -0.003 C 
ATOM     11  C   UNL     1      40.997  35.617  47.706  1.00  0.00     0.004 C 
ENDBRANCH   9  10
ENDBRANCH   8   9
ENDBRANCH   7   8
ENDBRANCH   1   7
TORSDOF 7
ENDMDL
MODEL 8
REMARK VINA RESULT:    -2.978      9.036     10.504
REMARK INTER + INTRA:          -4.735
REMARK INTER:                  -4.108
REMARK INTRA:                  -0.627
REMARK UNBOUND:                -0.538
REMARK SMILES CCCCCCCCC(=O)[O-]
REMARK SMILES IDX 6 1 7 2 8 3 9 4 10 5 11 6 5 7 4 8 3 9 2 10 1 11
REMARK H PARENT
REMARK Flexibility Score: inf
ROOT
ATOM      1  C   UNL     1      45.919  32.737  49.294  1.00  0.00     0.000 C 
ENDROOT
BRANCH   1   2
ATOM      2  C   UNL     1      44.414  32.632  49.602  1.00  0.00     0.006 C 
BRANCH   2   3
ATOM      3  C   UNL     1      43.523  33.532  48.730  1.00  0.00     0.053 C 
BRANCH   3   4
ATOM      4  C   UNL     1      42.818  34.577  49.540  1.00  0.00     0.041 C 
ATOM      5  O   UNL     1      41.830  35.191  49.060  1.00  0.00    -0.550 OA
ATOM      6  O   UNL     1      43.274  34.894  50.814  1.00  0.00    -0.550 OA
ENDBRANCH   3   4
ENDBRANCH   2   3
ENDBRANCH   1   2
BRANCH   1   7
ATOM      7  C   UNL     1      46.708  31.497  49.751  1.00  0.00     0.000 C 
BRANCH   7   8
ATOM      8  C   UNL     1      45.800  30.282  50.007  1.00  0.00    -0.000 C 
BRANCH   8   9
ATOM      9  C   UNL     1      46.041  29.144  49.001  1.00  0.00    -0.000 C 
BRANCH   9  10
ATOM     10  C   UNL     1      44.948  29.072  47.922  1.00  0.00    -0.003 C 
ATOM     11  C   UNL     1      45.255  29.948  46.708  1.00  0.00     0.004 C 
ENDBRANCH   9  10
ENDBRANCH   8   9
ENDBRANCH   7   8
ENDBRANCH   1   7
TORSDOF 7
ENDMDL
MODEL 9
REMARK VINA RESULT:    -2.915      9.553     10.907
REMARK INTER + INTRA:          -4.645
REMARK INTER:                  -4.353
REMARK INTRA:                  -0.293
REMARK UNBOUND:                -0.538
REMARK SMILES CCCCCCCCC(=O)[O-]
REMARK SMILES IDX 6 1 7 2 8 3 9 4 10 5 11 6 5 7 4 8 3 9 2 10 1 11
REMARK H PARENT
REMARK Flexibility Score: inf
ROOT
ATOM      1  C   UNL     1      46.470  31.693  49.691  1.00  0.00     0.000 C 
ENDROOT
BRANCH   1   2
ATOM      2  C   UNL     1      47.121  30.298  49.627  1.00  0.00     0.006 C 
BRANCH   2   3
ATOM      3  C   UNL     1      46.639  29.322  50.713  1.00  0.00     0.053 C 
BRANCH   3   4
ATOM      4  C   UNL     1      45.980  28.112  50.127  1.00  0.00     0.041 C 
ATOM      5  O   UNL     1      45.020  28.240  49.322  1.00  0.00    -0.550 OA
ATOM      6  O   UNL     1      46.407  26.841  50.494  1.00  0.00    -0.550 OA
ENDBRANCH   3   4
ENDBRANCH   2   3
ENDBRANCH   1   2
BRANCH   1   7
ATOM      7  C   UNL     1      45.046  31.712  49.108  1.00  0.00     0.000 C 
BRANCH   7   8
ATOM      8  C   UNL     1      44.161  32.794  49.750  1.00  0.00    -0.000 C 
BRANCH   8   9
ATOM      9  C   UNL     1      43.379  33.611  48.707  1.00  0.00    -0.000 C 
BRANCH   9  10
ATOM     10  C   UNL     1      42.553  34.740  49.344  1.00  0.00    -0.003 C 
ATOM     11  C   UNL     1      43.132  35.221  50.674  1.00  0.00     0.004 C 
ENDBRANCH   9  10
ENDBRANCH   8   9
ENDBRANCH   7   8
ENDBRANCH   1   7
TORSDOF 7
ENDMDL
