MODEL 1
REMARK VINA RESULT:    -6.138      0.000      0.000
REMARK INTER + INTRA:          -9.333
REMARK INTER:                  -8.291
REMARK INTRA:                  -1.042
REMARK UNBOUND:                -1.042
REMARK SMILES O=c1c(-c2ccc(O)cc2)coc2c([C@@H]3O[C@H](CO)[C@@H](O)[C@@H](O)[C@@H]3O)c(O)ccc12
REMARK SMILES IDX 3 1 11 2 12 3 13 4 30 5 2 6 1 7 29 8 28 9 26 10 14 11 4 12
REMARK SMILES IDX 5 13 6 14 7 15 10 16 9 17 8 18 15 20 24 21 16 22 22 23 17 24
REMARK SMILES IDX 20 25 25 26 23 28 18 30 19 31 21 33 27 35
REMARK H PARENT 8 19 25 27 23 29 19 32 21 34 27 36
REMARK Flexibility Score: inf
ROOT
ATOM      1  C   UNL     1     -10.775  -9.321  93.447  1.00  0.00     0.065 A 
ATOM      2  C   UNL     1     -11.356  -8.152  93.961  1.00  0.00     0.208 A 
ATOM      3  O   UNL     1     -12.124  -8.192  95.043  1.00  0.00    -0.463 OA
ATOM      4  C   UNL     1     -12.393  -9.315  95.705  1.00  0.00     0.147 A 
ATOM      5  C   UNL     1     -11.848 -10.541  95.254  1.00  0.00     0.066 A 
ATOM      6  C   UNL     1     -11.022 -10.533  94.116  1.00  0.00     0.200 A 
ATOM      7  O   UNL     1     -10.492 -11.604  93.707  1.00  0.00    -0.288 OA
ATOM      8  C   UNL     1     -12.143 -11.725  95.946  1.00  0.00     0.020 A 
ATOM      9  C   UNL     1     -12.981 -11.699  97.058  1.00  0.00     0.047 A 
ATOM     10  C   UNL     1     -13.531 -10.493  97.511  1.00  0.00     0.125 A 
ATOM     11  C   UNL     1     -13.221  -9.279  96.851  1.00  0.00     0.069 A 
ENDROOT
BRANCH   1  12
ATOM     12  C   UNL     1      -9.924  -9.252  92.232  1.00  0.00    -0.011 A 
ATOM     13  C   UNL     1     -10.402  -9.737  91.003  1.00  0.00     0.013 A 
ATOM     14  C   UNL     1      -9.599  -9.682  89.860  1.00  0.00     0.047 A 
ATOM     15  C   UNL     1      -8.307  -9.146  89.932  1.00  0.00     0.115 A 
ATOM     16  C   UNL     1      -8.623  -8.720  92.297  1.00  0.00     0.013 A 
ATOM     17  C   UNL     1      -7.823  -8.667  91.152  1.00  0.00     0.047 A 
BRANCH  15  18
ATOM     18  O   UNL     1      -7.499  -9.085  88.799  1.00  0.00    -0.508 OA
ATOM     19  H   UNL     1      -7.895  -8.984  87.872  1.00  0.00     0.293 HD
ENDBRANCH  15  18
ENDBRANCH   1  12
BRANCH  11  20
ATOM     20  C   UNL     1     -13.822  -7.954  97.306  1.00  0.00     0.188 C 
ATOM     21  C   UNL     1     -15.179  -7.709  96.609  1.00  0.00     0.179 C 
ATOM     22  O   UNL     1     -13.971  -7.936  98.718  1.00  0.00    -0.362 OA
ATOM     23  C   UNL     1     -15.764  -6.362  97.076  1.00  0.00     0.177 C 
ATOM     24  C   UNL     1     -14.366  -6.649  99.169  1.00  0.00     0.176 C 
ATOM     25  C   UNL     1     -15.766  -6.288  98.615  1.00  0.00     0.177 C 
BRANCH  21  26
ATOM     26  O   UNL     1     -16.072  -8.749  96.917  1.00  0.00    -0.387 OA
ATOM     27  H   UNL     1     -16.347  -9.156  96.054  1.00  0.00     0.211 HD
ENDBRANCH  21  26
BRANCH  23  28
ATOM     28  O   UNL     1     -15.009  -5.298  96.551  1.00  0.00    -0.387 OA
ATOM     29  H   UNL     1     -14.619  -4.814  97.324  1.00  0.00     0.211 HD
ENDBRANCH  23  28
BRANCH  24  30
ATOM     30  C   UNL     1     -14.377  -6.659 100.705  1.00  0.00     0.191 C 
BRANCH  30  31
ATOM     31  O   UNL     1     -15.586  -7.184 101.183  1.00  0.00    -0.394 OA
ATOM     32  H   UNL     1     -16.200  -6.415 101.310  1.00  0.00     0.210 HD
ENDBRANCH  30  31
ENDBRANCH  24  30
BRANCH  25  33
ATOM     33  O   UNL     1     -16.125  -4.995  99.033  1.00  0.00    -0.388 OA
ATOM     34  H   UNL     1     -17.115  -4.946  98.989  1.00  0.00     0.211 HD
ENDBRANCH  25  33
ENDBRANCH  11  20
BRANCH  10  35
ATOM     35  O   UNL     1     -14.389 -10.507  98.609  1.00  0.00    -0.507 OA
ATOM     36  H   UNL     1     -14.043 -10.438  99.559  1.00  0.00     0.293 HD
ENDBRANCH  10  35
TORSDOF 9
ENDMDL
MODEL 2
REMARK VINA RESULT:    -6.004      2.346      3.277
REMARK INTER + INTRA:          -9.152
REMARK INTER:                  -8.105
REMARK INTRA:                  -1.048
REMARK UNBOUND:                -1.042
REMARK SMILES O=c1c(-c2ccc(O)cc2)coc2c([C@@H]3O[C@H](CO)[C@@H](O)[C@@H](O)[C@@H]3O)c(O)ccc12
REMARK SMILES IDX 3 1 11 2 12 3 13 4 30 5 2 6 1 7 29 8 28 9 26 10 14 11 4 12
REMARK SMILES IDX 5 13 6 14 7 15 10 16 9 17 8 18 15 20 24 21 16 22 22 23 17 24
REMARK SMILES IDX 20 25 25 26 23 28 18 30 19 31 21 33 27 35
REMARK H PARENT 8 19 25 27 23 29 19 32 21 34 27 36
REMARK Flexibility Score: inf
ROOT
ATOM      1  C   UNL     1      -9.208  -7.830  93.761  1.00  0.00     0.065 A 
ATOM      2  C   UNL     1      -9.840  -7.436  94.949  1.00  0.00     0.208 A 
ATOM      3  O   UNL     1     -10.715  -8.233  95.552  1.00  0.00    -0.463 OA
ATOM      4  C   UNL     1     -11.048  -9.434  95.086  1.00  0.00     0.147 A 
ATOM      5  C   UNL     1     -10.458  -9.910  93.891  1.00  0.00     0.066 A 
ATOM      6  C   UNL     1      -9.520  -9.095  93.232  1.00  0.00     0.200 A 
ATOM      7  O   UNL     1      -8.949  -9.503  92.182  1.00  0.00    -0.288 OA
ATOM      8  C   UNL     1     -10.820 -11.171  93.395  1.00  0.00     0.020 A 
ATOM      9  C   UNL     1     -11.767 -11.943  94.063  1.00  0.00     0.047 A 
ATOM     10  C   UNL     1     -12.362 -11.481  95.244  1.00  0.00     0.125 A 
ATOM     11  C   UNL     1     -11.988 -10.227  95.784  1.00  0.00     0.069 A 
ENDROOT
BRANCH   1  12
ATOM     12  C   UNL     1      -8.238  -6.919  93.102  1.00  0.00    -0.011 A 
ATOM     13  C   UNL     1      -8.659  -6.058  92.074  1.00  0.00     0.013 A 
ATOM     14  C   UNL     1      -7.745  -5.206  91.445  1.00  0.00     0.047 A 
ATOM     15  C   UNL     1      -6.400  -5.208  91.833  1.00  0.00     0.115 A 
ATOM     16  C   UNL     1      -6.884  -6.919  93.481  1.00  0.00     0.013 A 
ATOM     17  C   UNL     1      -5.973  -6.066  92.851  1.00  0.00     0.047 A 
BRANCH  15  18
ATOM     18  O   UNL     1      -5.481  -4.364  91.215  1.00  0.00    -0.508 OA
ATOM     19  H   UNL     1      -4.591  -4.708  90.875  1.00  0.00     0.293 HD
ENDBRANCH  15  18
ENDBRANCH   1  12
BRANCH  11  20
ATOM     20  C   UNL     1     -12.635  -9.687  97.055  1.00  0.00     0.188 C 
ATOM     21  C   UNL     1     -13.868  -8.823  96.709  1.00  0.00     0.179 C 
ATOM     22  O   UNL     1     -12.995 -10.754  97.920  1.00  0.00    -0.362 OA
ATOM     23  C   UNL     1     -14.501  -8.281  98.005  1.00  0.00     0.177 C 
ATOM     24  C   UNL     1     -13.438 -10.261  99.175  1.00  0.00     0.176 C 
ATOM     25  C   UNL     1     -14.733  -9.430  99.004  1.00  0.00     0.177 C 
BRANCH  21  26
ATOM     26  O   UNL     1     -14.810  -9.591  96.003  1.00  0.00    -0.387 OA
ATOM     27  H   UNL     1     -15.218 -10.217  96.657  1.00  0.00     0.211 HD
ENDBRANCH  21  26
BRANCH  23  28
ATOM     28  O   UNL     1     -13.662  -7.312  98.585  1.00  0.00    -0.387 OA
ATOM     29  H   UNL     1     -14.094  -6.431  98.433  1.00  0.00     0.211 HD
ENDBRANCH  23  28
BRANCH  24  30
ATOM     30  C   UNL     1     -13.681 -11.459 100.105  1.00  0.00     0.191 C 
BRANCH  30  31
ATOM     31  O   UNL     1     -13.926 -11.020 101.414  1.00  0.00    -0.394 OA
ATOM     32  H   UNL     1     -14.887 -10.776 101.458  1.00  0.00     0.210 HD
ENDBRANCH  30  31
ENDBRANCH  24  30
BRANCH  25  33
ATOM     33  O   UNL     1     -15.135  -8.912 100.247  1.00  0.00    -0.388 OA
ATOM     34  H   UNL     1     -15.984  -9.369 100.485  1.00  0.00     0.211 HD
ENDBRANCH  25  33
ENDBRANCH  11  20
BRANCH  10  35
ATOM     35  O   UNL     1     -13.328 -12.267  95.871  1.00  0.00    -0.507 OA
ATOM     36  H   UNL     1     -13.428 -12.287  96.879  1.00  0.00     0.293 HD
ENDBRANCH  10  35
TORSDOF 9
ENDMDL
MODEL 3
REMARK VINA RESULT:    -5.634      6.409      9.260
REMARK INTER + INTRA:          -8.653
REMARK INTER:                  -7.523
REMARK INTRA:                  -1.130
REMARK UNBOUND:                -1.042
REMARK SMILES O=c1c(-c2ccc(O)cc2)coc2c([C@@H]3O[C@H](CO)[C@@H](O)[C@@H](O)[C@@H]3O)c(O)ccc12
REMARK SMILES IDX 3 1 11 2 12 3 13 4 30 5 2 6 1 7 29 8 28 9 26 10 14 11 4 12
REMARK SMILES IDX 5 13 6 14 7 15 10 16 9 17 8 18 15 20 24 21 16 22 22 23 17 24
REMARK SMILES IDX 20 25 25 26 23 28 18 30 19 31 21 33 27 35
REMARK H PARENT 8 19 25 27 23 29 19 32 21 34 27 36
REMARK Flexibility Score: inf
ROOT
ATOM      1  C   UNL     1      -8.452  -8.101  91.866  1.00  0.00     0.065 A 
ATOM      2  C   UNL     1      -7.831  -8.564  93.035  1.00  0.00     0.208 A 
ATOM      3  O   UNL     1      -6.841  -7.881  93.598  1.00  0.00    -0.463 OA
ATOM      4  C   UNL     1      -6.377  -6.734  93.107  1.00  0.00     0.147 A 
ATOM      5  C   UNL     1      -6.946  -6.194  91.930  1.00  0.00     0.066 A 
ATOM      6  C   UNL     1      -8.003  -6.888  91.313  1.00  0.00     0.200 A 
ATOM      7  O   UNL     1      -8.556  -6.418  90.280  1.00  0.00    -0.288 OA
ATOM      8  C   UNL     1      -6.447  -4.992  91.408  1.00  0.00     0.020 A 
ATOM      9  C   UNL     1      -5.387  -4.342  92.033  1.00  0.00     0.047 A 
ATOM     10  C   UNL     1      -4.811  -4.868  93.196  1.00  0.00     0.125 A 
ATOM     11  C   UNL     1      -5.319  -6.062  93.763  1.00  0.00     0.069 A 
ENDROOT
BRANCH   1  12
ATOM     12  C   UNL     1      -9.553  -8.886  91.252  1.00  0.00    -0.011 A 
ATOM     13  C   UNL     1      -9.293  -9.745  90.170  1.00  0.00     0.013 A 
ATOM     14  C   UNL     1     -10.330 -10.478  89.584  1.00  0.00     0.047 A 
ATOM     15  C   UNL     1     -11.639 -10.357  90.069  1.00  0.00     0.115 A 
ATOM     16  C   UNL     1     -10.870  -8.767  91.729  1.00  0.00     0.013 A 
ATOM     17  C   UNL     1     -11.905  -9.501  91.141  1.00  0.00     0.047 A 
BRANCH  15  18
ATOM     18  O   UNL     1     -12.679 -11.083  89.493  1.00  0.00    -0.508 OA
ATOM     19  H   UNL     1     -12.531 -11.663  88.676  1.00  0.00     0.293 HD
ENDBRANCH  15  18
ENDBRANCH   1  12
BRANCH  11  20
ATOM     20  C   UNL     1      -4.699  -6.672  95.015  1.00  0.00     0.188 C 
ATOM     21  C   UNL     1      -3.481  -7.547  94.643  1.00  0.00     0.179 C 
ATOM     22  O   UNL     1      -4.326  -5.653  95.930  1.00  0.00    -0.362 OA
ATOM     23  C   UNL     1      -2.875  -8.160  95.921  1.00  0.00     0.177 C 
ATOM     24  C   UNL     1      -3.907  -6.211  97.167  1.00  0.00     0.176 C 
ATOM     25  C   UNL     1      -2.629  -7.062  96.973  1.00  0.00     0.177 C 
BRANCH  21  26
ATOM     26  O   UNL     1      -2.514  -6.770  93.983  1.00  0.00    -0.387 OA
ATOM     27  H   UNL     1      -1.636  -7.203  94.147  1.00  0.00     0.211 HD
ENDBRANCH  21  26
BRANCH  23  28
ATOM     28  O   UNL     1      -3.742  -9.135  96.448  1.00  0.00    -0.387 OA
ATOM     29  H   UNL     1      -3.174  -9.797  96.922  1.00  0.00     0.211 HD
ENDBRANCH  23  28
BRANCH  24  30
ATOM     30  C   UNL     1      -3.649  -5.061  98.152  1.00  0.00     0.191 C 
BRANCH  30  31
ATOM     31  O   UNL     1      -2.294  -4.701  98.140  1.00  0.00    -0.394 OA
ATOM     32  H   UNL     1      -2.196  -3.983  97.463  1.00  0.00     0.210 HD
ENDBRANCH  30  31
ENDBRANCH  24  30
BRANCH  25  33
ATOM     33  O   UNL     1      -2.252  -7.643  98.195  1.00  0.00    -0.388 OA
ATOM     34  H   UNL     1      -1.658  -6.991  98.650  1.00  0.00     0.211 HD
ENDBRANCH  25  33
ENDBRANCH  11  20
BRANCH  10  35
ATOM     35  O   UNL     1      -3.731  -4.207  93.780  1.00  0.00    -0.507 OA
ATOM     36  H   UNL     1      -3.845  -3.611  94.592  1.00  0.00     0.293 HD
ENDBRANCH  10  35
TORSDOF 9
ENDMDL
MODEL 4
REMARK VINA RESULT:    -5.602      2.476      8.864
REMARK INTER + INTRA:          -8.609
REMARK INTER:                  -7.683
REMARK INTRA:                  -0.927
REMARK UNBOUND:                -1.042
REMARK SMILES O=c1c(-c2ccc(O)cc2)coc2c([C@@H]3O[C@H](CO)[C@@H](O)[C@@H](O)[C@@H]3O)c(O)ccc12
REMARK SMILES IDX 3 1 11 2 12 3 13 4 30 5 2 6 1 7 29 8 28 9 26 10 14 11 4 12
REMARK SMILES IDX 5 13 6 14 7 15 10 16 9 17 8 18 15 20 24 21 16 22 22 23 17 24
REMARK SMILES IDX 20 25 25 26 23 28 18 30 19 31 21 33 27 35
REMARK H PARENT 8 19 25 27 23 29 19 32 21 34 27 36
REMARK Flexibility Score: inf
ROOT
ATOM      1  C   UNL     1     -11.622  -9.098  96.425  1.00  0.00     0.065 A 
ATOM      2  C   UNL     1     -12.004  -9.777  95.260  1.00  0.00     0.208 A 
ATOM      3  O   UNL     1     -11.327  -9.623  94.128  1.00  0.00    -0.463 OA
ATOM      4  C   UNL     1     -10.262  -8.832  94.018  1.00  0.00     0.147 A 
ATOM      5  C   UNL     1      -9.808  -8.108  95.145  1.00  0.00     0.066 A 
ATOM      6  C   UNL     1     -10.496  -8.256  96.363  1.00  0.00     0.200 A 
ATOM      7  O   UNL     1     -10.097  -7.651  97.397  1.00  0.00    -0.288 OA
ATOM      8  C   UNL     1      -8.693  -7.266  95.024  1.00  0.00     0.020 A 
ATOM      9  C   UNL     1      -8.048  -7.128  93.798  1.00  0.00     0.047 A 
ATOM     10  C   UNL     1      -8.491  -7.835  92.673  1.00  0.00     0.125 A 
ATOM     11  C   UNL     1      -9.593  -8.719  92.777  1.00  0.00     0.069 A 
ENDROOT
BRANCH   1  12
ATOM     12  C   UNL     1     -12.397  -9.283  97.678  1.00  0.00    -0.011 A 
ATOM     13  C   UNL     1     -12.003 -10.249  98.620  1.00  0.00     0.013 A 
ATOM     14  C   UNL     1     -12.737 -10.432  99.796  1.00  0.00     0.047 A 
ATOM     15  C   UNL     1     -13.876  -9.655 100.043  1.00  0.00     0.115 A 
ATOM     16  C   UNL     1     -13.545  -8.511  97.931  1.00  0.00     0.013 A 
ATOM     17  C   UNL     1     -14.277  -8.696  99.108  1.00  0.00     0.047 A 
BRANCH  15  18
ATOM     18  O   UNL     1     -14.614  -9.827 101.211  1.00  0.00    -0.508 OA
ATOM     19  H   UNL     1     -15.289  -9.137 101.518  1.00  0.00     0.293 HD
ENDBRANCH  15  18
ENDBRANCH   1  12
BRANCH  11  20
ATOM     20  C   UNL     1     -10.112  -9.484  91.565  1.00  0.00     0.188 C 
ATOM     21  C   UNL     1     -11.226  -8.681  90.857  1.00  0.00     0.179 C 
ATOM     22  O   UNL     1      -9.051  -9.772  90.668  1.00  0.00    -0.362 OA
ATOM     23  C   UNL     1     -11.743  -9.476  89.642  1.00  0.00     0.177 C 
ATOM     24  C   UNL     1      -9.488 -10.630  89.625  1.00  0.00     0.176 C 
ATOM     25  C   UNL     1     -10.563  -9.928  88.761  1.00  0.00     0.177 C 
BRANCH  21  26
ATOM     26  O   UNL     1     -10.728  -7.437  90.435  1.00  0.00    -0.387 OA
ATOM     27  H   UNL     1     -11.261  -7.167  89.642  1.00  0.00     0.211 HD
ENDBRANCH  21  26
BRANCH  23  28
ATOM     28  O   UNL     1     -12.470 -10.600  90.072  1.00  0.00    -0.387 OA
ATOM     29  H   UNL     1     -12.514 -10.552  91.062  1.00  0.00     0.211 HD
ENDBRANCH  23  28
BRANCH  24  30
ATOM     30  C   UNL     1      -8.269 -11.012  88.772  1.00  0.00     0.191 C 
BRANCH  30  31
ATOM     31  O   UNL     1      -7.127 -10.331  89.218  1.00  0.00    -0.394 OA
ATOM     32  H   UNL     1      -7.349  -9.957  90.110  1.00  0.00     0.210 HD
ENDBRANCH  30  31
ENDBRANCH  24  30
BRANCH  25  33
ATOM     33  O   UNL     1     -11.018 -10.804  87.760  1.00  0.00    -0.388 OA
ATOM     34  H   UNL     1     -10.325 -10.809  87.050  1.00  0.00     0.211 HD
ENDBRANCH  25  33
ENDBRANCH  11  20
BRANCH  10  35
ATOM     35  O   UNL     1      -7.840  -7.651  91.453  1.00  0.00    -0.507 OA
ATOM     36  H   UNL     1      -6.851  -7.843  91.342  1.00  0.00     0.293 HD
ENDBRANCH  10  35
TORSDOF 9
ENDMDL
MODEL 5
REMARK VINA RESULT:    -5.581      1.909      2.105
REMARK INTER + INTRA:          -8.581
REMARK INTER:                  -7.563
REMARK INTRA:                  -1.018
REMARK UNBOUND:                -1.042
REMARK SMILES O=c1c(-c2ccc(O)cc2)coc2c([C@@H]3O[C@H](CO)[C@@H](O)[C@@H](O)[C@@H]3O)c(O)ccc12
REMARK SMILES IDX 3 1 11 2 12 3 13 4 30 5 2 6 1 7 29 8 28 9 26 10 14 11 4 12
REMARK SMILES IDX 5 13 6 14 7 15 10 16 9 17 8 18 15 20 24 21 16 22 22 23 17 24
REMARK SMILES IDX 20 25 25 26 23 28 18 30 19 31 21 33 27 35
REMARK H PARENT 8 19 25 27 23 29 19 32 21 34 27 36
REMARK Flexibility Score: inf
ROOT
ATOM      1  C   UNL     1     -12.559  -8.640  92.747  1.00  0.00     0.065 A 
ATOM      2  C   UNL     1     -13.098  -7.693  93.630  1.00  0.00     0.208 A 
ATOM      3  O   UNL     1     -13.343  -8.005  94.897  1.00  0.00    -0.463 OA
ATOM      4  C   UNL     1     -13.102  -9.209  95.411  1.00  0.00     0.147 A 
ATOM      5  C   UNL     1     -12.560 -10.225  94.590  1.00  0.00     0.066 A 
ATOM      6  C   UNL     1     -12.279  -9.925  93.245  1.00  0.00     0.200 A 
ATOM      7  O   UNL     1     -11.762 -10.799  92.492  1.00  0.00    -0.288 OA
ATOM      8  C   UNL     1     -12.318 -11.497  95.130  1.00  0.00     0.020 A 
ATOM      9  C   UNL     1     -12.627 -11.764  96.461  1.00  0.00     0.047 A 
ATOM     10  C   UNL     1     -13.169 -10.768  97.283  1.00  0.00     0.125 A 
ATOM     11  C   UNL     1     -13.390  -9.466  96.772  1.00  0.00     0.069 A 
ENDROOT
BRANCH   1  12
ATOM     12  C   UNL     1     -12.298  -8.269  91.333  1.00  0.00    -0.011 A 
ATOM     13  C   UNL     1     -13.321  -8.369  90.374  1.00  0.00     0.013 A 
ATOM     14  C   UNL     1     -13.075  -8.030  89.040  1.00  0.00     0.047 A 
ATOM     15  C   UNL     1     -11.804  -7.591  88.648  1.00  0.00     0.115 A 
ATOM     16  C   UNL     1     -11.024  -7.833  90.930  1.00  0.00     0.013 A 
ATOM     17  C   UNL     1     -10.781  -7.495  89.595  1.00  0.00     0.047 A 
BRANCH  15  18
ATOM     18  O   UNL     1     -11.549  -7.249  87.322  1.00  0.00    -0.508 OA
ATOM     19  H   UNL     1     -10.997  -7.847  86.718  1.00  0.00     0.293 HD
ENDBRANCH  15  18
ENDBRANCH   1  12
BRANCH  11  20
ATOM     20  C   UNL     1     -14.001  -8.369  97.635  1.00  0.00     0.188 C 
ATOM     21  C   UNL     1     -15.527  -8.290  97.410  1.00  0.00     0.179 C 
ATOM     22  O   UNL     1     -13.705  -8.593  99.005  1.00  0.00    -0.362 OA
ATOM     23  C   UNL     1     -16.122  -7.170  98.285  1.00  0.00     0.177 C 
ATOM     24  C   UNL     1     -14.118  -7.492  99.800  1.00  0.00     0.176 C 
ATOM     25  C   UNL     1     -15.656  -7.330  99.745  1.00  0.00     0.177 C 
BRANCH  21  26
ATOM     26  O   UNL     1     -16.125  -9.519  97.738  1.00  0.00    -0.387 OA
ATOM     27  H   UNL     1     -15.464 -10.025  98.279  1.00  0.00     0.211 HD
ENDBRANCH  21  26
BRANCH  23  28
ATOM     28  O   UNL     1     -15.725  -5.912  97.796  1.00  0.00    -0.387 OA
ATOM     29  H   UNL     1     -16.156  -5.799  96.910  1.00  0.00     0.211 HD
ENDBRANCH  23  28
BRANCH  24  30
ATOM     30  C   UNL     1     -13.650  -7.735 101.242  1.00  0.00     0.191 C 
BRANCH  30  31
ATOM     31  O   UNL     1     -14.618  -8.456 101.956  1.00  0.00    -0.394 OA
ATOM     32  H   UNL     1     -14.851  -9.245 101.402  1.00  0.00     0.210 HD
ENDBRANCH  30  31
ENDBRANCH  24  30
BRANCH  25  33
ATOM     33  O   UNL     1     -16.046  -6.211 100.499  1.00  0.00    -0.388 OA
ATOM     34  H   UNL     1     -15.640  -5.417 100.062  1.00  0.00     0.211 HD
ENDBRANCH  25  33
ENDBRANCH  11  20
BRANCH  10  35
ATOM     35  O   UNL     1     -13.495 -11.078  98.603  1.00  0.00    -0.507 OA
ATOM     36  H   UNL     1     -13.763 -12.016  98.881  1.00  0.00     0.293 HD
ENDBRANCH  10  35
TORSDOF 9
ENDMDL
MODEL 6
REMARK VINA RESULT:    -5.458      3.725      8.341
REMARK INTER + INTRA:          -8.414
REMARK INTER:                  -7.701
REMARK INTRA:                  -0.713
REMARK UNBOUND:                -1.042
REMARK SMILES O=c1c(-c2ccc(O)cc2)coc2c([C@@H]3O[C@H](CO)[C@@H](O)[C@@H](O)[C@@H]3O)c(O)ccc12
REMARK SMILES IDX 3 1 11 2 12 3 13 4 30 5 2 6 1 7 29 8 28 9 26 10 14 11 4 12
REMARK SMILES IDX 5 13 6 14 7 15 10 16 9 17 8 18 15 20 24 21 16 22 22 23 17 24
REMARK SMILES IDX 20 25 25 26 23 28 18 30 19 31 21 33 27 35
REMARK H PARENT 8 19 25 27 23 29 19 32 21 34 27 36
REMARK Flexibility Score: inf
ROOT
ATOM      1  C   UNL     1     -13.224  -9.816  95.887  1.00  0.00     0.065 A 
ATOM      2  C   UNL     1     -14.222  -9.538  94.942  1.00  0.00     0.208 A 
ATOM      3  O   UNL     1     -13.944  -9.521  93.643  1.00  0.00    -0.463 OA
ATOM      4  C   UNL     1     -12.729  -9.760  93.155  1.00  0.00     0.147 A 
ATOM      5  C   UNL     1     -11.663 -10.047  94.040  1.00  0.00     0.066 A 
ATOM      6  C   UNL     1     -11.925 -10.084  95.421  1.00  0.00     0.200 A 
ATOM      7  O   UNL     1     -11.004 -10.371  96.236  1.00  0.00    -0.288 OA
ATOM      8  C   UNL     1     -10.381 -10.287  93.523  1.00  0.00     0.020 A 
ATOM      9  C   UNL     1     -10.153 -10.223  92.151  1.00  0.00     0.047 A 
ATOM     10  C   UNL     1     -11.199  -9.934  91.265  1.00  0.00     0.125 A 
ATOM     11  C   UNL     1     -12.510  -9.723  91.758  1.00  0.00     0.069 A 
ENDROOT
BRANCH   1  12
ATOM     12  C   UNL     1     -13.558  -9.825  97.334  1.00  0.00    -0.011 A 
ATOM     13  C   UNL     1     -13.428 -11.006  98.085  1.00  0.00     0.013 A 
ATOM     14  C   UNL     1     -13.751 -11.020  99.445  1.00  0.00     0.047 A 
ATOM     15  C   UNL     1     -14.212  -9.855 100.071  1.00  0.00     0.115 A 
ATOM     16  C   UNL     1     -14.027  -8.661  97.969  1.00  0.00     0.013 A 
ATOM     17  C   UNL     1     -14.349  -8.678  99.329  1.00  0.00     0.047 A 
BRANCH  15  18
ATOM     18  O   UNL     1     -14.535  -9.856 101.425  1.00  0.00    -0.508 OA
ATOM     19  H   UNL     1     -15.119 -10.580 101.830  1.00  0.00     0.293 HD
ENDBRANCH  15  18
ENDBRANCH   1  12
BRANCH  11  20
ATOM     20  C   UNL     1     -13.663  -9.384  90.821  1.00  0.00     0.188 C 
ATOM     21  C   UNL     1     -13.643  -7.881  90.461  1.00  0.00     0.179 C 
ATOM     22  O   UNL     1     -13.603 -10.183  89.650  1.00  0.00    -0.362 OA
ATOM     23  C   UNL     1     -14.821  -7.558  89.522  1.00  0.00     0.177 C 
ATOM     24  C   UNL     1     -14.762 -10.000  88.851  1.00  0.00     0.176 C 
ATOM     25  C   UNL     1     -14.842  -8.542  88.337  1.00  0.00     0.177 C 
BRANCH  21  26
ATOM     26  O   UNL     1     -12.429  -7.554  89.834  1.00  0.00    -0.387 OA
ATOM     27  H   UNL     1     -11.990  -6.864  90.398  1.00  0.00     0.211 HD
ENDBRANCH  21  26
BRANCH  23  28
ATOM     28  O   UNL     1     -16.037  -7.638  90.225  1.00  0.00    -0.387 OA
ATOM     29  H   UNL     1     -16.011  -8.480  90.749  1.00  0.00     0.211 HD
ENDBRANCH  23  28
BRANCH  24  30
ATOM     30  C   UNL     1     -14.698 -10.987  87.676  1.00  0.00     0.191 C 
BRANCH  30  31
ATOM     31  O   UNL     1     -14.007 -12.149  88.050  1.00  0.00    -0.394 OA
ATOM     32  H   UNL     1     -13.344 -12.328  87.334  1.00  0.00     0.210 HD
ENDBRANCH  30  31
ENDBRANCH  24  30
BRANCH  25  33
ATOM     33  O   UNL     1     -16.016  -8.365  87.586  1.00  0.00    -0.388 OA
ATOM     34  H   UNL     1     -16.712  -8.934  88.006  1.00  0.00     0.211 HD
ENDBRANCH  25  33
ENDBRANCH  11  20
BRANCH  10  35
ATOM     35  O   UNL     1     -10.930  -9.849  89.900  1.00  0.00    -0.507 OA
ATOM     36  H   UNL     1     -10.230  -9.215  89.532  1.00  0.00     0.293 HD
ENDBRANCH  10  35
TORSDOF 9
ENDMDL
MODEL 7
REMARK VINA RESULT:    -5.399      2.925      5.808
REMARK INTER + INTRA:          -8.335
REMARK INTER:                  -8.076
REMARK INTRA:                  -0.259
REMARK UNBOUND:                -1.042
REMARK SMILES O=c1c(-c2ccc(O)cc2)coc2c([C@@H]3O[C@H](CO)[C@@H](O)[C@@H](O)[C@@H]3O)c(O)ccc12
REMARK SMILES IDX 3 1 11 2 12 3 13 4 30 5 2 6 1 7 29 8 28 9 26 10 14 11 4 12
REMARK SMILES IDX 5 13 6 14 7 15 10 16 9 17 8 18 15 20 24 21 16 22 22 23 17 24
REMARK SMILES IDX 20 25 25 26 23 28 18 30 19 31 21 33 27 35
REMARK H PARENT 8 19 25 27 23 29 19 32 21 34 27 36
REMARK Flexibility Score: inf
ROOT
ATOM      1  C   UNL     1      -7.974  -7.635  92.363  1.00  0.00     0.065 A 
ATOM      2  C   UNL     1      -9.024  -7.768  93.283  1.00  0.00     0.208 A 
ATOM      3  O   UNL     1     -10.115  -8.459  92.976  1.00  0.00    -0.463 OA
ATOM      4  C   UNL     1     -10.290  -9.062  91.802  1.00  0.00     0.147 A 
ATOM      5  C   UNL     1      -9.280  -8.978  90.814  1.00  0.00     0.066 A 
ATOM      6  C   UNL     1      -8.107  -8.262  91.110  1.00  0.00     0.200 A 
ATOM      7  O   UNL     1      -7.171  -8.195  90.265  1.00  0.00    -0.288 OA
ATOM      8  C   UNL     1      -9.472  -9.604  89.573  1.00  0.00     0.020 A 
ATOM      9  C   UNL     1     -10.654 -10.288  89.307  1.00  0.00     0.047 A 
ATOM     10  C   UNL     1     -11.664 -10.374  90.274  1.00  0.00     0.125 A 
ATOM     11  C   UNL     1     -11.481  -9.781  91.547  1.00  0.00     0.069 A 
ENDROOT
BRANCH   1  12
ATOM     12  C   UNL     1      -6.765  -6.853  92.727  1.00  0.00    -0.011 A 
ATOM     13  C   UNL     1      -5.990  -7.224  93.840  1.00  0.00     0.013 A 
ATOM     14  C   UNL     1      -4.857  -6.484  94.191  1.00  0.00     0.047 A 
ATOM     15  C   UNL     1      -4.488  -5.362  93.438  1.00  0.00     0.115 A 
ATOM     16  C   UNL     1      -6.391  -5.722  91.981  1.00  0.00     0.013 A 
ATOM     17  C   UNL     1      -5.258  -4.984  92.334  1.00  0.00     0.047 A 
BRANCH  15  18
ATOM     18  O   UNL     1      -3.361  -4.618  93.778  1.00  0.00    -0.508 OA
ATOM     19  H   UNL     1      -3.075  -4.500  94.743  1.00  0.00     0.293 HD
ENDBRANCH  15  18
ENDBRANCH   1  12
BRANCH  11  20
ATOM     20  C   UNL     1     -12.571  -9.838  92.612  1.00  0.00     0.188 C 
ATOM     21  C   UNL     1     -12.411 -11.106  93.481  1.00  0.00     0.179 C 
ATOM     22  O   UNL     1     -12.541  -8.669  93.416  1.00  0.00    -0.362 OA
ATOM     23  C   UNL     1     -13.527 -11.148  94.543  1.00  0.00     0.177 C 
ATOM     24  C   UNL     1     -13.654  -8.631  94.296  1.00  0.00     0.176 C 
ATOM     25  C   UNL     1     -13.593  -9.808  95.299  1.00  0.00     0.177 C 
BRANCH  21  26
ATOM     26  O   UNL     1     -11.154 -11.102  94.109  1.00  0.00    -0.387 OA
ATOM     27  H   UNL     1     -10.641 -10.346  93.722  1.00  0.00     0.211 HD
ENDBRANCH  21  26
BRANCH  23  28
ATOM     28  O   UNL     1     -14.767 -11.410  93.932  1.00  0.00    -0.387 OA
ATOM     29  H   UNL     1     -15.459 -10.964  94.487  1.00  0.00     0.211 HD
ENDBRANCH  23  28
BRANCH  24  30
ATOM     30  C   UNL     1     -13.636  -7.285  95.037  1.00  0.00     0.191 C 
BRANCH  30  31
ATOM     31  O   UNL     1     -14.832  -7.103  95.747  1.00  0.00    -0.394 OA
ATOM     32  H   UNL     1     -15.455  -6.627  95.139  1.00  0.00     0.210 HD
ENDBRANCH  30  31
ENDBRANCH  24  30
BRANCH  25  33
ATOM     33  O   UNL     1     -14.723  -9.783  96.134  1.00  0.00    -0.388 OA
ATOM     34  H   UNL     1     -14.695 -10.614  96.676  1.00  0.00     0.211 HD
ENDBRANCH  25  33
ENDBRANCH  11  20
BRANCH  10  35
ATOM     35  O   UNL     1     -12.848 -11.041  89.964  1.00  0.00    -0.507 OA
ATOM     36  H   UNL     1     -13.017 -11.996  90.261  1.00  0.00     0.293 HD
ENDBRANCH  10  35
TORSDOF 9
ENDMDL
MODEL 8
REMARK VINA RESULT:    -5.316      3.958      6.973
REMARK INTER + INTRA:          -8.222
REMARK INTER:                  -7.081
REMARK INTRA:                  -1.141
REMARK UNBOUND:                -1.042
REMARK SMILES O=c1c(-c2ccc(O)cc2)coc2c([C@@H]3O[C@H](CO)[C@@H](O)[C@@H](O)[C@@H]3O)c(O)ccc12
REMARK SMILES IDX 3 1 11 2 12 3 13 4 30 5 2 6 1 7 29 8 28 9 26 10 14 11 4 12
REMARK SMILES IDX 5 13 6 14 7 15 10 16 9 17 8 18 15 20 24 21 16 22 22 23 17 24
REMARK SMILES IDX 20 25 25 26 23 28 18 30 19 31 21 33 27 35
REMARK H PARENT 8 19 25 27 23 29 19 32 21 34 27 36
REMARK Flexibility Score: inf
ROOT
ATOM      1  C   UNL     1      -6.245  -6.381  93.447  1.00  0.00     0.065 A 
ATOM      2  C   UNL     1      -6.861  -7.134  94.457  1.00  0.00     0.208 A 
ATOM      3  O   UNL     1      -7.946  -7.856  94.203  1.00  0.00    -0.463 OA
ATOM      4  C   UNL     1      -8.516  -7.917  93.002  1.00  0.00     0.147 A 
ATOM      5  C   UNL     1      -7.960  -7.187  91.925  1.00  0.00     0.066 A 
ATOM      6  C   UNL     1      -6.804  -6.420  92.157  1.00  0.00     0.200 A 
ATOM      7  O   UNL     1      -6.262  -5.783  91.211  1.00  0.00    -0.288 OA
ATOM      8  C   UNL     1      -8.569  -7.243  90.663  1.00  0.00     0.020 A 
ATOM      9  C   UNL     1      -9.724  -7.997  90.474  1.00  0.00     0.047 A 
ATOM     10  C   UNL     1     -10.288  -8.720  91.533  1.00  0.00     0.125 A 
ATOM     11  C   UNL     1      -9.672  -8.708  92.808  1.00  0.00     0.069 A 
ENDROOT
BRANCH   1  12
ATOM     12  C   UNL     1      -5.034  -5.578  93.756  1.00  0.00    -0.011 A 
ATOM     13  C   UNL     1      -3.763  -6.177  93.741  1.00  0.00     0.013 A 
ATOM     14  C   UNL     1      -2.623  -5.426  94.041  1.00  0.00     0.047 A 
ATOM     15  C   UNL     1      -2.740  -4.068  94.365  1.00  0.00     0.115 A 
ATOM     16  C   UNL     1      -5.143  -4.216  94.089  1.00  0.00     0.013 A 
ATOM     17  C   UNL     1      -4.001  -3.467  94.388  1.00  0.00     0.047 A 
BRANCH  15  18
ATOM     18  O   UNL     1      -1.611  -3.310  94.665  1.00  0.00    -0.508 OA
ATOM     19  H   UNL     1      -1.239  -3.263  95.606  1.00  0.00     0.293 HD
ENDBRANCH  15  18
ENDBRANCH   1  12
BRANCH  11  20
ATOM     20  C   UNL     1     -10.275  -9.466  93.986  1.00  0.00     0.188 C 
ATOM     21  C   UNL     1     -11.338  -8.601  94.698  1.00  0.00     0.179 C 
ATOM     22  O   UNL     1     -10.835 -10.695  93.550  1.00  0.00    -0.362 OA
ATOM     23  C   UNL     1     -11.927  -9.381  95.889  1.00  0.00     0.177 C 
ATOM     24  C   UNL     1     -11.244 -11.486  94.656  1.00  0.00     0.176 C 
ATOM     25  C   UNL     1     -12.381 -10.782  95.435  1.00  0.00     0.177 C 
BRANCH  21  26
ATOM     26  O   UNL     1     -12.362  -8.260  93.798  1.00  0.00    -0.387 OA
ATOM     27  H   UNL     1     -12.167  -7.342  93.475  1.00  0.00     0.211 HD
ENDBRANCH  21  26
BRANCH  23  28
ATOM     28  O   UNL     1     -10.968  -9.502  96.911  1.00  0.00    -0.387 OA
ATOM     29  H   UNL     1     -11.192 -10.325  97.419  1.00  0.00     0.211 HD
ENDBRANCH  23  28
BRANCH  24  30
ATOM     30  C   UNL     1     -11.712 -12.849  94.126  1.00  0.00     0.191 C 
BRANCH  30  31
ATOM     31  O   UNL     1     -13.112 -12.887  94.043  1.00  0.00    -0.394 OA
ATOM     32  H   UNL     1     -13.392 -13.784  94.362  1.00  0.00     0.210 HD
ENDBRANCH  30  31
ENDBRANCH  24  30
BRANCH  25  33
ATOM     33  O   UNL     1     -12.744 -11.554  96.551  1.00  0.00    -0.388 OA
ATOM     34  H   UNL     1     -12.450 -11.051  97.354  1.00  0.00     0.211 HD
ENDBRANCH  25  33
ENDBRANCH  11  20
BRANCH  10  35
ATOM     35  O   UNL     1     -11.461  -9.441  91.316  1.00  0.00    -0.507 OA
ATOM     36  H   UNL     1     -11.679 -10.278  91.844  1.00  0.00     0.293 HD
ENDBRANCH  10  35
TORSDOF 9
ENDMDL
MODEL 9
REMARK VINA RESULT:    -5.273      2.493      4.138
REMARK INTER + INTRA:          -8.165
REMARK INTER:                  -7.010
REMARK INTRA:                  -1.155
REMARK UNBOUND:                -1.042
REMARK SMILES O=c1c(-c2ccc(O)cc2)coc2c([C@@H]3O[C@H](CO)[C@@H](O)[C@@H](O)[C@@H]3O)c(O)ccc12
REMARK SMILES IDX 3 1 11 2 12 3 13 4 30 5 2 6 1 7 29 8 28 9 26 10 14 11 4 12
REMARK SMILES IDX 5 13 6 14 7 15 10 16 9 17 8 18 15 20 24 21 16 22 22 23 17 24
REMARK SMILES IDX 20 25 25 26 23 28 18 30 19 31 21 33 27 35
REMARK H PARENT 8 19 25 27 23 29 19 32 21 34 27 36
REMARK Flexibility Score: inf
ROOT
ATOM      1  C   UNL     1     -13.050  -9.526  96.344  1.00  0.00     0.065 A 
ATOM      2  C   UNL     1     -13.146  -8.204  96.799  1.00  0.00     0.208 A 
ATOM      3  O   UNL     1     -13.371  -7.938  98.080  1.00  0.00    -0.463 OA
ATOM      4  C   UNL     1     -13.518  -8.884  99.005  1.00  0.00     0.147 A 
ATOM      5  C   UNL     1     -13.436 -10.246  98.632  1.00  0.00     0.066 A 
ATOM      6  C   UNL     1     -13.190 -10.562  97.285  1.00  0.00     0.200 A 
ATOM      7  O   UNL     1     -13.077 -11.768  96.923  1.00  0.00    -0.288 OA
ATOM      8  C   UNL     1     -13.604 -11.242  99.607  1.00  0.00     0.020 A 
ATOM      9  C   UNL     1     -13.867 -10.892 100.929  1.00  0.00     0.047 A 
ATOM     10  C   UNL     1     -13.955  -9.548 101.309  1.00  0.00     0.125 A 
ATOM     11  C   UNL     1     -13.755  -8.523 100.352  1.00  0.00     0.069 A 
ENDROOT
BRANCH   1  12
ATOM     12  C   UNL     1     -12.803  -9.798  94.905  1.00  0.00    -0.011 A 
ATOM     13  C   UNL     1     -11.488  -9.877  94.414  1.00  0.00     0.013 A 
ATOM     14  C   UNL     1     -11.253 -10.123  93.057  1.00  0.00     0.047 A 
ATOM     15  C   UNL     1     -12.328 -10.288  92.175  1.00  0.00     0.115 A 
ATOM     16  C   UNL     1     -13.876  -9.960  94.011  1.00  0.00     0.013 A 
ATOM     17  C   UNL     1     -13.638 -10.206  92.656  1.00  0.00     0.047 A 
BRANCH  15  18
ATOM     18  O   UNL     1     -12.106 -10.535  90.823  1.00  0.00    -0.508 OA
ATOM     19  H   UNL     1     -12.813 -10.335  90.125  1.00  0.00     0.293 HD
ENDBRANCH  15  18
ENDBRANCH   1  12
BRANCH  11  20
ATOM     20  C   UNL     1     -13.868  -7.051 100.731  1.00  0.00     0.188 C 
ATOM     21  C   UNL     1     -15.340  -6.587 100.665  1.00  0.00     0.179 C 
ATOM     22  O   UNL     1     -13.328  -6.830 102.025  1.00  0.00    -0.362 OA
ATOM     23  C   UNL     1     -15.430  -5.096 101.043  1.00  0.00     0.177 C 
ATOM     24  C   UNL     1     -13.269  -5.442 102.319  1.00  0.00     0.176 C 
ATOM     25  C   UNL     1     -14.694  -4.839 102.371  1.00  0.00     0.177 C 
BRANCH  21  26
ATOM     26  O   UNL     1     -16.125  -7.351 101.546  1.00  0.00    -0.387 OA
ATOM     27  H   UNL     1     -16.707  -7.928 100.986  1.00  0.00     0.211 HD
ENDBRANCH  21  26
BRANCH  23  28
ATOM     28  O   UNL     1     -14.865  -4.304 100.027  1.00  0.00    -0.387 OA
ATOM     29  H   UNL     1     -15.076  -4.749  99.165  1.00  0.00     0.211 HD
ENDBRANCH  23  28
BRANCH  24  30
ATOM     30  C   UNL     1     -12.555  -5.265 103.667  1.00  0.00     0.191 C 
BRANCH  30  31
ATOM     31  O   UNL     1     -13.490  -5.188 104.710  1.00  0.00    -0.394 OA
ATOM     32  H   UNL     1     -13.049  -5.563 105.516  1.00  0.00     0.210 HD
ENDBRANCH  30  31
ENDBRANCH  24  30
BRANCH  25  33
ATOM     33  O   UNL     1     -14.618  -3.458 102.619  1.00  0.00    -0.388 OA
ATOM     34  H   UNL     1     -14.614  -3.344 103.605  1.00  0.00     0.211 HD
ENDBRANCH  25  33
ENDBRANCH  11  20
BRANCH  10  35
ATOM     35  O   UNL     1     -14.249  -9.234 102.636  1.00  0.00    -0.507 OA
ATOM     36  H   UNL     1     -13.865  -9.766 103.408  1.00  0.00     0.293 HD
ENDBRANCH  10  35
TORSDOF 9
ENDMDL
