MODEL 1
REMARK VINA RESULT:    -3.849      0.000      0.000
REMARK INTER + INTRA:          -8.508
REMARK INTER:                  -7.225
REMARK INTRA:                  -1.283
REMARK UNBOUND:                -1.283
REMARK SMILES O=C([O-])CCCCCCCCCCCCCCC(=O)[O-]
REMARK SMILES IDX 10 1 9 2 8 3 7 4 6 5 5 6 4 7 2 8 1 9 3 10 11 11 12 12 13 13
REMARK SMILES IDX 14 14 15 15 16 16 17 17 18 18 19 19 20 20
REMARK H PARENT
REMARK Flexibility Score: inf
ROOT
ATOM      1  C   UNL     1     -94.355 148.179 235.500  1.00  0.00     0.000 C 
ENDROOT
BRANCH   1   2
ATOM      2  C   UNL     1     -93.889 147.680 236.876  1.00  0.00     0.000 C 
BRANCH   2   3
ATOM      3  C   UNL     1     -94.405 148.592 237.995  1.00  0.00     0.000 C 
BRANCH   3   4
ATOM      4  C   UNL     1     -95.324 147.820 238.955  1.00  0.00     0.000 C 
BRANCH   4   5
ATOM      5  C   UNL     1     -96.672 148.522 239.179  1.00  0.00     0.000 C 
BRANCH   5   6
ATOM      6  C   UNL     1     -96.565 150.054 239.084  1.00  0.00     0.006 C 
BRANCH   6   7
ATOM      7  C   UNL     1     -97.942 150.726 238.998  1.00  0.00     0.053 C 
BRANCH   7   8
ATOM      8  C   UNL     1     -98.854 150.267 240.095  1.00  0.00     0.041 C 
ATOM      9  O   UNL     1     -98.532 150.436 241.301  1.00  0.00    -0.550 OA
ATOM     10  O   UNL     1    -100.047 149.628 239.783  1.00  0.00    -0.550 OA
ENDBRANCH   7   8
ENDBRANCH   6   7
ENDBRANCH   5   6
ENDBRANCH   4   5
ENDBRANCH   3   4
ENDBRANCH   2   3
ENDBRANCH   1   2
BRANCH   1  11
ATOM     11  C   UNL     1     -95.198 149.462 235.591  1.00  0.00     0.000 C 
BRANCH  11  12
ATOM     12  C   UNL     1     -96.301 149.522 234.521  1.00  0.00     0.000 C 
BRANCH  12  13
ATOM     13  C   UNL     1     -95.814 149.044 233.143  1.00  0.00     0.000 C 
BRANCH  13  14
ATOM     14  C   UNL     1     -95.290 150.194 232.270  1.00  0.00     0.000 C 
BRANCH  14  15
ATOM     15  C   UNL     1     -95.698 151.553 232.849  1.00  0.00     0.000 C 
BRANCH  15  16
ATOM     16  C   UNL     1     -96.194 152.497 231.743  1.00  0.00     0.006 C 
BRANCH  16  17
ATOM     17  C   UNL     1     -97.671 152.873 231.919  1.00  0.00     0.053 C 
BRANCH  17  18
ATOM     18  C   UNL     1     -97.902 153.644 233.183  1.00  0.00     0.041 C 
ATOM     19  O   UNL     1     -97.232 154.683 233.422  1.00  0.00    -0.550 OA
ATOM     20  O   UNL     1     -98.833 153.197 234.111  1.00  0.00    -0.550 OA
ENDBRANCH  17  18
ENDBRANCH  16  17
ENDBRANCH  15  16
ENDBRANCH  14  15
ENDBRANCH  13  14
ENDBRANCH  12  13
ENDBRANCH  11  12
ENDBRANCH   1  11
TORSDOF 15
ENDMDL
MODEL 2
REMARK VINA RESULT:    -3.838      2.332      4.461
REMARK INTER + INTRA:          -8.487
REMARK INTER:                  -6.638
REMARK INTRA:                  -1.849
REMARK UNBOUND:                -1.283
REMARK SMILES O=C([O-])CCCCCCCCCCCCCCC(=O)[O-]
REMARK SMILES IDX 10 1 9 2 8 3 7 4 6 5 5 6 4 7 2 8 1 9 3 10 11 11 12 12 13 13
REMARK SMILES IDX 14 14 15 15 16 16 17 17 18 18 19 19 20 20
REMARK H PARENT
REMARK Flexibility Score: inf
ROOT
ATOM      1  C   UNL     1     -96.497 150.134 238.989  1.00  0.00     0.000 C 
ENDROOT
BRANCH   1   2
ATOM      2  C   UNL     1     -97.891 150.746 238.778  1.00  0.00     0.000 C 
BRANCH   2   3
ATOM      3  C   UNL     1     -98.967 149.656 238.724  1.00  0.00     0.000 C 
BRANCH   3   4
ATOM      4  C   UNL     1     -99.995 149.842 239.851  1.00  0.00     0.000 C 
BRANCH   4   5
ATOM      5  C   UNL     1     -99.893 148.757 240.933  1.00  0.00     0.000 C 
BRANCH   5   6
ATOM      6  C   UNL     1     -99.010 149.184 242.119  1.00  0.00     0.006 C 
BRANCH   6   7
ATOM      7  C   UNL     1     -98.985 150.707 242.302  1.00  0.00     0.053 C 
BRANCH   7   8
ATOM      8  C   UNL     1     -99.078 151.095 243.747  1.00  0.00     0.041 C 
ATOM      9  O   UNL     1     -99.939 150.560 244.494  1.00  0.00    -0.550 OA
ATOM     10  O   UNL     1     -98.231 152.069 244.259  1.00  0.00    -0.550 OA
ENDBRANCH   7   8
ENDBRANCH   6   7
ENDBRANCH   5   6
ENDBRANCH   4   5
ENDBRANCH   3   4
ENDBRANCH   2   3
ENDBRANCH   1   2
BRANCH   1  11
ATOM     11  C   UNL     1     -96.552 148.627 239.284  1.00  0.00     0.000 C 
BRANCH  11  12
ATOM     12  C   UNL     1     -95.276 147.890 238.841  1.00  0.00     0.000 C 
BRANCH  12  13
ATOM     13  C   UNL     1     -94.409 148.731 237.890  1.00  0.00     0.000 C 
BRANCH  13  14
ATOM     14  C   UNL     1     -93.788 147.895 236.761  1.00  0.00     0.000 C 
BRANCH  14  15
ATOM     15  C   UNL     1     -94.451 148.210 235.416  1.00  0.00     0.000 C 
BRANCH  15  16
ATOM     16  C   UNL     1     -95.261 149.514 235.494  1.00  0.00     0.006 C 
BRANCH  16  17
ATOM     17  C   UNL     1     -96.739 149.303 235.139  1.00  0.00     0.053 C 
BRANCH  17  18
ATOM     18  C   UNL     1     -97.125 150.046 233.897  1.00  0.00     0.041 C 
ATOM     19  O   UNL     1     -96.577 149.769 232.798  1.00  0.00    -0.550 OA
ATOM     20  O   UNL     1     -98.065 151.067 233.960  1.00  0.00    -0.550 OA
ENDBRANCH  17  18
ENDBRANCH  16  17
ENDBRANCH  15  16
ENDBRANCH  14  15
ENDBRANCH  13  14
ENDBRANCH  12  13
ENDBRANCH  11  12
ENDBRANCH   1  11
TORSDOF 15
ENDMDL
MODEL 3
REMARK VINA RESULT:    -3.833      0.828      6.852
REMARK INTER + INTRA:          -8.478
REMARK INTER:                  -7.247
REMARK INTRA:                  -1.232
REMARK UNBOUND:                -1.283
REMARK SMILES O=C([O-])CCCCCCCCCCCCCCC(=O)[O-]
REMARK SMILES IDX 10 1 9 2 8 3 7 4 6 5 5 6 4 7 2 8 1 9 3 10 11 11 12 12 13 13
REMARK SMILES IDX 14 14 15 15 16 16 17 17 18 18 19 19 20 20
REMARK H PARENT
REMARK Flexibility Score: inf
ROOT
ATOM      1  C   UNL     1     -94.819 148.102 235.150  1.00  0.00     0.000 C 
ENDROOT
BRANCH   1   2
ATOM      2  C   UNL     1     -95.464 149.495 235.215  1.00  0.00     0.000 C 
BRANCH   2   3
ATOM      3  C   UNL     1     -96.360 149.743 233.996  1.00  0.00     0.000 C 
BRANCH   3   4
ATOM      4  C   UNL     1     -95.553 149.649 232.692  1.00  0.00     0.000 C 
BRANCH   4   5
ATOM      5  C   UNL     1     -95.671 150.914 231.828  1.00  0.00     0.000 C 
BRANCH   5   6
ATOM      6  C   UNL     1     -95.873 152.188 232.667  1.00  0.00     0.006 C 
BRANCH   6   7
ATOM      7  C   UNL     1     -97.029 153.049 232.143  1.00  0.00     0.053 C 
BRANCH   7   8
ATOM      8  C   UNL     1     -98.048 153.320 233.208  1.00  0.00     0.041 C 
ATOM      9  O   UNL     1     -98.668 152.368 233.752  1.00  0.00    -0.550 OA
ATOM     10  O   UNL     1     -98.332 154.629 233.579  1.00  0.00    -0.550 OA
ENDBRANCH   7   8
ENDBRANCH   6   7
ENDBRANCH   5   6
ENDBRANCH   4   5
ENDBRANCH   3   4
ENDBRANCH   2   3
ENDBRANCH   1   2
BRANCH   1  11
ATOM     11  C   UNL     1     -93.785 147.877 236.265  1.00  0.00     0.000 C 
BRANCH  11  12
ATOM     12  C   UNL     1     -94.156 148.603 237.570  1.00  0.00     0.000 C 
BRANCH  12  13
ATOM     13  C   UNL     1     -94.845 147.677 238.585  1.00  0.00     0.000 C 
BRANCH  13  14
ATOM     14  C   UNL     1     -96.136 148.283 239.158  1.00  0.00     0.000 C 
BRANCH  14  15
ATOM     15  C   UNL     1     -96.247 149.770 238.803  1.00  0.00     0.000 C 
BRANCH  15  16
ATOM     16  C   UNL     1     -97.554 150.369 239.345  1.00  0.00     0.006 C 
BRANCH  16  17
ATOM     17  C   UNL     1     -98.050 149.642 240.602  1.00  0.00     0.053 C 
BRANCH  17  18
ATOM     18  C   UNL     1     -99.132 150.411 241.298  1.00  0.00     0.041 C 
ATOM     19  O   UNL     1     -98.874 151.056 242.348  1.00  0.00    -0.550 OA
ATOM     20  O   UNL     1    -100.430 150.386 240.807  1.00  0.00    -0.550 OA
ENDBRANCH  17  18
ENDBRANCH  16  17
ENDBRANCH  15  16
ENDBRANCH  14  15
ENDBRANCH  13  14
ENDBRANCH  12  13
ENDBRANCH  11  12
ENDBRANCH   1  11
TORSDOF 15
ENDMDL
MODEL 4
REMARK VINA RESULT:    -3.831      3.054      5.227
REMARK INTER + INTRA:          -8.474
REMARK INTER:                  -7.113
REMARK INTRA:                  -1.361
REMARK UNBOUND:                -1.283
REMARK SMILES O=C([O-])CCCCCCCCCCCCCCC(=O)[O-]
REMARK SMILES IDX 10 1 9 2 8 3 7 4 6 5 5 6 4 7 2 8 1 9 3 10 11 11 12 12 13 13
REMARK SMILES IDX 14 14 15 15 16 16 17 17 18 18 19 19 20 20
REMARK H PARENT
REMARK Flexibility Score: inf
ROOT
ATOM      1  C   UNL     1     -96.961 150.249 239.027  1.00  0.00     0.000 C 
ENDROOT
BRANCH   1   2
ATOM      2  C   UNL     1     -97.820 149.326 239.905  1.00  0.00     0.000 C 
BRANCH   2   3
ATOM      3  C   UNL     1     -98.696 150.140 240.865  1.00  0.00     0.000 C 
BRANCH   3   4
ATOM      4  C   UNL     1     -99.000 149.342 242.143  1.00  0.00     0.000 C 
BRANCH   4   5
ATOM      5  C   UNL     1     -99.531 150.226 243.282  1.00  0.00     0.000 C 
BRANCH   5   6
ATOM      6  C   UNL     1     -99.006 151.671 243.205  1.00  0.00     0.006 C 
BRANCH   6   7
ATOM      7  C   UNL     1     -98.587 152.207 244.580  1.00  0.00     0.053 C 
BRANCH   7   8
ATOM      8  C   UNL     1     -99.346 153.446 244.949  1.00  0.00     0.041 C 
ATOM      9  O   UNL     1     -99.218 153.951 246.095  1.00  0.00    -0.550 OA
ATOM     10  O   UNL     1    -100.217 154.024 244.034  1.00  0.00    -0.550 OA
ENDBRANCH   7   8
ENDBRANCH   6   7
ENDBRANCH   5   6
ENDBRANCH   4   5
ENDBRANCH   3   4
ENDBRANCH   2   3
ENDBRANCH   1   2
BRANCH   1  11
ATOM     11  C   UNL     1     -95.562 149.673 238.756  1.00  0.00     0.000 C 
BRANCH  11  12
ATOM     12  C   UNL     1     -95.487 148.157 239.009  1.00  0.00     0.000 C 
BRANCH  12  13
ATOM     13  C   UNL     1     -94.589 147.433 237.994  1.00  0.00     0.000 C 
BRANCH  13  14
ATOM     14  C   UNL     1     -93.913 148.397 237.008  1.00  0.00     0.000 C 
BRANCH  14  15
ATOM     15  C   UNL     1     -94.455 148.198 235.587  1.00  0.00     0.000 C 
BRANCH  15  16
ATOM     16  C   UNL     1     -95.311 149.396 235.151  1.00  0.00     0.006 C 
BRANCH  16  17
ATOM     17  C   UNL     1     -96.671 148.965 234.587  1.00  0.00     0.053 C 
BRANCH  17  18
ATOM     18  C   UNL     1     -97.736 148.964 235.642  1.00  0.00     0.041 C 
ATOM     19  O   UNL     1     -98.508 149.951 235.762  1.00  0.00    -0.550 OA
ATOM     20  O   UNL     1     -97.852 147.890 236.514  1.00  0.00    -0.550 OA
ENDBRANCH  17  18
ENDBRANCH  16  17
ENDBRANCH  15  16
ENDBRANCH  14  15
ENDBRANCH  13  14
ENDBRANCH  12  13
ENDBRANCH  11  12
ENDBRANCH   1  11
TORSDOF 15
ENDMDL
MODEL 5
REMARK VINA RESULT:    -3.823      1.389      7.120
REMARK INTER + INTRA:          -8.459
REMARK INTER:                  -7.234
REMARK INTRA:                  -1.225
REMARK UNBOUND:                -1.283
REMARK SMILES O=C([O-])CCCCCCCCCCCCCCC(=O)[O-]
REMARK SMILES IDX 10 1 9 2 8 3 7 4 6 5 5 6 4 7 2 8 1 9 3 10 11 11 12 12 13 13
REMARK SMILES IDX 14 14 15 15 16 16 17 17 18 18 19 19 20 20
REMARK H PARENT
REMARK Flexibility Score: inf
ROOT
ATOM      1  C   UNL     1     -96.763 149.582 234.774  1.00  0.00     0.000 C 
ENDROOT
BRANCH   1   2
ATOM      2  C   UNL     1     -96.935 150.236 233.394  1.00  0.00     0.000 C 
BRANCH   2   3
ATOM      3  C   UNL     1     -95.618 150.851 232.909  1.00  0.00     0.000 C 
BRANCH   3   4
ATOM      4  C   UNL     1     -95.867 152.183 232.183  1.00  0.00     0.000 C 
BRANCH   4   5
ATOM      5  C   UNL     1     -97.233 152.798 232.524  1.00  0.00     0.000 C 
BRANCH   5   6
ATOM      6  C   UNL     1     -97.110 154.116 233.309  1.00  0.00     0.006 C 
BRANCH   6   7
ATOM      7  C   UNL     1     -98.396 154.950 233.243  1.00  0.00     0.053 C 
BRANCH   7   8
ATOM      8  C   UNL     1     -98.339 155.975 232.152  1.00  0.00     0.041 C 
ATOM      9  O   UNL     1     -98.164 157.191 232.430  1.00  0.00    -0.550 OA
ATOM     10  O   UNL     1     -98.508 155.589 230.828  1.00  0.00    -0.550 OA
ENDBRANCH   7   8
ENDBRANCH   6   7
ENDBRANCH   5   6
ENDBRANCH   4   5
ENDBRANCH   3   4
ENDBRANCH   2   3
ENDBRANCH   1   2
BRANCH   1  11
ATOM     11  C   UNL     1     -95.294 149.538 235.227  1.00  0.00     0.000 C 
BRANCH  11  12
ATOM     12  C   UNL     1     -94.869 148.143 235.719  1.00  0.00     0.000 C 
BRANCH  12  13
ATOM     13  C   UNL     1     -93.850 148.209 236.868  1.00  0.00     0.000 C 
BRANCH  13  14
ATOM     14  C   UNL     1     -94.447 148.795 238.156  1.00  0.00     0.000 C 
BRANCH  14  15
ATOM     15  C   UNL     1     -95.391 147.792 238.830  1.00  0.00     0.000 C 
BRANCH  15  16
ATOM     16  C   UNL     1     -96.648 148.494 239.367  1.00  0.00     0.006 C 
BRANCH  16  17
ATOM     17  C   UNL     1     -96.711 149.970 238.954  1.00  0.00     0.053 C 
BRANCH  17  18
ATOM     18  C   UNL     1     -98.057 150.568 239.231  1.00  0.00     0.041 C 
ATOM     19  O   UNL     1     -98.710 151.114 238.304  1.00  0.00    -0.550 OA
ATOM     20  O   UNL     1     -98.574 150.551 240.520  1.00  0.00    -0.550 OA
ENDBRANCH  17  18
ENDBRANCH  16  17
ENDBRANCH  15  16
ENDBRANCH  14  15
ENDBRANCH  13  14
ENDBRANCH  12  13
ENDBRANCH  11  12
ENDBRANCH   1  11
TORSDOF 15
ENDMDL
MODEL 6
REMARK VINA RESULT:    -3.814      0.926      6.400
REMARK INTER + INTRA:          -8.442
REMARK INTER:                  -7.051
REMARK INTRA:                  -1.391
REMARK UNBOUND:                -1.283
REMARK SMILES O=C([O-])CCCCCCCCCCCCCCC(=O)[O-]
REMARK SMILES IDX 10 1 9 2 8 3 7 4 6 5 5 6 4 7 2 8 1 9 3 10 11 11 12 12 13 13
REMARK SMILES IDX 14 14 15 15 16 16 17 17 18 18 19 19 20 20
REMARK H PARENT
REMARK Flexibility Score: inf
ROOT
ATOM      1  C   UNL     1     -95.696 149.162 235.447  1.00  0.00     0.000 C 
ENDROOT
BRANCH   1   2
ATOM      2  C   UNL     1     -96.380 149.441 234.100  1.00  0.00     0.000 C 
BRANCH   2   3
ATOM      3  C   UNL     1     -95.389 149.298 232.940  1.00  0.00     0.000 C 
BRANCH   3   4
ATOM      4  C   UNL     1     -95.349 150.577 232.089  1.00  0.00     0.000 C 
BRANCH   4   5
ATOM      5  C   UNL     1     -95.703 151.837 232.895  1.00  0.00     0.000 C 
BRANCH   5   6
ATOM      6  C   UNL     1     -96.546 152.839 232.086  1.00  0.00     0.006 C 
BRANCH   6   7
ATOM      7  C   UNL     1     -98.014 152.850 232.530  1.00  0.00     0.053 C 
BRANCH   7   8
ATOM      8  C   UNL     1     -98.341 154.067 233.341  1.00  0.00     0.041 C 
ATOM      9  O   UNL     1     -97.534 155.032 233.392  1.00  0.00    -0.550 OA
ATOM     10  O   UNL     1     -99.527 154.122 234.063  1.00  0.00    -0.550 OA
ENDBRANCH   7   8
ENDBRANCH   6   7
ENDBRANCH   5   6
ENDBRANCH   4   5
ENDBRANCH   3   4
ENDBRANCH   2   3
ENDBRANCH   1   2
BRANCH   1  11
ATOM     11  C   UNL     1     -94.515 148.187 235.319  1.00  0.00     0.000 C 
BRANCH  11  12
ATOM     12  C   UNL     1     -93.812 147.929 236.663  1.00  0.00     0.000 C 
BRANCH  12  13
ATOM     13  C   UNL     1     -94.392 148.779 237.805  1.00  0.00     0.000 C 
BRANCH  13  14
ATOM     14  C   UNL     1     -95.072 147.928 238.889  1.00  0.00     0.000 C 
BRANCH  14  15
ATOM     15  C   UNL     1     -96.452 148.492 239.244  1.00  0.00     0.000 C 
BRANCH  15  16
ATOM     16  C   UNL     1     -96.515 150.004 238.974  1.00  0.00     0.006 C 
BRANCH  16  17
ATOM     17  C   UNL     1     -97.828 150.628 239.464  1.00  0.00     0.053 C 
BRANCH  17  18
ATOM     18  C   UNL     1     -98.920 150.499 238.446  1.00  0.00     0.041 C 
ATOM     19  O   UNL     1     -98.636 150.308 237.235  1.00  0.00    -0.550 OA
ATOM     20  O   UNL     1    -100.249 150.623 238.830  1.00  0.00    -0.550 OA
ENDBRANCH  17  18
ENDBRANCH  16  17
ENDBRANCH  15  16
ENDBRANCH  14  15
ENDBRANCH  13  14
ENDBRANCH  12  13
ENDBRANCH  11  12
ENDBRANCH   1  11
TORSDOF 15
ENDMDL
MODEL 7
REMARK VINA RESULT:    -3.812      1.792      6.404
REMARK INTER + INTRA:          -8.439
REMARK INTER:                  -7.071
REMARK INTRA:                  -1.368
REMARK UNBOUND:                -1.283
REMARK SMILES O=C([O-])CCCCCCCCCCCCCCC(=O)[O-]
REMARK SMILES IDX 10 1 9 2 8 3 7 4 6 5 5 6 4 7 2 8 1 9 3 10 11 11 12 12 13 13
REMARK SMILES IDX 14 14 15 15 16 16 17 17 18 18 19 19 20 20
REMARK H PARENT
REMARK Flexibility Score: inf
ROOT
ATOM      1  C   UNL     1     -95.079 148.134 235.798  1.00  0.00     0.000 C 
ENDROOT
BRANCH   1   2
ATOM      2  C   UNL     1     -95.780 149.432 235.370  1.00  0.00     0.000 C 
BRANCH   2   3
ATOM      3  C   UNL     1     -95.568 149.705 233.877  1.00  0.00     0.000 C 
BRANCH   3   4
ATOM      4  C   UNL     1     -96.614 150.697 233.345  1.00  0.00     0.000 C 
BRANCH   4   5
ATOM      5  C   UNL     1     -95.984 151.981 232.784  1.00  0.00     0.000 C 
BRANCH   5   6
ATOM      6  C   UNL     1     -97.035 153.026 232.371  1.00  0.00     0.006 C 
BRANCH   6   7
ATOM      7  C   UNL     1     -97.147 154.167 233.391  1.00  0.00     0.053 C 
BRANCH   7   8
ATOM      8  C   UNL     1     -97.955 155.311 232.859  1.00  0.00     0.041 C 
ATOM      9  O   UNL     1     -98.973 155.094 232.150  1.00  0.00    -0.550 OA
ATOM     10  O   UNL     1     -97.566 156.618 233.124  1.00  0.00    -0.550 OA
ENDBRANCH   7   8
ENDBRANCH   6   7
ENDBRANCH   5   6
ENDBRANCH   4   5
ENDBRANCH   3   4
ENDBRANCH   2   3
ENDBRANCH   1   2
BRANCH   1  11
ATOM     11  C   UNL     1     -94.009 148.368 236.877  1.00  0.00     0.000 C 
BRANCH  11  12
ATOM     12  C   UNL     1     -94.588 148.998 238.156  1.00  0.00     0.000 C 
BRANCH  12  13
ATOM     13  C   UNL     1     -95.483 148.026 238.941  1.00  0.00     0.000 C 
BRANCH  13  14
ATOM     14  C   UNL     1     -96.805 148.668 239.388  1.00  0.00     0.000 C 
BRANCH  14  15
ATOM     15  C   UNL     1     -96.772 150.187 239.186  1.00  0.00     0.000 C 
BRANCH  15  16
ATOM     16  C   UNL     1     -98.139 150.710 238.716  1.00  0.00     0.006 C 
BRANCH  16  17
ATOM     17  C   UNL     1     -98.782 149.795 237.666  1.00  0.00     0.053 C 
BRANCH  17  18
ATOM     18  C   UNL     1     -99.321 150.575 236.505  1.00  0.00     0.041 C 
ATOM     19  O   UNL     1     -99.432 150.032 235.375  1.00  0.00    -0.550 OA
ATOM     20  O   UNL     1     -99.668 151.910 236.664  1.00  0.00    -0.550 OA
ENDBRANCH  17  18
ENDBRANCH  16  17
ENDBRANCH  15  16
ENDBRANCH  14  15
ENDBRANCH  13  14
ENDBRANCH  12  13
ENDBRANCH  11  12
ENDBRANCH   1  11
TORSDOF 15
ENDMDL
MODEL 8
REMARK VINA RESULT:    -3.805      1.028      1.625
REMARK INTER + INTRA:          -8.425
REMARK INTER:                  -6.855
REMARK INTRA:                  -1.570
REMARK UNBOUND:                -1.283
REMARK SMILES O=C([O-])CCCCCCCCCCCCCCC(=O)[O-]
REMARK SMILES IDX 10 1 9 2 8 3 7 4 6 5 5 6 4 7 2 8 1 9 3 10 11 11 12 12 13 13
REMARK SMILES IDX 14 14 15 15 16 16 17 17 18 18 19 19 20 20
REMARK H PARENT
REMARK Flexibility Score: inf
ROOT
ATOM      1  C   UNL     1     -93.794 148.039 236.737  1.00  0.00     0.000 C 
ENDROOT
BRANCH   1   2
ATOM      2  C   UNL     1     -94.332 148.754 237.985  1.00  0.00     0.000 C 
BRANCH   2   3
ATOM      3  C   UNL     1     -95.177 147.804 238.842  1.00  0.00     0.000 C 
BRANCH   3   4
ATOM      4  C   UNL     1     -96.511 148.457 239.236  1.00  0.00     0.000 C 
BRANCH   4   5
ATOM      5  C   UNL     1     -96.568 149.951 238.880  1.00  0.00     0.000 C 
BRANCH   5   6
ATOM      6  C   UNL     1     -97.891 150.611 239.306  1.00  0.00     0.006 C 
BRANCH   6   7
ATOM      7  C   UNL     1     -98.810 150.889 238.110  1.00  0.00     0.053 C 
BRANCH   7   8
ATOM      8  C   UNL     1    -100.054 150.056 238.158  1.00  0.00     0.041 C 
ATOM      9  O   UNL     1    -100.102 149.028 238.884  1.00  0.00    -0.550 OA
ATOM     10  O   UNL     1    -101.151 150.400 237.379  1.00  0.00    -0.550 OA
ENDBRANCH   7   8
ENDBRANCH   6   7
ENDBRANCH   5   6
ENDBRANCH   4   5
ENDBRANCH   3   4
ENDBRANCH   2   3
ENDBRANCH   1   2
BRANCH   1  11
ATOM     11  C   UNL     1     -94.795 148.051 235.571  1.00  0.00     0.000 C 
BRANCH  11  12
ATOM     12  C   UNL     1     -95.350 149.457 235.283  1.00  0.00     0.000 C 
BRANCH  12  13
ATOM     13  C   UNL     1     -96.840 149.438 234.907  1.00  0.00     0.000 C 
BRANCH  13  14
ATOM     14  C   UNL     1     -97.153 150.317 233.687  1.00  0.00     0.000 C 
BRANCH  14  15
ATOM     15  C   UNL     1     -95.866 150.860 233.057  1.00  0.00     0.000 C 
BRANCH  15  16
ATOM     16  C   UNL     1     -96.018 152.344 232.684  1.00  0.00     0.006 C 
BRANCH  16  17
ATOM     17  C   UNL     1     -97.475 152.723 232.389  1.00  0.00     0.053 C 
BRANCH  17  18
ATOM     18  C   UNL     1     -97.968 153.797 233.310  1.00  0.00     0.041 C 
ATOM     19  O   UNL     1     -97.316 154.866 233.441  1.00  0.00    -0.550 OA
ATOM     20  O   UNL     1     -99.128 153.603 234.048  1.00  0.00    -0.550 OA
ENDBRANCH  17  18
ENDBRANCH  16  17
ENDBRANCH  15  16
ENDBRANCH  14  15
ENDBRANCH  13  14
ENDBRANCH  12  13
ENDBRANCH  11  12
ENDBRANCH   1  11
TORSDOF 15
ENDMDL
MODEL 9
REMARK VINA RESULT:    -3.800      0.976      1.395
REMARK INTER + INTRA:          -8.415
REMARK INTER:                  -6.764
REMARK INTRA:                  -1.651
REMARK UNBOUND:                -1.283
REMARK SMILES O=C([O-])CCCCCCCCCCCCCCC(=O)[O-]
REMARK SMILES IDX 10 1 9 2 8 3 7 4 6 5 5 6 4 7 2 8 1 9 3 10 11 11 12 12 13 13
REMARK SMILES IDX 14 14 15 15 16 16 17 17 18 18 19 19 20 20
REMARK H PARENT
REMARK Flexibility Score: inf
ROOT
ATOM      1  C   UNL     1     -94.458 147.551 234.989  1.00  0.00     0.000 C 
ENDROOT
BRANCH   1   2
ATOM      2  C   UNL     1     -94.259 148.568 236.124  1.00  0.00     0.000 C 
BRANCH   2   3
ATOM      3  C   UNL     1     -93.919 147.861 237.441  1.00  0.00     0.000 C 
BRANCH   3   4
ATOM      4  C   UNL     1     -94.977 148.158 238.515  1.00  0.00     0.000 C 
BRANCH   4   5
ATOM      5  C   UNL     1     -95.670 149.514 238.306  1.00  0.00     0.000 C 
BRANCH   5   6
ATOM      6  C   UNL     1     -97.197 149.431 238.477  1.00  0.00     0.006 C 
BRANCH   6   7
ATOM      7  C   UNL     1     -97.733 150.514 239.422  1.00  0.00     0.053 C 
BRANCH   7   8
ATOM      8  C   UNL     1     -98.188 149.937 240.728  1.00  0.00     0.041 C 
ATOM      9  O   UNL     1     -98.798 150.657 241.562  1.00  0.00    -0.550 OA
ATOM     10  O   UNL     1     -97.911 148.611 241.035  1.00  0.00    -0.550 OA
ENDBRANCH   7   8
ENDBRANCH   6   7
ENDBRANCH   5   6
ENDBRANCH   4   5
ENDBRANCH   3   4
ENDBRANCH   2   3
ENDBRANCH   1   2
BRANCH   1  11
ATOM     11  C   UNL     1     -95.657 147.895 234.091  1.00  0.00     0.000 C 
BRANCH  11  12
ATOM     12  C   UNL     1     -96.809 148.554 234.869  1.00  0.00     0.000 C 
BRANCH  12  13
ATOM     13  C   UNL     1     -97.224 149.910 234.274  1.00  0.00     0.000 C 
BRANCH  13  14
ATOM     14  C   UNL     1     -96.520 150.211 232.942  1.00  0.00     0.000 C 
BRANCH  14  15
ATOM     15  C   UNL     1     -95.767 151.544 233.009  1.00  0.00     0.000 C 
BRANCH  15  16
ATOM     16  C   UNL     1     -96.166 152.461 231.842  1.00  0.00     0.006 C 
BRANCH  16  17
ATOM     17  C   UNL     1     -97.628 152.917 231.935  1.00  0.00     0.053 C 
BRANCH  17  18
ATOM     18  C   UNL     1     -97.894 153.681 233.196  1.00  0.00     0.041 C 
ATOM     19  O   UNL     1     -98.761 153.274 234.012  1.00  0.00    -0.550 OA
ATOM     20  O   UNL     1     -97.207 154.860 233.454  1.00  0.00    -0.550 OA
ENDBRANCH  17  18
ENDBRANCH  16  17
ENDBRANCH  15  16
ENDBRANCH  14  15
ENDBRANCH  13  14
ENDBRANCH  12  13
ENDBRANCH  11  12
ENDBRANCH   1  11
TORSDOF 15
ENDMDL
