MODEL 1
REMARK VINA RESULT:    73.051      0.000      0.000
REMARK INTER + INTRA:          95.711
REMARK INTER:                  96.539
REMARK INTRA:                  -0.828
REMARK UNBOUND:                -0.828
REMARK SMILES CC[C@@H](C=C[C@H](C)[C@@H]1CC[C@H]2[C@H]3CC[C@H]4C[C@@H](O)CC[C@]4(C)[C@H]3CC[C@@]21C)C(C)C
REMARK SMILES IDX 6 1 7 2 5 3 4 4 3 5 2 6 1 7 28 8 29 9 30 10 8 11 9 12 26 13
REMARK SMILES IDX 10 14 11 15 25 16 27 17 12 18 24 19 23 20 13 21 21 22 14 23
REMARK SMILES IDX 15 24 20 25 22 26 16 27 19 28 17 29 18 30
REMARK H PARENT 18 31
REMARK Flexibility Score: inf
ROOT
ATOM      1  C   UNL     1      87.020  -4.482  67.648  1.00  0.00     0.012 C 
ATOM      2  C   UNL     1      88.152  -3.589  67.058  1.00  0.00     0.012 C 
ENDROOT
BRANCH   1   3
ATOM      3  C   UNL     1      87.733  -5.774  68.054  1.00  0.00    -0.028 C 
ATOM      4  C   UNL     1      88.159  -6.648  67.090  1.00  0.00    -0.027 C 
BRANCH   4   5
ATOM      5  C   UNL     1      89.464  -7.324  67.206  1.00  0.00     0.014 C 
BRANCH   5   6
ATOM      6  C   UNL     1      90.214  -7.207  65.845  1.00  0.00     0.004 C 
ATOM      7  C   UNL     1      90.311  -8.547  65.075  1.00  0.00     0.004 C 
ENDBRANCH   5   6
BRANCH   5   8
ATOM      8  C   UNL     1      89.284  -8.815  67.695  1.00  0.00    -0.011 C 
ATOM      9  C   UNL     1      87.916  -9.125  68.264  1.00  0.00     0.008 C 
ATOM     10  C   UNL     1      90.351  -9.124  68.773  1.00  0.00     0.008 C 
ENDBRANCH   5   8
ENDBRANCH   4   5
ENDBRANCH   1   3
BRANCH   1  11
ATOM     11  C   UNL     1      86.351  -3.821  68.894  1.00  0.00     0.002 C 
ATOM     12  C   UNL     1      85.820  -4.863  69.951  1.00  0.00     0.005 C 
ATOM     13  C   UNL     1      85.069  -2.964  68.658  1.00  0.00    -0.026 C 
ATOM     14  C   UNL     1      84.364  -4.602  70.239  1.00  0.00     0.005 C 
ATOM     15  C   UNL     1      83.950  -3.970  68.941  1.00  0.00    -0.001 C 
ATOM     16  C   UNL     1      84.879  -2.398  67.222  1.00  0.00     0.007 C 
ATOM     17  C   UNL     1      85.081  -1.773  69.676  1.00  0.00     0.012 C 
ATOM     18  C   UNL     1      82.515  -3.494  68.841  1.00  0.00    -0.004 C 
ATOM     19  C   UNL     1      83.515  -1.768  67.002  1.00  0.00     0.005 C 
ATOM     20  C   UNL     1      82.323  -2.634  67.538  1.00  0.00    -0.001 C 
ATOM     21  C   UNL     1      81.666  -3.017  70.052  1.00  0.00     0.004 C 
ATOM     22  C   UNL     1      81.005  -1.772  67.599  1.00  0.00    -0.026 C 
ATOM     23  C   UNL     1      80.129  -2.832  69.686  1.00  0.00     0.004 C 
ATOM     24  C   UNL     1      79.956  -2.858  68.213  1.00  0.00    -0.002 C 
ATOM     25  C   UNL     1      80.638  -1.354  66.137  1.00  0.00     0.010 C 
ATOM     26  C   UNL     1      81.269  -0.480  68.497  1.00  0.00     0.012 C 
ATOM     27  C   UNL     1      78.530  -2.562  67.638  1.00  0.00     0.036 C 
ATOM     28  C   UNL     1      79.207  -0.764  66.030  1.00  0.00     0.032 C 
ATOM     29  C   UNL     1      78.290  -1.126  67.206  1.00  0.00     0.114 C 
BRANCH  29  30
ATOM     30  O   UNL     1      78.583  -0.204  68.253  1.00  0.00    -0.393 OA
ATOM     31  H   UNL     1      78.610  -0.747  69.088  1.00  0.00     0.210 HD
ENDBRANCH  29  30
ENDBRANCH   1  11
TORSDOF 6
ENDMDL
