MODEL 1
REMARK VINA RESULT:    -4.926      0.000      0.000
REMARK INTER + INTRA:          -9.917
REMARK INTER:                  -8.958
REMARK INTRA:                  -0.959
REMARK UNBOUND:                -0.959
REMARK SMILES CCCCCCCCCCCCCCCC(=O)[O-]
REMARK SMILES IDX 9 1 10 2 11 3 12 4 13 5 14 6 15 7 16 8 17 9 18 10 8 11 7 12
REMARK SMILES IDX 6 13 5 14 4 15 3 16 2 17 1 18
REMARK H PARENT
REMARK Flexibility Score: inf
ROOT
ATOM      1  C   UNL     1      19.144  10.375  50.803  1.00  0.00     0.000 C 
ENDROOT
BRANCH   1   2
ATOM      2  C   UNL     1      20.032   9.928  49.621  1.00  0.00     0.000 C 
BRANCH   2   3
ATOM      3  C   UNL     1      20.812  11.079  48.966  1.00  0.00     0.000 C 
BRANCH   3   4
ATOM      4  C   UNL     1      22.041  11.508  49.781  1.00  0.00     0.000 C 
BRANCH   4   5
ATOM      5  C   UNL     1      22.254  13.024  49.697  1.00  0.00     0.000 C 
BRANCH   5   6
ATOM      6  C   UNL     1      23.196  13.385  48.538  1.00  0.00     0.006 C 
BRANCH   6   7
ATOM      7  C   UNL     1      24.633  12.911  48.789  1.00  0.00     0.053 C 
BRANCH   7   8
ATOM      8  C   UNL     1      25.173  12.136  47.628  1.00  0.00     0.041 C 
ATOM      9  O   UNL     1      24.961  12.527  46.450  1.00  0.00    -0.550 OA
ATOM     10  O   UNL     1      25.884  10.961  47.846  1.00  0.00    -0.550 OA
ENDBRANCH   7   8
ENDBRANCH   6   7
ENDBRANCH   5   6
ENDBRANCH   4   5
ENDBRANCH   3   4
ENDBRANCH   2   3
ENDBRANCH   1   2
BRANCH   1  11
ATOM     11  C   UNL     1      17.691   9.899  50.650  1.00  0.00     0.000 C 
BRANCH  11  12
ATOM     12  C   UNL     1      17.572   8.840  49.543  1.00  0.00    -0.000 C 
BRANCH  12  13
ATOM     13  C   UNL     1      17.460   7.406  50.092  1.00  0.00    -0.000 C 
BRANCH  13  14
ATOM     14  C   UNL     1      16.423   6.512  49.389  1.00  0.00    -0.000 C 
BRANCH  14  15
ATOM     15  C   UNL     1      15.033   7.162  49.297  1.00  0.00    -0.000 C 
BRANCH  15  16
ATOM     16  C   UNL     1      14.418   7.065  47.889  1.00  0.00    -0.000 C 
BRANCH  16  17
ATOM     17  C   UNL     1      14.704   8.264  46.968  1.00  0.00    -0.003 C 
ATOM     18  C   UNL     1      15.919   8.051  46.065  1.00  0.00     0.004 C 
ENDBRANCH  16  17
ENDBRANCH  15  16
ENDBRANCH  14  15
ENDBRANCH  13  14
ENDBRANCH  12  13
ENDBRANCH  11  12
ENDBRANCH   1  11
TORSDOF 14
ENDMDL
MODEL 2
REMARK VINA RESULT:    -4.830      9.563     12.379
REMARK INTER + INTRA:          -9.743
REMARK INTER:                  -7.753
REMARK INTRA:                  -1.990
REMARK UNBOUND:                -0.959
REMARK SMILES CCCCCCCCCCCCCCCC(=O)[O-]
REMARK SMILES IDX 9 1 10 2 11 3 12 4 13 5 14 6 15 7 16 8 17 9 18 10 8 11 7 12
REMARK SMILES IDX 6 13 5 14 4 15 3 16 2 17 1 18
REMARK H PARENT
REMARK Flexibility Score: inf
ROOT
ATOM      1  C   UNL     1      22.721  -0.008  47.855  1.00  0.00     0.000 C 
ENDROOT
BRANCH   1   2
ATOM      2  C   UNL     1      21.587   0.935  48.313  1.00  0.00     0.000 C 
BRANCH   2   3
ATOM      3  C   UNL     1      20.206   0.556  47.754  1.00  0.00     0.000 C 
BRANCH   3   4
ATOM      4  C   UNL     1      20.286  -0.417  46.569  1.00  0.00     0.000 C 
BRANCH   4   5
ATOM      5  C   UNL     1      19.155  -1.451  46.628  1.00  0.00     0.000 C 
BRANCH   5   6
ATOM      6  C   UNL     1      18.288  -1.248  47.880  1.00  0.00     0.006 C 
BRANCH   6   7
ATOM      7  C   UNL     1      16.794  -1.425  47.586  1.00  0.00     0.053 C 
BRANCH   7   8
ATOM      8  C   UNL     1      16.053  -0.126  47.675  1.00  0.00     0.041 C 
ATOM      9  O   UNL     1      14.966  -0.058  48.307  1.00  0.00    -0.550 OA
ATOM     10  O   UNL     1      16.548   1.002  47.032  1.00  0.00    -0.550 OA
ENDBRANCH   7   8
ENDBRANCH   6   7
ENDBRANCH   5   6
ENDBRANCH   4   5
ENDBRANCH   3   4
ENDBRANCH   2   3
ENDBRANCH   1   2
BRANCH   1  11
ATOM     11  C   UNL     1      23.982   0.138  48.720  1.00  0.00     0.000 C 
BRANCH  11  12
ATOM     12  C   UNL     1      25.020   1.038  48.033  1.00  0.00    -0.000 C 
BRANCH  12  13
ATOM     13  C   UNL     1      24.797   2.536  48.311  1.00  0.00    -0.000 C 
BRANCH  13  14
ATOM     14  C   UNL     1      24.899   3.456  47.081  1.00  0.00    -0.000 C 
BRANCH  14  15
ATOM     15  C   UNL     1      24.464   2.766  45.777  1.00  0.00    -0.000 C 
BRANCH  15  16
ATOM     16  C   UNL     1      22.963   2.932  45.482  1.00  0.00    -0.000 C 
BRANCH  16  17
ATOM     17  C   UNL     1      22.355   1.855  44.567  1.00  0.00    -0.003 C 
ATOM     18  C   UNL     1      23.266   0.643  44.377  1.00  0.00     0.004 C 
ENDBRANCH  16  17
ENDBRANCH  15  16
ENDBRANCH  14  15
ENDBRANCH  13  14
ENDBRANCH  12  13
ENDBRANCH  11  12
ENDBRANCH   1  11
TORSDOF 14
ENDMDL
MODEL 3
REMARK VINA RESULT:    -4.825      2.025      2.219
REMARK INTER + INTRA:          -9.733
REMARK INTER:                  -8.929
REMARK INTRA:                  -0.804
REMARK UNBOUND:                -0.959
REMARK SMILES CCCCCCCCCCCCCCCC(=O)[O-]
REMARK SMILES IDX 9 1 10 2 11 3 12 4 13 5 14 6 15 7 16 8 17 9 18 10 8 11 7 12
REMARK SMILES IDX 6 13 5 14 4 15 3 16 2 17 1 18
REMARK H PARENT
REMARK Flexibility Score: inf
ROOT
ATOM      1  C   UNL     1      19.011   9.778  51.013  1.00  0.00     0.000 C 
ENDROOT
BRANCH   1   2
ATOM      2  C   UNL     1      19.885   9.113  49.928  1.00  0.00     0.000 C 
BRANCH   2   3
ATOM      3  C   UNL     1      20.601  10.117  49.011  1.00  0.00     0.000 C 
BRANCH   3   4
ATOM      4  C   UNL     1      21.255  11.272  49.783  1.00  0.00     0.000 C 
BRANCH   4   5
ATOM      5  C   UNL     1      22.135  12.122  48.860  1.00  0.00     0.000 C 
BRANCH   5   6
ATOM      6  C   UNL     1      23.539  12.309  49.457  1.00  0.00     0.006 C 
BRANCH   6   7
ATOM      7  C   UNL     1      23.911  13.789  49.613  1.00  0.00     0.053 C 
BRANCH   7   8
ATOM      8  C   UNL     1      24.299  14.117  51.022  1.00  0.00     0.041 C 
ATOM      9  O   UNL     1      23.653  13.632  51.988  1.00  0.00    -0.550 OA
ATOM     10  O   UNL     1      25.355  14.986  51.267  1.00  0.00    -0.550 OA
ENDBRANCH   7   8
ENDBRANCH   6   7
ENDBRANCH   5   6
ENDBRANCH   4   5
ENDBRANCH   3   4
ENDBRANCH   2   3
ENDBRANCH   1   2
BRANCH   1  11
ATOM     11  C   UNL     1      17.671   9.052  51.205  1.00  0.00     0.000 C 
BRANCH  11  12
ATOM     12  C   UNL     1      17.138   8.516  49.867  1.00  0.00    -0.000 C 
BRANCH  12  13
ATOM     13  C   UNL     1      17.345   7.000  49.700  1.00  0.00    -0.000 C 
BRANCH  13  14
ATOM     14  C   UNL     1      16.084   6.201  49.325  1.00  0.00    -0.000 C 
BRANCH  14  15
ATOM     15  C   UNL     1      14.823   7.077  49.233  1.00  0.00    -0.000 C 
BRANCH  15  16
ATOM     16  C   UNL     1      14.296   7.220  47.794  1.00  0.00    -0.000 C 
BRANCH  16  17
ATOM     17  C   UNL     1      14.881   8.401  47.000  1.00  0.00    -0.003 C 
ATOM     18  C   UNL     1      16.010   7.989  46.054  1.00  0.00     0.004 C 
ENDBRANCH  16  17
ENDBRANCH  15  16
ENDBRANCH  14  15
ENDBRANCH  13  14
ENDBRANCH  12  13
ENDBRANCH  11  12
ENDBRANCH   1  11
TORSDOF 14
ENDMDL
MODEL 4
REMARK VINA RESULT:    -4.787      2.956      3.659
REMARK INTER + INTRA:          -9.663
REMARK INTER:                  -8.990
REMARK INTRA:                  -0.673
REMARK UNBOUND:                -0.959
REMARK SMILES CCCCCCCCCCCCCCCC(=O)[O-]
REMARK SMILES IDX 9 1 10 2 11 3 12 4 13 5 14 6 15 7 16 8 17 9 18 10 8 11 7 12
REMARK SMILES IDX 6 13 5 14 4 15 3 16 2 17 1 18
REMARK H PARENT
REMARK Flexibility Score: inf
ROOT
ATOM      1  C   UNL     1      20.641  10.680  49.038  1.00  0.00     0.000 C 
ENDROOT
BRANCH   1   2
ATOM      2  C   UNL     1      21.669  11.630  49.689  1.00  0.00     0.000 C 
BRANCH   2   3
ATOM      3  C   UNL     1      22.474  12.457  48.674  1.00  0.00     0.000 C 
BRANCH   3   4
ATOM      4  C   UNL     1      23.269  13.597  49.328  1.00  0.00     0.000 C 
BRANCH   4   5
ATOM      5  C   UNL     1      23.678  13.231  50.759  1.00  0.00     0.000 C 
BRANCH   5   6
ATOM      6  C   UNL     1      24.401  14.403  51.441  1.00  0.00     0.006 C 
BRANCH   6   7
ATOM      7  C   UNL     1      25.574  13.934  52.312  1.00  0.00     0.053 C 
BRANCH   7   8
ATOM      8  C   UNL     1      25.132  13.598  53.702  1.00  0.00     0.041 C 
ATOM      9  O   UNL     1      25.897  12.959  54.474  1.00  0.00    -0.550 OA
ATOM     10  O   UNL     1      23.863  13.961  54.136  1.00  0.00    -0.550 OA
ENDBRANCH   7   8
ENDBRANCH   6   7
ENDBRANCH   5   6
ENDBRANCH   4   5
ENDBRANCH   3   4
ENDBRANCH   2   3
ENDBRANCH   1   2
BRANCH   1  11
ATOM     11  C   UNL     1      20.003   9.726  50.060  1.00  0.00     0.000 C 
BRANCH  11  12
ATOM     12  C   UNL     1      18.757  10.357  50.699  1.00  0.00    -0.000 C 
BRANCH  12  13
ATOM     13  C   UNL     1      17.499   9.480  50.561  1.00  0.00    -0.000 C 
BRANCH  13  14
ATOM     14  C   UNL     1      17.765   7.975  50.370  1.00  0.00    -0.000 C 
BRANCH  14  15
ATOM     15  C   UNL     1      16.992   7.374  49.184  1.00  0.00    -0.000 C 
BRANCH  15  16
ATOM     16  C   UNL     1      15.516   7.088  49.513  1.00  0.00    -0.000 C 
BRANCH  16  17
ATOM     17  C   UNL     1      14.582   6.993  48.294  1.00  0.00    -0.003 C 
ATOM     18  C   UNL     1      14.938   7.983  47.185  1.00  0.00     0.004 C 
ENDBRANCH  16  17
ENDBRANCH  15  16
ENDBRANCH  14  15
ENDBRANCH  13  14
ENDBRANCH  12  13
ENDBRANCH  11  12
ENDBRANCH   1  11
TORSDOF 14
ENDMDL
MODEL 5
REMARK VINA RESULT:    -4.725     11.057     13.288
REMARK INTER + INTRA:          -9.551
REMARK INTER:                  -7.725
REMARK INTRA:                  -1.825
REMARK UNBOUND:                -0.959
REMARK SMILES CCCCCCCCCCCCCCCC(=O)[O-]
REMARK SMILES IDX 9 1 10 2 11 3 12 4 13 5 14 6 15 7 16 8 17 9 18 10 8 11 7 12
REMARK SMILES IDX 6 13 5 14 4 15 3 16 2 17 1 18
REMARK H PARENT
REMARK Flexibility Score: inf
ROOT
ATOM      1  C   UNL     1      25.111  -1.029  50.019  1.00  0.00     0.000 C 
ENDROOT
BRANCH   1   2
ATOM      2  C   UNL     1      24.247  -0.120  49.120  1.00  0.00     0.000 C 
BRANCH   2   3
ATOM      3  C   UNL     1      23.736  -0.816  47.848  1.00  0.00     0.000 C 
BRANCH   3   4
ATOM      4  C   UNL     1      22.637  -0.019  47.131  1.00  0.00     0.000 C 
BRANCH   4   5
ATOM      5  C   UNL     1      22.025   1.036  48.061  1.00  0.00     0.000 C 
BRANCH   5   6
ATOM      6  C   UNL     1      20.523   0.786  48.264  1.00  0.00     0.006 C 
BRANCH   6   7
ATOM      7  C   UNL     1      19.987  -0.312  47.337  1.00  0.00     0.053 C 
BRANCH   7   8
ATOM      8  C   UNL     1      18.557  -0.642  47.637  1.00  0.00     0.041 C 
ATOM      9  O   UNL     1      17.678   0.259  47.603  1.00  0.00    -0.550 OA
ATOM     10  O   UNL     1      18.201  -1.938  47.986  1.00  0.00    -0.550 OA
ENDBRANCH   7   8
ENDBRANCH   6   7
ENDBRANCH   5   6
ENDBRANCH   4   5
ENDBRANCH   3   4
ENDBRANCH   2   3
ENDBRANCH   1   2
BRANCH   1  11
ATOM     11  C   UNL     1      25.605  -2.280  49.276  1.00  0.00     0.000 C 
BRANCH  11  12
ATOM     12  C   UNL     1      27.133  -2.411  49.374  1.00  0.00    -0.000 C 
BRANCH  12  13
ATOM     13  C   UNL     1      27.870  -1.765  48.186  1.00  0.00    -0.000 C 
BRANCH  13  14
ATOM     14  C   UNL     1      28.125  -0.252  48.315  1.00  0.00    -0.000 C 
BRANCH  14  15
ATOM     15  C   UNL     1      27.526   0.559  47.153  1.00  0.00    -0.000 C 
BRANCH  15  16
ATOM     16  C   UNL     1      26.782   1.821  47.625  1.00  0.00    -0.000 C 
BRANCH  16  17
ATOM     17  C   UNL     1      25.616   2.266  46.724  1.00  0.00    -0.003 C 
ATOM     18  C   UNL     1      24.907   3.521  47.235  1.00  0.00     0.004 C 
ENDBRANCH  16  17
ENDBRANCH  15  16
ENDBRANCH  14  15
ENDBRANCH  13  14
ENDBRANCH  12  13
ENDBRANCH  11  12
ENDBRANCH   1  11
TORSDOF 14
ENDMDL
MODEL 6
REMARK VINA RESULT:    -4.721      3.836      8.790
REMARK INTER + INTRA:          -9.543
REMARK INTER:                  -8.844
REMARK INTRA:                  -0.699
REMARK UNBOUND:                -0.959
REMARK SMILES CCCCCCCCCCCCCCCC(=O)[O-]
REMARK SMILES IDX 9 1 10 2 11 3 12 4 13 5 14 6 15 7 16 8 17 9 18 10 8 11 7 12
REMARK SMILES IDX 6 13 5 14 4 15 3 16 2 17 1 18
REMARK H PARENT
REMARK Flexibility Score: inf
ROOT
ATOM      1  C   UNL     1      19.119  10.106  49.679  1.00  0.00     0.000 C 
ENDROOT
BRANCH   1   2
ATOM      2  C   UNL     1      18.936  10.006  51.208  1.00  0.00     0.000 C 
BRANCH   2   3
ATOM      3  C   UNL     1      18.210   8.729  51.661  1.00  0.00     0.000 C 
BRANCH   3   4
ATOM      4  C   UNL     1      17.905   7.771  50.501  1.00  0.00     0.000 C 
BRANCH   4   5
ATOM      5  C   UNL     1      16.425   7.841  50.104  1.00  0.00     0.000 C 
BRANCH   5   6
ATOM      6  C   UNL     1      16.125   6.895  48.931  1.00  0.00     0.006 C 
BRANCH   6   7
ATOM      7  C   UNL     1      16.651   7.439  47.597  1.00  0.00     0.053 C 
BRANCH   7   8
ATOM      8  C   UNL     1      15.535   7.865  46.693  1.00  0.00     0.041 C 
ATOM      9  O   UNL     1      14.338   7.767  47.073  1.00  0.00    -0.550 OA
ATOM     10  O   UNL     1      15.816   8.340  45.418  1.00  0.00    -0.550 OA
ENDBRANCH   7   8
ENDBRANCH   6   7
ENDBRANCH   5   6
ENDBRANCH   4   5
ENDBRANCH   3   4
ENDBRANCH   2   3
ENDBRANCH   1   2
BRANCH   1  11
ATOM     11  C   UNL     1      20.595  10.253  49.279  1.00  0.00     0.000 C 
BRANCH  11  12
ATOM     12  C   UNL     1      21.153  11.614  49.721  1.00  0.00    -0.000 C 
BRANCH  12  13
ATOM     13  C   UNL     1      22.486  11.969  49.038  1.00  0.00    -0.000 C 
BRANCH  13  14
ATOM     14  C   UNL     1      22.712  13.469  48.776  1.00  0.00    -0.000 C 
BRANCH  14  15
ATOM     15  C   UNL     1      24.110  13.777  48.213  1.00  0.00    -0.000 C 
BRANCH  15  16
ATOM     16  C   UNL     1      24.563  12.765  47.146  1.00  0.00    -0.000 C 
BRANCH  16  17
ATOM     17  C   UNL     1      25.800  13.184  46.332  1.00  0.00    -0.003 C 
ATOM     18  C   UNL     1      26.039  14.693  46.337  1.00  0.00     0.004 C 
ENDBRANCH  16  17
ENDBRANCH  15  16
ENDBRANCH  14  15
ENDBRANCH  13  14
ENDBRANCH  12  13
ENDBRANCH  11  12
ENDBRANCH   1  11
TORSDOF 14
ENDMDL
MODEL 7
REMARK VINA RESULT:    -4.700     10.203     13.354
REMARK INTER + INTRA:          -9.505
REMARK INTER:                  -8.729
REMARK INTRA:                  -0.776
REMARK UNBOUND:                -0.959
REMARK SMILES CCCCCCCCCCCCCCCC(=O)[O-]
REMARK SMILES IDX 9 1 10 2 11 3 12 4 13 5 14 6 15 7 16 8 17 9 18 10 8 11 7 12
REMARK SMILES IDX 6 13 5 14 4 15 3 16 2 17 1 18
REMARK H PARENT
REMARK Flexibility Score: inf
ROOT
ATOM      1  C   UNL     1      18.365  -1.106  47.676  1.00  0.00     0.000 C 
ENDROOT
BRANCH   1   2
ATOM      2  C   UNL     1      16.851  -0.814  47.607  1.00  0.00     0.000 C 
BRANCH   2   3
ATOM      3  C   UNL     1      16.518   0.604  47.116  1.00  0.00     0.000 C 
BRANCH   3   4
ATOM      4  C   UNL     1      15.644   1.389  48.105  1.00  0.00     0.000 C 
BRANCH   4   5
ATOM      5  C   UNL     1      14.392   0.591  48.487  1.00  0.00     0.000 C 
BRANCH   5   6
ATOM      6  C   UNL     1      13.176   1.049  47.668  1.00  0.00     0.006 C 
BRANCH   6   7
ATOM      7  C   UNL     1      12.871   0.100  46.502  1.00  0.00     0.053 C 
BRANCH   7   8
ATOM      8  C   UNL     1      12.671   0.844  45.218  1.00  0.00     0.041 C 
ATOM      9  O   UNL     1      12.420   2.078  45.233  1.00  0.00    -0.550 OA
ATOM     10  O   UNL     1      12.730   0.168  44.006  1.00  0.00    -0.550 OA
ENDBRANCH   7   8
ENDBRANCH   6   7
ENDBRANCH   5   6
ENDBRANCH   4   5
ENDBRANCH   3   4
ENDBRANCH   2   3
ENDBRANCH   1   2
BRANCH   1  11
ATOM     11  C   UNL     1      19.180   0.139  48.060  1.00  0.00     0.000 C 
BRANCH  11  12
ATOM     12  C   UNL     1      20.496   0.202  47.269  1.00  0.00    -0.000 C 
BRANCH  12  13
ATOM     13  C   UNL     1      21.586   1.024  47.980  1.00  0.00    -0.000 C 
BRANCH  13  14
ATOM     14  C   UNL     1      23.032   0.696  47.565  1.00  0.00    -0.000 C 
BRANCH  14  15
ATOM     15  C   UNL     1      24.074   1.169  48.592  1.00  0.00    -0.000 C 
BRANCH  15  16
ATOM     16  C   UNL     1      24.634   0.021  49.450  1.00  0.00    -0.000 C 
BRANCH  16  17
ATOM     17  C   UNL     1      25.094  -1.218  48.662  1.00  0.00    -0.003 C 
ATOM     18  C   UNL     1      25.194  -2.476  49.525  1.00  0.00     0.004 C 
ENDBRANCH  16  17
ENDBRANCH  15  16
ENDBRANCH  14  15
ENDBRANCH  13  14
ENDBRANCH  12  13
ENDBRANCH  11  12
ENDBRANCH   1  11
TORSDOF 14
ENDMDL
MODEL 8
REMARK VINA RESULT:    -4.660      1.242      2.379
REMARK INTER + INTRA:          -9.432
REMARK INTER:                  -8.813
REMARK INTRA:                  -0.620
REMARK UNBOUND:                -0.959
REMARK SMILES CCCCCCCCCCCCCCCC(=O)[O-]
REMARK SMILES IDX 9 1 10 2 11 3 12 4 13 5 14 6 15 7 16 8 17 9 18 10 8 11 7 12
REMARK SMILES IDX 6 13 5 14 4 15 3 16 2 17 1 18
REMARK H PARENT
REMARK Flexibility Score: inf
ROOT
ATOM      1  C   UNL     1      20.858  10.497  49.784  1.00  0.00     0.000 C 
ENDROOT
BRANCH   1   2
ATOM      2  C   UNL     1      21.390  11.713  48.997  1.00  0.00     0.000 C 
BRANCH   2   3
ATOM      3  C   UNL     1      22.823  12.117  49.380  1.00  0.00     0.000 C 
BRANCH   3   4
ATOM      4  C   UNL     1      23.211  13.510  48.863  1.00  0.00     0.000 C 
BRANCH   4   5
ATOM      5  C   UNL     1      24.231  13.410  47.723  1.00  0.00     0.000 C 
BRANCH   5   6
ATOM      6  C   UNL     1      25.098  12.151  47.869  1.00  0.00     0.006 C 
BRANCH   6   7
ATOM      7  C   UNL     1      26.224  12.097  46.829  1.00  0.00     0.053 C 
BRANCH   7   8
ATOM      8  C   UNL     1      25.893  11.171  45.700  1.00  0.00     0.041 C 
ATOM      9  O   UNL     1      26.213   9.954  45.763  1.00  0.00    -0.550 OA
ATOM     10  O   UNL     1      25.257  11.657  44.564  1.00  0.00    -0.550 OA
ENDBRANCH   7   8
ENDBRANCH   6   7
ENDBRANCH   5   6
ENDBRANCH   4   5
ENDBRANCH   3   4
ENDBRANCH   2   3
ENDBRANCH   1   2
BRANCH   1  11
ATOM     11  C   UNL     1      19.351  10.285  49.575  1.00  0.00     0.000 C 
BRANCH  11  12
ATOM     12  C   UNL     1      18.607  10.251  50.919  1.00  0.00    -0.000 C 
BRANCH  12  13
ATOM     13  C   UNL     1      17.974   8.881  51.223  1.00  0.00    -0.000 C 
BRANCH  13  14
ATOM     14  C   UNL     1      17.907   7.909  50.031  1.00  0.00    -0.000 C 
BRANCH  14  15
ATOM     15  C   UNL     1      16.575   7.988  49.265  1.00  0.00    -0.000 C 
BRANCH  15  16
ATOM     16  C   UNL     1      15.567   6.911  49.704  1.00  0.00    -0.000 C 
BRANCH  16  17
ATOM     17  C   UNL     1      14.441   6.621  48.695  1.00  0.00    -0.003 C 
ATOM     18  C   UNL     1      14.511   7.502  47.448  1.00  0.00     0.004 C 
ENDBRANCH  16  17
ENDBRANCH  15  16
ENDBRANCH  14  15
ENDBRANCH  13  14
ENDBRANCH  12  13
ENDBRANCH  11  12
ENDBRANCH   1  11
TORSDOF 14
ENDMDL
MODEL 9
REMARK VINA RESULT:    -4.654     10.309     13.728
REMARK INTER + INTRA:          -9.422
REMARK INTER:                  -8.392
REMARK INTRA:                  -1.030
REMARK UNBOUND:                -0.959
REMARK SMILES CCCCCCCCCCCCCCCC(=O)[O-]
REMARK SMILES IDX 9 1 10 2 11 3 12 4 13 5 14 6 15 7 16 8 17 9 18 10 8 11 7 12
REMARK SMILES IDX 6 13 5 14 4 15 3 16 2 17 1 18
REMARK H PARENT
REMARK Flexibility Score: inf
ROOT
ATOM      1  C   UNL     1      19.467   0.306  47.870  1.00  0.00     0.000 C 
ENDROOT
BRANCH   1   2
ATOM      2  C   UNL     1      19.161  -1.003  47.112  1.00  0.00     0.000 C 
BRANCH   2   3
ATOM      3  C   UNL     1      18.209  -1.945  47.868  1.00  0.00     0.000 C 
BRANCH   3   4
ATOM      4  C   UNL     1      17.063  -2.467  46.989  1.00  0.00     0.000 C 
BRANCH   4   5
ATOM      5  C   UNL     1      15.804  -2.726  47.825  1.00  0.00     0.000 C 
BRANCH   5   6
ATOM      6  C   UNL     1      15.039  -1.420  48.087  1.00  0.00     0.006 C 
BRANCH   6   7
ATOM      7  C   UNL     1      14.821  -0.607  46.805  1.00  0.00     0.053 C 
BRANCH   7   8
ATOM      8  C   UNL     1      15.027   0.858  47.035  1.00  0.00     0.041 C 
ATOM      9  O   UNL     1      16.192   1.331  47.106  1.00  0.00    -0.550 OA
ATOM     10  O   UNL     1      13.932   1.697  47.203  1.00  0.00    -0.550 OA
ENDBRANCH   7   8
ENDBRANCH   6   7
ENDBRANCH   5   6
ENDBRANCH   4   5
ENDBRANCH   3   4
ENDBRANCH   2   3
ENDBRANCH   1   2
BRANCH   1  11
ATOM     11  C   UNL     1      20.966   0.643  47.865  1.00  0.00     0.000 C 
BRANCH  11  12
ATOM     12  C   UNL     1      21.756  -0.371  47.024  1.00  0.00    -0.000 C 
BRANCH  12  13
ATOM     13  C   UNL     1      23.244  -0.446  47.412  1.00  0.00    -0.000 C 
BRANCH  13  14
ATOM     14  C   UNL     1      23.650   0.406  48.629  1.00  0.00    -0.000 C 
BRANCH  14  15
ATOM     15  C   UNL     1      25.002  -0.012  49.231  1.00  0.00    -0.000 C 
BRANCH  15  16
ATOM     16  C   UNL     1      24.940  -1.364  49.964  1.00  0.00    -0.000 C 
BRANCH  16  17
ATOM     17  C   UNL     1      25.752  -2.497  49.313  1.00  0.00    -0.003 C 
ATOM     18  C   UNL     1      27.214  -2.124  49.068  1.00  0.00     0.004 C 
ENDBRANCH  16  17
ENDBRANCH  15  16
ENDBRANCH  14  15
ENDBRANCH  13  14
ENDBRANCH  12  13
ENDBRANCH  11  12
ENDBRANCH   1  11
TORSDOF 14
ENDMDL
