MODEL 1
REMARK VINA RESULT:    -5.847      0.000      0.000
REMARK INTER + INTRA:         -10.406
REMARK INTER:                  -8.239
REMARK INTRA:                  -2.166
REMARK UNBOUND:                -2.166
REMARK SMILES COc1c(O[C@@H]2O[C@H](C(=O)[O-])[C@H](O)[C@H](O)[C@H]2O)cc(O)c2c(=O)cc(-c3ccccc3)oc12
REMARK SMILES IDX 5 1 6 2 8 3 12 4 7 5 14 6 16 7 9 8 10 9 11 10 13 11 15 13
REMARK SMILES IDX 17 15 4 17 3 18 18 19 33 20 19 21 21 22 32 23 22 24 25 25
REMARK SMILES IDX 24 26 23 27 2 28 1 29 20 30 26 32 27 33 31 34 28 35 30 36
REMARK SMILES IDX 29 37
REMARK H PARENT 13 12 15 14 17 16 20 31
REMARK Flexibility Score: inf
ROOT
ATOM      1  O   UNL     1     -24.586 -41.941  36.243  1.00  0.00    -0.458 OA
ENDROOT
BRANCH   1   2
ATOM      2  C   UNL     1     -25.570 -42.983  36.492  1.00  0.00     0.339 C 
ATOM      3  C   UNL     1     -26.794 -42.684  38.754  1.00  0.00     0.199 C 
ATOM      4  C   UNL     1     -26.120 -43.721  39.550  1.00  0.00     0.180 C 
ATOM      5  O   UNL     1     -26.706 -42.585  37.296  1.00  0.00    -0.328 OA
ATOM      6  C   UNL     1     -24.895 -44.266  38.700  1.00  0.00     0.181 C 
ATOM      7  C   UNL     1     -24.871 -44.218  37.081  1.00  0.00     0.214 C 
BRANCH   3   8
ATOM      8  C   UNL     1     -27.096 -41.316  39.338  1.00  0.00     0.073 C 
ATOM      9  O   UNL     1     -28.123 -41.139  40.086  1.00  0.00    -0.547 OA
ATOM     10  O   UNL     1     -25.993 -40.461  39.259  1.00  0.00    -0.547 OA
ENDBRANCH   3   8
BRANCH   4  11
ATOM     11  O   UNL     1     -25.889 -43.247  40.855  1.00  0.00    -0.387 OA
ATOM     12  H   UNL     1     -26.047 -44.039  41.447  1.00  0.00     0.211 HD
ENDBRANCH   4  11
BRANCH   6  13
ATOM     13  O   UNL     1     -23.785 -43.516  39.166  1.00  0.00    -0.387 OA
ATOM     14  H   UNL     1     -23.080 -44.226  39.266  1.00  0.00     0.211 HD
ENDBRANCH   6  13
BRANCH   7  15
ATOM     15  O   UNL     1     -25.363 -45.313  36.405  1.00  0.00    -0.384 OA
ATOM     16  H   UNL     1     -24.791 -45.220  35.579  1.00  0.00     0.211 HD
ENDBRANCH   7  15
ENDBRANCH   1   2
BRANCH   1  17
ATOM     17  C   UNL     1     -23.651 -41.922  35.189  1.00  0.00     0.172 A 
ATOM     18  C   UNL     1     -24.178 -42.013  33.885  1.00  0.00     0.205 A 
ATOM     19  C   UNL     1     -22.351 -42.431  35.366  1.00  0.00     0.097 A 
ATOM     20  C   UNL     1     -24.008 -43.209  33.204  1.00  0.00     0.188 A 
ATOM     21  C   UNL     1     -22.019 -43.595  34.642  1.00  0.00     0.134 A 
ATOM     22  C   UNL     1     -22.852 -43.949  33.524  1.00  0.00     0.111 A 
ATOM     23  O   UNL     1     -24.835 -43.611  32.252  1.00  0.00    -0.452 OA
ATOM     24  C   UNL     1     -22.542 -45.016  32.616  1.00  0.00     0.197 A 
ATOM     25  C   UNL     1     -24.544 -44.624  31.394  1.00  0.00     0.138 A 
ATOM     26  C   UNL     1     -23.185 -45.010  31.365  1.00  0.00     0.100 A 
ATOM     27  O   UNL     1     -21.971 -46.076  33.060  1.00  0.00    -0.289 OA
BRANCH  18  28
ATOM     28  O   UNL     1     -24.230 -40.862  33.114  1.00  0.00    -0.490 OA
ATOM     29  C   UNL     1     -23.982 -39.652  33.654  1.00  0.00     0.278 C 
ENDBRANCH  18  28
BRANCH  21  30
ATOM     30  O   UNL     1     -20.884 -44.254  35.042  1.00  0.00    -0.507 OA
ATOM     31  H   UNL     1     -20.713 -45.212  34.738  1.00  0.00     0.293 HD
ENDBRANCH  21  30
BRANCH  25  32
ATOM     32  C   UNL     1     -25.546 -45.661  31.112  1.00  0.00     0.017 A 
ATOM     33  C   UNL     1     -26.211 -45.751  32.325  1.00  0.00     0.012 A 
ATOM     34  C   UNL     1     -25.160 -47.015  30.762  1.00  0.00     0.012 A 
ATOM     35  C   UNL     1     -25.741 -46.802  33.252  1.00  0.00     0.001 A 
ATOM     36  C   UNL     1     -25.757 -48.162  31.359  1.00  0.00     0.001 A 
ATOM     37  C   UNL     1     -25.495 -48.051  32.750  1.00  0.00     0.000 A 
ENDBRANCH  25  32
ENDBRANCH   1  17
TORSDOF 9
ENDMDL
MODEL 2
REMARK VINA RESULT:    -5.843      3.071      4.152
REMARK INTER + INTRA:         -10.401
REMARK INTER:                  -8.351
REMARK INTRA:                  -2.050
REMARK UNBOUND:                -2.166
REMARK SMILES COc1c(O[C@@H]2O[C@H](C(=O)[O-])[C@H](O)[C@H](O)[C@H]2O)cc(O)c2c(=O)cc(-c3ccccc3)oc12
REMARK SMILES IDX 5 1 6 2 8 3 12 4 7 5 14 6 16 7 9 8 10 9 11 10 13 11 15 13
REMARK SMILES IDX 17 15 4 17 3 18 18 19 33 20 19 21 21 22 32 23 22 24 25 25
REMARK SMILES IDX 24 26 23 27 2 28 1 29 20 30 26 32 27 33 31 34 28 35 30 36
REMARK SMILES IDX 29 37
REMARK H PARENT 13 12 15 14 17 16 20 31
REMARK Flexibility Score: inf
ROOT
ATOM      1  O   UNL     1     -23.932 -40.287  33.786  1.00  0.00    -0.458 OA
ENDROOT
BRANCH   1   2
ATOM      2  C   UNL     1     -24.425 -40.636  35.110  1.00  0.00     0.339 C 
ATOM      3  C   UNL     1     -25.607 -38.657  36.290  1.00  0.00     0.199 C 
ATOM      4  C   UNL     1     -24.561 -38.267  37.248  1.00  0.00     0.180 C 
ATOM      5  O   UNL     1     -25.604 -39.917  35.543  1.00  0.00    -0.328 OA
ATOM      6  C   UNL     1     -23.243 -39.075  36.884  1.00  0.00     0.181 C 
ATOM      7  C   UNL     1     -23.283 -40.508  36.131  1.00  0.00     0.214 C 
BRANCH   3   8
ATOM      8  C   UNL     1     -26.403 -37.616  35.525  1.00  0.00     0.073 C 
ATOM      9  O   UNL     1     -27.426 -37.055  36.061  1.00  0.00    -0.547 OA
ATOM     10  O   UNL     1     -25.701 -37.134  34.417  1.00  0.00    -0.547 OA
ENDBRANCH   3   8
BRANCH   4  11
ATOM     11  O   UNL     1     -24.498 -36.864  37.340  1.00  0.00    -0.387 OA
ATOM     12  H   UNL     1     -24.903 -36.648  38.230  1.00  0.00     0.211 HD
ENDBRANCH   4  11
BRANCH   6  13
ATOM     13  O   UNL     1     -22.502 -38.184  36.065  1.00  0.00    -0.387 OA
ATOM     14  H   UNL     1     -23.010 -37.324  36.180  1.00  0.00     0.211 HD
ENDBRANCH   6  13
BRANCH   7  15
ATOM     15  O   UNL     1     -23.326 -41.639  36.918  1.00  0.00    -0.384 OA
ATOM     16  H   UNL     1     -22.446 -42.032  36.624  1.00  0.00     0.211 HD
ENDBRANCH   7  15
ENDBRANCH   1   2
BRANCH   1  17
ATOM     17  C   UNL     1     -24.578 -40.562  32.565  1.00  0.00     0.172 A 
ATOM     18  C   UNL     1     -25.449 -41.669  32.553  1.00  0.00     0.205 A 
ATOM     19  C   UNL     1     -23.967 -40.246  31.337  1.00  0.00     0.097 A 
ATOM     20  C   UNL     1     -25.029 -42.813  31.890  1.00  0.00     0.188 A 
ATOM     21  C   UNL     1     -23.585 -41.328  30.517  1.00  0.00     0.134 A 
ATOM     22  C   UNL     1     -24.168 -42.614  30.793  1.00  0.00     0.111 A 
ATOM     23  O   UNL     1     -25.463 -44.022  32.209  1.00  0.00    -0.452 OA
ATOM     24  C   UNL     1     -23.983 -43.760  29.949  1.00  0.00     0.197 A 
ATOM     25  C   UNL     1     -25.286 -45.109  31.412  1.00  0.00     0.138 A 
ATOM     26  C   UNL     1     -24.900 -44.819  30.084  1.00  0.00     0.100 A 
ATOM     27  O   UNL     1     -22.859 -43.933  29.356  1.00  0.00    -0.289 OA
BRANCH  18  28
ATOM     28  O   UNL     1     -26.815 -41.433  32.579  1.00  0.00    -0.490 OA
ATOM     29  C   UNL     1     -27.304 -40.178  32.514  1.00  0.00     0.278 C 
ENDBRANCH  18  28
BRANCH  21  30
ATOM     30  O   UNL     1     -22.729 -41.035  29.486  1.00  0.00    -0.507 OA
ATOM     31  H   UNL     1     -23.098 -40.764  28.574  1.00  0.00     0.293 HD
ENDBRANCH  21  30
BRANCH  25  32
ATOM     32  C   UNL     1     -24.818 -46.376  31.989  1.00  0.00     0.017 A 
ATOM     33  C   UNL     1     -23.984 -45.936  33.005  1.00  0.00     0.012 A 
ATOM     34  C   UNL     1     -24.041 -47.324  31.212  1.00  0.00     0.012 A 
ATOM     35  C   UNL     1     -22.546 -45.837  32.675  1.00  0.00     0.001 A 
ATOM     36  C   UNL     1     -22.857 -47.937  31.711  1.00  0.00     0.001 A 
ATOM     37  C   UNL     1     -21.962 -46.870  31.994  1.00  0.00     0.000 A 
ENDBRANCH  25  32
ENDBRANCH   1  17
TORSDOF 9
ENDMDL
MODEL 3
REMARK VINA RESULT:    -5.702      2.383      4.984
REMARK INTER + INTRA:         -10.201
REMARK INTER:                  -8.044
REMARK INTRA:                  -2.157
REMARK UNBOUND:                -2.166
REMARK SMILES COc1c(O[C@@H]2O[C@H](C(=O)[O-])[C@H](O)[C@H](O)[C@H]2O)cc(O)c2c(=O)cc(-c3ccccc3)oc12
REMARK SMILES IDX 5 1 6 2 8 3 12 4 7 5 14 6 16 7 9 8 10 9 11 10 13 11 15 13
REMARK SMILES IDX 17 15 4 17 3 18 18 19 33 20 19 21 21 22 32 23 22 24 25 25
REMARK SMILES IDX 24 26 23 27 2 28 1 29 20 30 26 32 27 33 31 34 28 35 30 36
REMARK SMILES IDX 29 37
REMARK H PARENT 13 12 15 14 17 16 20 31
REMARK Flexibility Score: inf
ROOT
ATOM      1  O   UNL     1     -24.112 -41.247  37.052  1.00  0.00    -0.458 OA
ENDROOT
BRANCH   1   2
ATOM      2  C   UNL     1     -25.464 -40.713  36.979  1.00  0.00     0.339 C 
ATOM      3  C   UNL     1     -25.861 -39.280  34.860  1.00  0.00     0.199 C 
ATOM      4  C   UNL     1     -25.817 -37.932  35.449  1.00  0.00     0.180 C 
ATOM      5  O   UNL     1     -25.981 -40.512  35.642  1.00  0.00    -0.328 OA
ATOM      6  C   UNL     1     -25.326 -38.076  36.952  1.00  0.00     0.181 C 
ATOM      7  C   UNL     1     -25.553 -39.427  37.815  1.00  0.00     0.214 C 
BRANCH   3   8
ATOM      8  C   UNL     1     -25.181 -39.583  33.537  1.00  0.00     0.073 C 
ATOM      9  O   UNL     1     -25.840 -39.518  32.437  1.00  0.00    -0.547 OA
ATOM     10  O   UNL     1     -23.789 -39.569  33.652  1.00  0.00    -0.547 OA
ENDBRANCH   3   8
BRANCH   4  11
ATOM     11  O   UNL     1     -25.131 -37.056  34.587  1.00  0.00    -0.387 OA
ATOM     12  H   UNL     1     -24.444 -36.615  35.165  1.00  0.00     0.211 HD
ENDBRANCH   4  11
BRANCH   6  13
ATOM     13  O   UNL     1     -23.929 -37.841  36.887  1.00  0.00    -0.387 OA
ATOM     14  H   UNL     1     -23.558 -38.673  37.312  1.00  0.00     0.211 HD
ENDBRANCH   6  13
BRANCH   7  15
ATOM     15  O   UNL     1     -26.707 -39.519  38.563  1.00  0.00    -0.384 OA
ATOM     16  H   UNL     1     -26.780 -40.524  38.561  1.00  0.00     0.211 HD
ENDBRANCH   7  15
ENDBRANCH   1   2
BRANCH   1  17
ATOM     17  C   UNL     1     -23.701 -42.521  36.612  1.00  0.00     0.172 A 
ATOM     18  C   UNL     1     -22.978 -42.562  35.404  1.00  0.00     0.205 A 
ATOM     19  C   UNL     1     -24.456 -43.669  36.919  1.00  0.00     0.097 A 
ATOM     20  C   UNL     1     -23.627 -43.053  34.280  1.00  0.00     0.188 A 
ATOM     21  C   UNL     1     -25.085 -44.325  35.840  1.00  0.00     0.134 A 
ATOM     22  C   UNL     1     -24.620 -44.025  34.512  1.00  0.00     0.111 A 
ATOM     23  O   UNL     1     -23.292 -42.695  33.051  1.00  0.00    -0.452 OA
ATOM     24  C   UNL     1     -25.067 -44.728  33.344  1.00  0.00     0.197 A 
ATOM     25  C   UNL     1     -23.718 -43.358  31.943  1.00  0.00     0.138 A 
ATOM     26  C   UNL     1     -24.270 -44.636  32.187  1.00  0.00     0.100 A 
ATOM     27  O   UNL     1     -26.283 -45.132  33.276  1.00  0.00    -0.289 OA
BRANCH  18  28
ATOM     28  O   UNL     1     -21.607 -42.758  35.463  1.00  0.00    -0.490 OA
ATOM     29  C   UNL     1     -21.043 -43.876  34.962  1.00  0.00     0.278 C 
ENDBRANCH  18  28
BRANCH  21  30
ATOM     30  O   UNL     1     -26.051 -45.241  36.168  1.00  0.00    -0.507 OA
ATOM     31  H   UNL     1     -26.828 -45.419  35.532  1.00  0.00     0.293 HD
ENDBRANCH  21  30
BRANCH  25  32
ATOM     32  C   UNL     1     -24.234 -42.609  30.790  1.00  0.00     0.017 A 
ATOM     33  C   UNL     1     -24.074 -43.525  29.761  1.00  0.00     0.012 A 
ATOM     34  C   UNL     1     -23.607 -41.381  30.338  1.00  0.00     0.012 A 
ATOM     35  C   UNL     1     -22.831 -43.408  28.970  1.00  0.00     0.001 A 
ATOM     36  C   UNL     1     -23.315 -41.128  28.968  1.00  0.00     0.001 A 
ATOM     37  C   UNL     1     -22.430 -42.164  28.566  1.00  0.00     0.000 A 
ENDBRANCH  25  32
ENDBRANCH   1  17
TORSDOF 9
ENDMDL
MODEL 4
REMARK VINA RESULT:    -5.575      2.498      4.531
REMARK INTER + INTRA:         -10.022
REMARK INTER:                  -8.048
REMARK INTRA:                  -1.974
REMARK UNBOUND:                -2.166
REMARK SMILES COc1c(O[C@@H]2O[C@H](C(=O)[O-])[C@H](O)[C@H](O)[C@H]2O)cc(O)c2c(=O)cc(-c3ccccc3)oc12
REMARK SMILES IDX 5 1 6 2 8 3 12 4 7 5 14 6 16 7 9 8 10 9 11 10 13 11 15 13
REMARK SMILES IDX 17 15 4 17 3 18 18 19 33 20 19 21 21 22 32 23 22 24 25 25
REMARK SMILES IDX 24 26 23 27 2 28 1 29 20 30 26 32 27 33 31 34 28 35 30 36
REMARK SMILES IDX 29 37
REMARK H PARENT 13 12 15 14 17 16 20 31
REMARK Flexibility Score: inf
ROOT
ATOM      1  O   UNL     1     -25.353 -40.363  33.148  1.00  0.00    -0.458 OA
ENDROOT
BRANCH   1   2
ATOM      2  C   UNL     1     -24.013 -40.061  33.630  1.00  0.00     0.339 C 
ATOM      3  C   UNL     1     -23.490 -41.188  35.901  1.00  0.00     0.199 C 
ATOM      4  C   UNL     1     -23.613 -40.029  36.798  1.00  0.00     0.180 C 
ATOM      5  O   UNL     1     -23.399 -41.089  34.443  1.00  0.00    -0.328 OA
ATOM      6  C   UNL     1     -24.216 -38.825  35.955  1.00  0.00     0.181 C 
ATOM      7  C   UNL     1     -24.023 -38.705  34.352  1.00  0.00     0.214 C 
BRANCH   3   8
ATOM      8  C   UNL     1     -24.056 -42.543  36.283  1.00  0.00     0.073 C 
ATOM      9  O   UNL     1     -23.837 -43.035  37.448  1.00  0.00    -0.547 OA
ATOM     10  O   UNL     1     -25.061 -42.954  35.404  1.00  0.00    -0.547 OA
ENDBRANCH   3   8
BRANCH   4  11
ATOM     11  O   UNL     1     -24.252 -40.414  37.991  1.00  0.00    -0.387 OA
ATOM     12  H   UNL     1     -23.543 -40.881  38.522  1.00  0.00     0.211 HD
ENDBRANCH   4  11
BRANCH   6  13
ATOM     13  O   UNL     1     -25.610 -38.881  36.213  1.00  0.00    -0.387 OA
ATOM     14  H   UNL     1     -25.637 -38.845  37.218  1.00  0.00     0.211 HD
ENDBRANCH   6  13
BRANCH   7  15
ATOM     15  O   UNL     1     -22.928 -38.003  33.894  1.00  0.00    -0.384 OA
ATOM     16  H   UNL     1     -22.241 -38.435  34.492  1.00  0.00     0.211 HD
ENDBRANCH   7  15
ENDBRANCH   1   2
BRANCH   1  17
ATOM     17  C   UNL     1     -25.678 -40.869  31.873  1.00  0.00     0.172 A 
ATOM     18  C   UNL     1     -26.170 -42.188  31.831  1.00  0.00     0.205 A 
ATOM     19  C   UNL     1     -24.994 -40.428  30.725  1.00  0.00     0.097 A 
ATOM     20  C   UNL     1     -25.328 -43.174  31.338  1.00  0.00     0.188 A 
ATOM     21  C   UNL     1     -24.180 -41.374  30.067  1.00  0.00     0.134 A 
ATOM     22  C   UNL     1     -24.394 -42.765  30.365  1.00  0.00     0.111 A 
ATOM     23  O   UNL     1     -25.433 -44.444  31.694  1.00  0.00    -0.452 OA
ATOM     24  C   UNL     1     -23.743 -43.831  29.660  1.00  0.00     0.197 A 
ATOM     25  C   UNL     1     -24.814 -45.455  31.029  1.00  0.00     0.138 A 
ATOM     26  C   UNL     1     -24.317 -45.113  29.751  1.00  0.00     0.100 A 
ATOM     27  O   UNL     1     -22.536 -43.676  29.254  1.00  0.00    -0.289 OA
BRANCH  18  28
ATOM     28  O   UNL     1     -27.529 -42.379  31.636  1.00  0.00    -0.490 OA
ATOM     29  C   UNL     1     -28.067 -42.334  30.400  1.00  0.00     0.278 C 
ENDBRANCH  18  28
BRANCH  21  30
ATOM     30  O   UNL     1     -23.290 -40.874  29.150  1.00  0.00    -0.507 OA
ATOM     31  H   UNL     1     -22.613 -40.163  29.426  1.00  0.00     0.293 HD
ENDBRANCH  21  30
BRANCH  25  32
ATOM     32  C   UNL     1     -24.095 -46.497  31.776  1.00  0.00     0.017 A 
ATOM     33  C   UNL     1     -24.165 -46.016  33.074  1.00  0.00     0.012 A 
ATOM     34  C   UNL     1     -22.695 -46.781  31.526  1.00  0.00     0.012 A 
ATOM     35  C   UNL     1     -23.007 -45.224  33.541  1.00  0.00     0.001 A 
ATOM     36  C   UNL     1     -21.742 -46.927  32.574  1.00  0.00     0.001 A 
ATOM     37  C   UNL     1     -21.749 -45.691  33.274  1.00  0.00     0.000 A 
ENDBRANCH  25  32
ENDBRANCH   1  17
TORSDOF 9
ENDMDL
MODEL 5
REMARK VINA RESULT:    -5.525      2.565      4.631
REMARK INTER + INTRA:          -9.953
REMARK INTER:                  -8.033
REMARK INTRA:                  -1.920
REMARK UNBOUND:                -2.166
REMARK SMILES COc1c(O[C@@H]2O[C@H](C(=O)[O-])[C@H](O)[C@H](O)[C@H]2O)cc(O)c2c(=O)cc(-c3ccccc3)oc12
REMARK SMILES IDX 5 1 6 2 8 3 12 4 7 5 14 6 16 7 9 8 10 9 11 10 13 11 15 13
REMARK SMILES IDX 17 15 4 17 3 18 18 19 33 20 19 21 21 22 32 23 22 24 25 25
REMARK SMILES IDX 24 26 23 27 2 28 1 29 20 30 26 32 27 33 31 34 28 35 30 36
REMARK SMILES IDX 29 37
REMARK H PARENT 13 12 15 14 17 16 20 31
REMARK Flexibility Score: inf
ROOT
ATOM      1  O   UNL     1     -25.543 -42.295  35.128  1.00  0.00    -0.458 OA
ENDROOT
BRANCH   1   2
ATOM      2  C   UNL     1     -25.623 -41.524  36.360  1.00  0.00     0.339 C 
ATOM      3  C   UNL     1     -24.987 -39.037  36.026  1.00  0.00     0.199 C 
ATOM      4  C   UNL     1     -23.639 -39.036  36.615  1.00  0.00     0.180 C 
ATOM      5  O   UNL     1     -25.953 -40.125  36.195  1.00  0.00    -0.328 OA
ATOM      6  C   UNL     1     -23.230 -40.544  36.895  1.00  0.00     0.181 C 
ATOM      7  C   UNL     1     -24.326 -41.706  37.162  1.00  0.00     0.214 C 
BRANCH   3   8
ATOM      8  C   UNL     1     -25.286 -38.288  34.740  1.00  0.00     0.073 C 
ATOM      9  O   UNL     1     -25.901 -37.163  34.770  1.00  0.00    -0.547 OA
ATOM     10  O   UNL     1     -24.531 -38.773  33.669  1.00  0.00    -0.547 OA
ENDBRANCH   3   8
BRANCH   4  11
ATOM     11  O   UNL     1     -22.782 -38.228  35.843  1.00  0.00    -0.387 OA
ATOM     12  H   UNL     1     -23.124 -37.296  35.973  1.00  0.00     0.211 HD
ENDBRANCH   4  11
BRANCH   6  13
ATOM     13  O   UNL     1     -22.480 -40.921  35.752  1.00  0.00    -0.387 OA
ATOM     14  H   UNL     1     -22.875 -41.819  35.530  1.00  0.00     0.211 HD
ENDBRANCH   6  13
BRANCH   7  15
ATOM     15  O   UNL     1     -24.698 -41.942  38.469  1.00  0.00    -0.384 OA
ATOM     16  H   UNL     1     -25.616 -41.530  38.416  1.00  0.00     0.211 HD
ENDBRANCH   7  15
ENDBRANCH   1   2
BRANCH   1  17
ATOM     17  C   UNL     1     -24.757 -43.447  34.923  1.00  0.00     0.172 A 
ATOM     18  C   UNL     1     -23.775 -43.363  33.916  1.00  0.00     0.205 A 
ATOM     19  C   UNL     1     -25.278 -44.731  35.171  1.00  0.00     0.097 A 
ATOM     20  C   UNL     1     -24.005 -44.051  32.733  1.00  0.00     0.188 A 
ATOM     21  C   UNL     1     -25.462 -45.570  34.053  1.00  0.00     0.134 A 
ATOM     22  C   UNL     1     -24.775 -45.227  32.837  1.00  0.00     0.111 A 
ATOM     23  O   UNL     1     -23.477 -43.678  31.578  1.00  0.00    -0.452 OA
ATOM     24  C   UNL     1     -24.754 -46.072  31.678  1.00  0.00     0.197 A 
ATOM     25  C   UNL     1     -23.460 -44.476  30.478  1.00  0.00     0.138 A 
ATOM     26  C   UNL     1     -23.746 -45.838  30.724  1.00  0.00     0.100 A 
ATOM     27  O   UNL     1     -25.792 -46.766  31.385  1.00  0.00    -0.289 OA
BRANCH  18  28
ATOM     28  O   UNL     1     -22.451 -43.211  34.298  1.00  0.00    -0.490 OA
ATOM     29  C   UNL     1     -21.678 -44.283  34.565  1.00  0.00     0.278 C 
ENDBRANCH  18  28
BRANCH  21  30
ATOM     30  O   UNL     1     -26.242 -46.681  34.252  1.00  0.00    -0.507 OA
ATOM     31  H   UNL     1     -25.859 -47.500  34.724  1.00  0.00     0.293 HD
ENDBRANCH  21  30
BRANCH  25  32
ATOM     32  C   UNL     1     -23.843 -43.932  29.168  1.00  0.00     0.017 A 
ATOM     33  C   UNL     1     -22.740 -44.255  28.393  1.00  0.00     0.012 A 
ATOM     34  C   UNL     1     -24.072 -42.513  28.972  1.00  0.00     0.012 A 
ATOM     35  C   UNL     1     -21.708 -43.205  28.254  1.00  0.00     0.001 A 
ATOM     36  C   UNL     1     -23.522 -41.791  27.875  1.00  0.00     0.001 A 
ATOM     37  C   UNL     1     -22.114 -41.924  27.996  1.00  0.00     0.000 A 
ENDBRANCH  25  32
ENDBRANCH   1  17
TORSDOF 9
ENDMDL
MODEL 6
REMARK VINA RESULT:    -5.452      3.491      5.024
REMARK INTER + INTRA:          -9.850
REMARK INTER:                  -7.842
REMARK INTRA:                  -2.007
REMARK UNBOUND:                -2.166
REMARK SMILES COc1c(O[C@@H]2O[C@H](C(=O)[O-])[C@H](O)[C@H](O)[C@H]2O)cc(O)c2c(=O)cc(-c3ccccc3)oc12
REMARK SMILES IDX 5 1 6 2 8 3 12 4 7 5 14 6 16 7 9 8 10 9 11 10 13 11 15 13
REMARK SMILES IDX 17 15 4 17 3 18 18 19 33 20 19 21 21 22 32 23 22 24 25 25
REMARK SMILES IDX 24 26 23 27 2 28 1 29 20 30 26 32 27 33 31 34 28 35 30 36
REMARK SMILES IDX 29 37
REMARK H PARENT 13 12 15 14 17 16 20 31
REMARK Flexibility Score: inf
ROOT
ATOM      1  O   UNL     1     -25.299 -40.590  38.593  1.00  0.00    -0.458 OA
ENDROOT
BRANCH   1   2
ATOM      2  C   UNL     1     -26.092 -41.696  38.080  1.00  0.00     0.339 C 
ATOM      3  C   UNL     1     -26.703 -43.422  39.910  1.00  0.00     0.199 C 
ATOM      4  C   UNL     1     -25.760 -44.500  39.573  1.00  0.00     0.180 C 
ATOM      5  O   UNL     1     -27.008 -42.295  39.027  1.00  0.00    -0.328 OA
ATOM      6  C   UNL     1     -24.758 -43.941  38.475  1.00  0.00     0.181 C 
ATOM      7  C   UNL     1     -25.162 -42.748  37.457  1.00  0.00     0.214 C 
BRANCH   3   8
ATOM      8  C   UNL     1     -26.956 -43.021  41.352  1.00  0.00     0.073 C 
ATOM      9  O   UNL     1     -27.335 -43.893  42.214  1.00  0.00    -0.547 OA
ATOM     10  O   UNL     1     -26.403 -41.773  41.649  1.00  0.00    -0.547 OA
ENDBRANCH   3   8
BRANCH   4  11
ATOM     11  O   UNL     1     -25.237 -45.063  40.751  1.00  0.00    -0.387 OA
ATOM     12  H   UNL     1     -25.221 -44.309  41.410  1.00  0.00     0.211 HD
ENDBRANCH   4  11
BRANCH   6  13
ATOM     13  O   UNL     1     -23.633 -43.504  39.219  1.00  0.00    -0.387 OA
ATOM     14  H   UNL     1     -23.028 -44.306  39.173  1.00  0.00     0.211 HD
ENDBRANCH   6  13
BRANCH   7  15
ATOM     15  O   UNL     1     -25.719 -43.104  36.248  1.00  0.00    -0.384 OA
ATOM     16  H   UNL     1     -25.719 -42.185  35.832  1.00  0.00     0.211 HD
ENDBRANCH   7  15
ENDBRANCH   1   2
BRANCH   1  17
ATOM     17  C   UNL     1     -25.195 -39.309  38.015  1.00  0.00     0.172 A 
ATOM     18  C   UNL     1     -26.272 -38.899  37.205  1.00  0.00     0.205 A 
ATOM     19  C   UNL     1     -23.938 -38.761  37.694  1.00  0.00     0.097 A 
ATOM     20  C   UNL     1     -26.071 -38.868  35.833  1.00  0.00     0.188 A 
ATOM     21  C   UNL     1     -23.653 -38.581  36.325  1.00  0.00     0.134 A 
ATOM     22  C   UNL     1     -24.757 -38.600  35.403  1.00  0.00     0.111 A 
ATOM     23  O   UNL     1     -27.061 -39.006  34.965  1.00  0.00    -0.452 OA
ATOM     24  C   UNL     1     -24.625 -38.282  34.010  1.00  0.00     0.197 A 
ATOM     25  C   UNL     1     -26.937 -38.708  33.644  1.00  0.00     0.138 A 
ATOM     26  C   UNL     1     -25.797 -37.942  33.309  1.00  0.00     0.100 A 
ATOM     27  O   UNL     1     -23.556 -38.617  33.384  1.00  0.00    -0.289 OA
BRANCH  18  28
ATOM     28  O   UNL     1     -27.171 -37.978  37.721  1.00  0.00    -0.490 OA
ATOM     29  C   UNL     1     -27.296 -37.800  39.052  1.00  0.00     0.278 C 
ENDBRANCH  18  28
BRANCH  21  30
ATOM     30  O   UNL     1     -22.340 -38.343  36.006  1.00  0.00    -0.507 OA
ATOM     31  H   UNL     1     -21.874 -37.501  36.344  1.00  0.00     0.293 HD
ENDBRANCH  21  30
BRANCH  25  32
ATOM     32  C   UNL     1     -27.446 -39.640  32.629  1.00  0.00     0.017 A 
ATOM     33  C   UNL     1     -27.248 -40.867  33.243  1.00  0.00     0.012 A 
ATOM     34  C   UNL     1     -26.833 -39.743  31.317  1.00  0.00     0.012 A 
ATOM     35  C   UNL     1     -25.992 -41.571  32.909  1.00  0.00     0.001 A 
ATOM     36  C   UNL     1     -26.520 -40.993  30.713  1.00  0.00     0.001 A 
ATOM     37  C   UNL     1     -25.608 -41.629  31.597  1.00  0.00     0.000 A 
ENDBRANCH  25  32
ENDBRANCH   1  17
TORSDOF 9
ENDMDL
MODEL 7
REMARK VINA RESULT:    -5.294      3.090      5.933
REMARK INTER + INTRA:          -9.627
REMARK INTER:                  -7.337
REMARK INTRA:                  -2.291
REMARK UNBOUND:                -2.166
REMARK SMILES COc1c(O[C@@H]2O[C@H](C(=O)[O-])[C@H](O)[C@H](O)[C@H]2O)cc(O)c2c(=O)cc(-c3ccccc3)oc12
REMARK SMILES IDX 5 1 6 2 8 3 12 4 7 5 14 6 16 7 9 8 10 9 11 10 13 11 15 13
REMARK SMILES IDX 17 15 4 17 3 18 18 19 33 20 19 21 21 22 32 23 22 24 25 25
REMARK SMILES IDX 24 26 23 27 2 28 1 29 20 30 26 32 27 33 31 34 28 35 30 36
REMARK SMILES IDX 29 37
REMARK H PARENT 13 12 15 14 17 16 20 31
REMARK Flexibility Score: inf
ROOT
ATOM      1  O   UNL     1     -25.479 -40.473  35.135  1.00  0.00    -0.458 OA
ENDROOT
BRANCH   1   2
ATOM      2  C   UNL     1     -24.026 -40.405  35.096  1.00  0.00     0.339 C 
ATOM      3  C   UNL     1     -22.948 -42.558  34.146  1.00  0.00     0.199 C 
ATOM      4  C   UNL     1     -22.461 -43.173  35.390  1.00  0.00     0.180 C 
ATOM      5  O   UNL     1     -23.396 -41.168  34.040  1.00  0.00    -0.328 OA
ATOM      6  C   UNL     1     -23.053 -42.341  36.606  1.00  0.00     0.181 C 
ATOM      7  C   UNL     1     -23.459 -40.778  36.474  1.00  0.00     0.214 C 
BRANCH   3   8
ATOM      8  C   UNL     1     -23.614 -43.390  33.065  1.00  0.00     0.073 C 
ATOM      9  O   UNL     1     -22.907 -44.068  32.236  1.00  0.00    -0.547 OA
ATOM     10  O   UNL     1     -24.973 -43.588  33.324  1.00  0.00    -0.547 OA
ENDBRANCH   3   8
BRANCH   4  11
ATOM     11  O   UNL     1     -22.669 -44.564  35.349  1.00  0.00    -0.387 OA
ATOM     12  H   UNL     1     -21.881 -44.926  34.851  1.00  0.00     0.211 HD
ENDBRANCH   4  11
BRANCH   6  13
ATOM     13  O   UNL     1     -24.219 -43.054  36.983  1.00  0.00    -0.387 OA
ATOM     14  H   UNL     1     -24.000 -43.329  37.925  1.00  0.00     0.211 HD
ENDBRANCH   6  13
BRANCH   7  15
ATOM     15  O   UNL     1     -22.492 -39.842  36.772  1.00  0.00    -0.384 OA
ATOM     16  H   UNL     1     -21.693 -40.448  36.671  1.00  0.00     0.211 HD
ENDBRANCH   7  15
ENDBRANCH   1   2
BRANCH   1  17
ATOM     17  C   UNL     1     -26.361 -39.857  34.225  1.00  0.00     0.172 A 
ATOM     18  C   UNL     1     -26.602 -40.549  33.022  1.00  0.00     0.205 A 
ATOM     19  C   UNL     1     -26.471 -38.455  34.162  1.00  0.00     0.097 A 
ATOM     20  C   UNL     1     -26.025 -40.050  31.863  1.00  0.00     0.188 A 
ATOM     21  C   UNL     1     -26.011 -37.832  32.983  1.00  0.00     0.134 A 
ATOM     22  C   UNL     1     -25.829 -38.655  31.818  1.00  0.00     0.111 A 
ATOM     23  O   UNL     1     -25.738 -40.816  30.823  1.00  0.00    -0.452 OA
ATOM     24  C   UNL     1     -25.513 -38.127  30.522  1.00  0.00     0.197 A 
ATOM     25  C   UNL     1     -25.435 -40.317  29.595  1.00  0.00     0.138 A 
ATOM     26  C   UNL     1     -25.756 -38.953  29.409  1.00  0.00     0.100 A 
ATOM     27  O   UNL     1     -24.749 -37.101  30.428  1.00  0.00    -0.289 OA
BRANCH  18  28
ATOM     28  O   UNL     1     -27.810 -41.215  32.876  1.00  0.00    -0.490 OA
ATOM     29  C   UNL     1     -28.125 -42.263  33.664  1.00  0.00     0.278 C 
ENDBRANCH  18  28
BRANCH  21  30
ATOM     30  O   UNL     1     -25.835 -36.473  33.046  1.00  0.00    -0.507 OA
ATOM     31  H   UNL     1     -25.291 -35.992  32.329  1.00  0.00     0.293 HD
ENDBRANCH  21  30
BRANCH  25  32
ATOM     32  C   UNL     1     -24.287 -40.847  28.848  1.00  0.00     0.017 A 
ATOM     33  C   UNL     1     -24.906 -41.678  27.927  1.00  0.00     0.012 A 
ATOM     34  C   UNL     1     -23.266 -41.651  29.493  1.00  0.00     0.012 A 
ATOM     35  C   UNL     1     -25.011 -43.105  28.300  1.00  0.00     0.001 A 
ATOM     36  C   UNL     1     -22.781 -42.868  28.936  1.00  0.00     0.001 A 
ATOM     37  C   UNL     1     -23.912 -43.721  28.833  1.00  0.00     0.000 A 
ENDBRANCH  25  32
ENDBRANCH   1  17
TORSDOF 9
ENDMDL
MODEL 8
REMARK VINA RESULT:    -5.276      2.702      7.269
REMARK INTER + INTRA:          -9.602
REMARK INTER:                  -7.135
REMARK INTRA:                  -2.466
REMARK UNBOUND:                -2.166
REMARK SMILES COc1c(O[C@@H]2O[C@H](C(=O)[O-])[C@H](O)[C@H](O)[C@H]2O)cc(O)c2c(=O)cc(-c3ccccc3)oc12
REMARK SMILES IDX 5 1 6 2 8 3 12 4 7 5 14 6 16 7 9 8 10 9 11 10 13 11 15 13
REMARK SMILES IDX 17 15 4 17 3 18 18 19 33 20 19 21 21 22 32 23 22 24 25 25
REMARK SMILES IDX 24 26 23 27 2 28 1 29 20 30 26 32 27 33 31 34 28 35 30 36
REMARK SMILES IDX 29 37
REMARK H PARENT 13 12 15 14 17 16 20 31
REMARK Flexibility Score: inf
ROOT
ATOM      1  O   UNL     1     -24.459 -43.188  31.187  1.00  0.00    -0.458 OA
ENDROOT
BRANCH   1   2
ATOM      2  C   UNL     1     -23.639 -42.027  30.874  1.00  0.00     0.339 C 
ATOM      3  C   UNL     1     -24.934 -39.797  31.097  1.00  0.00     0.199 C 
ATOM      4  C   UNL     1     -25.161 -39.488  29.676  1.00  0.00     0.180 C 
ATOM      5  O   UNL     1     -23.991 -40.811  31.574  1.00  0.00    -0.328 OA
ATOM      6  C   UNL     1     -24.725 -40.758  28.828  1.00  0.00     0.181 C 
ATOM      7  C   UNL     1     -23.614 -41.813  29.353  1.00  0.00     0.214 C 
BRANCH   3   8
ATOM      8  C   UNL     1     -26.027 -39.593  32.131  1.00  0.00     0.073 C 
ATOM      9  O   UNL     1     -26.275 -38.422  32.593  1.00  0.00    -0.547 OA
ATOM     10  O   UNL     1     -26.882 -40.695  32.207  1.00  0.00    -0.547 OA
ENDBRANCH   3   8
BRANCH   4  11
ATOM     11  O   UNL     1     -26.455 -38.963  29.502  1.00  0.00    -0.387 OA
ATOM     12  H   UNL     1     -26.483 -38.663  28.547  1.00  0.00     0.211 HD
ENDBRANCH   4  11
BRANCH   6  13
ATOM     13  O   UNL     1     -25.932 -41.475  28.626  1.00  0.00    -0.387 OA
ATOM     14  H   UNL     1     -26.286 -41.556  29.564  1.00  0.00     0.211 HD
ENDBRANCH   6  13
BRANCH   7  15
ATOM     15  O   UNL     1     -22.300 -41.580  29.007  1.00  0.00    -0.384 OA
ATOM     16  H   UNL     1     -22.081 -42.516  28.703  1.00  0.00     0.211 HD
ENDBRANCH   7  15
ENDBRANCH   1   2
BRANCH   1  17
ATOM     17  C   UNL     1     -24.401 -43.945  32.374  1.00  0.00     0.172 A 
ATOM     18  C   UNL     1     -25.328 -43.606  33.378  1.00  0.00     0.205 A 
ATOM     19  C   UNL     1     -23.186 -44.501  32.818  1.00  0.00     0.097 A 
ATOM     20  C   UNL     1     -24.851 -42.941  34.499  1.00  0.00     0.188 A 
ATOM     21  C   UNL     1     -22.646 -43.978  34.012  1.00  0.00     0.134 A 
ATOM     22  C   UNL     1     -23.520 -43.222  34.868  1.00  0.00     0.111 A 
ATOM     23  O   UNL     1     -25.611 -42.144  35.232  1.00  0.00    -0.452 OA
ATOM     24  C   UNL     1     -23.142 -42.765  36.175  1.00  0.00     0.197 A 
ATOM     25  C   UNL     1     -25.252 -41.707  36.469  1.00  0.00     0.138 A 
ATOM     26  C   UNL     1     -24.175 -42.406  37.060  1.00  0.00     0.100 A 
ATOM     27  O   UNL     1     -21.932 -42.397  36.389  1.00  0.00    -0.289 OA
BRANCH  18  28
ATOM     28  O   UNL     1     -26.426 -44.431  33.569  1.00  0.00    -0.490 OA
ATOM     29  C   UNL     1     -26.270 -45.737  33.863  1.00  0.00     0.278 C 
ENDBRANCH  18  28
BRANCH  21  30
ATOM     30  O   UNL     1     -21.337 -44.294  34.273  1.00  0.00    -0.507 OA
ATOM     31  H   UNL     1     -20.988 -45.234  34.085  1.00  0.00     0.293 HD
ENDBRANCH  21  30
BRANCH  25  32
ATOM     32  C   UNL     1     -25.413 -40.291  36.825  1.00  0.00     0.017 A 
ATOM     33  C   UNL     1     -25.109 -39.660  35.629  1.00  0.00     0.012 A 
ATOM     34  C   UNL     1     -24.582 -39.662  37.835  1.00  0.00     0.012 A 
ATOM     35  C   UNL     1     -23.711 -39.207  35.465  1.00  0.00     0.001 A 
ATOM     36  C   UNL     1     -23.958 -38.398  37.637  1.00  0.00     0.001 A 
ATOM     37  C   UNL     1     -23.109 -38.561  36.510  1.00  0.00     0.000 A 
ENDBRANCH  25  32
ENDBRANCH   1  17
TORSDOF 9
ENDMDL
MODEL 9
REMARK VINA RESULT:    -5.209      2.246      4.892
REMARK INTER + INTRA:          -9.507
REMARK INTER:                  -6.977
REMARK INTRA:                  -2.530
REMARK UNBOUND:                -2.166
REMARK SMILES COc1c(O[C@@H]2O[C@H](C(=O)[O-])[C@H](O)[C@H](O)[C@H]2O)cc(O)c2c(=O)cc(-c3ccccc3)oc12
REMARK SMILES IDX 5 1 6 2 8 3 12 4 7 5 14 6 16 7 9 8 10 9 11 10 13 11 15 13
REMARK SMILES IDX 17 15 4 17 3 18 18 19 33 20 19 21 21 22 32 23 22 24 25 25
REMARK SMILES IDX 24 26 23 27 2 28 1 29 20 30 26 32 27 33 31 34 28 35 30 36
REMARK SMILES IDX 29 37
REMARK H PARENT 13 12 15 14 17 16 20 31
REMARK Flexibility Score: inf
ROOT
ATOM      1  O   UNL     1     -24.876 -44.252  35.481  1.00  0.00    -0.458 OA
ENDROOT
BRANCH   1   2
ATOM      2  C   UNL     1     -25.938 -43.321  35.833  1.00  0.00     0.339 C 
ATOM      3  C   UNL     1     -25.078 -40.900  36.155  1.00  0.00     0.199 C 
ATOM      4  C   UNL     1     -25.097 -40.814  37.623  1.00  0.00     0.180 C 
ATOM      5  O   UNL     1     -25.740 -41.958  35.388  1.00  0.00    -0.328 OA
ATOM      6  C   UNL     1     -25.384 -42.268  38.191  1.00  0.00     0.181 C 
ATOM      7  C   UNL     1     -26.196 -43.386  37.346  1.00  0.00     0.214 C 
BRANCH   3   8
ATOM      8  C   UNL     1     -23.923 -40.336  35.348  1.00  0.00     0.073 C 
ATOM      9  O   UNL     1     -23.802 -39.069  35.182  1.00  0.00    -0.547 OA
ATOM     10  O   UNL     1     -22.910 -41.279  35.158  1.00  0.00    -0.547 OA
ENDBRANCH   3   8
BRANCH   4  11
ATOM     11  O   UNL     1     -23.961 -40.116  38.075  1.00  0.00    -0.387 OA
ATOM     12  H   UNL     1     -23.543 -39.743  37.246  1.00  0.00     0.211 HD
ENDBRANCH   4  11
BRANCH   6  13
ATOM     13  O   UNL     1     -24.097 -42.795  38.470  1.00  0.00    -0.387 OA
ATOM     14  H   UNL     1     -23.740 -42.133  39.136  1.00  0.00     0.211 HD
ENDBRANCH   6  13
BRANCH   7  15
ATOM     15  O   UNL     1     -27.563 -43.443  37.513  1.00  0.00    -0.384 OA
ATOM     16  H   UNL     1     -27.561 -43.715  38.484  1.00  0.00     0.211 HD
ENDBRANCH   7  15
ENDBRANCH   1   2
BRANCH   1  17
ATOM     17  C   UNL     1     -24.644 -44.797  34.202  1.00  0.00     0.172 A 
ATOM     18  C   UNL     1     -23.712 -44.118  33.394  1.00  0.00     0.205 A 
ATOM     19  C   UNL     1     -25.657 -45.498  33.521  1.00  0.00     0.097 A 
ATOM     20  C   UNL     1     -24.202 -43.382  32.324  1.00  0.00     0.188 A 
ATOM     21  C   UNL     1     -26.169 -44.900  32.351  1.00  0.00     0.134 A 
ATOM     22  C   UNL     1     -25.394 -43.854  31.739  1.00  0.00     0.111 A 
ATOM     23  O   UNL     1     -23.559 -42.340  31.823  1.00  0.00    -0.452 OA
ATOM     24  C   UNL     1     -25.722 -43.269  30.471  1.00  0.00     0.197 A 
ATOM     25  C   UNL     1     -23.872 -41.782  30.623  1.00  0.00     0.138 A 
ATOM     26  C   UNL     1     -24.704 -42.570  29.797  1.00  0.00     0.100 A 
ATOM     27  O   UNL     1     -26.954 -43.115  30.147  1.00  0.00    -0.289 OA
BRANCH  18  28
ATOM     28  O   UNL     1     -22.448 -44.667  33.241  1.00  0.00    -0.490 OA
ATOM     29  C   UNL     1     -21.713 -45.025  34.313  1.00  0.00     0.278 C 
ENDBRANCH  18  28
BRANCH  21  30
ATOM     30  O   UNL     1     -27.344 -45.419  31.870  1.00  0.00    -0.507 OA
ATOM     31  H   UNL     1     -27.808 -46.182  32.362  1.00  0.00     0.293 HD
ENDBRANCH  21  30
BRANCH  25  32
ATOM     32  C   UNL     1     -23.984 -40.322  30.497  1.00  0.00     0.017 A 
ATOM     33  C   UNL     1     -24.359 -39.953  31.779  1.00  0.00     0.012 A 
ATOM     34  C   UNL     1     -24.948 -39.709  29.603  1.00  0.00     0.012 A 
ATOM     35  C   UNL     1     -25.810 -39.799  32.018  1.00  0.00     0.001 A 
ATOM     36  C   UNL     1     -25.786 -38.629  30.002  1.00  0.00     0.001 A 
ATOM     37  C   UNL     1     -26.553 -39.121  31.092  1.00  0.00     0.000 A 
ENDBRANCH  25  32
ENDBRANCH   1  17
TORSDOF 9
ENDMDL
