MODEL 1
REMARK VINA RESULT:    -3.786      0.000      0.000
REMARK INTER + INTRA:          -4.023
REMARK INTER:                  -4.007
REMARK INTRA:                  -0.017
REMARK UNBOUND:                -0.017
REMARK SMILES O=C([O-])c1cccnc1
REMARK SMILES IDX 4 1 5 2 9 3 6 4 8 5 7 6 2 7 1 8 3 9
REMARK H PARENT
REMARK Flexibility Score: inf
ROOT
ATOM      1  C   UNL     1      -7.725 -22.077 -21.923  1.00  0.00     0.016 A 
ATOM      2  C   UNL     1      -7.907 -23.459 -21.751  1.00  0.00     0.013 A 
ATOM      3  C   UNL     1      -7.197 -21.334 -20.853  1.00  0.00     0.120 A 
ATOM      4  C   UNL     1      -7.568 -24.065 -20.541  1.00  0.00     0.021 A 
ATOM      5  N   UNL     1      -6.875 -21.950 -19.684  1.00  0.00    -0.264 NA
ATOM      6  C   UNL     1      -7.048 -23.286 -19.507  1.00  0.00     0.111 A 
ENDROOT
BRANCH   1   7
ATOM      7  C   UNL     1      -8.077 -21.415 -23.199  1.00  0.00     0.073 C 
ATOM      8  O   UNL     1      -7.176 -21.031 -23.991  1.00  0.00    -0.545 OA
ATOM      9  O   UNL     1      -9.408 -21.210 -23.541  1.00  0.00    -0.545 OA
ENDBRANCH   1   7
TORSDOF 1
ENDMDL
MODEL 2
REMARK VINA RESULT:    -3.568      2.763      3.495
REMARK INTER + INTRA:          -3.794
REMARK INTER:                  -3.778
REMARK INTRA:                  -0.016
REMARK UNBOUND:                -0.017
REMARK SMILES O=C([O-])c1cccnc1
REMARK SMILES IDX 4 1 5 2 9 3 6 4 8 5 7 6 2 7 1 8 3 9
REMARK H PARENT
REMARK Flexibility Score: inf
ROOT
ATOM      1  C   UNL     1      -7.569 -24.035 -20.815  1.00  0.00     0.016 A 
ATOM      2  C   UNL     1      -7.799 -23.132 -21.866  1.00  0.00     0.013 A 
ATOM      3  C   UNL     1      -7.100 -23.530 -19.590  1.00  0.00     0.120 A 
ATOM      4  C   UNL     1      -7.560 -21.769 -21.683  1.00  0.00     0.021 A 
ATOM      5  N   UNL     1      -6.875 -22.197 -19.439  1.00  0.00    -0.264 NA
ATOM      6  C   UNL     1      -7.093 -21.315 -20.450  1.00  0.00     0.111 A 
ENDROOT
BRANCH   1   7
ATOM      7  C   UNL     1      -7.817 -25.483 -20.988  1.00  0.00     0.073 C 
ATOM      8  O   UNL     1      -6.881 -26.256 -21.327  1.00  0.00    -0.545 OA
ATOM      9  O   UNL     1      -9.085 -26.011 -20.777  1.00  0.00    -0.545 OA
ENDBRANCH   1   7
TORSDOF 1
ENDMDL
MODEL 3
REMARK VINA RESULT:    -3.507      2.213      2.792
REMARK INTER + INTRA:          -3.728
REMARK INTER:                  -3.707
REMARK INTRA:                  -0.022
REMARK UNBOUND:                -0.017
REMARK SMILES O=C([O-])c1cccnc1
REMARK SMILES IDX 4 1 5 2 9 3 6 4 8 5 7 6 2 7 1 8 3 9
REMARK H PARENT
REMARK Flexibility Score: inf
ROOT
ATOM      1  C   UNL     1      -7.843 -23.422 -21.499  1.00  0.00     0.016 A 
ATOM      2  C   UNL     1      -7.071 -24.174 -20.598  1.00  0.00     0.013 A 
ATOM      3  C   UNL     1      -8.861 -24.074 -22.215  1.00  0.00     0.120 A 
ATOM      4  C   UNL     1      -7.322 -25.537 -20.430  1.00  0.00     0.021 A 
ATOM      5  N   UNL     1      -9.083 -25.404 -22.033  1.00  0.00    -0.264 NA
ATOM      6  C   UNL     1      -8.342 -26.141 -21.164  1.00  0.00     0.111 A 
ENDROOT
BRANCH   1   7
ATOM      7  C   UNL     1      -7.594 -21.976 -21.691  1.00  0.00     0.073 C 
ATOM      8  O   UNL     1      -7.163 -21.268 -20.742  1.00  0.00    -0.545 OA
ATOM      9  O   UNL     1      -7.831 -21.378 -22.923  1.00  0.00    -0.545 OA
ENDBRANCH   1   7
TORSDOF 1
ENDMDL
MODEL 4
REMARK VINA RESULT:    -3.414     24.039     24.870
REMARK INTER + INTRA:          -3.630
REMARK INTER:                  -3.614
REMARK INTRA:                  -0.016
REMARK UNBOUND:                -0.017
REMARK SMILES O=C([O-])c1cccnc1
REMARK SMILES IDX 4 1 5 2 9 3 6 4 8 5 7 6 2 7 1 8 3 9
REMARK H PARENT
REMARK Flexibility Score: inf
ROOT
ATOM      1  C   UNL     1     -26.031 -38.445 -20.558  1.00  0.00     0.016 A 
ATOM      2  C   UNL     1     -25.717 -39.428 -21.511  1.00  0.00     0.013 A 
ATOM      3  C   UNL     1     -26.651 -38.846 -19.362  1.00  0.00     0.120 A 
ATOM      4  C   UNL     1     -26.022 -40.767 -21.261  1.00  0.00     0.021 A 
ATOM      5  N   UNL     1     -26.937 -40.158 -19.144  1.00  0.00    -0.264 NA
ATOM      6  C   UNL     1     -26.638 -41.117 -20.060  1.00  0.00     0.111 A 
ENDROOT
BRANCH   1   7
ATOM      7  C   UNL     1     -25.716 -37.020 -20.802  1.00  0.00     0.073 C 
ATOM      8  O   UNL     1     -26.524 -36.285 -21.431  1.00  0.00    -0.545 OA
ATOM      9  O   UNL     1     -24.526 -36.472 -20.340  1.00  0.00    -0.545 OA
ENDBRANCH   1   7
TORSDOF 1
ENDMDL
MODEL 5
REMARK VINA RESULT:    -3.403      2.965      3.591
REMARK INTER + INTRA:          -3.618
REMARK INTER:                  -3.598
REMARK INTRA:                  -0.020
REMARK UNBOUND:                -0.017
REMARK SMILES O=C([O-])c1cccnc1
REMARK SMILES IDX 4 1 5 2 9 3 6 4 8 5 7 6 2 7 1 8 3 9
REMARK H PARENT
REMARK Flexibility Score: inf
ROOT
ATOM      1  C   UNL     1      -7.846 -24.235 -21.386  1.00  0.00     0.016 A 
ATOM      2  C   UNL     1      -7.017 -25.323 -21.064  1.00  0.00     0.013 A 
ATOM      3  C   UNL     1      -9.018 -24.482 -22.121  1.00  0.00     0.120 A 
ATOM      4  C   UNL     1      -7.363 -26.611 -21.474  1.00  0.00     0.021 A 
ATOM      5  N   UNL     1      -9.331 -25.748 -22.509  1.00  0.00    -0.264 NA
ATOM      6  C   UNL     1      -8.535 -26.806 -22.203  1.00  0.00     0.111 A 
ENDROOT
BRANCH   1   7
ATOM      7  C   UNL     1      -7.498 -22.861 -20.960  1.00  0.00     0.073 C 
ATOM      8  O   UNL     1      -7.038 -22.645 -19.807  1.00  0.00    -0.545 OA
ATOM      9  O   UNL     1      -7.674 -21.790 -21.828  1.00  0.00    -0.545 OA
ENDBRANCH   1   7
TORSDOF 1
ENDMDL
MODEL 6
REMARK VINA RESULT:    -3.363      5.026      5.769
REMARK INTER + INTRA:          -3.576
REMARK INTER:                  -3.553
REMARK INTRA:                  -0.023
REMARK UNBOUND:                -0.017
REMARK SMILES O=C([O-])c1cccnc1
REMARK SMILES IDX 4 1 5 2 9 3 6 4 8 5 7 6 2 7 1 8 3 9
REMARK H PARENT
REMARK Flexibility Score: inf
ROOT
ATOM      1  C   UNL     1      -7.958 -27.275 -22.373  1.00  0.00     0.016 A 
ATOM      2  C   UNL     1      -7.118 -26.595 -21.475  1.00  0.00     0.013 A 
ATOM      3  C   UNL     1      -9.120 -26.625 -22.824  1.00  0.00     0.120 A 
ATOM      4  C   UNL     1      -7.444 -25.306 -21.050  1.00  0.00     0.021 A 
ATOM      5  N   UNL     1      -9.414 -25.368 -22.394  1.00  0.00    -0.264 NA
ATOM      6  C   UNL     1      -8.608 -24.703 -21.525  1.00  0.00     0.111 A 
ENDROOT
BRANCH   1   7
ATOM      7  C   UNL     1      -7.631 -28.641 -22.836  1.00  0.00     0.073 C 
ATOM      8  O   UNL     1      -6.905 -29.398 -22.137  1.00  0.00    -0.545 OA
ATOM      9  O   UNL     1      -8.122 -29.110 -24.049  1.00  0.00    -0.545 OA
ENDBRANCH   1   7
TORSDOF 1
ENDMDL
MODEL 7
REMARK VINA RESULT:    -3.341     23.671     24.475
REMARK INTER + INTRA:          -3.553
REMARK INTER:                  -3.537
REMARK INTRA:                  -0.016
REMARK UNBOUND:                -0.017
REMARK SMILES O=C([O-])c1cccnc1
REMARK SMILES IDX 4 1 5 2 9 3 6 4 8 5 7 6 2 7 1 8 3 9
REMARK H PARENT
REMARK Flexibility Score: inf
ROOT
ATOM      1  C   UNL     1     -26.127 -37.750 -20.528  1.00  0.00     0.016 A 
ATOM      2  C   UNL     1     -26.733 -37.745 -19.261  1.00  0.00     0.013 A 
ATOM      3  C   UNL     1     -25.871 -38.987 -21.142  1.00  0.00     0.120 A 
ATOM      4  C   UNL     1     -27.067 -38.949 -18.640  1.00  0.00     0.021 A 
ATOM      5  N   UNL     1     -26.207 -40.147 -20.514  1.00  0.00    -0.264 NA
ATOM      6  C   UNL     1     -26.794 -40.153 -19.289  1.00  0.00     0.111 A 
ENDROOT
BRANCH   1   7
ATOM      7  C   UNL     1     -25.765 -36.484 -21.204  1.00  0.00     0.073 C 
ATOM      8  O   UNL     1     -24.568 -36.092 -21.231  1.00  0.00    -0.545 OA
ATOM      9  O   UNL     1     -26.742 -35.710 -21.819  1.00  0.00    -0.545 OA
ENDBRANCH   1   7
TORSDOF 1
ENDMDL
MODEL 8
REMARK VINA RESULT:    -3.318     21.376     22.139
REMARK INTER + INTRA:          -3.529
REMARK INTER:                  -3.506
REMARK INTRA:                  -0.023
REMARK UNBOUND:                -0.017
REMARK SMILES O=C([O-])c1cccnc1
REMARK SMILES IDX 4 1 5 2 9 3 6 4 8 5 7 6 2 7 1 8 3 9
REMARK H PARENT
REMARK Flexibility Score: inf
ROOT
ATOM      1  C   UNL     1     -26.735 -31.092 -27.015  1.00  0.00     0.016 A 
ATOM      2  C   UNL     1     -26.566 -29.960 -27.829  1.00  0.00     0.013 A 
ATOM      3  C   UNL     1     -26.990 -32.328 -27.633  1.00  0.00     0.120 A 
ATOM      4  C   UNL     1     -26.651 -30.076 -29.217  1.00  0.00     0.021 A 
ATOM      5  N   UNL     1     -27.069 -32.414 -28.988  1.00  0.00    -0.264 NA
ATOM      6  C   UNL     1     -26.907 -31.325 -29.785  1.00  0.00     0.111 A 
ENDROOT
BRANCH   1   7
ATOM      7  C   UNL     1     -26.648 -30.990 -25.541  1.00  0.00     0.073 C 
ATOM      8  O   UNL     1     -27.124 -31.897 -24.807  1.00  0.00    -0.545 OA
ATOM      9  O   UNL     1     -26.036 -29.893 -24.946  1.00  0.00    -0.545 OA
ENDBRANCH   1   7
TORSDOF 1
ENDMDL
MODEL 9
REMARK VINA RESULT:    -3.260     22.677     23.528
REMARK INTER + INTRA:          -3.467
REMARK INTER:                  -3.446
REMARK INTRA:                  -0.021
REMARK UNBOUND:                -0.017
REMARK SMILES O=C([O-])c1cccnc1
REMARK SMILES IDX 4 1 5 2 9 3 6 4 8 5 7 6 2 7 1 8 3 9
REMARK H PARENT
REMARK Flexibility Score: inf
ROOT
ATOM      1  C   UNL     1     -25.791 -37.081 -21.177  1.00  0.00     0.016 A 
ATOM      2  C   UNL     1     -26.478 -35.921 -21.573  1.00  0.00     0.013 A 
ATOM      3  C   UNL     1     -24.514 -37.319 -21.713  1.00  0.00     0.120 A 
ATOM      4  C   UNL     1     -25.892 -35.037 -22.480  1.00  0.00     0.021 A 
ATOM      5  N   UNL     1     -23.966 -36.440 -22.595  1.00  0.00    -0.264 NA
ATOM      6  C   UNL     1     -24.622 -35.316 -22.985  1.00  0.00     0.111 A 
ENDROOT
BRANCH   1   7
ATOM      7  C   UNL     1     -26.394 -38.032 -20.216  1.00  0.00     0.073 C 
ATOM      8  O   UNL     1     -27.060 -37.612 -19.232  1.00  0.00    -0.545 OA
ATOM      9  O   UNL     1     -26.236 -39.402 -20.388  1.00  0.00    -0.545 OA
ENDBRANCH   1   7
TORSDOF 1
ENDMDL
