MODEL 1
REMARK VINA RESULT:    -4.320      0.000      0.000
REMARK INTER + INTRA:          -7.213
REMARK INTER:                  -6.593
REMARK INTRA:                  -0.620
REMARK UNBOUND:                -0.620
REMARK SMILES CCCCCCCCCCC(=O)[O-]
REMARK SMILES IDX 7 1 8 2 9 3 10 4 11 5 12 6 13 7 6 8 5 9 4 10 3 11 2 12 1 13
REMARK H PARENT
REMARK Flexibility Score: inf
ROOT
ATOM      1  C   UNL     1       0.425   3.895  -3.375  1.00  0.00     0.000 C 
ENDROOT
BRANCH   1   2
ATOM      2  C   UNL     1       1.936   3.619  -3.338  1.00  0.00     0.000 C 
BRANCH   2   3
ATOM      3  C   UNL     1       2.216   2.115  -3.231  1.00  0.00     0.006 C 
BRANCH   3   4
ATOM      4  C   UNL     1       3.606   1.775  -3.778  1.00  0.00     0.053 C 
BRANCH   4   5
ATOM      5  C   UNL     1       4.669   2.404  -2.935  1.00  0.00     0.041 C 
ATOM      6  O   UNL     1       4.733   2.150  -1.702  1.00  0.00    -0.550 OA
ATOM      7  O   UNL     1       5.560   3.310  -3.497  1.00  0.00    -0.550 OA
ENDBRANCH   4   5
ENDBRANCH   3   4
ENDBRANCH   2   3
ENDBRANCH   1   2
BRANCH   1   8
ATOM      8  C   UNL     1      -0.243   3.360  -4.652  1.00  0.00     0.000 C 
BRANCH   8   9
ATOM      9  C   UNL     1      -1.579   2.656  -4.372  1.00  0.00    -0.000 C 
BRANCH   9  10
ATOM     10  C   UNL     1      -1.632   2.136  -2.928  1.00  0.00    -0.000 C 
BRANCH  10  11
ATOM     11  C   UNL     1      -2.913   2.558  -2.185  1.00  0.00    -0.000 C 
BRANCH  11  12
ATOM     12  C   UNL     1      -4.225   2.125  -2.863  1.00  0.00    -0.003 C 
ATOM     13  C   UNL     1      -5.349   3.147  -2.699  1.00  0.00     0.004 C 
ENDBRANCH  11  12
ENDBRANCH  10  11
ENDBRANCH   9  10
ENDBRANCH   8   9
ENDBRANCH   1   8
TORSDOF 9
ENDMDL
MODEL 2
REMARK VINA RESULT:    -4.305      1.192      1.805
REMARK INTER + INTRA:          -7.190
REMARK INTER:                  -6.718
REMARK INTRA:                  -0.472
REMARK UNBOUND:                -0.620
REMARK SMILES CCCCCCCCCCC(=O)[O-]
REMARK SMILES IDX 7 1 8 2 9 3 10 4 11 5 12 6 13 7 6 8 5 9 4 10 3 11 2 12 1 13
REMARK H PARENT
REMARK Flexibility Score: inf
ROOT
ATOM      1  C   UNL     1       0.930   3.273  -4.517  1.00  0.00     0.000 C 
ENDROOT
BRANCH   1   2
ATOM      2  C   UNL     1       1.789   3.188  -3.246  1.00  0.00     0.000 C 
BRANCH   2   3
ATOM      3  C   UNL     1       2.562   1.865  -3.194  1.00  0.00     0.006 C 
BRANCH   3   4
ATOM      4  C   UNL     1       3.881   1.968  -3.966  1.00  0.00     0.053 C 
BRANCH   4   5
ATOM      5  C   UNL     1       4.928   2.629  -3.127  1.00  0.00     0.041 C 
ATOM      6  O   UNL     1       5.694   3.492  -3.632  1.00  0.00    -0.550 OA
ATOM      7  O   UNL     1       5.093   2.258  -1.798  1.00  0.00    -0.550 OA
ENDBRANCH   4   5
ENDBRANCH   3   4
ENDBRANCH   2   3
ENDBRANCH   1   2
BRANCH   1   8
ATOM      8  C   UNL     1      -0.565   3.050  -4.237  1.00  0.00     0.000 C 
BRANCH   8   9
ATOM      9  C   UNL     1      -0.865   2.854  -2.743  1.00  0.00    -0.000 C 
BRANCH   9  10
ATOM     10  C   UNL     1      -2.227   2.173  -2.542  1.00  0.00    -0.000 C 
BRANCH  10  11
ATOM     11  C   UNL     1      -2.783   1.550  -3.835  1.00  0.00    -0.000 C 
BRANCH  11  12
ATOM     12  C   UNL     1      -4.043   0.687  -3.646  1.00  0.00    -0.003 C 
ATOM     13  C   UNL     1      -3.725  -0.780  -3.359  1.00  0.00     0.004 C 
ENDBRANCH  11  12
ENDBRANCH  10  11
ENDBRANCH   9  10
ENDBRANCH   8   9
ENDBRANCH   1   8
TORSDOF 9
ENDMDL
MODEL 3
REMARK VINA RESULT:    -4.269      1.611      2.676
REMARK INTER + INTRA:          -7.134
REMARK INTER:                  -6.486
REMARK INTRA:                  -0.648
REMARK UNBOUND:                -0.620
REMARK SMILES CCCCCCCCCCC(=O)[O-]
REMARK SMILES IDX 7 1 8 2 9 3 10 4 11 5 12 6 13 7 6 8 5 9 4 10 3 11 2 12 1 13
REMARK H PARENT
REMARK Flexibility Score: inf
ROOT
ATOM      1  C   UNL     1      -1.676   2.513  -3.988  1.00  0.00     0.000 C 
ENDROOT
BRANCH   1   2
ATOM      2  C   UNL     1      -0.345   3.272  -4.097  1.00  0.00     0.000 C 
BRANCH   2   3
ATOM      3  C   UNL     1       0.753   2.574  -3.284  1.00  0.00     0.006 C 
BRANCH   3   4
ATOM      4  C   UNL     1       2.142   3.067  -3.701  1.00  0.00     0.053 C 
BRANCH   4   5
ATOM      5  C   UNL     1       3.153   1.976  -3.544  1.00  0.00     0.041 C 
ATOM      6  O   UNL     1       3.503   1.596  -2.395  1.00  0.00    -0.550 OA
ATOM      7  O   UNL     1       3.747   1.410  -4.666  1.00  0.00    -0.550 OA
ENDBRANCH   4   5
ENDBRANCH   3   4
ENDBRANCH   2   3
ENDBRANCH   1   2
BRANCH   1   8
ATOM      8  C   UNL     1      -2.057   2.192  -2.534  1.00  0.00     0.000 C 
BRANCH   8   9
ATOM      9  C   UNL     1      -3.489   2.628  -2.187  1.00  0.00    -0.000 C 
BRANCH   9  10
ATOM     10  C   UNL     1      -4.419   2.474  -3.400  1.00  0.00    -0.000 C 
BRANCH  10  11
ATOM     11  C   UNL     1      -5.198   1.147  -3.394  1.00  0.00    -0.000 C 
BRANCH  11  12
ATOM     12  C   UNL     1      -4.576   0.029  -4.249  1.00  0.00    -0.003 C 
ATOM     13  C   UNL     1      -3.822  -1.010  -3.420  1.00  0.00     0.004 C 
ENDBRANCH  11  12
ENDBRANCH  10  11
ENDBRANCH   9  10
ENDBRANCH   8   9
ENDBRANCH   1   8
TORSDOF 9
ENDMDL
MODEL 4
REMARK VINA RESULT:    -4.251      1.458      2.014
REMARK INTER + INTRA:          -7.107
REMARK INTER:                  -6.685
REMARK INTRA:                  -0.421
REMARK UNBOUND:                -0.620
REMARK SMILES CCCCCCCCCCC(=O)[O-]
REMARK SMILES IDX 7 1 8 2 9 3 10 4 11 5 12 6 13 7 6 8 5 9 4 10 3 11 2 12 1 13
REMARK H PARENT
REMARK Flexibility Score: inf
ROOT
ATOM      1  C   UNL     1       0.089   3.382  -3.001  1.00  0.00     0.000 C 
ENDROOT
BRANCH   1   2
ATOM      2  C   UNL     1       1.319   2.952  -3.814  1.00  0.00     0.000 C 
BRANCH   2   3
ATOM      3  C   UNL     1       2.148   1.913  -3.049  1.00  0.00     0.006 C 
BRANCH   3   4
ATOM      4  C   UNL     1       3.587   1.866  -3.569  1.00  0.00     0.053 C 
BRANCH   4   5
ATOM      5  C   UNL     1       4.520   2.496  -2.585  1.00  0.00     0.041 C 
ATOM      6  O   UNL     1       4.317   3.673  -2.183  1.00  0.00    -0.550 OA
ATOM      7  O   UNL     1       5.643   1.804  -2.147  1.00  0.00    -0.550 OA
ENDBRANCH   4   5
ENDBRANCH   3   4
ENDBRANCH   2   3
ENDBRANCH   1   2
BRANCH   1   8
ATOM      8  C   UNL     1      -1.199   2.681  -3.462  1.00  0.00     0.000 C 
BRANCH   8   9
ATOM      9  C   UNL     1      -2.221   2.515  -2.327  1.00  0.00    -0.000 C 
BRANCH   9  10
ATOM     10  C   UNL     1      -3.561   1.994  -2.867  1.00  0.00    -0.000 C 
BRANCH  10  11
ATOM     11  C   UNL     1      -3.449   1.410  -4.287  1.00  0.00    -0.000 C 
BRANCH  11  12
ATOM     12  C   UNL     1      -4.146   0.053  -4.485  1.00  0.00    -0.003 C 
ATOM     13  C   UNL     1      -3.774  -0.973  -3.415  1.00  0.00     0.004 C 
ENDBRANCH  11  12
ENDBRANCH  10  11
ENDBRANCH   9  10
ENDBRANCH   8   9
ENDBRANCH   1   8
TORSDOF 9
ENDMDL
MODEL 5
REMARK VINA RESULT:    -4.112      2.221      2.805
REMARK INTER + INTRA:          -6.895
REMARK INTER:                  -6.435
REMARK INTRA:                  -0.461
REMARK UNBOUND:                -0.620
REMARK SMILES CCCCCCCCCCC(=O)[O-]
REMARK SMILES IDX 7 1 8 2 9 3 10 4 11 5 12 6 13 7 6 8 5 9 4 10 3 11 2 12 1 13
REMARK H PARENT
REMARK Flexibility Score: inf
ROOT
ATOM      1  C   UNL     1       1.512   2.989  -3.956  1.00  0.00     0.000 C 
ENDROOT
BRANCH   1   2
ATOM      2  C   UNL     1       2.499   2.023  -3.286  1.00  0.00     0.000 C 
BRANCH   2   3
ATOM      3  C   UNL     1       3.692   1.731  -4.206  1.00  0.00     0.006 C 
BRANCH   3   4
ATOM      4  C   UNL     1       4.198   3.013  -4.872  1.00  0.00     0.053 C 
BRANCH   4   5
ATOM      5  C   UNL     1       4.414   2.793  -6.335  1.00  0.00     0.041 C 
ATOM      6  O   UNL     1       4.743   3.754  -7.080  1.00  0.00    -0.550 OA
ATOM      7  O   UNL     1       4.204   1.535  -6.889  1.00  0.00    -0.550 OA
ENDBRANCH   4   5
ENDBRANCH   3   4
ENDBRANCH   2   3
ENDBRANCH   1   2
BRANCH   1   8
ATOM      8  C   UNL     1       0.515   3.604  -2.960  1.00  0.00     0.000 C 
BRANCH   8   9
ATOM      9  C   UNL     1      -0.834   2.869  -2.943  1.00  0.00    -0.000 C 
BRANCH   9  10
ATOM     10  C   UNL     1      -1.480   2.876  -4.336  1.00  0.00    -0.000 C 
BRANCH  10  11
ATOM     11  C   UNL     1      -2.684   1.923  -4.444  1.00  0.00    -0.000 C 
BRANCH  11  12
ATOM     12  C   UNL     1      -3.005   1.141  -3.158  1.00  0.00    -0.003 C 
ATOM     13  C   UNL     1      -3.739  -0.173  -3.424  1.00  0.00     0.004 C 
ENDBRANCH  11  12
ENDBRANCH  10  11
ENDBRANCH   9  10
ENDBRANCH   8   9
ENDBRANCH   1   8
TORSDOF 9
ENDMDL
MODEL 6
REMARK VINA RESULT:    -4.112      3.904      6.935
REMARK INTER + INTRA:          -6.895
REMARK INTER:                  -6.289
REMARK INTRA:                  -0.606
REMARK UNBOUND:                -0.620
REMARK SMILES CCCCCCCCCCC(=O)[O-]
REMARK SMILES IDX 7 1 8 2 9 3 10 4 11 5 12 6 13 7 6 8 5 9 4 10 3 11 2 12 1 13
REMARK H PARENT
REMARK Flexibility Score: inf
ROOT
ATOM      1  C   UNL     1      -0.235   3.253  -4.433  1.00  0.00     0.000 C 
ENDROOT
BRANCH   1   2
ATOM      2  C   UNL     1      -1.616   2.604  -4.253  1.00  0.00     0.000 C 
BRANCH   2   3
ATOM      3  C   UNL     1      -1.901   2.324  -2.772  1.00  0.00     0.006 C 
BRANCH   3   4
ATOM      4  C   UNL     1      -3.390   2.496  -2.457  1.00  0.00     0.053 C 
BRANCH   4   5
ATOM      5  C   UNL     1      -4.208   1.526  -3.248  1.00  0.00     0.041 C 
ATOM      6  O   UNL     1      -3.966   0.292  -3.183  1.00  0.00    -0.550 OA
ATOM      7  O   UNL     1      -5.206   1.987  -4.098  1.00  0.00    -0.550 OA
ENDBRANCH   4   5
ENDBRANCH   3   4
ENDBRANCH   2   3
ENDBRANCH   1   2
BRANCH   1   8
ATOM      8  C   UNL     1       0.506   3.448  -3.100  1.00  0.00     0.000 C 
BRANCH   8   9
ATOM      9  C   UNL     1       2.033   3.379  -3.256  1.00  0.00    -0.000 C 
BRANCH   9  10
ATOM     10  C   UNL     1       2.532   1.932  -3.123  1.00  0.00    -0.000 C 
BRANCH  10  11
ATOM     11  C   UNL     1       3.719   1.619  -4.052  1.00  0.00    -0.000 C 
BRANCH  11  12
ATOM     12  C   UNL     1       4.045   2.721  -5.076  1.00  0.00    -0.003 C 
ATOM     13  C   UNL     1       4.067   2.211  -6.517  1.00  0.00     0.004 C 
ENDBRANCH  11  12
ENDBRANCH  10  11
ENDBRANCH   9  10
ENDBRANCH   8   9
ENDBRANCH   1   8
TORSDOF 9
ENDMDL
MODEL 7
REMARK VINA RESULT:    -4.097      4.440      6.452
REMARK INTER + INTRA:          -6.872
REMARK INTER:                  -5.738
REMARK INTRA:                  -1.134
REMARK UNBOUND:                -0.620
REMARK SMILES CCCCCCCCCCC(=O)[O-]
REMARK SMILES IDX 7 1 8 2 9 3 10 4 11 5 12 6 13 7 6 8 5 9 4 10 3 11 2 12 1 13
REMARK H PARENT
REMARK Flexibility Score: inf
ROOT
ATOM      1  C   UNL     1      -3.018   2.580  -2.450  1.00  0.00     0.000 C 
ENDROOT
BRANCH   1   2
ATOM      2  C   UNL     1      -4.067   1.577  -2.952  1.00  0.00     0.000 C 
BRANCH   2   3
ATOM      3  C   UNL     1      -3.397   0.326  -3.534  1.00  0.00     0.006 C 
BRANCH   3   4
ATOM      4  C   UNL     1      -4.443  -0.699  -3.982  1.00  0.00     0.053 C 
BRANCH   4   5
ATOM      5  C   UNL     1      -4.046  -2.075  -3.551  1.00  0.00     0.041 C 
ATOM      6  O   UNL     1      -4.926  -2.919  -3.233  1.00  0.00    -0.550 OA
ATOM      7  O   UNL     1      -2.701  -2.413  -3.450  1.00  0.00    -0.550 OA
ENDBRANCH   4   5
ENDBRANCH   3   4
ENDBRANCH   2   3
ENDBRANCH   1   2
BRANCH   1   8
ATOM      8  C   UNL     1      -1.578   2.125  -2.740  1.00  0.00     0.000 C 
BRANCH   8   9
ATOM      9  C   UNL     1      -0.667   3.283  -3.173  1.00  0.00    -0.000 C 
BRANCH   9  10
ATOM     10  C   UNL     1      -1.197   3.950  -4.452  1.00  0.00    -0.000 C 
BRANCH  10  11
ATOM     11  C   UNL     1      -1.046   3.060  -5.699  1.00  0.00    -0.000 C 
BRANCH  11  12
ATOM     12  C   UNL     1      -2.370   2.688  -6.391  1.00  0.00    -0.003 C 
ATOM     13  C   UNL     1      -3.538   3.576  -5.964  1.00  0.00     0.004 C 
ENDBRANCH  11  12
ENDBRANCH  10  11
ENDBRANCH   9  10
ENDBRANCH   8   9
ENDBRANCH   1   8
TORSDOF 9
ENDMDL
MODEL 8
REMARK VINA RESULT:    -4.037      1.490      2.750
REMARK INTER + INTRA:          -6.781
REMARK INTER:                  -5.910
REMARK INTRA:                  -0.870
REMARK UNBOUND:                -0.620
REMARK SMILES CCCCCCCCCCC(=O)[O-]
REMARK SMILES IDX 7 1 8 2 9 3 10 4 11 5 12 6 13 7 6 8 5 9 4 10 3 11 2 12 1 13
REMARK H PARENT
REMARK Flexibility Score: inf
ROOT
ATOM      1  C   UNL     1      -0.949   2.220  -2.671  1.00  0.00     0.000 C 
ENDROOT
BRANCH   1   2
ATOM      2  C   UNL     1      -0.086   3.450  -2.990  1.00  0.00     0.000 C 
BRANCH   2   3
ATOM      3  C   UNL     1       1.173   3.050  -3.768  1.00  0.00     0.006 C 
BRANCH   3   4
ATOM      4  C   UNL     1       2.014   2.046  -2.974  1.00  0.00     0.053 C 
BRANCH   4   5
ATOM      5  C   UNL     1       3.472   2.276  -3.217  1.00  0.00     0.041 C 
ATOM      6  O   UNL     1       4.316   1.978  -2.331  1.00  0.00    -0.550 OA
ATOM      7  O   UNL     1       3.896   2.867  -4.401  1.00  0.00    -0.550 OA
ENDBRANCH   4   5
ENDBRANCH   3   4
ENDBRANCH   2   3
ENDBRANCH   1   2
BRANCH   1   8
ATOM      8  C   UNL     1      -2.348   2.595  -2.157  1.00  0.00     0.000 C 
BRANCH   8   9
ATOM      9  C   UNL     1      -3.417   2.546  -3.259  1.00  0.00    -0.000 C 
BRANCH   9  10
ATOM     10  C   UNL     1      -3.097   1.450  -4.286  1.00  0.00    -0.000 C 
BRANCH  10  11
ATOM     11  C   UNL     1      -3.549   1.813  -5.711  1.00  0.00    -0.000 C 
BRANCH  11  12
ATOM     12  C   UNL     1      -2.937   3.107  -6.274  1.00  0.00    -0.003 C 
ATOM     13  C   UNL     1      -1.420   3.027  -6.444  1.00  0.00     0.004 C 
ENDBRANCH  11  12
ENDBRANCH  10  11
ENDBRANCH   9  10
ENDBRANCH   8   9
ENDBRANCH   1   8
TORSDOF 9
ENDMDL
MODEL 9
REMARK VINA RESULT:    -3.957      4.461      6.969
REMARK INTER + INTRA:          -6.659
REMARK INTER:                  -6.177
REMARK INTRA:                  -0.482
REMARK UNBOUND:                -0.620
REMARK SMILES CCCCCCCCCCC(=O)[O-]
REMARK SMILES IDX 7 1 8 2 9 3 10 4 11 5 12 6 13 7 6 8 5 9 4 10 3 11 2 12 1 13
REMARK H PARENT
REMARK Flexibility Score: inf
ROOT
ATOM      1  C   UNL     1      -3.834   1.908  -3.042  1.00  0.00     0.000 C 
ENDROOT
BRANCH   1   2
ATOM      2  C   UNL     1      -3.338   0.652  -3.773  1.00  0.00     0.000 C 
BRANCH   2   3
ATOM      3  C   UNL     1      -4.372  -0.478  -3.687  1.00  0.00     0.006 C 
BRANCH   3   4
ATOM      4  C   UNL     1      -3.751  -1.747  -3.096  1.00  0.00     0.053 C 
BRANCH   4   5
ATOM      5  C   UNL     1      -3.376  -2.701  -4.185  1.00  0.00     0.041 C 
ATOM      6  O   UNL     1      -2.342  -3.413  -4.075  1.00  0.00    -0.550 OA
ATOM      7  O   UNL     1      -4.139  -2.771  -5.344  1.00  0.00    -0.550 OA
ENDBRANCH   4   5
ENDBRANCH   3   4
ENDBRANCH   2   3
ENDBRANCH   1   2
BRANCH   1   8
ATOM      8  C   UNL     1      -2.731   2.585  -2.213  1.00  0.00     0.000 C 
BRANCH   8   9
ATOM      9  C   UNL     1      -1.319   2.238  -2.710  1.00  0.00    -0.000 C 
BRANCH   9  10
ATOM     10  C   UNL     1      -0.651   3.459  -3.359  1.00  0.00    -0.000 C 
BRANCH  10  11
ATOM     11  C   UNL     1       0.741   3.146  -3.936  1.00  0.00    -0.000 C 
BRANCH  11  12
ATOM     12  C   UNL     1       1.602   2.207  -3.072  1.00  0.00    -0.003 C 
ATOM     13  C   UNL     1       3.016   2.017  -3.621  1.00  0.00     0.004 C 
ENDBRANCH  11  12
ENDBRANCH  10  11
ENDBRANCH   9  10
ENDBRANCH   8   9
ENDBRANCH   1   8
TORSDOF 9
ENDMDL
