MODEL 1
REMARK VINA RESULT:    -3.051      0.000      0.000
REMARK INTER + INTRA:          -8.441
REMARK INTER:                  -5.548
REMARK INTRA:                  -2.894
REMARK UNBOUND:                -2.894
REMARK SMILES CCCCCCCCCCCCCC[C@@H](C)C(=O)[O-]
REMARK SMILES IDX 9 1 10 2 11 3 12 4 13 5 14 6 15 7 16 8 17 9 18 10 19 11 8 12
REMARK SMILES IDX 7 13 6 14 5 15 4 16 3 17 2 18 1 19
REMARK H PARENT
REMARK Flexibility Score: inf
ROOT
ATOM      1  C   UNL     1      51.862  53.241  51.442  1.00  0.00     0.000 C 
ENDROOT
BRANCH   1   2
ATOM      2  C   UNL     1      52.389  52.155  50.497  1.00  0.00     0.000 C 
BRANCH   2   3
ATOM      3  C   UNL     1      52.310  52.615  49.033  1.00  0.00     0.000 C 
BRANCH   3   4
ATOM      4  C   UNL     1      53.572  52.255  48.232  1.00  0.00     0.000 C 
BRANCH   4   5
ATOM      5  C   UNL     1      53.759  53.146  46.992  1.00  0.00     0.001 C 
BRANCH   5   6
ATOM      6  C   UNL     1      53.053  54.508  47.118  1.00  0.00     0.009 C 
BRANCH   6   7
ATOM      7  C   UNL     1      53.702  55.655  46.306  1.00  0.00     0.032 C 
ATOM      8  C   UNL     1      54.958  55.203  45.548  1.00  0.00     0.014 C 
BRANCH   7   9
ATOM      9  C   UNL     1      52.698  56.221  45.339  1.00  0.00     0.044 C 
ATOM     10  O   UNL     1      53.065  56.647  44.210  1.00  0.00    -0.550 OA
ATOM     11  O   UNL     1      51.353  56.268  45.682  1.00  0.00    -0.550 OA
ENDBRANCH   7   9
ENDBRANCH   6   7
ENDBRANCH   5   6
ENDBRANCH   4   5
ENDBRANCH   3   4
ENDBRANCH   2   3
ENDBRANCH   1   2
BRANCH   1  12
ATOM     12  C   UNL     1      52.906  54.350  51.642  1.00  0.00     0.000 C 
BRANCH  12  13
ATOM     13  C   UNL     1      52.484  55.680  50.998  1.00  0.00    -0.000 C 
BRANCH  13  14
ATOM     14  C   UNL     1      53.615  56.326  50.179  1.00  0.00    -0.000 C 
BRANCH  14  15
ATOM     15  C   UNL     1      55.004  55.764  50.530  1.00  0.00    -0.000 C 
BRANCH  15  16
ATOM     16  C   UNL     1      55.862  55.361  49.316  1.00  0.00    -0.000 C 
BRANCH  16  17
ATOM     17  C   UNL     1      56.477  53.957  49.459  1.00  0.00    -0.000 C 
BRANCH  17  18
ATOM     18  C   UNL     1      56.269  53.366  50.861  1.00  0.00    -0.003 C 
ATOM     19  C   UNL     1      56.196  51.839  50.852  1.00  0.00     0.004 C 
ENDBRANCH  17  18
ENDBRANCH  16  17
ENDBRANCH  15  16
ENDBRANCH  14  15
ENDBRANCH  13  14
ENDBRANCH  12  13
ENDBRANCH   1  12
TORSDOF 14
ENDMDL
MODEL 2
REMARK VINA RESULT:    -3.029      3.385      5.745
REMARK INTER + INTRA:          -8.402
REMARK INTER:                  -5.761
REMARK INTRA:                  -2.641
REMARK UNBOUND:                -2.894
REMARK SMILES CCCCCCCCCCCCCC[C@@H](C)C(=O)[O-]
REMARK SMILES IDX 9 1 10 2 11 3 12 4 13 5 14 6 15 7 16 8 17 9 18 10 19 11 8 12
REMARK SMILES IDX 7 13 6 14 5 15 4 16 3 17 2 18 1 19
REMARK H PARENT
REMARK Flexibility Score: inf
ROOT
ATOM      1  C   UNL     1      54.759  53.765  48.124  1.00  0.00     0.000 C 
ENDROOT
BRANCH   1   2
ATOM      2  C   UNL     1      53.521  53.362  47.314  1.00  0.00     0.000 C 
BRANCH   2   3
ATOM      3  C   UNL     1      52.749  52.234  48.014  1.00  0.00     0.000 C 
BRANCH   3   4
ATOM      4  C   UNL     1      53.213  52.011  49.462  1.00  0.00     0.000 C 
BRANCH   4   5
ATOM      5  C   UNL     1      52.052  52.061  50.471  1.00  0.00     0.001 C 
BRANCH   5   6
ATOM      6  C   UNL     1      52.111  53.291  51.394  1.00  0.00     0.009 C 
BRANCH   6   7
ATOM      7  C   UNL     1      53.539  53.782  51.735  1.00  0.00     0.032 C 
ATOM      8  C   UNL     1      53.568  55.254  52.167  1.00  0.00     0.014 C 
BRANCH   7   9
ATOM      9  C   UNL     1      54.124  52.920  52.820  1.00  0.00     0.044 C 
ATOM     10  O   UNL     1      53.682  52.984  53.999  1.00  0.00    -0.550 OA
ATOM     11  O   UNL     1      55.155  52.036  52.524  1.00  0.00    -0.550 OA
ENDBRANCH   7   9
ENDBRANCH   6   7
ENDBRANCH   5   6
ENDBRANCH   4   5
ENDBRANCH   3   4
ENDBRANCH   2   3
ENDBRANCH   1   2
BRANCH   1  12
ATOM     12  C   UNL     1      54.686  55.241  48.542  1.00  0.00     0.000 C 
BRANCH  12  13
ATOM     13  C   UNL     1      53.247  55.782  48.546  1.00  0.00    -0.000 C 
BRANCH  13  14
ATOM     14  C   UNL     1      53.186  57.301  48.307  1.00  0.00    -0.000 C 
BRANCH  14  15
ATOM     15  C   UNL     1      52.661  57.665  46.908  1.00  0.00    -0.000 C 
BRANCH  15  16
ATOM     16  C   UNL     1      51.994  56.503  46.146  1.00  0.00    -0.000 C 
BRANCH  16  17
ATOM     17  C   UNL     1      52.710  56.165  44.827  1.00  0.00    -0.000 C 
BRANCH  17  18
ATOM     18  C   UNL     1      54.130  56.748  44.763  1.00  0.00    -0.003 C 
ATOM     19  C   UNL     1      55.213  55.678  44.899  1.00  0.00     0.004 C 
ENDBRANCH  17  18
ENDBRANCH  16  17
ENDBRANCH  15  16
ENDBRANCH  14  15
ENDBRANCH  13  14
ENDBRANCH  12  13
ENDBRANCH   1  12
TORSDOF 14
ENDMDL
MODEL 3
REMARK VINA RESULT:    -2.977      2.939      5.441
REMARK INTER + INTRA:          -8.307
REMARK INTER:                  -5.747
REMARK INTRA:                  -2.560
REMARK UNBOUND:                -2.894
REMARK SMILES CCCCCCCCCCCCCC[C@@H](C)C(=O)[O-]
REMARK SMILES IDX 9 1 10 2 11 3 12 4 13 5 14 6 15 7 16 8 17 9 18 10 19 11 8 12
REMARK SMILES IDX 7 13 6 14 5 15 4 16 3 17 2 18 1 19
REMARK H PARENT
REMARK Flexibility Score: inf
ROOT
ATOM      1  C   UNL     1      55.058  54.568  45.569  1.00  0.00     0.000 C 
ENDROOT
BRANCH   1   2
ATOM      2  C   UNL     1      55.631  54.584  46.991  1.00  0.00     0.000 C 
BRANCH   2   3
ATOM      3  C   UNL     1      54.703  53.842  47.965  1.00  0.00     0.000 C 
BRANCH   3   4
ATOM      4  C   UNL     1      53.617  53.029  47.243  1.00  0.00     0.000 C 
BRANCH   4   5
ATOM      5  C   UNL     1      52.613  52.386  48.216  1.00  0.00     0.001 C 
BRANCH   5   6
ATOM      6  C   UNL     1      52.347  53.248  49.463  1.00  0.00     0.009 C 
BRANCH   6   7
ATOM      7  C   UNL     1      52.329  52.471  50.801  1.00  0.00     0.032 C 
ATOM      8  C   UNL     1      52.501  50.958  50.605  1.00  0.00     0.014 C 
BRANCH   7   9
ATOM      9  C   UNL     1      53.409  52.996  51.706  1.00  0.00     0.044 C 
ATOM     10  O   UNL     1      54.619  52.945  51.356  1.00  0.00    -0.550 OA
ATOM     11  O   UNL     1      53.076  53.552  52.935  1.00  0.00    -0.550 OA
ENDBRANCH   7   9
ENDBRANCH   6   7
ENDBRANCH   5   6
ENDBRANCH   4   5
ENDBRANCH   3   4
ENDBRANCH   2   3
ENDBRANCH   1   2
BRANCH   1  12
ATOM     12  C   UNL     1      54.609  55.973  45.142  1.00  0.00     0.000 C 
BRANCH  12  13
ATOM     13  C   UNL     1      53.087  56.073  44.949  1.00  0.00    -0.000 C 
BRANCH  13  14
ATOM     14  C   UNL     1      52.350  56.464  46.242  1.00  0.00    -0.000 C 
BRANCH  14  15
ATOM     15  C   UNL     1      52.997  57.661  46.961  1.00  0.00    -0.000 C 
BRANCH  15  16
ATOM     16  C   UNL     1      52.899  57.621  48.497  1.00  0.00    -0.000 C 
BRANCH  16  17
ATOM     17  C   UNL     1      54.243  57.297  49.173  1.00  0.00    -0.000 C 
BRANCH  17  18
ATOM     18  C   UNL     1      54.072  56.461  50.450  1.00  0.00    -0.003 C 
ATOM     19  C   UNL     1      52.695  56.637  51.090  1.00  0.00     0.004 C 
ENDBRANCH  17  18
ENDBRANCH  16  17
ENDBRANCH  15  16
ENDBRANCH  14  15
ENDBRANCH  13  14
ENDBRANCH  12  13
ENDBRANCH   1  12
TORSDOF 14
ENDMDL
MODEL 4
REMARK VINA RESULT:    -2.964      1.216      2.081
REMARK INTER + INTRA:          -8.283
REMARK INTER:                  -5.811
REMARK INTRA:                  -2.472
REMARK UNBOUND:                -2.894
REMARK SMILES CCCCCCCCCCCCCC[C@@H](C)C(=O)[O-]
REMARK SMILES IDX 9 1 10 2 11 3 12 4 13 5 14 6 15 7 16 8 17 9 18 10 19 11 8 12
REMARK SMILES IDX 7 13 6 14 5 15 4 16 3 17 2 18 1 19
REMARK H PARENT
REMARK Flexibility Score: inf
ROOT
ATOM      1  C   UNL     1      51.964  52.930  51.301  1.00  0.00     0.000 C 
ENDROOT
BRANCH   1   2
ATOM      2  C   UNL     1      52.349  52.156  50.035  1.00  0.00     0.000 C 
BRANCH   2   3
ATOM      3  C   UNL     1      52.314  53.070  48.801  1.00  0.00     0.000 C 
BRANCH   3   4
ATOM      4  C   UNL     1      53.108  52.494  47.618  1.00  0.00     0.000 C 
BRANCH   4   5
ATOM      5  C   UNL     1      53.913  53.568  46.865  1.00  0.00     0.001 C 
BRANCH   5   6
ATOM      6  C   UNL     1      53.734  54.978  47.457  1.00  0.00     0.009 C 
BRANCH   6   7
ATOM      7  C   UNL     1      53.759  56.127  46.421  1.00  0.00     0.032 C 
ATOM      8  C   UNL     1      54.251  55.666  45.042  1.00  0.00     0.014 C 
BRANCH   7   9
ATOM      9  C   UNL     1      52.386  56.729  46.299  1.00  0.00     0.044 C 
ATOM     10  O   UNL     1      52.034  57.679  47.048  1.00  0.00    -0.550 OA
ATOM     11  O   UNL     1      51.498  56.244  45.347  1.00  0.00    -0.550 OA
ENDBRANCH   7   9
ENDBRANCH   6   7
ENDBRANCH   5   6
ENDBRANCH   4   5
ENDBRANCH   3   4
ENDBRANCH   2   3
ENDBRANCH   1   2
BRANCH   1  12
ATOM     12  C   UNL     1      52.443  54.387  51.222  1.00  0.00     0.000 C 
BRANCH  12  13
ATOM     13  C   UNL     1      53.507  54.716  52.282  1.00  0.00    -0.000 C 
BRANCH  13  14
ATOM     14  C   UNL     1      53.623  53.628  53.363  1.00  0.00    -0.000 C 
BRANCH  14  15
ATOM     15  C   UNL     1      55.080  53.235  53.662  1.00  0.00    -0.000 C 
BRANCH  15  16
ATOM     16  C   UNL     1      56.015  53.248  52.438  1.00  0.00    -0.000 C 
BRANCH  16  17
ATOM     17  C   UNL     1      55.836  52.015  51.535  1.00  0.00    -0.000 C 
BRANCH  17  18
ATOM     18  C   UNL     1      56.015  52.347  50.046  1.00  0.00    -0.003 C 
ATOM     19  C   UNL     1      56.254  53.836  49.798  1.00  0.00     0.004 C 
ENDBRANCH  17  18
ENDBRANCH  16  17
ENDBRANCH  15  16
ENDBRANCH  14  15
ENDBRANCH  13  14
ENDBRANCH  12  13
ENDBRANCH   1  12
TORSDOF 14
ENDMDL
MODEL 5
REMARK VINA RESULT:    -2.939      1.924      3.587
REMARK INTER + INTRA:          -8.237
REMARK INTER:                  -5.996
REMARK INTRA:                  -2.241
REMARK UNBOUND:                -2.894
REMARK SMILES CCCCCCCCCCCCCC[C@@H](C)C(=O)[O-]
REMARK SMILES IDX 9 1 10 2 11 3 12 4 13 5 14 6 15 7 16 8 17 9 18 10 19 11 8 12
REMARK SMILES IDX 7 13 6 14 5 15 4 16 3 17 2 18 1 19
REMARK H PARENT
REMARK Flexibility Score: inf
ROOT
ATOM      1  C   UNL     1      54.913  52.566  48.546  1.00  0.00     0.000 C 
ENDROOT
BRANCH   1   2
ATOM      2  C   UNL     1      55.990  52.618  47.455  1.00  0.00     0.000 C 
BRANCH   2   3
ATOM      3  C   UNL     1      55.393  53.075  46.115  1.00  0.00     0.000 C 
BRANCH   3   4
ATOM      4  C   UNL     1      56.223  54.182  45.447  1.00  0.00     0.000 C 
BRANCH   4   5
ATOM      5  C   UNL     1      55.374  55.405  45.058  1.00  0.00     0.001 C 
BRANCH   5   6
ATOM      6  C   UNL     1      53.919  55.309  45.552  1.00  0.00     0.009 C 
BRANCH   6   7
ATOM      7  C   UNL     1      53.092  56.608  45.401  1.00  0.00     0.032 C 
ATOM      8  C   UNL     1      51.588  56.374  45.597  1.00  0.00     0.014 C 
BRANCH   7   9
ATOM      9  C   UNL     1      53.582  57.637  46.382  1.00  0.00     0.044 C 
ATOM     10  O   UNL     1      54.228  58.645  45.985  1.00  0.00    -0.550 OA
ATOM     11  O   UNL     1      53.315  57.487  47.737  1.00  0.00    -0.550 OA
ENDBRANCH   7   9
ENDBRANCH   6   7
ENDBRANCH   5   6
ENDBRANCH   4   5
ENDBRANCH   3   4
ENDBRANCH   2   3
ENDBRANCH   1   2
BRANCH   1  12
ATOM     12  C   UNL     1      53.520  52.356  47.934  1.00  0.00     0.000 C 
BRANCH  12  13
ATOM     13  C   UNL     1      52.489  53.372  48.450  1.00  0.00    -0.000 C 
BRANCH  13  14
ATOM     14  C   UNL     1      53.098  54.382  49.439  1.00  0.00    -0.000 C 
BRANCH  14  15
ATOM     15  C   UNL     1      52.370  54.405  50.794  1.00  0.00    -0.000 C 
BRANCH  15  16
ATOM     16  C   UNL     1      52.075  53.015  51.391  1.00  0.00    -0.000 C 
BRANCH  16  17
ATOM     17  C   UNL     1      53.267  52.436  52.173  1.00  0.00    -0.000 C 
BRANCH  17  18
ATOM     18  C   UNL     1      53.717  51.071  51.630  1.00  0.00    -0.003 C 
ATOM     19  C   UNL     1      52.598  50.327  50.902  1.00  0.00     0.004 C 
ENDBRANCH  17  18
ENDBRANCH  16  17
ENDBRANCH  15  16
ENDBRANCH  14  15
ENDBRANCH  13  14
ENDBRANCH  12  13
ENDBRANCH   1  12
TORSDOF 14
ENDMDL
MODEL 6
REMARK VINA RESULT:    -2.906      1.291      3.014
REMARK INTER + INTRA:          -8.178
REMARK INTER:                  -5.697
REMARK INTRA:                  -2.481
REMARK UNBOUND:                -2.894
REMARK SMILES CCCCCCCCCCCCCC[C@@H](C)C(=O)[O-]
REMARK SMILES IDX 9 1 10 2 11 3 12 4 13 5 14 6 15 7 16 8 17 9 18 10 19 11 8 12
REMARK SMILES IDX 7 13 6 14 5 15 4 16 3 17 2 18 1 19
REMARK H PARENT
REMARK Flexibility Score: inf
ROOT
ATOM      1  C   UNL     1      54.960  51.196  49.569  1.00  0.00     0.000 C 
ENDROOT
BRANCH   1   2
ATOM      2  C   UNL     1      55.858  52.426  49.401  1.00  0.00     0.000 C 
BRANCH   2   3
ATOM      3  C   UNL     1      55.518  53.184  48.108  1.00  0.00     0.000 C 
BRANCH   3   4
ATOM      4  C   UNL     1      54.334  52.559  47.353  1.00  0.00     0.000 C 
BRANCH   4   5
ATOM      5  C   UNL     1      53.177  53.552  47.141  1.00  0.00     0.001 C 
BRANCH   5   6
ATOM      6  C   UNL     1      53.652  54.932  46.650  1.00  0.00     0.009 C 
BRANCH   6   7
ATOM      7  C   UNL     1      52.558  56.026  46.626  1.00  0.00     0.032 C 
ATOM      8  C   UNL     1      53.033  57.347  47.245  1.00  0.00     0.014 C 
BRANCH   7   9
ATOM      9  C   UNL     1      52.105  56.257  45.210  1.00  0.00     0.044 C 
ATOM     10  O   UNL     1      52.911  56.122  44.250  1.00  0.00    -0.550 OA
ATOM     11  O   UNL     1      50.788  56.614  44.952  1.00  0.00    -0.550 OA
ENDBRANCH   7   9
ENDBRANCH   6   7
ENDBRANCH   5   6
ENDBRANCH   4   5
ENDBRANCH   3   4
ENDBRANCH   2   3
ENDBRANCH   1   2
BRANCH   1  12
ATOM     12  C   UNL     1      54.170  51.267  50.884  1.00  0.00     0.000 C 
BRANCH  12  13
ATOM     13  C   UNL     1      52.654  51.124  50.671  1.00  0.00    -0.000 C 
BRANCH  13  14
ATOM     14  C   UNL     1      51.871  52.366  51.131  1.00  0.00    -0.000 C 
BRANCH  14  15
ATOM     15  C   UNL     1      52.231  53.630  50.330  1.00  0.00    -0.000 C 
BRANCH  15  16
ATOM     16  C   UNL     1      52.422  54.899  51.181  1.00  0.00    -0.000 C 
BRANCH  16  17
ATOM     17  C   UNL     1      53.444  55.877  50.576  1.00  0.00    -0.000 C 
BRANCH  17  18
ATOM     18  C   UNL     1      54.891  55.521  50.952  1.00  0.00    -0.003 C 
ATOM     19  C   UNL     1      54.996  54.857  52.325  1.00  0.00     0.004 C 
ENDBRANCH  17  18
ENDBRANCH  16  17
ENDBRANCH  15  16
ENDBRANCH  14  15
ENDBRANCH  13  14
ENDBRANCH  12  13
ENDBRANCH   1  12
TORSDOF 14
ENDMDL
MODEL 7
REMARK VINA RESULT:    -2.899      2.906      5.422
REMARK INTER + INTRA:          -8.166
REMARK INTER:                  -5.618
REMARK INTRA:                  -2.547
REMARK UNBOUND:                -2.894
REMARK SMILES CCCCCCCCCCCCCC[C@@H](C)C(=O)[O-]
REMARK SMILES IDX 9 1 10 2 11 3 12 4 13 5 14 6 15 7 16 8 17 9 18 10 19 11 8 12
REMARK SMILES IDX 7 13 6 14 5 15 4 16 3 17 2 18 1 19
REMARK H PARENT
REMARK Flexibility Score: inf
ROOT
ATOM      1  C   UNL     1      53.250  55.700  48.566  1.00  0.00     0.000 C 
ENDROOT
BRANCH   1   2
ATOM      2  C   UNL     1      54.702  55.210  48.614  1.00  0.00     0.000 C 
BRANCH   2   3
ATOM      3  C   UNL     1      54.813  53.769  48.093  1.00  0.00     0.000 C 
BRANCH   3   4
ATOM      4  C   UNL     1      53.605  53.356  47.238  1.00  0.00     0.000 C 
BRANCH   4   5
ATOM      5  C   UNL     1      52.803  52.202  47.865  1.00  0.00     0.001 C 
BRANCH   5   6
ATOM      6  C   UNL     1      53.538  51.527  49.037  1.00  0.00     0.009 C 
BRANCH   6   7
ATOM      7  C   UNL     1      52.704  51.383  50.332  1.00  0.00     0.032 C 
ATOM      8  C   UNL     1      53.196  50.234  51.224  1.00  0.00     0.014 C 
BRANCH   7   9
ATOM      9  C   UNL     1      52.734  52.676  51.100  1.00  0.00     0.044 C 
ATOM     10  O   UNL     1      51.663  53.280  51.380  1.00  0.00    -0.550 OA
ATOM     11  O   UNL     1      53.947  53.208  51.516  1.00  0.00    -0.550 OA
ENDBRANCH   7   9
ENDBRANCH   6   7
ENDBRANCH   5   6
ENDBRANCH   4   5
ENDBRANCH   3   4
ENDBRANCH   2   3
ENDBRANCH   1   2
BRANCH   1  12
ATOM     12  C   UNL     1      53.189  57.232  48.485  1.00  0.00     0.000 C 
BRANCH  12  13
ATOM     13  C   UNL     1      52.688  57.731  47.119  1.00  0.00    -0.000 C 
BRANCH  13  14
ATOM     14  C   UNL     1      52.160  56.592  46.230  1.00  0.00    -0.000 C 
BRANCH  14  15
ATOM     15  C   UNL     1      52.849  56.538  44.855  1.00  0.00    -0.000 C 
BRANCH  15  16
ATOM     16  C   UNL     1      54.256  55.913  44.862  1.00  0.00    -0.000 C 
BRANCH  16  17
ATOM     17  C   UNL     1      55.373  56.952  44.658  1.00  0.00    -0.000 C 
BRANCH  17  18
ATOM     18  C   UNL     1      56.474  56.847  45.724  1.00  0.00    -0.003 C 
ATOM     19  C   UNL     1      56.414  57.980  46.748  1.00  0.00     0.004 C 
ENDBRANCH  17  18
ENDBRANCH  16  17
ENDBRANCH  15  16
ENDBRANCH  14  15
ENDBRANCH  13  14
ENDBRANCH  12  13
ENDBRANCH   1  12
TORSDOF 14
ENDMDL
MODEL 8
REMARK VINA RESULT:    -2.866      1.259      3.043
REMARK INTER + INTRA:          -8.105
REMARK INTER:                  -4.986
REMARK INTRA:                  -3.119
REMARK UNBOUND:                -2.894
REMARK SMILES CCCCCCCCCCCCCC[C@@H](C)C(=O)[O-]
REMARK SMILES IDX 9 1 10 2 11 3 12 4 13 5 14 6 15 7 16 8 17 9 18 10 19 11 8 12
REMARK SMILES IDX 7 13 6 14 5 15 4 16 3 17 2 18 1 19
REMARK H PARENT
REMARK Flexibility Score: inf
ROOT
ATOM      1  C   UNL     1      56.465  53.125  48.610  1.00  0.00     0.000 C 
ENDROOT
BRANCH   1   2
ATOM      2  C   UNL     1      55.411  52.032  48.397  1.00  0.00     0.000 C 
BRANCH   2   3
ATOM      3  C   UNL     1      54.510  52.364  47.197  1.00  0.00     0.000 C 
BRANCH   3   4
ATOM      4  C   UNL     1      53.193  53.036  47.616  1.00  0.00     0.000 C 
BRANCH   4   5
ATOM      5  C   UNL     1      53.064  54.472  47.078  1.00  0.00     0.001 C 
BRANCH   5   6
ATOM      6  C   UNL     1      54.103  54.803  45.992  1.00  0.00     0.009 C 
BRANCH   6   7
ATOM      7  C   UNL     1      54.857  56.139  46.196  1.00  0.00     0.032 C 
ATOM      8  C   UNL     1      56.381  55.962  46.188  1.00  0.00     0.014 C 
BRANCH   7   9
ATOM      9  C   UNL     1      54.451  57.117  45.127  1.00  0.00     0.044 C 
ATOM     10  O   UNL     1      55.284  57.940  44.662  1.00  0.00    -0.550 OA
ATOM     11  O   UNL     1      53.150  57.111  44.639  1.00  0.00    -0.550 OA
ENDBRANCH   7   9
ENDBRANCH   6   7
ENDBRANCH   5   6
ENDBRANCH   4   5
ENDBRANCH   3   4
ENDBRANCH   2   3
ENDBRANCH   1   2
BRANCH   1  12
ATOM     12  C   UNL     1      56.241  53.852  49.945  1.00  0.00     0.000 C 
BRANCH  12  13
ATOM     13  C   UNL     1      55.870  55.331  49.756  1.00  0.00    -0.000 C 
BRANCH  13  14
ATOM     14  C   UNL     1      54.430  55.642  50.201  1.00  0.00    -0.000 C 
BRANCH  14  15
ATOM     15  C   UNL     1      53.856  54.578  51.153  1.00  0.00    -0.000 C 
BRANCH  15  16
ATOM     16  C   UNL     1      52.327  54.402  51.077  1.00  0.00    -0.000 C 
BRANCH  16  17
ATOM     17  C   UNL     1      51.892  52.927  51.133  1.00  0.00    -0.000 C 
BRANCH  17  18
ATOM     18  C   UNL     1      53.084  51.968  51.263  1.00  0.00    -0.003 C 
ATOM     19  C   UNL     1      52.764  50.558  50.767  1.00  0.00     0.004 C 
ENDBRANCH  17  18
ENDBRANCH  16  17
ENDBRANCH  15  16
ENDBRANCH  14  15
ENDBRANCH  13  14
ENDBRANCH  12  13
ENDBRANCH   1  12
TORSDOF 14
ENDMDL
MODEL 9
REMARK VINA RESULT:    -2.850      2.225      4.388
REMARK INTER + INTRA:          -8.076
REMARK INTER:                  -5.667
REMARK INTRA:                  -2.409
REMARK UNBOUND:                -2.894
REMARK SMILES CCCCCCCCCCCCCC[C@@H](C)C(=O)[O-]
REMARK SMILES IDX 9 1 10 2 11 3 12 4 13 5 14 6 15 7 16 8 17 9 18 10 19 11 8 12
REMARK SMILES IDX 7 13 6 14 5 15 4 16 3 17 2 18 1 19
REMARK H PARENT
REMARK Flexibility Score: inf
ROOT
ATOM      1  C   UNL     1      54.318  54.353  48.331  1.00  0.00     0.000 C 
ENDROOT
BRANCH   1   2
ATOM      2  C   UNL     1      55.546  54.627  47.454  1.00  0.00     0.000 C 
BRANCH   2   3
ATOM      3  C   UNL     1      55.299  54.175  46.006  1.00  0.00     0.000 C 
BRANCH   3   4
ATOM      4  C   UNL     1      55.453  55.323  44.996  1.00  0.00     0.000 C 
BRANCH   4   5
ATOM      5  C   UNL     1      54.175  56.171  44.864  1.00  0.00     0.001 C 
BRANCH   5   6
ATOM      6  C   UNL     1      54.394  57.649  45.237  1.00  0.00     0.009 C 
BRANCH   6   7
ATOM      7  C   UNL     1      53.666  58.111  46.522  1.00  0.00     0.032 C 
ATOM      8  C   UNL     1      52.457  57.229  46.863  1.00  0.00     0.014 C 
BRANCH   7   9
ATOM      9  C   UNL     1      54.631  58.123  47.675  1.00  0.00     0.044 C 
ATOM     10  O   UNL     1      54.226  57.925  48.852  1.00  0.00    -0.550 OA
ATOM     11  O   UNL     1      55.983  58.345  47.446  1.00  0.00    -0.550 OA
ENDBRANCH   7   9
ENDBRANCH   6   7
ENDBRANCH   5   6
ENDBRANCH   4   5
ENDBRANCH   3   4
ENDBRANCH   2   3
ENDBRANCH   1   2
BRANCH   1  12
ATOM     12  C   UNL     1      53.206  53.671  47.522  1.00  0.00     0.000 C 
BRANCH  12  13
ATOM     13  C   UNL     1      52.348  52.726  48.379  1.00  0.00    -0.000 C 
BRANCH  13  14
ATOM     14  C   UNL     1      53.192  51.848  49.319  1.00  0.00    -0.000 C 
BRANCH  14  15
ATOM     15  C   UNL     1      52.503  51.583  50.669  1.00  0.00    -0.000 C 
BRANCH  15  16
ATOM     16  C   UNL     1      51.953  52.840  51.370  1.00  0.00    -0.000 C 
BRANCH  16  17
ATOM     17  C   UNL     1      52.951  53.453  52.367  1.00  0.00    -0.000 C 
BRANCH  17  18
ATOM     18  C   UNL     1      53.409  54.859  51.949  1.00  0.00    -0.003 C 
ATOM     19  C   UNL     1      52.309  55.653  51.246  1.00  0.00     0.004 C 
ENDBRANCH  17  18
ENDBRANCH  16  17
ENDBRANCH  15  16
ENDBRANCH  14  15
ENDBRANCH  13  14
ENDBRANCH  12  13
ENDBRANCH   1  12
TORSDOF 14
ENDMDL
