MODEL 1
REMARK VINA RESULT:    30.056      0.000      0.000
REMARK INTER + INTRA:          33.882
REMARK INTER:                  32.692
REMARK INTRA:                   1.190
REMARK UNBOUND:                 1.190
REMARK SMILES C=C(C)[C@@H]1CC[C@@]2(C)CC[C@@]3(C)[C@@H](CC[C@H]4[C@]5(C)CC[C@H](O)C(C)(C)[C@@H]5CC[C@]43C)[C@H]12
REMARK SMILES IDX 4 1 5 2 6 3 7 4 31 5 13 6 14 7 15 8 16 9 17 10 19 11 20 12
REMARK SMILES IDX 21 13 23 14 26 15 27 16 28 17 29 18 11 19 10 20 9 21 12 22
REMARK SMILES IDX 30 23 24 24 25 25 18 26 8 27 2 28 3 29 1 30 22 31
REMARK H PARENT 22 32
REMARK Flexibility Score: inf
ROOT
ATOM      1  C   UNL     1      13.942 -30.749  13.549  1.00  0.00     0.018 C 
ATOM      2  C   UNL     1      15.112 -30.073  14.307  1.00  0.00     0.009 C 
ATOM      3  C   UNL     1      14.515 -29.446  15.586  1.00  0.00     0.008 C 
ATOM      4  C   UNL     1      13.273 -30.296  15.897  1.00  0.00    -0.029 C 
ATOM      5  C   UNL     1      12.724 -30.547  14.484  1.00  0.00     0.006 C 
ATOM      6  C   UNL     1      11.457 -31.448  14.444  1.00  0.00    -0.000 C 
ATOM      7  C   UNL     1      10.956 -31.644  12.999  1.00  0.00     0.005 C 
ATOM      8  C   UNL     1       9.533 -32.227  12.889  1.00  0.00     0.005 C 
ATOM      9  C   UNL     1       8.966 -32.938  14.158  1.00  0.00     0.002 C 
ATOM     10  C   UNL     1       9.244 -34.519  14.178  1.00  0.00    -0.026 C 
ATOM     11  C   UNL     1       8.649 -35.176  12.877  1.00  0.00     0.010 C 
ATOM     12  C   UNL     1       8.362 -36.670  13.013  1.00  0.00     0.033 C 
ATOM     13  C   UNL     1       7.276 -36.978  14.066  1.00  0.00     0.120 C 
ATOM     14  C   UNL     1       7.203 -35.930  15.247  1.00  0.00    -0.006 C 
ATOM     15  C   UNL     1       8.614 -35.219  15.455  1.00  0.00     0.003 C 
ATOM     16  C   UNL     1       8.686 -34.354  16.750  1.00  0.00     0.005 C 
ATOM     17  C   UNL     1       9.547 -33.085  16.673  1.00  0.00     0.008 C 
ATOM     18  C   UNL     1       9.181 -32.096  15.518  1.00  0.00    -0.024 C 
ATOM     19  C   UNL     1      10.303 -30.911  15.378  1.00  0.00    -0.024 C 
ATOM     20  C   UNL     1      10.898 -30.456  16.782  1.00  0.00     0.008 C 
ATOM     21  C   UNL     1      12.171 -29.572  16.701  1.00  0.00     0.007 C 
ATOM     22  C   UNL     1       9.676 -29.595  14.775  1.00  0.00     0.012 C 
ATOM     23  C   UNL     1       7.812 -31.453  15.929  1.00  0.00     0.012 C 
ATOM     24  C   UNL     1       6.820 -36.722  16.527  1.00  0.00     0.014 C 
ATOM     25  C   UNL     1       6.056 -34.905  15.004  1.00  0.00     0.014 C 
ATOM     26  C   UNL     1      10.775 -34.835  14.141  1.00  0.00     0.012 C 
ATOM     27  C   UNL     1      13.737 -31.557  16.687  1.00  0.00     0.011 C 
ENDROOT
BRANCH   1  28
ATOM     28  C   UNL     1      14.251 -32.172  13.060  1.00  0.00    -0.077 C 
ATOM     29  C   UNL     1      13.178 -33.217  12.875  1.00  0.00     0.039 C 
ATOM     30  C   UNL     1      15.533 -32.541  12.877  1.00  0.00     0.008 C 
ENDBRANCH   1  28
BRANCH  13  31
ATOM     31  O   UNL     1       6.017 -37.124  13.451  1.00  0.00    -0.393 OA
ATOM     32  H   UNL     1       6.065 -37.892  12.820  1.00  0.00     0.210 HD
ENDBRANCH  13  31
TORSDOF 2
ENDMDL
