MODEL 1
REMARK VINA RESULT:    -1.622      0.000      0.000
REMARK INTER + INTRA:          -2.358
REMARK INTER:                  -2.096
REMARK INTRA:                  -0.263
REMARK UNBOUND:                -0.263
REMARK SMILES CCCCCCC(=O)[O-]
REMARK SMILES IDX 5 1 6 2 7 3 8 4 9 5 4 6 3 7 2 8 1 9
REMARK H PARENT
REMARK Flexibility Score: inf
ROOT
ATOM      1  C   UNL     1     139.679  56.709 -11.955  1.00  0.00     0.006 C 
ENDROOT
BRANCH   1   2
ATOM      2  C   UNL     1     140.124  55.558 -12.867  1.00  0.00     0.053 C 
BRANCH   2   3
ATOM      3  C   UNL     1     139.354  54.302 -12.595  1.00  0.00     0.041 C 
ATOM      4  O   UNL     1     139.201  53.895 -11.413  1.00  0.00    -0.550 OA
ATOM      5  O   UNL     1     138.781  53.596 -13.646  1.00  0.00    -0.550 OA
ENDBRANCH   2   3
ENDBRANCH   1   2
BRANCH   1   6
ATOM      6  C   UNL     1     140.556  56.823 -10.697  1.00  0.00     0.000 C 
BRANCH   6   7
ATOM      7  C   UNL     1     139.730  56.840  -9.401  1.00  0.00    -0.000 C 
BRANCH   7   8
ATOM      8  C   UNL     1     138.241  57.118  -9.650  1.00  0.00    -0.003 C 
ATOM      9  C   UNL     1     137.363  56.126  -8.892  1.00  0.00     0.004 C 
ENDBRANCH   7   8
ENDBRANCH   6   7
ENDBRANCH   1   6
TORSDOF 5
ENDMDL
MODEL 2
REMARK VINA RESULT:    -1.596      1.182      1.989
REMARK INTER + INTRA:          -2.325
REMARK INTER:                  -1.932
REMARK INTRA:                  -0.393
REMARK UNBOUND:                -0.263
REMARK SMILES CCCCCCC(=O)[O-]
REMARK SMILES IDX 5 1 6 2 7 3 8 4 9 5 4 6 3 7 2 8 1 9
REMARK H PARENT
REMARK Flexibility Score: inf
ROOT
ATOM      1  C   UNL     1     140.729  54.796 -13.014  1.00  0.00     0.006 C 
ENDROOT
BRANCH   1   2
ATOM      2  C   UNL     1     139.340  54.166 -13.177  1.00  0.00     0.053 C 
BRANCH   2   3
ATOM      3  C   UNL     1     139.142  53.007 -12.248  1.00  0.00     0.041 C 
ATOM      4  O   UNL     1     139.667  53.014 -11.104  1.00  0.00    -0.550 OA
ATOM      5  O   UNL     1     138.351  51.932 -12.637  1.00  0.00    -0.550 OA
ENDBRANCH   2   3
ENDBRANCH   1   2
BRANCH   1   6
ATOM      6  C   UNL     1     140.677  56.333 -13.052  1.00  0.00     0.000 C 
BRANCH   6   7
ATOM      7  C   UNL     1     139.556  56.908 -12.171  1.00  0.00    -0.000 C 
BRANCH   7   8
ATOM      8  C   UNL     1     139.873  56.812 -10.672  1.00  0.00    -0.003 C 
ATOM      9  C   UNL     1     138.712  56.186  -9.904  1.00  0.00     0.004 C 
ENDBRANCH   7   8
ENDBRANCH   6   7
ENDBRANCH   1   6
TORSDOF 5
ENDMDL
MODEL 3
REMARK VINA RESULT:    -1.579      3.090      4.528
REMARK INTER + INTRA:          -2.303
REMARK INTER:                  -2.103
REMARK INTRA:                  -0.201
REMARK UNBOUND:                -0.263
REMARK SMILES CCCCCCC(=O)[O-]
REMARK SMILES IDX 5 1 6 2 7 3 8 4 9 5 4 6 3 7 2 8 1 9
REMARK H PARENT
REMARK Flexibility Score: inf
ROOT
ATOM      1  C   UNL     1     138.271  55.745  -9.223  1.00  0.00     0.006 C 
ENDROOT
BRANCH   1   2
ATOM      2  C   UNL     1     137.330  56.956  -9.186  1.00  0.00     0.053 C 
BRANCH   2   3
ATOM      3  C   UNL     1     136.014  56.619  -8.552  1.00  0.00     0.041 C 
ATOM      4  O   UNL     1     135.970  56.198  -7.366  1.00  0.00    -0.550 OA
ATOM      5  O   UNL     1     134.834  56.799  -9.263  1.00  0.00    -0.550 OA
ENDBRANCH   2   3
ENDBRANCH   1   2
BRANCH   1   6
ATOM      6  C   UNL     1     139.346  55.879 -10.314  1.00  0.00     0.000 C 
BRANCH   6   7
ATOM      7  C   UNL     1     139.143  57.123 -11.194  1.00  0.00    -0.000 C 
BRANCH   7   8
ATOM      8  C   UNL     1     139.610  56.907 -12.641  1.00  0.00    -0.003 C 
ATOM      9  C   UNL     1     140.178  55.503 -12.831  1.00  0.00     0.004 C 
ENDBRANCH   7   8
ENDBRANCH   6   7
ENDBRANCH   1   6
TORSDOF 5
ENDMDL
MODEL 4
REMARK VINA RESULT:    -1.572      2.225      3.258
REMARK INTER + INTRA:          -2.295
REMARK INTER:                  -1.958
REMARK INTRA:                  -0.337
REMARK UNBOUND:                -0.263
REMARK SMILES CCCCCCC(=O)[O-]
REMARK SMILES IDX 5 1 6 2 7 3 8 4 9 5 4 6 3 7 2 8 1 9
REMARK H PARENT
REMARK Flexibility Score: inf
ROOT
ATOM      1  C   UNL     1     139.566  54.355 -11.644  1.00  0.00     0.006 C 
ENDROOT
BRANCH   1   2
ATOM      2  C   UNL     1     139.193  54.041 -13.099  1.00  0.00     0.053 C 
BRANCH   2   3
ATOM      3  C   UNL     1     140.219  53.172 -13.762  1.00  0.00     0.041 C 
ATOM      4  O   UNL     1     141.377  53.613 -13.982  1.00  0.00    -0.550 OA
ATOM      5  O   UNL     1     139.902  51.864 -14.109  1.00  0.00    -0.550 OA
ENDBRANCH   2   3
ENDBRANCH   1   2
BRANCH   1   6
ATOM      6  C   UNL     1     139.776  55.860 -11.412  1.00  0.00     0.000 C 
BRANCH   6   7
ATOM      7  C   UNL     1     139.774  56.666 -12.721  1.00  0.00    -0.000 C 
BRANCH   7   8
ATOM      8  C   UNL     1     141.184  57.086 -13.160  1.00  0.00    -0.003 C 
ATOM      9  C   UNL     1     142.141  57.123 -11.971  1.00  0.00     0.004 C 
ENDBRANCH   7   8
ENDBRANCH   6   7
ENDBRANCH   1   6
TORSDOF 5
ENDMDL
MODEL 5
REMARK VINA RESULT:    -1.488      1.887      2.215
REMARK INTER + INTRA:          -2.185
REMARK INTER:                  -1.796
REMARK INTRA:                  -0.389
REMARK UNBOUND:                -0.263
REMARK SMILES CCCCCCC(=O)[O-]
REMARK SMILES IDX 5 1 6 2 7 3 8 4 9 5 4 6 3 7 2 8 1 9
REMARK H PARENT
REMARK Flexibility Score: inf
ROOT
ATOM      1  C   UNL     1     139.143  57.123 -11.127  1.00  0.00     0.006 C 
ENDROOT
BRANCH   1   2
ATOM      2  C   UNL     1     139.490  57.125 -12.622  1.00  0.00     0.053 C 
BRANCH   2   3
ATOM      3  C   UNL     1     140.231  55.886 -13.024  1.00  0.00     0.041 C 
ATOM      4  O   UNL     1     139.676  54.759 -12.941  1.00  0.00    -0.550 OA
ATOM      5  O   UNL     1     141.526  55.981 -13.518  1.00  0.00    -0.550 OA
ENDBRANCH   2   3
ENDBRANCH   1   2
BRANCH   1   6
ATOM      6  C   UNL     1     140.390  56.952 -10.244  1.00  0.00     0.000 C 
BRANCH   6   7
ATOM      7  C   UNL     1     140.187  55.913  -9.129  1.00  0.00    -0.000 C 
BRANCH   7   8
ATOM      8  C   UNL     1     139.091  54.892  -9.464  1.00  0.00    -0.003 C 
ATOM      9  C   UNL     1     139.692  53.525  -9.783  1.00  0.00     0.004 C 
ENDBRANCH   7   8
ENDBRANCH   6   7
ENDBRANCH   1   6
TORSDOF 5
ENDMDL
MODEL 6
REMARK VINA RESULT:    -1.329      2.189      4.138
REMARK INTER + INTRA:          -1.980
REMARK INTER:                  -1.787
REMARK INTRA:                  -0.193
REMARK UNBOUND:                -0.263
REMARK SMILES CCCCCCC(=O)[O-]
REMARK SMILES IDX 5 1 6 2 7 3 8 4 9 5 4 6 3 7 2 8 1 9
REMARK H PARENT
REMARK Flexibility Score: inf
ROOT
ATOM      1  C   UNL     1     139.546  56.306 -10.552  1.00  0.00     0.006 C 
ENDROOT
BRANCH   1   2
ATOM      2  C   UNL     1     138.372  57.125 -10.000  1.00  0.00     0.053 C 
BRANCH   2   3
ATOM      3  C   UNL     1     137.646  56.395  -8.911  1.00  0.00     0.041 C 
ATOM      4  O   UNL     1     136.671  56.935  -8.326  1.00  0.00    -0.550 OA
ATOM      5  O   UNL     1     138.031  55.106  -8.562  1.00  0.00    -0.550 OA
ENDBRANCH   2   3
ENDBRANCH   1   2
BRANCH   1   6
ATOM      6  C   UNL     1     139.958  56.761 -11.962  1.00  0.00     0.000 C 
BRANCH   6   7
ATOM      7  C   UNL     1     139.888  55.624 -12.994  1.00  0.00    -0.000 C 
BRANCH   7   8
ATOM      8  C   UNL     1     139.498  54.278 -12.367  1.00  0.00    -0.003 C 
ATOM      9  C   UNL     1     138.833  53.365 -13.394  1.00  0.00     0.004 C 
ENDBRANCH   7   8
ENDBRANCH   6   7
ENDBRANCH   1   6
TORSDOF 5
ENDMDL
MODEL 7
REMARK VINA RESULT:     0.142      2.234      2.781
REMARK INTER + INTRA:          -0.079
REMARK INTER:                   0.276
REMARK INTRA:                  -0.355
REMARK UNBOUND:                -0.263
REMARK SMILES CCCCCCC(=O)[O-]
REMARK SMILES IDX 5 1 6 2 7 3 8 4 9 5 4 6 3 7 2 8 1 9
REMARK H PARENT
REMARK Flexibility Score: inf
ROOT
ATOM      1  C   UNL     1     139.563  54.553 -11.840  1.00  0.00     0.006 C 
ENDROOT
BRANCH   1   2
ATOM      2  C   UNL     1     140.870  55.204 -12.312  1.00  0.00     0.053 C 
BRANCH   2   3
ATOM      3  C   UNL     1     140.623  56.511 -13.003  1.00  0.00     0.041 C 
ATOM      4  O   UNL     1     139.537  57.124 -12.833  1.00  0.00    -0.550 OA
ATOM      5  O   UNL     1     141.607  57.065 -13.813  1.00  0.00    -0.550 OA
ENDBRANCH   2   3
ENDBRANCH   1   2
BRANCH   1   6
ATOM      6  C   UNL     1     139.442  54.542 -10.307  1.00  0.00     0.000 C 
BRANCH   6   7
ATOM      7  C   UNL     1     138.748  55.800  -9.760  1.00  0.00    -0.000 C 
BRANCH   7   8
ATOM      8  C   UNL     1     139.508  56.432  -8.586  1.00  0.00    -0.003 C 
ATOM      9  C   UNL     1     140.781  57.125  -9.065  1.00  0.00     0.004 C 
ENDBRANCH   7   8
ENDBRANCH   6   7
ENDBRANCH   1   6
TORSDOF 5
ENDMDL
