MODEL 1
REMARK VINA RESULT:    -4.848      0.000      0.000
REMARK INTER + INTRA:         -14.660
REMARK INTER:                 -11.084
REMARK INTRA:                  -3.576
REMARK UNBOUND:                -3.576
REMARK SMILES CCCCCCCCCCCCCCCCCCCCCCCC(=O)[O-]
REMARK SMILES IDX 13 1 14 2 15 3 16 4 17 5 18 6 19 7 20 8 21 9 22 10 23 11
REMARK SMILES IDX 24 12 25 13 26 14 12 15 11 16 10 17 9 18 8 19 7 20 6 21 5 22
REMARK SMILES IDX 4 23 3 24 2 25 1 26
REMARK H PARENT
REMARK Flexibility Score: inf
ROOT
ATOM      1  C   UNL     1     181.438 183.588 180.436  1.00  0.00     0.000 C 
ENDROOT
BRANCH   1   2
ATOM      2  C   UNL     1     182.035 184.866 181.054  1.00  0.00     0.000 C 
BRANCH   2   3
ATOM      3  C   UNL     1     183.575 184.964 180.987  1.00  0.00     0.000 C 
BRANCH   3   4
ATOM      4  C   UNL     1     184.335 184.161 182.059  1.00  0.00     0.000 C 
BRANCH   4   5
ATOM      5  C   UNL     1     185.823 183.894 181.749  1.00  0.00     0.000 C 
BRANCH   5   6
ATOM      6  C   UNL     1     186.189 182.398 181.666  1.00  0.00     0.000 C 
BRANCH   6   7
ATOM      7  C   UNL     1     185.329 181.631 180.646  1.00  0.00     0.000 C 
BRANCH   7   8
ATOM      8  C   UNL     1     184.383 180.611 181.306  1.00  0.00     0.000 C 
BRANCH   8   9
ATOM      9  C   UNL     1     184.571 180.437 182.824  1.00  0.00     0.000 C 
BRANCH   9  10
ATOM     10  C   UNL     1     183.244 180.488 183.602  1.00  0.00     0.006 C 
BRANCH  10  11
ATOM     11  C   UNL     1     182.459 181.778 183.328  1.00  0.00     0.053 C 
BRANCH  11  12
ATOM     12  C   UNL     1     181.831 182.325 184.576  1.00  0.00     0.041 C 
ATOM     13  O   UNL     1     181.143 183.379 184.529  1.00  0.00    -0.550 OA
ATOM     14  O   UNL     1     182.014 181.677 185.792  1.00  0.00    -0.550 OA
ENDBRANCH  11  12
ENDBRANCH  10  11
ENDBRANCH   9  10
ENDBRANCH   8   9
ENDBRANCH   7   8
ENDBRANCH   6   7
ENDBRANCH   5   6
ENDBRANCH   4   5
ENDBRANCH   3   4
ENDBRANCH   2   3
ENDBRANCH   1   2
BRANCH   1  15
ATOM     15  C   UNL     1     182.329 182.982 179.342  1.00  0.00     0.000 C 
BRANCH  15  16
ATOM     16  C   UNL     1     181.585 181.872 178.585  1.00  0.00     0.000 C 
BRANCH  16  17
ATOM     17  C   UNL     1     180.597 181.109 179.482  1.00  0.00     0.000 C 
BRANCH  17  18
ATOM     18  C   UNL     1     181.199 179.815 180.049  1.00  0.00    -0.000 C 
BRANCH  18  19
ATOM     19  C   UNL     1     180.449 179.370 181.308  1.00  0.00    -0.000 C 
BRANCH  19  20
ATOM     20  C   UNL     1     179.729 180.552 181.976  1.00  0.00    -0.000 C 
BRANCH  20  21
ATOM     21  C   UNL     1     178.221 180.286 182.167  1.00  0.00    -0.000 C 
BRANCH  21  22
ATOM     22  C   UNL     1     177.315 181.387 181.581  1.00  0.00    -0.000 C 
BRANCH  22  23
ATOM     23  C   UNL     1     177.985 182.763 181.423  1.00  0.00    -0.000 C 
BRANCH  23  24
ATOM     24  C   UNL     1     178.396 183.436 182.747  1.00  0.00    -0.000 C 
BRANCH  24  25
ATOM     25  C   UNL     1     177.200 183.815 183.644  1.00  0.00    -0.003 C 
ATOM     26  C   UNL     1     177.606 184.730 184.799  1.00  0.00     0.004 C 
ENDBRANCH  24  25
ENDBRANCH  23  24
ENDBRANCH  22  23
ENDBRANCH  21  22
ENDBRANCH  20  21
ENDBRANCH  19  20
ENDBRANCH  18  19
ENDBRANCH  17  18
ENDBRANCH  16  17
ENDBRANCH  15  16
ENDBRANCH   1  15
TORSDOF 22
ENDMDL
MODEL 2
REMARK VINA RESULT:    -4.678      1.986      4.312
REMARK INTER + INTRA:         -14.271
REMARK INTER:                 -10.698
REMARK INTRA:                  -3.573
REMARK UNBOUND:                -3.576
REMARK SMILES CCCCCCCCCCCCCCCCCCCCCCCC(=O)[O-]
REMARK SMILES IDX 13 1 14 2 15 3 16 4 17 5 18 6 19 7 20 8 21 9 22 10 23 11
REMARK SMILES IDX 24 12 25 13 26 14 12 15 11 16 10 17 9 18 8 19 7 20 6 21 5 22
REMARK SMILES IDX 4 23 3 24 2 25 1 26
REMARK H PARENT
REMARK Flexibility Score: inf
ROOT
ATOM      1  C   UNL     1     185.753 181.310 181.517  1.00  0.00     0.000 C 
ENDROOT
BRANCH   1   2
ATOM      2  C   UNL     1     186.444 182.676 181.347  1.00  0.00     0.000 C 
BRANCH   2   3
ATOM      3  C   UNL     1     185.751 183.852 182.069  1.00  0.00     0.000 C 
BRANCH   3   4
ATOM      4  C   UNL     1     184.212 183.855 181.998  1.00  0.00     0.000 C 
BRANCH   4   5
ATOM      5  C   UNL     1     183.605 184.765 180.911  1.00  0.00     0.000 C 
BRANCH   5   6
ATOM      6  C   UNL     1     182.520 184.081 180.053  1.00  0.00     0.000 C 
BRANCH   6   7
ATOM      7  C   UNL     1     182.977 182.727 179.484  1.00  0.00     0.000 C 
BRANCH   7   8
ATOM      8  C   UNL     1     182.050 182.201 178.372  1.00  0.00     0.000 C 
BRANCH   8   9
ATOM      9  C   UNL     1     181.025 181.145 178.825  1.00  0.00     0.000 C 
BRANCH   9  10
ATOM     10  C   UNL     1     181.210 180.722 180.293  1.00  0.00     0.006 C 
BRANCH  10  11
ATOM     11  C   UNL     1     182.062 179.454 180.430  1.00  0.00     0.053 C 
BRANCH  11  12
ATOM     12  C   UNL     1     181.301 178.337 181.081  1.00  0.00     0.041 C 
ATOM     13  O   UNL     1     180.048 178.275 180.969  1.00  0.00    -0.550 OA
ATOM     14  O   UNL     1     181.974 177.371 181.820  1.00  0.00    -0.550 OA
ENDBRANCH  11  12
ENDBRANCH  10  11
ENDBRANCH   9  10
ENDBRANCH   8   9
ENDBRANCH   7   8
ENDBRANCH   6   7
ENDBRANCH   5   6
ENDBRANCH   4   5
ENDBRANCH   3   4
ENDBRANCH   2   3
ENDBRANCH   1   2
BRANCH   1  15
ATOM     15  C   UNL     1     186.267 180.530 182.736  1.00  0.00     0.000 C 
BRANCH  15  16
ATOM     16  C   UNL     1     185.108 180.155 183.671  1.00  0.00     0.000 C 
BRANCH  16  17
ATOM     17  C   UNL     1     183.735 180.494 183.072  1.00  0.00     0.000 C 
BRANCH  17  18
ATOM     18  C   UNL     1     182.823 181.223 184.069  1.00  0.00    -0.000 C 
BRANCH  18  19
ATOM     19  C   UNL     1     181.489 181.598 183.418  1.00  0.00    -0.000 C 
BRANCH  19  20
ATOM     20  C   UNL     1     181.173 183.089 183.611  1.00  0.00    -0.000 C 
BRANCH  20  21
ATOM     21  C   UNL     1     180.104 183.594 182.619  1.00  0.00    -0.000 C 
BRANCH  21  22
ATOM     22  C   UNL     1     178.683 183.654 183.213  1.00  0.00    -0.000 C 
BRANCH  22  23
ATOM     23  C   UNL     1     177.582 183.046 182.327  1.00  0.00    -0.000 C 
BRANCH  23  24
ATOM     24  C   UNL     1     178.001 181.781 181.555  1.00  0.00    -0.000 C 
BRANCH  24  25
ATOM     25  C   UNL     1     178.018 180.505 182.422  1.00  0.00    -0.003 C 
ATOM     26  C   UNL     1     176.787 179.630 182.192  1.00  0.00     0.004 C 
ENDBRANCH  24  25
ENDBRANCH  23  24
ENDBRANCH  22  23
ENDBRANCH  21  22
ENDBRANCH  20  21
ENDBRANCH  19  20
ENDBRANCH  18  19
ENDBRANCH  17  18
ENDBRANCH  16  17
ENDBRANCH  15  16
ENDBRANCH   1  15
TORSDOF 22
ENDMDL
MODEL 3
REMARK VINA RESULT:    -4.606      3.339      6.845
REMARK INTER + INTRA:         -14.106
REMARK INTER:                 -10.527
REMARK INTRA:                  -3.580
REMARK UNBOUND:                -3.576
REMARK SMILES CCCCCCCCCCCCCCCCCCCCCCCC(=O)[O-]
REMARK SMILES IDX 13 1 14 2 15 3 16 4 17 5 18 6 19 7 20 8 21 9 22 10 23 11
REMARK SMILES IDX 24 12 25 13 26 14 12 15 11 16 10 17 9 18 8 19 7 20 6 21 5 22
REMARK SMILES IDX 4 23 3 24 2 25 1 26
REMARK H PARENT
REMARK Flexibility Score: inf
ROOT
ATOM      1  C   UNL     1     182.073 182.085 184.509  1.00  0.00     0.000 C 
ENDROOT
BRANCH   1   2
ATOM      2  C   UNL     1     181.202 182.220 183.246  1.00  0.00     0.000 C 
BRANCH   2   3
ATOM      3  C   UNL     1     180.484 183.578 183.091  1.00  0.00     0.000 C 
BRANCH   3   4
ATOM      4  C   UNL     1     178.994 183.497 182.709  1.00  0.00     0.000 C 
BRANCH   4   5
ATOM      5  C   UNL     1     178.711 183.109 181.244  1.00  0.00     0.000 C 
BRANCH   5   6
ATOM      6  C   UNL     1     178.007 181.746 181.080  1.00  0.00     0.000 C 
BRANCH   6   7
ATOM      7  C   UNL     1     177.507 181.170 182.416  1.00  0.00     0.000 C 
BRANCH   7   8
ATOM      8  C   UNL     1     177.460 179.630 182.424  1.00  0.00     0.000 C 
BRANCH   8   9
ATOM      9  C   UNL     1     176.314 179.010 181.605  1.00  0.00     0.000 C 
BRANCH   9  10
ATOM     10  C   UNL     1     175.388 178.118 182.452  1.00  0.00     0.006 C 
BRANCH  10  11
ATOM     11  C   UNL     1     175.733 176.629 182.319  1.00  0.00     0.053 C 
BRANCH  11  12
ATOM     12  C   UNL     1     174.944 175.785 183.275  1.00  0.00     0.041 C 
ATOM     13  O   UNL     1     174.217 174.851 182.844  1.00  0.00    -0.550 OA
ATOM     14  O   UNL     1     175.002 176.036 184.641  1.00  0.00    -0.550 OA
ENDBRANCH  11  12
ENDBRANCH  10  11
ENDBRANCH   9  10
ENDBRANCH   8   9
ENDBRANCH   7   8
ENDBRANCH   6   7
ENDBRANCH   5   6
ENDBRANCH   4   5
ENDBRANCH   3   4
ENDBRANCH   2   3
ENDBRANCH   1   2
BRANCH   1  15
ATOM     15  C   UNL     1     182.930 180.811 184.509  1.00  0.00     0.000 C 
BRANCH  15  16
ATOM     16  C   UNL     1     183.414 180.479 183.090  1.00  0.00     0.000 C 
BRANCH  16  17
ATOM     17  C   UNL     1     184.940 180.589 182.948  1.00  0.00     0.000 C 
BRANCH  17  18
ATOM     18  C   UNL     1     185.361 181.248 181.627  1.00  0.00    -0.000 C 
BRANCH  18  19
ATOM     19  C   UNL     1     185.347 182.775 181.749  1.00  0.00    -0.000 C 
BRANCH  19  20
ATOM     20  C   UNL     1     184.113 183.378 181.060  1.00  0.00    -0.000 C 
BRANCH  20  21
ATOM     21  C   UNL     1     183.545 182.452 179.963  1.00  0.00    -0.000 C 
BRANCH  21  22
ATOM     22  C   UNL     1     182.067 182.724 179.623  1.00  0.00    -0.000 C 
BRANCH  22  23
ATOM     23  C   UNL     1     181.210 181.467 179.396  1.00  0.00    -0.000 C 
BRANCH  23  24
ATOM     24  C   UNL     1     181.783 180.176 180.012  1.00  0.00    -0.000 C 
BRANCH  24  25
ATOM     25  C   UNL     1     180.786 179.431 180.923  1.00  0.00    -0.003 C 
ATOM     26  C   UNL     1     181.257 178.019 181.268  1.00  0.00     0.004 C 
ENDBRANCH  24  25
ENDBRANCH  23  24
ENDBRANCH  22  23
ENDBRANCH  21  22
ENDBRANCH  20  21
ENDBRANCH  19  20
ENDBRANCH  18  19
ENDBRANCH  17  18
ENDBRANCH  16  17
ENDBRANCH  15  16
ENDBRANCH   1  15
TORSDOF 22
ENDMDL
MODEL 4
REMARK VINA RESULT:    -4.551      1.793      6.120
REMARK INTER + INTRA:         -13.980
REMARK INTER:                 -10.472
REMARK INTRA:                  -3.508
REMARK UNBOUND:                -3.576
REMARK SMILES CCCCCCCCCCCCCCCCCCCCCCCC(=O)[O-]
REMARK SMILES IDX 13 1 14 2 15 3 16 4 17 5 18 6 19 7 20 8 21 9 22 10 23 11
REMARK SMILES IDX 24 12 25 13 26 14 12 15 11 16 10 17 9 18 8 19 7 20 6 21 5 22
REMARK SMILES IDX 4 23 3 24 2 25 1 26
REMARK H PARENT
REMARK Flexibility Score: inf
ROOT
ATOM      1  C   UNL     1     177.555 183.454 182.664  1.00  0.00     0.000 C 
ENDROOT
BRANCH   1   2
ATOM      2  C   UNL     1     178.043 182.466 181.588  1.00  0.00     0.000 C 
BRANCH   2   3
ATOM      3  C   UNL     1     177.593 181.004 181.793  1.00  0.00     0.000 C 
BRANCH   3   4
ATOM      4  C   UNL     1     178.730 179.969 181.886  1.00  0.00     0.000 C 
BRANCH   4   5
ATOM      5  C   UNL     1     180.134 180.501 181.531  1.00  0.00     0.000 C 
BRANCH   5   6
ATOM      6  C   UNL     1     180.586 180.171 180.093  1.00  0.00     0.000 C 
BRANCH   6   7
ATOM      7  C   UNL     1     180.572 181.399 179.168  1.00  0.00     0.000 C 
BRANCH   7   8
ATOM      8  C   UNL     1     181.924 181.640 178.471  1.00  0.00     0.000 C 
BRANCH   8   9
ATOM      9  C   UNL     1     182.695 182.880 178.958  1.00  0.00     0.000 C 
BRANCH   9  10
ATOM     10  C   UNL     1     182.274 183.331 180.369  1.00  0.00     0.006 C 
BRANCH  10  11
ATOM     11  C   UNL     1     181.631 184.724 180.368  1.00  0.00     0.053 C 
BRANCH  11  12
ATOM     12  C   UNL     1     182.527 185.753 180.988  1.00  0.00     0.041 C 
ATOM     13  O   UNL     1     183.775 185.682 180.835  1.00  0.00    -0.550 OA
ATOM     14  O   UNL     1     181.985 186.786 181.744  1.00  0.00    -0.550 OA
ENDBRANCH  11  12
ENDBRANCH  10  11
ENDBRANCH   9  10
ENDBRANCH   8   9
ENDBRANCH   7   8
ENDBRANCH   6   7
ENDBRANCH   5   6
ENDBRANCH   4   5
ENDBRANCH   3   4
ENDBRANCH   2   3
ENDBRANCH   1   2
BRANCH   1  15
ATOM     15  C   UNL     1     178.673 183.896 183.619  1.00  0.00     0.000 C 
BRANCH  15  16
ATOM     16  C   UNL     1     180.045 183.439 183.101  1.00  0.00     0.000 C 
BRANCH  16  17
ATOM     17  C   UNL     1     181.033 183.139 184.239  1.00  0.00     0.000 C 
BRANCH  17  18
ATOM     18  C   UNL     1     182.376 182.602 183.724  1.00  0.00    -0.000 C 
BRANCH  18  19
ATOM     19  C   UNL     1     182.548 181.123 184.086  1.00  0.00    -0.000 C 
BRANCH  19  20
ATOM     20  C   UNL     1     183.777 180.519 183.389  1.00  0.00    -0.000 C 
BRANCH  20  21
ATOM     21  C   UNL     1     183.622 180.486 181.853  1.00  0.00    -0.000 C 
BRANCH  21  22
ATOM     22  C   UNL     1     184.927 180.785 181.090  1.00  0.00    -0.000 C 
BRANCH  22  23
ATOM     23  C   UNL     1     185.939 181.659 181.851  1.00  0.00    -0.000 C 
BRANCH  23  24
ATOM     24  C   UNL     1     185.744 183.176 181.672  1.00  0.00    -0.000 C 
BRANCH  24  25
ATOM     25  C   UNL     1     186.756 184.027 182.466  1.00  0.00    -0.003 C 
ATOM     26  C   UNL     1     187.633 184.887 181.557  1.00  0.00     0.004 C 
ENDBRANCH  24  25
ENDBRANCH  23  24
ENDBRANCH  22  23
ENDBRANCH  21  22
ENDBRANCH  20  21
ENDBRANCH  19  20
ENDBRANCH  18  19
ENDBRANCH  17  18
ENDBRANCH  16  17
ENDBRANCH  15  16
ENDBRANCH   1  15
TORSDOF 22
ENDMDL
MODEL 5
REMARK VINA RESULT:    -4.537      2.538      4.830
REMARK INTER + INTRA:         -13.947
REMARK INTER:                 -10.643
REMARK INTRA:                  -3.304
REMARK UNBOUND:                -3.576
REMARK SMILES CCCCCCCCCCCCCCCCCCCCCCCC(=O)[O-]
REMARK SMILES IDX 13 1 14 2 15 3 16 4 17 5 18 6 19 7 20 8 21 9 22 10 23 11
REMARK SMILES IDX 24 12 25 13 26 14 12 15 11 16 10 17 9 18 8 19 7 20 6 21 5 22
REMARK SMILES IDX 4 23 3 24 2 25 1 26
REMARK H PARENT
REMARK Flexibility Score: inf
ROOT
ATOM      1  C   UNL     1     183.231 180.752 184.488  1.00  0.00     0.000 C 
ENDROOT
BRANCH   1   2
ATOM      2  C   UNL     1     183.569 180.454 183.015  1.00  0.00     0.000 C 
BRANCH   2   3
ATOM      3  C   UNL     1     184.998 180.849 182.582  1.00  0.00     0.000 C 
BRANCH   3   4
ATOM      4  C   UNL     1     185.082 181.791 181.366  1.00  0.00     0.000 C 
BRANCH   4   5
ATOM      5  C   UNL     1     184.419 183.170 181.555  1.00  0.00     0.000 C 
BRANCH   5   6
ATOM      6  C   UNL     1     183.254 183.447 180.581  1.00  0.00     0.000 C 
BRANCH   6   7
ATOM      7  C   UNL     1     183.242 182.485 179.380  1.00  0.00     0.000 C 
BRANCH   7   8
ATOM      8  C   UNL     1     181.864 182.396 178.698  1.00  0.00     0.000 C 
BRANCH   8   9
ATOM      9  C   UNL     1     180.942 181.287 179.235  1.00  0.00     0.000 C 
BRANCH   9  10
ATOM     10  C   UNL     1     181.701 180.212 180.034  1.00  0.00     0.006 C 
BRANCH  10  11
ATOM     11  C   UNL     1     180.861 179.640 181.184  1.00  0.00     0.053 C 
BRANCH  11  12
ATOM     12  C   UNL     1     180.817 178.142 181.151  1.00  0.00     0.041 C 
ATOM     13  O   UNL     1     179.858 177.549 180.591  1.00  0.00    -0.550 OA
ATOM     14  O   UNL     1     181.829 177.400 181.750  1.00  0.00    -0.550 OA
ENDBRANCH  11  12
ENDBRANCH  10  11
ENDBRANCH   9  10
ENDBRANCH   8   9
ENDBRANCH   7   8
ENDBRANCH   6   7
ENDBRANCH   5   6
ENDBRANCH   4   5
ENDBRANCH   3   4
ENDBRANCH   2   3
ENDBRANCH   1   2
BRANCH   1  15
ATOM     15  C   UNL     1     182.207 181.885 184.647  1.00  0.00     0.000 C 
BRANCH  15  16
ATOM     16  C   UNL     1     181.406 182.082 183.352  1.00  0.00     0.000 C 
BRANCH  16  17
ATOM     17  C   UNL     1     180.848 183.507 183.217  1.00  0.00     0.000 C 
BRANCH  17  18
ATOM     18  C   UNL     1     179.699 183.594 182.201  1.00  0.00    -0.000 C 
BRANCH  18  19
ATOM     19  C   UNL     1     178.342 183.462 182.898  1.00  0.00    -0.000 C 
BRANCH  19  20
ATOM     20  C   UNL     1     177.319 182.754 181.997  1.00  0.00    -0.000 C 
BRANCH  20  21
ATOM     21  C   UNL     1     177.836 181.393 181.484  1.00  0.00    -0.000 C 
BRANCH  21  22
ATOM     22  C   UNL     1     177.399 180.195 182.350  1.00  0.00    -0.000 C 
BRANCH  22  23
ATOM     23  C   UNL     1     176.204 179.397 181.801  1.00  0.00    -0.000 C 
BRANCH  23  24
ATOM     24  C   UNL     1     176.290 177.874 182.020  1.00  0.00    -0.000 C 
BRANCH  24  25
ATOM     25  C   UNL     1     174.956 177.238 182.461  1.00  0.00    -0.003 C 
ATOM     26  C   UNL     1     175.153 175.877 183.127  1.00  0.00     0.004 C 
ENDBRANCH  24  25
ENDBRANCH  23  24
ENDBRANCH  22  23
ENDBRANCH  21  22
ENDBRANCH  20  21
ENDBRANCH  19  20
ENDBRANCH  18  19
ENDBRANCH  17  18
ENDBRANCH  16  17
ENDBRANCH  15  16
ENDBRANCH   1  15
TORSDOF 22
ENDMDL
MODEL 6
REMARK VINA RESULT:    -4.504      1.832      5.441
REMARK INTER + INTRA:         -13.872
REMARK INTER:                  -9.945
REMARK INTRA:                  -3.927
REMARK UNBOUND:                -3.576
REMARK SMILES CCCCCCCCCCCCCCCCCCCCCCCC(=O)[O-]
REMARK SMILES IDX 13 1 14 2 15 3 16 4 17 5 18 6 19 7 20 8 21 9 22 10 23 11
REMARK SMILES IDX 24 12 25 13 26 14 12 15 11 16 10 17 9 18 8 19 7 20 6 21 5 22
REMARK SMILES IDX 4 23 3 24 2 25 1 26
REMARK H PARENT
REMARK Flexibility Score: inf
ROOT
ATOM      1  C   UNL     1     186.438 182.316 180.952  1.00  0.00     0.000 C 
ENDROOT
BRANCH   1   2
ATOM      2  C   UNL     1     186.096 180.880 181.391  1.00  0.00     0.000 C 
BRANCH   2   3
ATOM      3  C   UNL     1     186.254 180.604 182.902  1.00  0.00     0.000 C 
BRANCH   3   4
ATOM      4  C   UNL     1     184.984 180.109 183.619  1.00  0.00     0.000 C 
BRANCH   4   5
ATOM      5  C   UNL     1     183.653 180.490 182.938  1.00  0.00     0.000 C 
BRANCH   5   6
ATOM      6  C   UNL     1     182.659 181.220 183.866  1.00  0.00     0.000 C 
BRANCH   6   7
ATOM      7  C   UNL     1     181.478 181.841 183.100  1.00  0.00     0.000 C 
BRANCH   7   8
ATOM      8  C   UNL     1     180.903 183.089 183.796  1.00  0.00     0.000 C 
BRANCH   8   9
ATOM      9  C   UNL     1     179.748 183.778 183.046  1.00  0.00     0.000 C 
BRANCH   9  10
ATOM     10  C   UNL     1     179.288 182.993 181.805  1.00  0.00     0.006 C 
BRANCH  10  11
ATOM     11  C   UNL     1     177.806 182.599 181.882  1.00  0.00     0.053 C 
BRANCH  11  12
ATOM     12  C   UNL     1     177.626 181.111 181.926  1.00  0.00     0.041 C 
ATOM     13  O   UNL     1     178.501 180.382 182.463  1.00  0.00    -0.550 OA
ATOM     14  O   UNL     1     176.496 180.527 181.364  1.00  0.00    -0.550 OA
ENDBRANCH  11  12
ENDBRANCH  10  11
ENDBRANCH   9  10
ENDBRANCH   8   9
ENDBRANCH   7   8
ENDBRANCH   6   7
ENDBRANCH   5   6
ENDBRANCH   4   5
ENDBRANCH   3   4
ENDBRANCH   2   3
ENDBRANCH   1   2
BRANCH   1  15
ATOM     15  C   UNL     1     186.500 183.300 182.129  1.00  0.00     0.000 C 
BRANCH  15  16
ATOM     16  C   UNL     1     185.436 184.396 181.980  1.00  0.00     0.000 C 
BRANCH  16  17
ATOM     17  C   UNL     1     184.031 183.824 181.739  1.00  0.00     0.000 C 
BRANCH  17  18
ATOM     18  C   UNL     1     183.107 184.817 181.021  1.00  0.00    -0.000 C 
BRANCH  18  19
ATOM     19  C   UNL     1     182.279 184.113 179.942  1.00  0.00    -0.000 C 
BRANCH  19  20
ATOM     20  C   UNL     1     182.869 182.737 179.596  1.00  0.00    -0.000 C 
BRANCH  20  21
ATOM     21  C   UNL     1     182.356 182.204 178.241  1.00  0.00    -0.000 C 
BRANCH  21  22
ATOM     22  C   UNL     1     181.156 181.244 178.364  1.00  0.00    -0.000 C 
BRANCH  22  23
ATOM     23  C   UNL     1     180.860 180.753 179.791  1.00  0.00    -0.000 C 
BRANCH  23  24
ATOM     24  C   UNL     1     181.698 179.540 180.242  1.00  0.00    -0.000 C 
BRANCH  24  25
ATOM     25  C   UNL     1     180.948 178.596 181.205  1.00  0.00    -0.003 C 
ATOM     26  C   UNL     1     181.783 177.376 181.589  1.00  0.00     0.004 C 
ENDBRANCH  24  25
ENDBRANCH  23  24
ENDBRANCH  22  23
ENDBRANCH  21  22
ENDBRANCH  20  21
ENDBRANCH  19  20
ENDBRANCH  18  19
ENDBRANCH  17  18
ENDBRANCH  16  17
ENDBRANCH  15  16
ENDBRANCH   1  15
TORSDOF 22
ENDMDL
MODEL 7
REMARK VINA RESULT:    -4.481      3.271      5.123
REMARK INTER + INTRA:         -13.819
REMARK INTER:                 -10.242
REMARK INTRA:                  -3.577
REMARK UNBOUND:                -3.576
REMARK SMILES CCCCCCCCCCCCCCCCCCCCCCCC(=O)[O-]
REMARK SMILES IDX 13 1 14 2 15 3 16 4 17 5 18 6 19 7 20 8 21 9 22 10 23 11
REMARK SMILES IDX 24 12 25 13 26 14 12 15 11 16 10 17 9 18 8 19 7 20 6 21 5 22
REMARK SMILES IDX 4 23 3 24 2 25 1 26
REMARK H PARENT
REMARK Flexibility Score: inf
ROOT
ATOM      1  C   UNL     1     182.505 182.721 182.930  1.00  0.00     0.000 C 
ENDROOT
BRANCH   1   2
ATOM      2  C   UNL     1     182.248 181.495 183.826  1.00  0.00     0.000 C 
BRANCH   2   3
ATOM      3  C   UNL     1     183.487 180.615 184.099  1.00  0.00     0.000 C 
BRANCH   3   4
ATOM      4  C   UNL     1     184.256 180.153 182.847  1.00  0.00     0.000 C 
BRANCH   4   5
ATOM      5  C   UNL     1     185.744 180.557 182.802  1.00  0.00     0.000 C 
BRANCH   5   6
ATOM      6  C   UNL     1     186.128 181.406 181.572  1.00  0.00     0.000 C 
BRANCH   6   7
ATOM      7  C   UNL     1     185.828 182.902 181.766  1.00  0.00     0.000 C 
BRANCH   7   8
ATOM      8  C   UNL     1     187.079 183.721 182.134  1.00  0.00     0.000 C 
BRANCH   8   9
ATOM      9  C   UNL     1     187.011 185.214 181.764  1.00  0.00     0.000 C 
BRANCH   9  10
ATOM     10  C   UNL     1     188.385 185.906 181.814  1.00  0.00     0.006 C 
BRANCH  10  11
ATOM     11  C   UNL     1     188.266 187.431 181.932  1.00  0.00     0.053 C 
BRANCH  11  12
ATOM     12  C   UNL     1     189.218 187.989 182.946  1.00  0.00     0.041 C 
ATOM     13  O   UNL     1     190.309 188.500 182.577  1.00  0.00    -0.550 OA
ATOM     14  O   UNL     1     188.908 187.936 184.300  1.00  0.00    -0.550 OA
ENDBRANCH  11  12
ENDBRANCH  10  11
ENDBRANCH   9  10
ENDBRANCH   8   9
ENDBRANCH   7   8
ENDBRANCH   6   7
ENDBRANCH   5   6
ENDBRANCH   4   5
ENDBRANCH   3   4
ENDBRANCH   2   3
ENDBRANCH   1   2
BRANCH   1  15
ATOM     15  C   UNL     1     181.315 183.689 182.887  1.00  0.00     0.000 C 
BRANCH  15  16
ATOM     16  C   UNL     1     181.211 184.365 181.512  1.00  0.00     0.000 C 
BRANCH  16  17
ATOM     17  C   UNL     1     182.440 184.097 180.630  1.00  0.00     0.000 C 
BRANCH  17  18
ATOM     18  C   UNL     1     182.130 183.150 179.462  1.00  0.00    -0.000 C 
BRANCH  18  19
ATOM     19  C   UNL     1     183.112 181.975 179.436  1.00  0.00    -0.000 C 
BRANCH  19  20
ATOM     20  C   UNL     1     182.464 180.695 179.987  1.00  0.00    -0.000 C 
BRANCH  20  21
ATOM     21  C   UNL     1     180.922 180.752 179.939  1.00  0.00    -0.000 C 
BRANCH  21  22
ATOM     22  C   UNL     1     180.237 180.085 181.147  1.00  0.00    -0.000 C 
BRANCH  22  23
ATOM     23  C   UNL     1     179.178 180.950 181.854  1.00  0.00    -0.000 C 
BRANCH  23  24
ATOM     24  C   UNL     1     178.489 181.990 180.951  1.00  0.00    -0.000 C 
BRANCH  24  25
ATOM     25  C   UNL     1     177.364 182.774 181.659  1.00  0.00    -0.003 C 
ATOM     26  C   UNL     1     177.806 183.330 183.012  1.00  0.00     0.004 C 
ENDBRANCH  24  25
ENDBRANCH  23  24
ENDBRANCH  22  23
ENDBRANCH  21  22
ENDBRANCH  20  21
ENDBRANCH  19  20
ENDBRANCH  18  19
ENDBRANCH  17  18
ENDBRANCH  16  17
ENDBRANCH  15  16
ENDBRANCH   1  15
TORSDOF 22
ENDMDL
MODEL 8
REMARK VINA RESULT:    -4.420      2.949      4.623
REMARK INTER + INTRA:         -13.680
REMARK INTER:                 -10.790
REMARK INTRA:                  -2.890
REMARK UNBOUND:                -3.576
REMARK SMILES CCCCCCCCCCCCCCCCCCCCCCCC(=O)[O-]
REMARK SMILES IDX 13 1 14 2 15 3 16 4 17 5 18 6 19 7 20 8 21 9 22 10 23 11
REMARK SMILES IDX 24 12 25 13 26 14 12 15 11 16 10 17 9 18 8 19 7 20 6 21 5 22
REMARK SMILES IDX 4 23 3 24 2 25 1 26
REMARK H PARENT
REMARK Flexibility Score: inf
ROOT
ATOM      1  C   UNL     1     182.825 184.903 181.009  1.00  0.00     0.000 C 
ENDROOT
BRANCH   1   2
ATOM      2  C   UNL     1     183.899 183.806 180.888  1.00  0.00     0.000 C 
BRANCH   2   3
ATOM      3  C   UNL     1     185.083 183.942 181.869  1.00  0.00     0.000 C 
BRANCH   3   4
ATOM      4  C   UNL     1     186.164 182.850 181.754  1.00  0.00     0.000 C 
BRANCH   4   5
ATOM      5  C   UNL     1     185.639 181.434 181.444  1.00  0.00     0.000 C 
BRANCH   5   6
ATOM      6  C   UNL     1     185.595 180.498 182.670  1.00  0.00     0.000 C 
BRANCH   6   7
ATOM      7  C   UNL     1     184.190 180.397 183.290  1.00  0.00     0.000 C 
BRANCH   7   8
ATOM      8  C   UNL     1     183.091 180.979 182.382  1.00  0.00     0.000 C 
BRANCH   8   9
ATOM      9  C   UNL     1     181.878 180.059 182.157  1.00  0.00     0.000 C 
BRANCH   9  10
ATOM     10  C   UNL     1     181.511 179.906 180.670  1.00  0.00     0.006 C 
BRANCH  10  11
ATOM     11  C   UNL     1     182.352 180.817 179.766  1.00  0.00     0.053 C 
BRANCH  11  12
ATOM     12  C   UNL     1     181.505 181.556 178.775  1.00  0.00     0.041 C 
ATOM     13  O   UNL     1     182.025 182.411 178.009  1.00  0.00    -0.550 OA
ATOM     14  O   UNL     1     180.138 181.311 178.703  1.00  0.00    -0.550 OA
ENDBRANCH  11  12
ENDBRANCH  10  11
ENDBRANCH   9  10
ENDBRANCH   8   9
ENDBRANCH   7   8
ENDBRANCH   6   7
ENDBRANCH   5   6
ENDBRANCH   4   5
ENDBRANCH   3   4
ENDBRANCH   2   3
ENDBRANCH   1   2
BRANCH   1  15
ATOM     15  C   UNL     1     181.405 184.336 181.148  1.00  0.00     0.000 C 
BRANCH  15  16
ATOM     16  C   UNL     1     181.175 183.784 182.563  1.00  0.00     0.000 C 
BRANCH  16  17
ATOM     17  C   UNL     1     179.755 183.231 182.755  1.00  0.00     0.000 C 
BRANCH  17  18
ATOM     18  C   UNL     1     178.972 183.154 181.437  1.00  0.00    -0.000 C 
BRANCH  18  19
ATOM     19  C   UNL     1     177.753 182.236 181.577  1.00  0.00    -0.000 C 
BRANCH  19  20
ATOM     20  C   UNL     1     178.175 180.796 181.904  1.00  0.00    -0.000 C 
BRANCH  20  21
ATOM     21  C   UNL     1     177.020 179.971 182.510  1.00  0.00    -0.000 C 
BRANCH  21  22
ATOM     22  C   UNL     1     176.652 178.718 181.690  1.00  0.00    -0.000 C 
BRANCH  22  23
ATOM     23  C   UNL     1     175.449 177.922 182.223  1.00  0.00    -0.000 C 
BRANCH  23  24
ATOM     24  C   UNL     1     175.740 176.440 182.527  1.00  0.00    -0.000 C 
BRANCH  24  25
ATOM     25  C   UNL     1     174.916 175.877 183.704  1.00  0.00    -0.003 C 
ATOM     26  C   UNL     1     173.544 175.370 183.262  1.00  0.00     0.004 C 
ENDBRANCH  24  25
ENDBRANCH  23  24
ENDBRANCH  22  23
ENDBRANCH  21  22
ENDBRANCH  20  21
ENDBRANCH  19  20
ENDBRANCH  18  19
ENDBRANCH  17  18
ENDBRANCH  16  17
ENDBRANCH  15  16
ENDBRANCH   1  15
TORSDOF 22
ENDMDL
MODEL 9
REMARK VINA RESULT:    -4.381      3.344      5.321
REMARK INTER + INTRA:         -13.591
REMARK INTER:                 -10.343
REMARK INTRA:                  -3.247
REMARK UNBOUND:                -3.576
REMARK SMILES CCCCCCCCCCCCCCCCCCCCCCCC(=O)[O-]
REMARK SMILES IDX 13 1 14 2 15 3 16 4 17 5 18 6 19 7 20 8 21 9 22 10 23 11
REMARK SMILES IDX 24 12 25 13 26 14 12 15 11 16 10 17 9 18 8 19 7 20 6 21 5 22
REMARK SMILES IDX 4 23 3 24 2 25 1 26
REMARK H PARENT
REMARK Flexibility Score: inf
ROOT
ATOM      1  C   UNL     1     181.519 179.187 180.466  1.00  0.00     0.000 C 
ENDROOT
BRANCH   1   2
ATOM      2  C   UNL     1     182.370 179.067 181.744  1.00  0.00     0.000 C 
BRANCH   2   3
ATOM      3  C   UNL     1     182.403 180.333 182.627  1.00  0.00     0.000 C 
BRANCH   3   4
ATOM      4  C   UNL     1     183.807 180.884 182.938  1.00  0.00     0.000 C 
BRANCH   4   5
ATOM      5  C   UNL     1     184.830 180.764 181.791  1.00  0.00     0.000 C 
BRANCH   5   6
ATOM      6  C   UNL     1     186.137 181.550 182.028  1.00  0.00     0.000 C 
BRANCH   6   7
ATOM      7  C   UNL     1     185.983 183.056 181.757  1.00  0.00     0.000 C 
BRANCH   7   8
ATOM      8  C   UNL     1     187.320 183.817 181.827  1.00  0.00     0.000 C 
BRANCH   8   9
ATOM      9  C   UNL     1     187.203 185.348 181.720  1.00  0.00     0.000 C 
BRANCH   9  10
ATOM     10  C   UNL     1     188.572 186.053 181.711  1.00  0.00     0.006 C 
BRANCH  10  11
ATOM     11  C   UNL     1     188.458 187.549 182.035  1.00  0.00     0.053 C 
BRANCH  11  12
ATOM     12  C   UNL     1     189.387 187.953 183.141  1.00  0.00     0.041 C 
ATOM     13  O   UNL     1     190.567 188.306 182.879  1.00  0.00    -0.550 OA
ATOM     14  O   UNL     1     188.954 187.928 184.461  1.00  0.00    -0.550 OA
ENDBRANCH  11  12
ENDBRANCH  10  11
ENDBRANCH   9  10
ENDBRANCH   8   9
ENDBRANCH   7   8
ENDBRANCH   6   7
ENDBRANCH   5   6
ENDBRANCH   4   5
ENDBRANCH   3   4
ENDBRANCH   2   3
ENDBRANCH   1   2
BRANCH   1  15
ATOM     15  C   UNL     1     180.968 180.603 180.247  1.00  0.00     0.000 C 
BRANCH  15  16
ATOM     16  C   UNL     1     181.468 181.184 178.916  1.00  0.00     0.000 C 
BRANCH  16  17
ATOM     17  C   UNL     1     181.686 182.703 178.982  1.00  0.00     0.000 C 
BRANCH  17  18
ATOM     18  C   UNL     1     183.054 183.075 179.572  1.00  0.00    -0.000 C 
BRANCH  18  19
ATOM     19  C   UNL     1     182.896 184.032 180.757  1.00  0.00    -0.000 C 
BRANCH  19  20
ATOM     20  C   UNL     1     181.416 184.247 181.107  1.00  0.00    -0.000 C 
BRANCH  20  21
ATOM     21  C   UNL     1     181.071 183.741 182.525  1.00  0.00    -0.000 C 
BRANCH  21  22
ATOM     22  C   UNL     1     179.613 183.264 182.677  1.00  0.00    -0.000 C 
BRANCH  22  23
ATOM     23  C   UNL     1     178.832 183.130 181.359  1.00  0.00    -0.000 C 
BRANCH  23  24
ATOM     24  C   UNL     1     177.720 182.064 181.373  1.00  0.00    -0.000 C 
BRANCH  24  25
ATOM     25  C   UNL     1     177.870 181.031 182.509  1.00  0.00    -0.003 C 
ATOM     26  C   UNL     1     177.096 179.743 182.230  1.00  0.00     0.004 C 
ENDBRANCH  24  25
ENDBRANCH  23  24
ENDBRANCH  22  23
ENDBRANCH  21  22
ENDBRANCH  20  21
ENDBRANCH  19  20
ENDBRANCH  18  19
ENDBRANCH  17  18
ENDBRANCH  16  17
ENDBRANCH  15  16
ENDBRANCH   1  15
TORSDOF 22
ENDMDL
