MODEL 1
REMARK VINA RESULT:    -8.048      0.000      0.000
REMARK INTER + INTRA:         -12.959
REMARK INTER:                 -12.046
REMARK INTRA:                  -0.912
REMARK UNBOUND:                -0.912
REMARK SMILES C=C(CC[C@@H](C(=O)[O-])[C@H]1[C@H](O)C[C@@]2(C)C3=C(CC[C@@]12C)[C@]1(C)CC[C@H](OC(C)=O)C(C)(C)[C@@H]1CC3)C(C)C
REMARK SMILES IDX 4 1 5 2 6 3 7 4 8 5 9 6 10 7 19 8 12 9 13 10 18 11 20 12
REMARK SMILES IDX 14 13 15 14 17 15 16 16 35 17 21 18 34 19 33 20 23 21 22 22
REMARK SMILES IDX 30 23 24 24 25 25 31 26 32 27 11 28 26 30 27 31 29 32 28 33
REMARK SMILES IDX 3 34 2 35 1 36 36 37 37 38 38 39
REMARK H PARENT 11 29
REMARK Flexibility Score: inf
ROOT
ATOM      1  C   UNL     1      15.003 -32.583  23.660  1.00  0.00     0.014 C 
ENDROOT
BRANCH   1   2
ATOM      2  C   UNL     1      15.252 -33.658  22.564  1.00  0.00     0.042 C 
BRANCH   2   3
ATOM      3  C   UNL     1      15.295 -33.068  21.165  1.00  0.00     0.045 C 
ATOM      4  O   UNL     1      15.884 -31.977  20.932  1.00  0.00    -0.550 OA
ATOM      5  O   UNL     1      14.604 -33.692  20.134  1.00  0.00    -0.550 OA
ENDBRANCH   2   3
BRANCH   2   6
ATOM      6  C   UNL     1      16.441 -34.626  22.927  1.00  0.00     0.033 C 
ATOM      7  C   UNL     1      17.197 -35.142  21.688  1.00  0.00     0.119 C 
ATOM      8  C   UNL     1      17.559 -34.212  23.945  1.00  0.00    -0.017 C 
ATOM      9  C   UNL     1      18.583 -35.593  22.160  1.00  0.00     0.043 C 
ATOM     10  C   UNL     1      18.710 -35.264  23.671  1.00  0.00    -0.003 C 
ATOM     11  C   UNL     1      18.083 -32.790  23.657  1.00  0.00     0.012 C 
ATOM     12  C   UNL     1      17.033 -34.266  25.413  1.00  0.00     0.013 C 
ATOM     13  C   UNL     1      18.470 -36.577  24.484  1.00  0.00     0.017 C 
ATOM     14  C   UNL     1      20.156 -34.763  23.940  1.00  0.00    -0.064 C 
ATOM     15  C   UNL     1      19.335 -32.479  24.458  1.00  0.00     0.032 C 
ATOM     16  C   UNL     1      20.471 -33.445  24.151  1.00  0.00    -0.064 C 
ATOM     17  C   UNL     1      21.271 -35.772  23.784  1.00  0.00     0.032 C 
ATOM     18  C   UNL     1      21.951 -32.949  24.326  1.00  0.00    -0.008 C 
ATOM     19  C   UNL     1      22.435 -35.154  23.044  1.00  0.00     0.009 C 
ATOM     20  C   UNL     1      23.045 -34.031  23.897  1.00  0.00     0.009 C 
ATOM     21  C   UNL     1      22.171 -31.649  23.496  1.00  0.00     0.015 C 
ATOM     22  C   UNL     1      22.100 -32.623  25.839  1.00  0.00     0.016 C 
ATOM     23  C   UNL     1      24.393 -33.482  23.247  1.00  0.00     0.005 C 
ATOM     24  C   UNL     1      23.591 -31.055  23.564  1.00  0.00     0.047 C 
ATOM     25  C   UNL     1      24.721 -32.071  23.806  1.00  0.00     0.182 C 
ATOM     26  C   UNL     1      25.565 -34.425  23.637  1.00  0.00     0.015 C 
ATOM     27  C   UNL     1      24.354 -33.429  21.689  1.00  0.00     0.015 C 
BRANCH   7  28
ATOM     28  O   UNL     1      16.505 -36.175  21.031  1.00  0.00    -0.393 OA
ATOM     29  H   UNL     1      15.614 -35.826  20.763  1.00  0.00     0.210 HD
ENDBRANCH   7  28
BRANCH  25  30
ATOM     30  O   UNL     1      25.936 -31.582  23.227  1.00  0.00    -0.462 OA
BRANCH  30  31
ATOM     31  C   UNL     1      27.008 -31.078  23.971  1.00  0.00     0.302 C 
ATOM     32  O   UNL     1      28.047 -30.647  23.402  1.00  0.00    -0.253 OA
ATOM     33  C   UNL     1      26.890 -30.994  25.454  1.00  0.00     0.139 C 
ENDBRANCH  30  31
ENDBRANCH  25  30
ENDBRANCH   2   6
ENDBRANCH   1   2
BRANCH   1  34
ATOM     34  C   UNL     1      13.525 -32.172  23.830  1.00  0.00     0.031 C 
BRANCH  34  35
ATOM     35  C   UNL     1      13.143 -30.919  23.062  1.00  0.00    -0.075 C 
ATOM     36  C   UNL     1      12.274 -31.019  22.039  1.00  0.00     0.008 C 
BRANCH  35  37
ATOM     37  C   UNL     1      13.565 -29.537  23.550  1.00  0.00     0.008 C 
ATOM     38  C   UNL     1      14.404 -28.818  22.486  1.00  0.00     0.012 C 
ATOM     39  C   UNL     1      12.364 -28.678  23.975  1.00  0.00     0.012 C 
ENDBRANCH  35  37
ENDBRANCH  34  35
ENDBRANCH   1  34
TORSDOF 9
ENDMDL
MODEL 2
REMARK VINA RESULT:    -8.018      5.551      9.515
REMARK INTER + INTRA:         -12.915
REMARK INTER:                 -11.254
REMARK INTRA:                  -1.661
REMARK UNBOUND:                -0.912
REMARK SMILES C=C(CC[C@@H](C(=O)[O-])[C@H]1[C@H](O)C[C@@]2(C)C3=C(CC[C@@]12C)[C@]1(C)CC[C@H](OC(C)=O)C(C)(C)[C@@H]1CC3)C(C)C
REMARK SMILES IDX 4 1 5 2 6 3 7 4 8 5 9 6 10 7 19 8 12 9 13 10 18 11 20 12
REMARK SMILES IDX 14 13 15 14 17 15 16 16 35 17 21 18 34 19 33 20 23 21 22 22
REMARK SMILES IDX 30 23 24 24 25 25 31 26 32 27 11 28 26 30 27 31 29 32 28 33
REMARK SMILES IDX 3 34 2 35 1 36 36 37 37 38 38 39
REMARK H PARENT 11 29
REMARK Flexibility Score: inf
ROOT
ATOM      1  C   UNL     1      21.030 -23.711  22.749  1.00  0.00     0.014 C 
ENDROOT
BRANCH   1   2
ATOM      2  C   UNL     1      22.469 -24.129  22.333  1.00  0.00     0.042 C 
BRANCH   2   3
ATOM      3  C   UNL     1      23.483 -23.016  22.541  1.00  0.00     0.045 C 
ATOM      4  O   UNL     1      23.965 -22.379  21.565  1.00  0.00    -0.550 OA
ATOM      5  O   UNL     1      23.957 -22.747  23.819  1.00  0.00    -0.550 OA
ENDBRANCH   2   3
BRANCH   2   6
ATOM      6  C   UNL     1      22.881 -25.535  22.911  1.00  0.00     0.033 C 
ATOM      7  C   UNL     1      22.286 -25.812  24.304  1.00  0.00     0.119 C 
ATOM      8  C   UNL     1      22.656 -26.858  22.100  1.00  0.00    -0.017 C 
ATOM      9  C   UNL     1      22.294 -27.331  24.506  1.00  0.00     0.043 C 
ATOM     10  C   UNL     1      22.806 -27.988  23.197  1.00  0.00    -0.003 C 
ATOM     11  C   UNL     1      21.237 -26.911  21.496  1.00  0.00     0.012 C 
ATOM     12  C   UNL     1      23.698 -26.997  20.947  1.00  0.00     0.013 C 
ATOM     13  C   UNL     1      24.307 -28.378  23.394  1.00  0.00     0.017 C 
ATOM     14  C   UNL     1      21.980 -29.280  22.947  1.00  0.00    -0.064 C 
ATOM     15  C   UNL     1      20.916 -28.286  20.938  1.00  0.00     0.032 C 
ATOM     16  C   UNL     1      20.991 -29.373  22.000  1.00  0.00    -0.064 C 
ATOM     17  C   UNL     1      22.176 -30.420  23.922  1.00  0.00     0.032 C 
ATOM     18  C   UNL     1      20.104 -30.659  21.830  1.00  0.00    -0.008 C 
ATOM     19  C   UNL     1      20.842 -31.026  24.292  1.00  0.00     0.009 C 
ATOM     20  C   UNL     1      20.217 -31.682  23.051  1.00  0.00     0.009 C 
ATOM     21  C   UNL     1      18.612 -30.247  21.650  1.00  0.00     0.015 C 
ATOM     22  C   UNL     1      20.610 -31.338  20.527  1.00  0.00     0.016 C 
ATOM     23  C   UNL     1      18.905 -32.504  23.433  1.00  0.00     0.005 C 
ATOM     24  C   UNL     1      17.621 -31.415  21.485  1.00  0.00     0.047 C 
ATOM     25  C   UNL     1      18.029 -32.730  22.172  1.00  0.00     0.182 C 
ATOM     26  C   UNL     1      19.321 -33.901  23.971  1.00  0.00     0.015 C 
ATOM     27  C   UNL     1      18.051 -31.825  24.547  1.00  0.00     0.015 C 
BRANCH   7  28
ATOM     28  O   UNL     1      22.983 -25.143  25.327  1.00  0.00    -0.393 OA
ATOM     29  H   UNL     1      23.860 -25.595  25.446  1.00  0.00     0.210 HD
ENDBRANCH   7  28
BRANCH  25  30
ATOM     30  O   UNL     1      16.854 -33.474  22.515  1.00  0.00    -0.462 OA
BRANCH  30  31
ATOM     31  C   UNL     1      16.331 -34.510  21.734  1.00  0.00     0.302 C 
ATOM     32  O   UNL     1      15.146 -34.465  21.307  1.00  0.00    -0.253 OA
ATOM     33  C   UNL     1      17.210 -35.651  21.352  1.00  0.00     0.139 C 
ENDBRANCH  30  31
ENDBRANCH  25  30
ENDBRANCH   2   6
ENDBRANCH   1   2
BRANCH   1  34
ATOM     34  C   UNL     1      20.882 -22.227  23.145  1.00  0.00     0.031 C 
BRANCH  34  35
ATOM     35  C   UNL     1      20.670 -22.006  24.632  1.00  0.00    -0.075 C 
ATOM     36  C   UNL     1      21.247 -20.942  25.223  1.00  0.00     0.008 C 
BRANCH  35  37
ATOM     37  C   UNL     1      19.665 -22.842  25.417  1.00  0.00     0.008 C 
ATOM     38  C   UNL     1      20.289 -23.358  26.720  1.00  0.00     0.012 C 
ATOM     39  C   UNL     1      18.364 -22.075  25.698  1.00  0.00     0.012 C 
ENDBRANCH  35  37
ENDBRANCH  34  35
ENDBRANCH   1  34
TORSDOF 9
ENDMDL
MODEL 3
REMARK VINA RESULT:    -7.904      8.755     11.937
REMARK INTER + INTRA:         -12.743
REMARK INTER:                 -10.652
REMARK INTRA:                  -2.091
REMARK UNBOUND:                -0.912
REMARK SMILES C=C(CC[C@@H](C(=O)[O-])[C@H]1[C@H](O)C[C@@]2(C)C3=C(CC[C@@]12C)[C@]1(C)CC[C@H](OC(C)=O)C(C)(C)[C@@H]1CC3)C(C)C
REMARK SMILES IDX 4 1 5 2 6 3 7 4 8 5 9 6 10 7 19 8 12 9 13 10 18 11 20 12
REMARK SMILES IDX 14 13 15 14 17 15 16 16 35 17 21 18 34 19 33 20 23 21 22 22
REMARK SMILES IDX 30 23 24 24 25 25 31 26 32 27 11 28 26 30 27 31 29 32 28 33
REMARK SMILES IDX 3 34 2 35 1 36 36 37 37 38 38 39
REMARK H PARENT 11 29
REMARK Flexibility Score: inf
ROOT
ATOM      1  C   UNL     1      22.496 -26.644  21.558  1.00  0.00     0.014 C 
ENDROOT
BRANCH   1   2
ATOM      2  C   UNL     1      22.909 -25.146  21.490  1.00  0.00     0.042 C 
BRANCH   2   3
ATOM      3  C   UNL     1      23.236 -24.693  20.078  1.00  0.00     0.045 C 
ATOM      4  O   UNL     1      22.860 -25.356  19.073  1.00  0.00    -0.550 OA
ATOM      5  O   UNL     1      24.036 -23.573  19.882  1.00  0.00    -0.550 OA
ENDBRANCH   2   3
BRANCH   2   6
ATOM      6  C   UNL     1      21.925 -24.211  22.290  1.00  0.00     0.033 C 
ATOM      7  C   UNL     1      20.734 -24.973  22.900  1.00  0.00     0.119 C 
ATOM      8  C   UNL     1      22.432 -23.263  23.431  1.00  0.00    -0.017 C 
ATOM      9  C   UNL     1      20.187 -24.114  24.045  1.00  0.00     0.043 C 
ATOM     10  C   UNL     1      21.104 -22.871  24.197  1.00  0.00    -0.003 C 
ATOM     11  C   UNL     1      23.383 -24.003  24.394  1.00  0.00     0.012 C 
ATOM     12  C   UNL     1      23.176 -22.023  22.844  1.00  0.00     0.013 C 
ATOM     13  C   UNL     1      20.404 -21.654  23.512  1.00  0.00     0.017 C 
ATOM     14  C   UNL     1      21.267 -22.570  25.712  1.00  0.00    -0.064 C 
ATOM     15  C   UNL     1      23.670 -23.183  25.639  1.00  0.00     0.032 C 
ATOM     16  C   UNL     1      22.406 -22.858  26.421  1.00  0.00    -0.064 C 
ATOM     17  C   UNL     1      20.038 -22.096  26.454  1.00  0.00     0.032 C 
ATOM     18  C   UNL     1      22.514 -22.633  27.972  1.00  0.00    -0.008 C 
ATOM     19  C   UNL     1      19.929 -22.797  27.788  1.00  0.00     0.009 C 
ATOM     20  C   UNL     1      21.106 -22.378  28.683  1.00  0.00     0.009 C 
ATOM     21  C   UNL     1      23.201 -23.864  28.635  1.00  0.00     0.015 C 
ATOM     22  C   UNL     1      23.422 -21.383  28.144  1.00  0.00     0.016 C 
ATOM     23  C   UNL     1      20.930 -22.937  30.166  1.00  0.00     0.005 C 
ATOM     24  C   UNL     1      23.361 -23.785  30.165  1.00  0.00     0.047 C 
ATOM     25  C   UNL     1      22.298 -22.949  30.899  1.00  0.00     0.182 C 
ATOM     26  C   UNL     1      19.983 -21.990  30.955  1.00  0.00     0.015 C 
ATOM     27  C   UNL     1      20.296 -24.360  30.221  1.00  0.00     0.015 C 
BRANCH   7  28
ATOM     28  O   UNL     1      19.742 -25.268  21.947  1.00  0.00    -0.393 OA
ATOM     29  H   UNL     1      19.723 -26.253  21.819  1.00  0.00     0.210 HD
ENDBRANCH   7  28
BRANCH  25  30
ATOM     30  O   UNL     1      22.137 -23.445  32.233  1.00  0.00    -0.462 OA
BRANCH  30  31
ATOM     31  C   UNL     1      22.938 -23.056  33.312  1.00  0.00     0.302 C 
ATOM     32  O   UNL     1      23.612 -21.992  33.268  1.00  0.00    -0.253 OA
ATOM     33  C   UNL     1      22.944 -23.882  34.552  1.00  0.00     0.139 C 
ENDBRANCH  30  31
ENDBRANCH  25  30
ENDBRANCH   2   6
ENDBRANCH   1   2
BRANCH   1  34
ATOM     34  C   UNL     1      23.466 -27.541  22.357  1.00  0.00     0.031 C 
BRANCH  34  35
ATOM     35  C   UNL     1      22.938 -27.957  23.718  1.00  0.00    -0.075 C 
ATOM     36  C   UNL     1      22.332 -29.153  23.846  1.00  0.00     0.008 C 
BRANCH  35  37
ATOM     37  C   UNL     1      23.256 -27.144  24.968  1.00  0.00     0.008 C 
ATOM     38  C   UNL     1      22.009 -26.993  25.849  1.00  0.00     0.012 C 
ATOM     39  C   UNL     1      24.424 -27.740  25.769  1.00  0.00     0.012 C 
ENDBRANCH  35  37
ENDBRANCH  34  35
ENDBRANCH   1  34
TORSDOF 9
ENDMDL
MODEL 4
REMARK VINA RESULT:    -7.885      2.508      3.150
REMARK INTER + INTRA:         -12.715
REMARK INTER:                 -10.946
REMARK INTRA:                  -1.769
REMARK UNBOUND:                -0.912
REMARK SMILES C=C(CC[C@@H](C(=O)[O-])[C@H]1[C@H](O)C[C@@]2(C)C3=C(CC[C@@]12C)[C@]1(C)CC[C@H](OC(C)=O)C(C)(C)[C@@H]1CC3)C(C)C
REMARK SMILES IDX 4 1 5 2 6 3 7 4 8 5 9 6 10 7 19 8 12 9 13 10 18 11 20 12
REMARK SMILES IDX 14 13 15 14 17 15 16 16 35 17 21 18 34 19 33 20 23 21 22 22
REMARK SMILES IDX 30 23 24 24 25 25 31 26 32 27 11 28 26 30 27 31 29 32 28 33
REMARK SMILES IDX 3 34 2 35 1 36 36 37 37 38 38 39
REMARK H PARENT 11 29
REMARK Flexibility Score: inf
ROOT
ATOM      1  C   UNL     1      16.674 -31.628  21.401  1.00  0.00     0.014 C 
ENDROOT
BRANCH   1   2
ATOM      2  C   UNL     1      16.318 -32.943  22.151  1.00  0.00     0.042 C 
BRANCH   2   3
ATOM      3  C   UNL     1      15.386 -33.838  21.352  1.00  0.00     0.045 C 
ATOM      4  O   UNL     1      14.237 -33.447  21.010  1.00  0.00    -0.550 OA
ATOM      5  O   UNL     1      15.766 -35.143  21.061  1.00  0.00    -0.550 OA
ENDBRANCH   2   3
BRANCH   2   6
ATOM      6  C   UNL     1      17.587 -33.657  22.755  1.00  0.00     0.033 C 
ATOM      7  C   UNL     1      18.820 -33.573  21.836  1.00  0.00     0.119 C 
ATOM      8  C   UNL     1      18.121 -33.313  24.188  1.00  0.00    -0.017 C 
ATOM      9  C   UNL     1      20.055 -33.796  22.714  1.00  0.00     0.043 C 
ATOM     10  C   UNL     1      19.583 -33.920  24.187  1.00  0.00    -0.003 C 
ATOM     11  C   UNL     1      18.198 -31.788  24.408  1.00  0.00     0.012 C 
ATOM     12  C   UNL     1      17.213 -33.935  25.293  1.00  0.00     0.013 C 
ATOM     13  C   UNL     1      19.557 -35.435  24.572  1.00  0.00     0.017 C 
ATOM     14  C   UNL     1      20.614 -33.189  25.091  1.00  0.00    -0.064 C 
ATOM     15  C   UNL     1      18.954 -31.441  25.678  1.00  0.00     0.032 C 
ATOM     16  C   UNL     1      20.384 -31.962  25.659  1.00  0.00    -0.064 C 
ATOM     17  C   UNL     1      21.994 -33.801  25.191  1.00  0.00     0.032 C 
ATOM     18  C   UNL     1      21.477 -31.200  26.491  1.00  0.00    -0.008 C 
ATOM     19  C   UNL     1      23.050 -32.725  25.099  1.00  0.00     0.009 C 
ATOM     20  C   UNL     1      22.947 -31.801  26.322  1.00  0.00     0.009 C 
ATOM     21  C   UNL     1      21.495 -29.696  26.081  1.00  0.00     0.015 C 
ATOM     22  C   UNL     1      21.026 -31.322  27.973  1.00  0.00     0.016 C 
ATOM     23  C   UNL     1      24.163 -30.771  26.370  1.00  0.00     0.005 C 
ATOM     24  C   UNL     1      22.535 -28.825  26.811  1.00  0.00     0.047 C 
ATOM     25  C   UNL     1      23.805 -29.561  27.274  1.00  0.00     0.182 C 
ATOM     26  C   UNL     1      25.399 -31.474  26.996  1.00  0.00     0.015 C 
ATOM     27  C   UNL     1      24.598 -30.259  24.962  1.00  0.00     0.015 C 
BRANCH   7  28
ATOM     28  O   UNL     1      18.758 -34.494  20.774  1.00  0.00    -0.393 OA
ATOM     29  H   UNL     1      19.443 -35.196  20.935  1.00  0.00     0.210 HD
ENDBRANCH   7  28
BRANCH  25  30
ATOM     30  O   UNL     1      24.900 -28.640  27.321  1.00  0.00    -0.462 OA
BRANCH  30  31
ATOM     31  C   UNL     1      25.346 -28.017  28.492  1.00  0.00     0.302 C 
ATOM     32  O   UNL     1      25.570 -26.778  28.522  1.00  0.00    -0.253 OA
ATOM     33  C   UNL     1      25.497 -28.825  29.735  1.00  0.00     0.139 C 
ENDBRANCH  30  31
ENDBRANCH  25  30
ENDBRANCH   2   6
ENDBRANCH   1   2
BRANCH   1  34
ATOM     34  C   UNL     1      16.243 -30.338  22.130  1.00  0.00     0.031 C 
BRANCH  34  35
ATOM     35  C   UNL     1      14.739 -30.136  22.185  1.00  0.00    -0.075 C 
ATOM     36  C   UNL     1      14.043 -30.091  21.033  1.00  0.00     0.008 C 
BRANCH  35  37
ATOM     37  C   UNL     1      13.987 -30.182  23.511  1.00  0.00     0.008 C 
ATOM     38  C   UNL     1      12.796 -29.216  23.494  1.00  0.00     0.012 C 
ATOM     39  C   UNL     1      13.533 -31.605  23.872  1.00  0.00     0.012 C 
ENDBRANCH  35  37
ENDBRANCH  34  35
ENDBRANCH   1  34
TORSDOF 9
ENDMDL
MODEL 5
REMARK VINA RESULT:    -7.838      2.641      3.982
REMARK INTER + INTRA:         -12.644
REMARK INTER:                 -11.440
REMARK INTRA:                  -1.204
REMARK UNBOUND:                -0.912
REMARK SMILES C=C(CC[C@@H](C(=O)[O-])[C@H]1[C@H](O)C[C@@]2(C)C3=C(CC[C@@]12C)[C@]1(C)CC[C@H](OC(C)=O)C(C)(C)[C@@H]1CC3)C(C)C
REMARK SMILES IDX 4 1 5 2 6 3 7 4 8 5 9 6 10 7 19 8 12 9 13 10 18 11 20 12
REMARK SMILES IDX 14 13 15 14 17 15 16 16 35 17 21 18 34 19 33 20 23 21 22 22
REMARK SMILES IDX 30 23 24 24 25 25 31 26 32 27 11 28 26 30 27 31 29 32 28 33
REMARK SMILES IDX 3 34 2 35 1 36 36 37 37 38 38 39
REMARK H PARENT 11 29
REMARK Flexibility Score: inf
ROOT
ATOM      1  C   UNL     1      15.090 -31.450  23.489  1.00  0.00     0.014 C 
ENDROOT
BRANCH   1   2
ATOM      2  C   UNL     1      15.826 -32.531  22.647  1.00  0.00     0.042 C 
BRANCH   2   3
ATOM      3  C   UNL     1      14.938 -33.141  21.575  1.00  0.00     0.045 C 
ATOM      4  O   UNL     1      14.677 -34.374  21.565  1.00  0.00    -0.550 OA
ATOM      5  O   UNL     1      14.471 -32.346  20.535  1.00  0.00    -0.550 OA
ENDBRANCH   2   3
BRANCH   2   6
ATOM      6  C   UNL     1      17.246 -32.054  22.159  1.00  0.00     0.033 C 
ATOM      7  C   UNL     1      17.374 -30.521  22.087  1.00  0.00     0.119 C 
ATOM      8  C   UNL     1      18.563 -32.543  22.853  1.00  0.00    -0.017 C 
ATOM      9  C   UNL     1      18.869 -30.190  22.137  1.00  0.00     0.043 C 
ATOM     10  C   UNL     1      19.651 -31.516  22.337  1.00  0.00    -0.003 C 
ATOM     11  C   UNL     1      18.456 -32.450  24.389  1.00  0.00     0.012 C 
ATOM     12  C   UNL     1      18.894 -34.017  22.461  1.00  0.00     0.013 C 
ATOM     13  C   UNL     1      20.227 -31.962  20.954  1.00  0.00     0.017 C 
ATOM     14  C   UNL     1      20.831 -31.243  23.309  1.00  0.00    -0.064 C 
ATOM     15  C   UNL     1      19.801 -32.666  25.060  1.00  0.00     0.032 C 
ATOM     16  C   UNL     1      20.836 -31.641  24.621  1.00  0.00    -0.064 C 
ATOM     17  C   UNL     1      21.939 -30.344  22.807  1.00  0.00     0.032 C 
ATOM     18  C   UNL     1      21.999 -31.271  25.611  1.00  0.00    -0.008 C 
ATOM     19  C   UNL     1      22.344 -29.364  23.883  1.00  0.00     0.009 C 
ATOM     20  C   UNL     1      22.970 -30.127  25.061  1.00  0.00     0.009 C 
ATOM     21  C   UNL     1      21.402 -30.815  26.976  1.00  0.00     0.015 C 
ATOM     22  C   UNL     1      22.801 -32.587  25.815  1.00  0.00     0.016 C 
ATOM     23  C   UNL     1      23.591 -29.124  26.134  1.00  0.00     0.005 C 
ATOM     24  C   UNL     1      22.434 -30.406  28.044  1.00  0.00     0.047 C 
ATOM     25  C   UNL     1      23.758 -29.839  27.501  1.00  0.00     0.182 C 
ATOM     26  C   UNL     1      25.003 -28.686  25.658  1.00  0.00     0.015 C 
ATOM     27  C   UNL     1      22.753 -27.823  26.324  1.00  0.00     0.015 C 
BRANCH   7  28
ATOM     28  O   UNL     1      16.757 -29.986  20.942  1.00  0.00    -0.393 OA
ATOM     29  H   UNL     1      17.460 -29.557  20.386  1.00  0.00     0.210 HD
ENDBRANCH   7  28
BRANCH  25  30
ATOM     30  O   UNL     1      24.322 -28.939  28.462  1.00  0.00    -0.462 OA
BRANCH  30  31
ATOM     31  C   UNL     1      25.436 -29.240  29.252  1.00  0.00     0.302 C 
ATOM     32  O   UNL     1      26.456 -29.787  28.753  1.00  0.00    -0.253 OA
ATOM     33  C   UNL     1      25.437 -28.850  30.690  1.00  0.00     0.139 C 
ENDBRANCH  30  31
ENDBRANCH  25  30
ENDBRANCH   2   6
ENDBRANCH   1   2
BRANCH   1  34
ATOM     34  C   UNL     1      13.564 -31.650  23.596  1.00  0.00     0.031 C 
BRANCH  34  35
ATOM     35  C   UNL     1      12.752 -30.488  23.052  1.00  0.00    -0.075 C 
ATOM     36  C   UNL     1      11.938 -30.695  21.998  1.00  0.00     0.008 C 
BRANCH  35  37
ATOM     37  C   UNL     1      12.689 -29.157  23.792  1.00  0.00     0.008 C 
ATOM     38  C   UNL     1      13.823 -28.228  23.338  1.00  0.00     0.012 C 
ATOM     39  C   UNL     1      11.323 -28.469  23.639  1.00  0.00     0.012 C 
ENDBRANCH  35  37
ENDBRANCH  34  35
ENDBRANCH   1  34
TORSDOF 9
ENDMDL
MODEL 6
REMARK VINA RESULT:    -7.695      2.324      8.669
REMARK INTER + INTRA:         -12.431
REMARK INTER:                  -9.931
REMARK INTRA:                  -2.500
REMARK UNBOUND:                -0.912
REMARK SMILES C=C(CC[C@@H](C(=O)[O-])[C@H]1[C@H](O)C[C@@]2(C)C3=C(CC[C@@]12C)[C@]1(C)CC[C@H](OC(C)=O)C(C)(C)[C@@H]1CC3)C(C)C
REMARK SMILES IDX 4 1 5 2 6 3 7 4 8 5 9 6 10 7 19 8 12 9 13 10 18 11 20 12
REMARK SMILES IDX 14 13 15 14 17 15 16 16 35 17 21 18 34 19 33 20 23 21 22 22
REMARK SMILES IDX 30 23 24 24 25 25 31 26 32 27 11 28 26 30 27 31 29 32 28 33
REMARK SMILES IDX 3 34 2 35 1 36 36 37 37 38 38 39
REMARK H PARENT 11 29
REMARK Flexibility Score: inf
ROOT
ATOM      1  C   UNL     1      23.814 -31.006  27.254  1.00  0.00     0.014 C 
ENDROOT
BRANCH   1   2
ATOM      2  C   UNL     1      24.417 -31.310  25.853  1.00  0.00     0.042 C 
BRANCH   2   3
ATOM      3  C   UNL     1      25.933 -31.406  25.877  1.00  0.00     0.045 C 
ATOM      4  O   UNL     1      26.628 -31.058  24.884  1.00  0.00    -0.550 OA
ATOM      5  O   UNL     1      26.569 -31.966  26.979  1.00  0.00    -0.550 OA
ENDBRANCH   2   3
BRANCH   2   6
ATOM      6  C   UNL     1      23.676 -32.491  25.119  1.00  0.00     0.033 C 
ATOM      7  C   UNL     1      22.820 -33.348  26.070  1.00  0.00     0.119 C 
ATOM      8  C   UNL     1      22.769 -32.241  23.865  1.00  0.00    -0.017 C 
ATOM      9  C   UNL     1      21.777 -34.071  25.212  1.00  0.00     0.043 C 
ATOM     10  C   UNL     1      21.933 -33.581  23.748  1.00  0.00    -0.003 C 
ATOM     11  C   UNL     1      21.810 -31.055  24.093  1.00  0.00     0.012 C 
ATOM     12  C   UNL     1      23.628 -31.956  22.594  1.00  0.00     0.013 C 
ATOM     13  C   UNL     1      22.725 -34.664  22.946  1.00  0.00     0.017 C 
ATOM     14  C   UNL     1      20.515 -33.435  23.130  1.00  0.00    -0.064 C 
ATOM     15  C   UNL     1      20.755 -30.969  23.004  1.00  0.00     0.032 C 
ATOM     16  C   UNL     1      19.900 -32.226  22.928  1.00  0.00    -0.064 C 
ATOM     17  C   UNL     1      19.728 -34.708  22.911  1.00  0.00     0.032 C 
ATOM     18  C   UNL     1      18.429 -32.107  22.391  1.00  0.00    -0.008 C 
ATOM     19  C   UNL     1      18.294 -34.517  23.348  1.00  0.00     0.009 C 
ATOM     20  C   UNL     1      17.616 -33.482  22.436  1.00  0.00     0.009 C 
ATOM     21  C   UNL     1      17.654 -31.034  23.213  1.00  0.00     0.015 C 
ATOM     22  C   UNL     1      18.565 -31.626  20.919  1.00  0.00     0.016 C 
ATOM     23  C   UNL     1      16.052 -33.391  22.730  1.00  0.00     0.005 C 
ATOM     24  C   UNL     1      16.185 -30.821  22.802  1.00  0.00     0.047 C 
ATOM     25  C   UNL     1      15.483 -32.049  22.196  1.00  0.00     0.182 C 
ATOM     26  C   UNL     1      15.327 -34.540  21.976  1.00  0.00     0.015 C 
ATOM     27  C   UNL     1      15.695 -33.545  24.241  1.00  0.00     0.015 C 
BRANCH   7  28
ATOM     28  O   UNL     1      23.596 -34.249  26.822  1.00  0.00    -0.393 OA
ATOM     29  H   UNL     1      23.841 -33.806  27.676  1.00  0.00     0.210 HD
ENDBRANCH   7  28
BRANCH  25  30
ATOM     30  O   UNL     1      14.077 -31.972  22.455  1.00  0.00    -0.462 OA
BRANCH  30  31
ATOM     31  C   UNL     1      13.163 -31.331  21.614  1.00  0.00     0.302 C 
ATOM     32  O   UNL     1      12.520 -30.320  22.005  1.00  0.00    -0.253 OA
ATOM     33  C   UNL     1      12.995 -31.815  20.215  1.00  0.00     0.139 C 
ENDBRANCH  30  31
ENDBRANCH  25  30
ENDBRANCH   2   6
ENDBRANCH   1   2
BRANCH   1  34
ATOM     34  C   UNL     1      22.724 -29.914  27.260  1.00  0.00     0.031 C 
BRANCH  34  35
ATOM     35  C   UNL     1      21.375 -30.395  27.767  1.00  0.00    -0.075 C 
ATOM     36  C   UNL     1      21.318 -31.075  28.928  1.00  0.00     0.008 C 
BRANCH  35  37
ATOM     37  C   UNL     1      20.079 -29.952  27.097  1.00  0.00     0.008 C 
ATOM     38  C   UNL     1      19.325 -31.159  26.523  1.00  0.00     0.012 C 
ATOM     39  C   UNL     1      19.180 -29.144  28.046  1.00  0.00     0.012 C 
ENDBRANCH  35  37
ENDBRANCH  34  35
ENDBRANCH   1  34
TORSDOF 9
ENDMDL
MODEL 7
REMARK VINA RESULT:    -7.586      4.408      8.978
REMARK INTER + INTRA:         -12.267
REMARK INTER:                 -10.325
REMARK INTRA:                  -1.942
REMARK UNBOUND:                -0.912
REMARK SMILES C=C(CC[C@@H](C(=O)[O-])[C@H]1[C@H](O)C[C@@]2(C)C3=C(CC[C@@]12C)[C@]1(C)CC[C@H](OC(C)=O)C(C)(C)[C@@H]1CC3)C(C)C
REMARK SMILES IDX 4 1 5 2 6 3 7 4 8 5 9 6 10 7 19 8 12 9 13 10 18 11 20 12
REMARK SMILES IDX 14 13 15 14 17 15 16 16 35 17 21 18 34 19 33 20 23 21 22 22
REMARK SMILES IDX 30 23 24 24 25 25 31 26 32 27 11 28 26 30 27 31 29 32 28 33
REMARK SMILES IDX 3 34 2 35 1 36 36 37 37 38 38 39
REMARK H PARENT 11 29
REMARK Flexibility Score: inf
ROOT
ATOM      1  C   UNL     1      21.342 -25.157  23.774  1.00  0.00     0.014 C 
ENDROOT
BRANCH   1   2
ATOM      2  C   UNL     1      22.776 -25.464  24.291  1.00  0.00     0.042 C 
BRANCH   2   3
ATOM      3  C   UNL     1      23.386 -24.298  25.051  1.00  0.00     0.045 C 
ATOM      4  O   UNL     1      23.893 -24.455  26.195  1.00  0.00    -0.550 OA
ATOM      5  O   UNL     1      23.312 -23.017  24.519  1.00  0.00    -0.550 OA
ENDBRANCH   2   3
BRANCH   2   6
ATOM      6  C   UNL     1      22.873 -26.863  25.009  1.00  0.00     0.033 C 
ATOM      7  C   UNL     1      21.754 -27.089  26.042  1.00  0.00     0.119 C 
ATOM      8  C   UNL     1      22.956 -28.202  24.196  1.00  0.00    -0.017 C 
ATOM      9  C   UNL     1      21.632 -28.602  26.253  1.00  0.00     0.043 C 
ATOM     10  C   UNL     1      22.611 -29.306  25.277  1.00  0.00    -0.003 C 
ATOM     11  C   UNL     1      21.905 -28.240  23.068  1.00  0.00     0.012 C 
ATOM     12  C   UNL     1      24.372 -28.395  23.570  1.00  0.00     0.013 C 
ATOM     13  C   UNL     1      23.889 -29.723  26.075  1.00  0.00     0.017 C 
ATOM     14  C   UNL     1      21.918 -30.585  24.732  1.00  0.00    -0.064 C 
ATOM     15  C   UNL     1      21.796 -29.622  22.449  1.00  0.00     0.032 C 
ATOM     16  C   UNL     1      21.398 -30.681  23.466  1.00  0.00    -0.064 C 
ATOM     17  C   UNL     1      21.665 -31.702  25.720  1.00  0.00     0.032 C 
ATOM     18  C   UNL     1      20.618 -31.951  22.970  1.00  0.00    -0.008 C 
ATOM     19  C   UNL     1      20.278 -32.268  25.524  1.00  0.00     0.009 C 
ATOM     20  C   UNL     1      20.191 -32.944  24.146  1.00  0.00     0.009 C 
ATOM     21  C   UNL     1      19.342 -31.511  22.191  1.00  0.00     0.015 C 
ATOM     22  C   UNL     1      21.588 -32.676  21.996  1.00  0.00     0.016 C 
ATOM     23  C   UNL     1      18.813 -33.725  23.973  1.00  0.00     0.005 C 
ATOM     24  C   UNL     1      18.467 -32.660  21.654  1.00  0.00     0.047 C 
ATOM     25  C   UNL     1      18.519 -33.966  22.468  1.00  0.00     0.182 C 
ATOM     26  C   UNL     1      18.930 -35.116  24.656  1.00  0.00     0.015 C 
ATOM     27  C   UNL     1      17.601 -32.998  24.632  1.00  0.00     0.015 C 
BRANCH   7  28
ATOM     28  O   UNL     1      21.996 -26.409  27.250  1.00  0.00    -0.393 OA
ATOM     29  H   UNL     1      22.692 -26.910  27.751  1.00  0.00     0.210 HD
ENDBRANCH   7  28
BRANCH  25  30
ATOM     30  O   UNL     1      17.284 -34.674  22.315  1.00  0.00    -0.462 OA
BRANCH  30  31
ATOM     31  C   UNL     1      17.051 -35.629  21.320  1.00  0.00     0.302 C 
ATOM     32  O   UNL     1      16.196 -35.428  20.415  1.00  0.00    -0.253 OA
ATOM     33  C   UNL     1      17.870 -36.873  21.297  1.00  0.00     0.139 C 
ENDBRANCH  30  31
ENDBRANCH  25  30
ENDBRANCH   2   6
ENDBRANCH   1   2
BRANCH   1  34
ATOM     34  C   UNL     1      21.293 -24.446  22.405  1.00  0.00     0.031 C 
BRANCH  34  35
ATOM     35  C   UNL     1      21.694 -25.331  21.238  1.00  0.00    -0.075 C 
ATOM     36  C   UNL     1      20.731 -25.866  20.463  1.00  0.00     0.008 C 
BRANCH  35  37
ATOM     37  C   UNL     1      23.152 -25.459  20.812  1.00  0.00     0.008 C 
ATOM     38  C   UNL     1      23.391 -26.788  20.084  1.00  0.00     0.012 C 
ATOM     39  C   UNL     1      23.613 -24.272  19.951  1.00  0.00     0.012 C 
ENDBRANCH  35  37
ENDBRANCH  34  35
ENDBRANCH   1  34
TORSDOF 9
ENDMDL
MODEL 8
REMARK VINA RESULT:    -7.524      2.567      3.866
REMARK INTER + INTRA:         -12.175
REMARK INTER:                  -9.926
REMARK INTRA:                  -2.249
REMARK UNBOUND:                -0.912
REMARK SMILES C=C(CC[C@@H](C(=O)[O-])[C@H]1[C@H](O)C[C@@]2(C)C3=C(CC[C@@]12C)[C@]1(C)CC[C@H](OC(C)=O)C(C)(C)[C@@H]1CC3)C(C)C
REMARK SMILES IDX 4 1 5 2 6 3 7 4 8 5 9 6 10 7 19 8 12 9 13 10 18 11 20 12
REMARK SMILES IDX 14 13 15 14 17 15 16 16 35 17 21 18 34 19 33 20 23 21 22 22
REMARK SMILES IDX 30 23 24 24 25 25 31 26 32 27 11 28 26 30 27 31 29 32 28 33
REMARK SMILES IDX 3 34 2 35 1 36 36 37 37 38 38 39
REMARK H PARENT 11 29
REMARK Flexibility Score: inf
ROOT
ATOM      1  C   UNL     1      17.560 -31.490  21.050  1.00  0.00     0.014 C 
ENDROOT
BRANCH   1   2
ATOM      2  C   UNL     1      16.917 -32.373  22.158  1.00  0.00     0.042 C 
BRANCH   2   3
ATOM      3  C   UNL     1      15.606 -33.001  21.717  1.00  0.00     0.045 C 
ATOM      4  O   UNL     1      14.696 -32.311  21.181  1.00  0.00    -0.550 OA
ATOM      5  O   UNL     1      15.363 -34.344  21.981  1.00  0.00    -0.550 OA
ENDBRANCH   2   3
BRANCH   2   6
ATOM      6  C   UNL     1      17.951 -33.361  22.819  1.00  0.00     0.033 C 
ATOM      7  C   UNL     1      19.143 -33.689  21.900  1.00  0.00     0.119 C 
ATOM      8  C   UNL     1      18.585 -33.071  24.223  1.00  0.00    -0.017 C 
ATOM      9  C   UNL     1      20.285 -34.177  22.798  1.00  0.00     0.043 C 
ATOM     10  C   UNL     1      19.823 -34.056  24.274  1.00  0.00    -0.003 C 
ATOM     11  C   UNL     1      19.081 -31.614  24.325  1.00  0.00     0.012 C 
ATOM     12  C   UNL     1      17.560 -33.335  25.370  1.00  0.00     0.013 C 
ATOM     13  C   UNL     1      19.389 -35.472  24.774  1.00  0.00     0.017 C 
ATOM     14  C   UNL     1      21.031 -33.572  25.123  1.00  0.00    -0.064 C 
ATOM     15  C   UNL     1      19.926 -31.395  25.568  1.00  0.00     0.032 C 
ATOM     16  C   UNL     1      21.157 -32.290  25.594  1.00  0.00    -0.064 C 
ATOM     17  C   UNL     1      22.191 -34.530  25.275  1.00  0.00     0.032 C 
ATOM     18  C   UNL     1      22.433 -31.797  26.368  1.00  0.00    -0.008 C 
ATOM     19  C   UNL     1      23.501 -33.797  25.103  1.00  0.00     0.009 C 
ATOM     20  C   UNL     1      23.678 -32.791  26.252  1.00  0.00     0.009 C 
ATOM     21  C   UNL     1      22.856 -30.392  25.844  1.00  0.00     0.015 C 
ATOM     22  C   UNL     1      21.992 -31.680  27.854  1.00  0.00     0.016 C 
ATOM     23  C   UNL     1      25.131 -32.135  26.225  1.00  0.00     0.005 C 
ATOM     24  C   UNL     1      24.107 -29.789  26.509  1.00  0.00     0.047 C 
ATOM     25  C   UNL     1      25.134 -30.810  27.032  1.00  0.00     0.182 C 
ATOM     26  C   UNL     1      26.136 -33.103  26.908  1.00  0.00     0.015 C 
ATOM     27  C   UNL     1      25.664 -31.870  24.784  1.00  0.00     0.015 C 
BRANCH   7  28
ATOM     28  O   UNL     1      18.812 -34.634  20.912  1.00  0.00    -0.393 OA
ATOM     29  H   UNL     1      19.610 -35.204  20.752  1.00  0.00     0.210 HD
ENDBRANCH   7  28
BRANCH  25  30
ATOM     30  O   UNL     1      26.442 -30.225  27.012  1.00  0.00    -0.462 OA
BRANCH  30  31
ATOM     31  C   UNL     1      27.051 -29.639  28.127  1.00  0.00     0.302 C 
ATOM     32  O   UNL     1      26.691 -29.942  29.296  1.00  0.00    -0.253 OA
ATOM     33  C   UNL     1      28.182 -28.691  27.925  1.00  0.00     0.139 C 
ENDBRANCH  30  31
ENDBRANCH  25  30
ENDBRANCH   2   6
ENDBRANCH   1   2
BRANCH   1  34
ATOM     34  C   UNL     1      17.722 -30.003  21.430  1.00  0.00     0.031 C 
BRANCH  34  35
ATOM     35  C   UNL     1      19.126 -29.464  21.218  1.00  0.00    -0.075 C 
ATOM     36  C   UNL     1      19.281 -28.210  20.752  1.00  0.00     0.008 C 
BRANCH  35  37
ATOM     37  C   UNL     1      20.347 -30.235  21.707  1.00  0.00     0.008 C 
ATOM     38  C   UNL     1      21.019 -30.981  20.547  1.00  0.00     0.012 C 
ATOM     39  C   UNL     1      21.355 -29.330  22.432  1.00  0.00     0.012 C 
ENDBRANCH  35  37
ENDBRANCH  34  35
ENDBRANCH   1  34
TORSDOF 9
ENDMDL
MODEL 9
REMARK VINA RESULT:    -7.495      2.288      9.003
REMARK INTER + INTRA:         -12.132
REMARK INTER:                  -9.850
REMARK INTRA:                  -2.282
REMARK UNBOUND:                -0.912
REMARK SMILES C=C(CC[C@@H](C(=O)[O-])[C@H]1[C@H](O)C[C@@]2(C)C3=C(CC[C@@]12C)[C@]1(C)CC[C@H](OC(C)=O)C(C)(C)[C@@H]1CC3)C(C)C
REMARK SMILES IDX 4 1 5 2 6 3 7 4 8 5 9 6 10 7 19 8 12 9 13 10 18 11 20 12
REMARK SMILES IDX 14 13 15 14 17 15 16 16 35 17 21 18 34 19 33 20 23 21 22 22
REMARK SMILES IDX 30 23 24 24 25 25 31 26 32 27 11 28 26 30 27 31 29 32 28 33
REMARK SMILES IDX 3 34 2 35 1 36 36 37 37 38 38 39
REMARK H PARENT 11 29
REMARK Flexibility Score: inf
ROOT
ATOM      1  C   UNL     1      24.784 -29.170  24.156  1.00  0.00     0.014 C 
ENDROOT
BRANCH   1   2
ATOM      2  C   UNL     1      25.169 -30.658  23.913  1.00  0.00     0.042 C 
BRANCH   2   3
ATOM      3  C   UNL     1      26.604 -30.961  24.309  1.00  0.00     0.045 C 
ATOM      4  O   UNL     1      27.553 -30.822  23.490  1.00  0.00    -0.550 OA
ATOM      5  O   UNL     1      26.875 -31.483  25.568  1.00  0.00    -0.550 OA
ENDBRANCH   2   3
BRANCH   2   6
ATOM      6  C   UNL     1      24.088 -31.660  24.468  1.00  0.00     0.033 C 
ATOM      7  C   UNL     1      23.195 -31.041  25.558  1.00  0.00     0.119 C 
ATOM      8  C   UNL     1      23.103 -32.420  23.514  1.00  0.00    -0.017 C 
ATOM      9  C   UNL     1      21.910 -31.872  25.617  1.00  0.00     0.043 C 
ATOM     10  C   UNL     1      21.977 -32.943  24.495  1.00  0.00    -0.003 C 
ATOM     11  C   UNL     1      22.478 -31.464  22.477  1.00  0.00     0.012 C 
ATOM     12  C   UNL     1      23.827 -33.577  22.759  1.00  0.00     0.013 C 
ATOM     13  C   UNL     1      22.388 -34.307  25.139  1.00  0.00     0.017 C 
ATOM     14  C   UNL     1      20.559 -33.086  23.875  1.00  0.00    -0.064 C 
ATOM     15  C   UNL     1      21.334 -32.122  21.725  1.00  0.00     0.032 C 
ATOM     16  C   UNL     1      20.214 -32.569  22.653  1.00  0.00    -0.064 C 
ATOM     17  C   UNL     1      19.481 -33.678  24.756  1.00  0.00     0.032 C 
ATOM     18  C   UNL     1      18.750 -32.643  22.089  1.00  0.00    -0.008 C 
ATOM     19  C   UNL     1      18.200 -32.891  24.614  1.00  0.00     0.009 C 
ATOM     20  C   UNL     1      17.659 -33.048  23.184  1.00  0.00     0.009 C 
ATOM     21  C   UNL     1      18.356 -31.270  21.466  1.00  0.00     0.015 C 
ATOM     22  C   UNL     1      18.794 -33.720  20.969  1.00  0.00     0.016 C 
ATOM     23  C   UNL     1      16.210 -32.399  23.041  1.00  0.00     0.005 C 
ATOM     24  C   UNL     1      16.933 -31.193  20.883  1.00  0.00     0.047 C 
ATOM     25  C   UNL     1      15.896 -32.116  21.547  1.00  0.00     0.182 C 
ATOM     26  C   UNL     1      15.150 -33.408  23.560  1.00  0.00     0.015 C 
ATOM     27  C   UNL     1      16.033 -31.089  23.868  1.00  0.00     0.015 C 
BRANCH   7  28
ATOM     28  O   UNL     1      23.839 -30.982  26.808  1.00  0.00    -0.393 OA
ATOM     29  H   UNL     1      23.149 -30.807  27.501  1.00  0.00     0.210 HD
ENDBRANCH   7  28
BRANCH  25  30
ATOM     30  O   UNL     1      14.591 -31.540  21.419  1.00  0.00    -0.462 OA
BRANCH  30  31
ATOM     31  C   UNL     1      13.586 -32.059  20.596  1.00  0.00     0.302 C 
ATOM     32  O   UNL     1      12.465 -31.490  20.505  1.00  0.00    -0.253 OA
ATOM     33  C   UNL     1      13.870 -33.266  19.772  1.00  0.00     0.139 C 
ENDBRANCH  30  31
ENDBRANCH  25  30
ENDBRANCH   2   6
ENDBRANCH   1   2
BRANCH   1  34
ATOM     34  C   UNL     1      24.449 -28.378  22.874  1.00  0.00     0.031 C 
BRANCH  34  35
ATOM     35  C   UNL     1      23.023 -27.859  22.827  1.00  0.00    -0.075 C 
ATOM     36  C   UNL     1      22.329 -27.749  23.977  1.00  0.00     0.008 C 
BRANCH  35  37
ATOM     37  C   UNL     1      22.439 -27.278  21.544  1.00  0.00     0.008 C 
ATOM     38  C   UNL     1      23.556 -26.874  20.573  1.00  0.00     0.012 C 
ATOM     39  C   UNL     1      21.447 -28.240  20.869  1.00  0.00     0.012 C 
ENDBRANCH  35  37
ENDBRANCH  34  35
ENDBRANCH   1  34
TORSDOF 9
ENDMDL
