MODEL 1
REMARK VINA RESULT:    -3.776      0.000      0.000
REMARK INTER + INTRA:          -6.408
REMARK INTER:                  -5.762
REMARK INTRA:                  -0.646
REMARK UNBOUND:                -0.646
REMARK SMILES O=C([O-])CCCCCCCCC(=O)[O-]
REMARK SMILES IDX 7 1 6 2 5 3 4 4 2 5 1 6 3 7 8 8 9 9 10 10 11 11 12 12 13 13
REMARK SMILES IDX 14 14
REMARK H PARENT
REMARK Flexibility Score: inf
ROOT
ATOM      1  C   UNL     1       6.661   4.107  53.382  1.00  0.00     0.000 C 
ENDROOT
BRANCH   1   2
ATOM      2  C   UNL     1       6.563   3.214  52.133  1.00  0.00     0.000 C 
BRANCH   2   3
ATOM      3  C   UNL     1       5.701   3.831  51.017  1.00  0.00     0.006 C 
BRANCH   3   4
ATOM      4  C   UNL     1       5.695   5.371  51.014  1.00  0.00     0.053 C 
BRANCH   4   5
ATOM      5  C   UNL     1       4.310   5.940  51.017  1.00  0.00     0.041 C 
ATOM      6  O   UNL     1       4.137   7.186  50.948  1.00  0.00    -0.550 OA
ATOM      7  O   UNL     1       3.208   5.100  51.131  1.00  0.00    -0.550 OA
ENDBRANCH   4   5
ENDBRANCH   3   4
ENDBRANCH   2   3
ENDBRANCH   1   2
BRANCH   1   8
ATOM      8  C   UNL     1       8.106   4.514  53.710  1.00  0.00     0.000 C 
BRANCH   8   9
ATOM      9  C   UNL     1       9.073   4.244  52.543  1.00  0.00     0.000 C 
BRANCH   9  10
ATOM     10  C   UNL     1       9.434   5.522  51.763  1.00  0.00     0.006 C 
BRANCH  10  11
ATOM     11  C   UNL     1      10.754   6.180  52.197  1.00  0.00     0.053 C 
BRANCH  11  12
ATOM     12  C   UNL     1      11.899   5.775  51.321  1.00  0.00     0.041 C 
ATOM     13  O   UNL     1      12.313   4.586  51.328  1.00  0.00    -0.550 OA
ATOM     14  O   UNL     1      12.532   6.719  50.523  1.00  0.00    -0.550 OA
ENDBRANCH  11  12
ENDBRANCH  10  11
ENDBRANCH   9  10
ENDBRANCH   8   9
ENDBRANCH   1   8
TORSDOF 9
ENDMDL
MODEL 2
REMARK VINA RESULT:    -3.756      3.276      4.047
REMARK INTER + INTRA:          -6.378
REMARK INTER:                  -5.737
REMARK INTRA:                  -0.642
REMARK UNBOUND:                -0.646
REMARK SMILES O=C([O-])CCCCCCCCC(=O)[O-]
REMARK SMILES IDX 7 1 6 2 5 3 4 4 2 5 1 6 3 7 8 8 9 9 10 10 11 11 12 12 13 13
REMARK SMILES IDX 14 14
REMARK H PARENT
REMARK Flexibility Score: inf
ROOT
ATOM      1  C   UNL     1       8.323   4.720  50.766  1.00  0.00     0.000 C 
ENDROOT
BRANCH   1   2
ATOM      2  C   UNL     1       7.153   4.621  51.760  1.00  0.00     0.000 C 
BRANCH   2   3
ATOM      3  C   UNL     1       7.542   3.935  53.082  1.00  0.00     0.006 C 
BRANCH   3   4
ATOM      4  C   UNL     1       6.909   4.579  54.329  1.00  0.00     0.053 C 
BRANCH   4   5
ATOM      5  C   UNL     1       7.932   5.026  55.328  1.00  0.00     0.041 C 
ATOM      6  O   UNL     1       8.891   5.758  54.967  1.00  0.00    -0.550 OA
ATOM      7  O   UNL     1       7.849   4.607  56.650  1.00  0.00    -0.550 OA
ENDBRANCH   4   5
ENDBRANCH   3   4
ENDBRANCH   2   3
ENDBRANCH   1   2
BRANCH   1   8
ATOM      8  C   UNL     1       8.908   6.138  50.676  1.00  0.00     0.000 C 
BRANCH   8   9
ATOM      9  C   UNL     1      10.410   6.178  51.008  1.00  0.00     0.000 C 
BRANCH   9  10
ATOM     10  C   UNL     1      10.807   5.157  52.091  1.00  0.00     0.006 C 
BRANCH  10  11
ATOM     11  C   UNL     1      11.939   4.203  51.681  1.00  0.00     0.053 C 
BRANCH  11  12
ATOM     12  C   UNL     1      11.561   2.766  51.872  1.00  0.00     0.041 C 
ATOM     13  O   UNL     1      12.242   2.027  52.630  1.00  0.00    -0.550 OA
ATOM     14  O   UNL     1      10.476   2.235  51.186  1.00  0.00    -0.550 OA
ENDBRANCH  11  12
ENDBRANCH  10  11
ENDBRANCH   9  10
ENDBRANCH   8   9
ENDBRANCH   1   8
TORSDOF 9
ENDMDL
MODEL 3
REMARK VINA RESULT:    -3.741      0.879      5.947
REMARK INTER + INTRA:          -6.355
REMARK INTER:                  -5.595
REMARK INTRA:                  -0.760
REMARK UNBOUND:                -0.646
REMARK SMILES O=C([O-])CCCCCCCCC(=O)[O-]
REMARK SMILES IDX 7 1 6 2 5 3 4 4 2 5 1 6 3 7 8 8 9 9 10 10 11 11 12 12 13 13
REMARK SMILES IDX 14 14
REMARK H PARENT
REMARK Flexibility Score: inf
ROOT
ATOM      1  C   UNL     1       8.187   4.518  53.353  1.00  0.00     0.000 C 
ENDROOT
BRANCH   1   2
ATOM      2  C   UNL     1       9.030   3.705  52.355  1.00  0.00     0.000 C 
BRANCH   2   3
ATOM      3  C   UNL     1       9.280   4.449  51.031  1.00  0.00     0.006 C 
BRANCH   3   4
ATOM      4  C   UNL     1       9.459   5.969  51.194  1.00  0.00     0.053 C 
BRANCH   4   5
ATOM      5  C   UNL     1      10.864   6.348  51.546  1.00  0.00     0.041 C 
ATOM      6  O   UNL     1      11.151   6.696  52.722  1.00  0.00    -0.550 OA
ATOM      7  O   UNL     1      11.853   6.353  50.570  1.00  0.00    -0.550 OA
ENDBRANCH   4   5
ENDBRANCH   3   4
ENDBRANCH   2   3
ENDBRANCH   1   2
BRANCH   1   8
ATOM      8  C   UNL     1       6.697   4.146  53.315  1.00  0.00     0.000 C 
BRANCH   8   9
ATOM      9  C   UNL     1       6.375   3.116  52.218  1.00  0.00     0.000 C 
BRANCH   9  10
ATOM     10  C   UNL     1       5.418   3.668  51.145  1.00  0.00     0.006 C 
BRANCH  10  11
ATOM     11  C   UNL     1       5.540   5.181  50.902  1.00  0.00     0.053 C 
BRANCH  11  12
ATOM     12  C   UNL     1       4.213   5.871  50.979  1.00  0.00     0.041 C 
ATOM     13  O   UNL     1       4.154   7.129  51.000  1.00  0.00    -0.550 OA
ATOM     14  O   UNL     1       3.044   5.126  51.063  1.00  0.00    -0.550 OA
ENDBRANCH  11  12
ENDBRANCH  10  11
ENDBRANCH   9  10
ENDBRANCH   8   9
ENDBRANCH   1   8
TORSDOF 9
ENDMDL
MODEL 4
REMARK VINA RESULT:    -3.728      2.887      5.892
REMARK INTER + INTRA:          -6.336
REMARK INTER:                  -5.415
REMARK INTRA:                  -0.921
REMARK UNBOUND:                -0.646
REMARK SMILES O=C([O-])CCCCCCCCC(=O)[O-]
REMARK SMILES IDX 7 1 6 2 5 3 4 4 2 5 1 6 3 7 8 8 9 9 10 10 11 11 12 12 13 13
REMARK SMILES IDX 14 14
REMARK H PARENT
REMARK Flexibility Score: inf
ROOT
ATOM      1  C   UNL     1       9.752   6.013  50.370  1.00  0.00     0.000 C 
ENDROOT
BRANCH   1   2
ATOM      2  C   UNL     1      10.794   6.200  51.487  1.00  0.00     0.000 C 
BRANCH   2   3
ATOM      3  C   UNL     1      11.853   5.084  51.516  1.00  0.00     0.006 C 
BRANCH   3   4
ATOM      4  C   UNL     1      11.512   3.877  50.623  1.00  0.00     0.053 C 
BRANCH   4   5
ATOM      5  C   UNL     1      11.144   2.661  51.415  1.00  0.00     0.041 C 
ATOM      6  O   UNL     1      10.052   2.071  51.198  1.00  0.00    -0.550 OA
ATOM      7  O   UNL     1      11.986   2.198  52.419  1.00  0.00    -0.550 OA
ENDBRANCH   4   5
ENDBRANCH   3   4
ENDBRANCH   2   3
ENDBRANCH   1   2
BRANCH   1   8
ATOM      8  C   UNL     1       8.309   6.010  50.899  1.00  0.00     0.000 C 
BRANCH   8   9
ATOM      9  C   UNL     1       7.679   4.606  50.885  1.00  0.00     0.000 C 
BRANCH   9  10
ATOM     10  C   UNL     1       7.297   4.112  52.292  1.00  0.00     0.006 C 
BRANCH  10  11
ATOM     11  C   UNL     1       8.383   4.324  53.358  1.00  0.00     0.053 C 
BRANCH  11  12
ATOM     12  C   UNL     1       7.811   4.803  54.657  1.00  0.00     0.041 C 
ATOM     13  O   UNL     1       8.517   5.481  55.450  1.00  0.00    -0.550 OA
ATOM     14  O   UNL     1       6.509   4.471  55.008  1.00  0.00    -0.550 OA
ENDBRANCH  11  12
ENDBRANCH  10  11
ENDBRANCH   9  10
ENDBRANCH   8   9
ENDBRANCH   1   8
TORSDOF 9
ENDMDL
MODEL 5
REMARK VINA RESULT:    -3.715      2.750      3.887
REMARK INTER + INTRA:          -6.316
REMARK INTER:                  -5.525
REMARK INTRA:                  -0.791
REMARK UNBOUND:                -0.646
REMARK SMILES O=C([O-])CCCCCCCCC(=O)[O-]
REMARK SMILES IDX 7 1 6 2 5 3 4 4 2 5 1 6 3 7 8 8 9 9 10 10 11 11 12 12 13 13
REMARK SMILES IDX 14 14
REMARK H PARENT
REMARK Flexibility Score: inf
ROOT
ATOM      1  C   UNL     1       6.015   3.197  50.407  1.00  0.00     0.000 C 
ENDROOT
BRANCH   1   2
ATOM      2  C   UNL     1       6.120   4.287  51.487  1.00  0.00     0.000 C 
BRANCH   2   3
ATOM      3  C   UNL     1       6.736   3.776  52.802  1.00  0.00     0.006 C 
BRANCH   3   4
ATOM      4  C   UNL     1       7.993   4.548  53.242  1.00  0.00     0.053 C 
BRANCH   4   5
ATOM      5  C   UNL     1       7.921   4.998  54.669  1.00  0.00     0.041 C 
ATOM      6  O   UNL     1       8.835   5.717  55.153  1.00  0.00    -0.550 OA
ATOM      7  O   UNL     1       6.865   4.596  55.477  1.00  0.00    -0.550 OA
ENDBRANCH   4   5
ENDBRANCH   3   4
ENDBRANCH   2   3
ENDBRANCH   1   2
BRANCH   1   8
ATOM      8  C   UNL     1       6.906   1.979  50.702  1.00  0.00     0.000 C 
BRANCH   8   9
ATOM      9  C   UNL     1       8.230   2.014  49.919  1.00  0.00     0.000 C 
BRANCH   9  10
ATOM     10  C   UNL     1       9.463   2.087  50.839  1.00  0.00     0.006 C 
BRANCH  10  11
ATOM     11  C   UNL     1      10.365   3.308  50.598  1.00  0.00     0.053 C 
BRANCH  11  12
ATOM     12  C   UNL     1      11.481   3.387  51.594  1.00  0.00     0.041 C 
ATOM     13  O   UNL     1      12.047   4.488  51.826  1.00  0.00    -0.550 OA
ATOM     14  O   UNL     1      11.920   2.239  52.240  1.00  0.00    -0.550 OA
ENDBRANCH  11  12
ENDBRANCH  10  11
ENDBRANCH   9  10
ENDBRANCH   8   9
ENDBRANCH   1   8
TORSDOF 9
ENDMDL
MODEL 6
REMARK VINA RESULT:    -3.663      2.618      3.370
REMARK INTER + INTRA:          -6.237
REMARK INTER:                  -5.274
REMARK INTRA:                  -0.963
REMARK UNBOUND:                -0.646
REMARK SMILES O=C([O-])CCCCCCCCC(=O)[O-]
REMARK SMILES IDX 7 1 6 2 5 3 4 4 2 5 1 6 3 7 8 8 9 9 10 10 11 11 12 12 13 13
REMARK SMILES IDX 14 14
REMARK H PARENT
REMARK Flexibility Score: inf
ROOT
ATOM      1  C   UNL     1       8.350   2.500  50.708  1.00  0.00     0.000 C 
ENDROOT
BRANCH   1   2
ATOM      2  C   UNL     1       7.800   3.871  50.279  1.00  0.00     0.000 C 
BRANCH   2   3
ATOM      3  C   UNL     1       7.118   4.634  51.428  1.00  0.00     0.006 C 
BRANCH   3   4
ATOM      4  C   UNL     1       6.893   3.785  52.693  1.00  0.00     0.053 C 
BRANCH   4   5
ATOM      5  C   UNL     1       7.375   4.467  53.936  1.00  0.00     0.041 C 
ATOM      6  O   UNL     1       8.523   4.985  53.969  1.00  0.00    -0.550 OA
ATOM      7  O   UNL     1       6.575   4.501  55.071  1.00  0.00    -0.550 OA
ENDBRANCH   4   5
ENDBRANCH   3   4
ENDBRANCH   2   3
ENDBRANCH   1   2
BRANCH   1   8
ATOM      8  C   UNL     1       9.886   2.450  50.714  1.00  0.00     0.000 C 
BRANCH   8   9
ATOM      9  C   UNL     1      10.486   2.970  52.032  1.00  0.00     0.000 C 
BRANCH   9  10
ATOM     10  C   UNL     1      11.827   3.700  51.828  1.00  0.00     0.006 C 
BRANCH  10  11
ATOM     11  C   UNL     1      11.761   4.893  50.861  1.00  0.00     0.053 C 
BRANCH  11  12
ATOM     12  C   UNL     1      10.921   6.010  51.402  1.00  0.00     0.041 C 
ATOM     13  O   UNL     1      10.029   6.536  50.686  1.00  0.00    -0.550 OA
ATOM     14  O   UNL     1      11.148   6.492  52.685  1.00  0.00    -0.550 OA
ENDBRANCH  11  12
ENDBRANCH  10  11
ENDBRANCH   9  10
ENDBRANCH   8   9
ENDBRANCH   1   8
TORSDOF 9
ENDMDL
MODEL 7
REMARK VINA RESULT:    -3.587      2.009      3.176
REMARK INTER + INTRA:          -6.120
REMARK INTER:                  -5.662
REMARK INTRA:                  -0.458
REMARK UNBOUND:                -0.646
REMARK SMILES O=C([O-])CCCCCCCCC(=O)[O-]
REMARK SMILES IDX 7 1 6 2 5 3 4 4 2 5 1 6 3 7 8 8 9 9 10 10 11 11 12 12 13 13
REMARK SMILES IDX 14 14
REMARK H PARENT
REMARK Flexibility Score: inf
ROOT
ATOM      1  C   UNL     1       5.986   5.715  50.604  1.00  0.00     0.000 C 
ENDROOT
BRANCH   1   2
ATOM      2  C   UNL     1       4.606   6.396  50.594  1.00  0.00     0.000 C 
BRANCH   2   3
ATOM      3  C   UNL     1       3.471   5.466  51.058  1.00  0.00     0.006 C 
BRANCH   3   4
ATOM      4  C   UNL     1       2.216   5.523  50.169  1.00  0.00     0.053 C 
BRANCH   4   5
ATOM      5  C   UNL     1       1.104   4.664  50.689  1.00  0.00     0.041 C 
ATOM      6  O   UNL     1      -0.069   5.120  50.759  1.00  0.00    -0.550 OA
ATOM      7  O   UNL     1       1.365   3.372  51.130  1.00  0.00    -0.550 OA
ENDBRANCH   4   5
ENDBRANCH   3   4
ENDBRANCH   2   3
ENDBRANCH   1   2
BRANCH   1   8
ATOM      8  C   UNL     1       5.938   4.283  51.158  1.00  0.00     0.000 C 
BRANCH   8   9
ATOM      9  C   UNL     1       6.470   4.190  52.599  1.00  0.00     0.000 C 
BRANCH   9  10
ATOM     10  C   UNL     1       7.967   3.835  52.658  1.00  0.00     0.006 C 
BRANCH  10  11
ATOM     11  C   UNL     1       8.843   4.884  53.361  1.00  0.00     0.053 C 
BRANCH  11  12
ATOM     12  C   UNL     1       9.776   5.567  52.409  1.00  0.00     0.041 C 
ATOM     13  O   UNL     1       9.559   5.527  51.169  1.00  0.00    -0.550 OA
ATOM     14  O   UNL     1      10.905   6.219  52.889  1.00  0.00    -0.550 OA
ENDBRANCH  11  12
ENDBRANCH  10  11
ENDBRANCH   9  10
ENDBRANCH   8   9
ENDBRANCH   1   8
TORSDOF 9
ENDMDL
MODEL 8
REMARK VINA RESULT:    -3.501      3.192      4.278
REMARK INTER + INTRA:          -5.990
REMARK INTER:                  -5.567
REMARK INTRA:                  -0.423
REMARK UNBOUND:                -0.646
REMARK SMILES O=C([O-])CCCCCCCCC(=O)[O-]
REMARK SMILES IDX 7 1 6 2 5 3 4 4 2 5 1 6 3 7 8 8 9 9 10 10 11 11 12 12 13 13
REMARK SMILES IDX 14 14
REMARK H PARENT
REMARK Flexibility Score: inf
ROOT
ATOM      1  C   UNL     1       5.106   5.628  51.320  1.00  0.00     0.000 C 
ENDROOT
BRANCH   1   2
ATOM      2  C   UNL     1       4.053   6.640  50.837  1.00  0.00     0.000 C 
BRANCH   2   3
ATOM      3  C   UNL     1       2.809   5.971  50.225  1.00  0.00     0.006 C 
BRANCH   3   4
ATOM      4  C   UNL     1       2.534   4.555  50.764  1.00  0.00     0.053 C 
BRANCH   4   5
ATOM      5  C   UNL     1       1.081   4.196  50.719  1.00  0.00     0.041 C 
ATOM      6  O   UNL     1       0.203   5.095  50.808  1.00  0.00    -0.550 OA
ATOM      7  O   UNL     1       0.692   2.866  50.615  1.00  0.00    -0.550 OA
ENDBRANCH   4   5
ENDBRANCH   3   4
ENDBRANCH   2   3
ENDBRANCH   1   2
BRANCH   1   8
ATOM      8  C   UNL     1       6.206   5.371  50.278  1.00  0.00     0.000 C 
BRANCH   8   9
ATOM      9  C   UNL     1       7.521   4.891  50.917  1.00  0.00     0.000 C 
BRANCH   9  10
ATOM     10  C   UNL     1       7.309   4.232  52.293  1.00  0.00     0.006 C 
BRANCH  10  11
ATOM     11  C   UNL     1       8.421   4.520  53.314  1.00  0.00     0.053 C 
BRANCH  11  12
ATOM     12  C   UNL     1       7.871   4.909  54.651  1.00  0.00     0.041 C 
ATOM     13  O   UNL     1       8.546   5.635  55.428  1.00  0.00    -0.550 OA
ATOM     14  O   UNL     1       6.626   4.441  55.054  1.00  0.00    -0.550 OA
ENDBRANCH  11  12
ENDBRANCH  10  11
ENDBRANCH   9  10
ENDBRANCH   8   9
ENDBRANCH   1   8
TORSDOF 9
ENDMDL
MODEL 9
REMARK VINA RESULT:    -3.486      1.453      1.942
REMARK INTER + INTRA:          -5.966
REMARK INTER:                  -5.271
REMARK INTRA:                  -0.695
REMARK UNBOUND:                -0.646
REMARK SMILES O=C([O-])CCCCCCCCC(=O)[O-]
REMARK SMILES IDX 7 1 6 2 5 3 4 4 2 5 1 6 3 7 8 8 9 9 10 10 11 11 12 12 13 13
REMARK SMILES IDX 14 14
REMARK H PARENT
REMARK Flexibility Score: inf
ROOT
ATOM      1  C   UNL     1       7.863   4.399  52.221  1.00  0.00     0.000 C 
ENDROOT
BRANCH   1   2
ATOM      2  C   UNL     1       7.809   5.469  51.118  1.00  0.00     0.000 C 
BRANCH   2   3
ATOM      3  C   UNL     1       6.426   5.578  50.451  1.00  0.00     0.006 C 
BRANCH   3   4
ATOM      4  C   UNL     1       5.259   5.168  51.367  1.00  0.00     0.053 C 
BRANCH   4   5
ATOM      5  C   UNL     1       3.979   5.861  51.012  1.00  0.00     0.041 C 
ATOM      6  O   UNL     1       3.967   7.104  50.812  1.00  0.00    -0.550 OA
ATOM      7  O   UNL     1       2.792   5.142  50.936  1.00  0.00    -0.550 OA
ENDBRANCH   4   5
ENDBRANCH   3   4
ENDBRANCH   2   3
ENDBRANCH   1   2
BRANCH   1   8
ATOM      8  C   UNL     1       8.205   3.002  51.679  1.00  0.00     0.000 C 
BRANCH   8   9
ATOM      9  C   UNL     1       9.593   2.951  51.017  1.00  0.00     0.000 C 
BRANCH   9  10
ATOM     10  C   UNL     1      10.743   3.007  52.041  1.00  0.00     0.006 C 
BRANCH  10  11
ATOM     11  C   UNL     1      11.875   3.979  51.672  1.00  0.00     0.053 C 
BRANCH  11  12
ATOM     12  C   UNL     1      11.417   5.404  51.676  1.00  0.00     0.041 C 
ATOM     13  O   UNL     1      11.469   6.090  50.621  1.00  0.00    -0.550 OA
ATOM     14  O   UNL     1      10.965   5.987  52.854  1.00  0.00    -0.550 OA
ENDBRANCH  11  12
ENDBRANCH  10  11
ENDBRANCH   9  10
ENDBRANCH   8   9
ENDBRANCH   1   8
TORSDOF 9
ENDMDL
