MODEL 1
REMARK VINA RESULT:    -4.211      0.000      0.000
REMARK INTER + INTRA:          -6.589
REMARK INTER:                  -6.426
REMARK INTRA:                  -0.163
REMARK UNBOUND:                -0.163
REMARK SMILES CC1=CCC[C@@H](C)C(=O)C[C@@H](C(C)C)C(=O)C1
REMARK SMILES IDX 8 1 9 2 6 3 7 4 5 5 4 6 3 7 2 8 1 9 10 11 11 12 15 13 16 14
REMARK SMILES IDX 17 15 12 17 13 18 14 19
REMARK H PARENT
REMARK Flexibility Score: 70.00
ROOT
ATOM      1  C   UNL     1      -8.951  73.273  25.756  1.00  0.00     0.136 C 
ATOM      2  O   UNL     1      -8.683  73.349  26.945  1.00  0.00    -0.299 OA
ENDROOT
BRANCH   1   3
ATOM      3  C   UNL     1      -9.891  74.308  25.108  1.00  0.00     0.053 C 
ATOM      4  C   UNL     1     -10.603  75.201  26.132  1.00  0.00     0.016 C 
BRANCH   3   5
ATOM      5  C   UNL     1     -10.877  73.459  24.340  1.00  0.00     0.015 C 
BRANCH   5   6
ATOM      6  C   UNL     1     -11.022  73.290  22.856  1.00  0.00     0.028 C 
BRANCH   6   7
ATOM      7  C   UNL     1     -10.025  74.244  22.183  1.00  0.00    -0.028 C 
ATOM      8  C   UNL     1      -8.759  73.988  21.691  1.00  0.00    -0.070 CG0
ATOM      9  C   UNL     1      -8.098  75.125  20.947  1.00  0.00     0.039 C 
ATOM     10  G   UNL     1      -7.924  72.687  21.854  1.00  0.00     0.000 G0
ENDBRANCH   6   7
ENDBRANCH   5   6
ENDBRANCH   3   5
ENDBRANCH   1   3
BRANCH   1  11
ATOM     11  C   UNL     1      -8.334  72.143  24.918  1.00  0.00     0.087 C 
BRANCH  11  12
ATOM     12  C   UNL     1      -6.880  72.320  24.302  1.00  0.00     0.066 C 
BRANCH  12  13
ATOM     13  C   UNL     1      -6.752  72.756  22.824  1.00  0.00     0.140 C 
ATOM     14  O   UNL     1      -5.702  73.245  22.431  1.00  0.00    -0.299 OA
BRANCH  13  15
ATOM     15  C   UNL     1      -7.937  72.685  21.846  1.00  0.00     0.106 CG0
ATOM     16  G   UNL     1      -8.766  73.990  21.700  1.00  0.00     0.000 G0
ENDBRANCH  13  15
ENDBRANCH  12  13
BRANCH  12  17
ATOM     17  C   UNL     1      -5.903  71.143  24.632  1.00  0.00    -0.006 C 
ATOM     18  C   UNL     1      -4.422  71.551  24.627  1.00  0.00     0.008 C 
ATOM     19  C   UNL     1      -6.117  69.931  23.707  1.00  0.00     0.008 C 
ENDBRANCH  12  17
ENDBRANCH  11  12
ENDBRANCH   1  11
TORSDOF 1
ENDMDL
MODEL 2
REMARK VINA RESULT:    -3.890      1.759      2.739
REMARK INTER + INTRA:          -6.099
REMARK INTER:                  -5.784
REMARK INTRA:                  -0.315
REMARK UNBOUND:                -0.163
REMARK SMILES CC1=CCC[C@@H](C)C(=O)C[C@@H](C(C)C)C(=O)C1
REMARK SMILES IDX 8 1 9 2 6 3 7 4 5 5 4 6 3 7 2 8 1 9 10 11 11 12 15 13 16 14
REMARK SMILES IDX 17 15 12 17 13 18 14 19
REMARK H PARENT
REMARK Flexibility Score: 70.00
ROOT
ATOM      1  C   UNL     1      -8.454  72.526  24.258  1.00  0.00     0.136 C 
ATOM      2  O   UNL     1      -8.246  72.625  25.458  1.00  0.00    -0.299 OA
ENDROOT
BRANCH   1   3
ATOM      3  C   UNL     1      -9.321  73.575  23.535  1.00  0.00     0.053 C 
ATOM      4  C   UNL     1     -10.826  73.357  23.737  1.00  0.00     0.016 C 
BRANCH   3   5
ATOM      5  C   UNL     1      -8.932  73.416  22.085  1.00  0.00     0.015 C 
BRANCH   5   6
ATOM      6  C   UNL     1      -8.245  74.397  21.179  1.00  0.00     0.028 C 
BRANCH   6   7
ATOM      7  C   UNL     1      -7.103  73.653  20.474  1.00  0.00    -0.028 C 
ATOM      8  C   UNL     1      -5.979  73.054  21.013  1.00  0.00    -0.070 CG0
ATOM      9  C   UNL     1      -5.123  72.270  20.047  1.00  0.00     0.039 C 
ATOM     10  G   UNL     1      -5.475  73.135  22.481  1.00  0.00     0.000 G0
ENDBRANCH   6   7
ENDBRANCH   5   6
ENDBRANCH   3   5
ENDBRANCH   1   3
BRANCH   1  11
ATOM     11  C   UNL     1      -7.836  71.353  23.484  1.00  0.00     0.087 C 
BRANCH  11  12
ATOM     12  C   UNL     1      -6.332  70.925  23.764  1.00  0.00     0.066 C 
BRANCH  12  13
ATOM     13  C   UNL     1      -5.195  71.796  23.180  1.00  0.00     0.140 C 
ATOM     14  O   UNL     1      -4.033  71.448  23.331  1.00  0.00    -0.299 OA
BRANCH  13  15
ATOM     15  C   UNL     1      -5.471  73.144  22.493  1.00  0.00     0.106 CG0
ATOM     16  G   UNL     1      -5.982  73.057  21.028  1.00  0.00     0.000 G0
ENDBRANCH  13  15
ENDBRANCH  12  13
BRANCH  12  17
ATOM     17  C   UNL     1      -6.051  69.402  23.539  1.00  0.00    -0.006 C 
ATOM     18  C   UNL     1      -7.256  68.629  22.982  1.00  0.00     0.008 C 
ATOM     19  C   UNL     1      -5.525  68.712  24.810  1.00  0.00     0.008 C 
ENDBRANCH  12  17
ENDBRANCH  11  12
ENDBRANCH   1  11
TORSDOF 1
ENDMDL
MODEL 3
REMARK VINA RESULT:    -3.790      1.947      4.603
REMARK INTER + INTRA:          -5.946
REMARK INTER:                  -5.726
REMARK INTRA:                  -0.220
REMARK UNBOUND:                -0.163
REMARK SMILES CC1=CCC[C@@H](C)C(=O)C[C@@H](C(C)C)C(=O)C1
REMARK SMILES IDX 8 1 9 2 6 3 7 4 5 5 4 6 3 7 2 8 1 9 10 11 11 12 15 13 16 14
REMARK SMILES IDX 17 15 12 17 13 18 14 19
REMARK H PARENT
REMARK Flexibility Score: 70.00
ROOT
ATOM      1  C   UNL     1     -10.042  74.163  22.530  1.00  0.00     0.136 C 
ATOM      2  O   UNL     1     -10.954  73.442  22.155  1.00  0.00    -0.299 OA
ENDROOT
BRANCH   1   3
ATOM      3  C   UNL     1      -8.938  74.589  21.544  1.00  0.00     0.053 C 
ATOM      4  C   UNL     1      -9.485  75.036  20.182  1.00  0.00     0.016 C 
BRANCH   3   5
ATOM      5  C   UNL     1      -8.082  73.352  21.413  1.00  0.00     0.015 C 
BRANCH   5   6
ATOM      6  C   UNL     1      -6.607  73.195  21.646  1.00  0.00     0.028 C 
BRANCH   6   7
ATOM      7  C   UNL     1      -6.376  71.788  22.213  1.00  0.00    -0.028 C 
ATOM      8  C   UNL     1      -6.689  71.280  23.461  1.00  0.00    -0.070 CG0
ATOM      9  C   UNL     1      -6.462  69.798  23.645  1.00  0.00     0.039 C 
ATOM     10  G   UNL     1      -7.202  72.063  24.701  1.00  0.00     0.000 G0
ENDBRANCH   6   7
ENDBRANCH   5   6
ENDBRANCH   3   5
ENDBRANCH   1   3
BRANCH   1  11
ATOM     11  C   UNL     1     -10.018  74.644  23.989  1.00  0.00     0.087 C 
BRANCH  11  12
ATOM     12  C   UNL     1      -9.213  73.817  25.081  1.00  0.00     0.066 C 
BRANCH  12  13
ATOM     13  C   UNL     1      -8.702  72.405  24.709  1.00  0.00     0.140 C 
ATOM     14  O   UNL     1      -9.508  71.515  24.478  1.00  0.00    -0.299 OA
BRANCH  13  15
ATOM     15  C   UNL     1      -7.205  72.053  24.709  1.00  0.00     0.106 CG0
ATOM     16  G   UNL     1      -6.698  71.275  23.464  1.00  0.00     0.000 G0
ENDBRANCH  13  15
ENDBRANCH  12  13
BRANCH  12  17
ATOM     17  C   UNL     1      -9.876  73.824  26.499  1.00  0.00    -0.006 C 
ATOM     18  C   UNL     1     -10.845  74.994  26.720  1.00  0.00     0.008 C 
ATOM     19  C   UNL     1      -8.833  73.783  27.630  1.00  0.00     0.008 C 
ENDBRANCH  12  17
ENDBRANCH  11  12
ENDBRANCH   1  11
TORSDOF 1
ENDMDL
MODEL 4
REMARK VINA RESULT:    -3.755      2.280      4.557
REMARK INTER + INTRA:          -5.893
REMARK INTER:                  -5.487
REMARK INTRA:                  -0.406
REMARK UNBOUND:                -0.163
REMARK SMILES CC1=CCC[C@@H](C)C(=O)C[C@@H](C(C)C)C(=O)C1
REMARK SMILES IDX 8 1 9 2 6 3 7 4 5 5 4 6 3 7 2 8 1 9 10 11 11 12 15 13 16 14
REMARK SMILES IDX 17 15 12 17 13 18 14 19
REMARK H PARENT
REMARK Flexibility Score: 70.00
ROOT
ATOM      1  C   UNL     1     -10.559  73.474  23.508  1.00  0.00     0.136 C 
ATOM      2  O   UNL     1     -11.692  73.021  23.440  1.00  0.00    -0.299 OA
ENDROOT
BRANCH   1   3
ATOM      3  C   UNL     1      -9.570  72.925  24.554  1.00  0.00     0.053 C 
ATOM      4  C   UNL     1      -9.467  73.805  25.807  1.00  0.00     0.016 C 
BRANCH   3   5
ATOM      5  C   UNL     1      -8.257  72.875  23.809  1.00  0.00     0.015 C 
BRANCH   5   6
ATOM      6  C   UNL     1      -7.763  71.844  22.836  1.00  0.00     0.028 C 
BRANCH   6   7
ATOM      7  C   UNL     1      -6.554  72.443  22.103  1.00  0.00    -0.028 C 
ATOM      8  C   UNL     1      -6.509  73.161  20.923  1.00  0.00    -0.070 CG0
ATOM      9  C   UNL     1      -5.163  73.739  20.554  1.00  0.00     0.039 C 
ATOM     10  G   UNL     1      -7.668  73.403  19.916  1.00  0.00     0.000 G0
ENDBRANCH   6   7
ENDBRANCH   5   6
ENDBRANCH   3   5
ENDBRANCH   1   3
BRANCH   1  11
ATOM     11  C   UNL     1     -10.134  74.584  22.535  1.00  0.00     0.087 C 
BRANCH  11  12
ATOM     12  C   UNL     1     -10.000  74.266  20.984  1.00  0.00     0.066 C 
BRANCH  12  13
ATOM     13  C   UNL     1      -8.651  74.553  20.285  1.00  0.00     0.140 C 
ATOM     14  O   UNL     1      -8.379  75.697  19.950  1.00  0.00    -0.299 OA
BRANCH  13  15
ATOM     15  C   UNL     1      -7.670  73.429  19.911  1.00  0.00     0.106 CG0
ATOM     16  G   UNL     1      -6.517  73.180  20.921  1.00  0.00     0.000 G0
ENDBRANCH  13  15
ENDBRANCH  12  13
BRANCH  12  17
ATOM     17  C   UNL     1     -11.203  74.780  20.124  1.00  0.00    -0.006 C 
ATOM     18  C   UNL     1     -11.587  76.239  20.411  1.00  0.00     0.008 C 
ATOM     19  C   UNL     1     -12.441  73.875  20.255  1.00  0.00     0.008 C 
ENDBRANCH  12  17
ENDBRANCH  11  12
ENDBRANCH   1  11
TORSDOF 1
ENDMDL
MODEL 5
REMARK VINA RESULT:    -3.421      3.057      6.531
REMARK INTER + INTRA:          -5.384
REMARK INTER:                  -4.937
REMARK INTRA:                  -0.447
REMARK UNBOUND:                -0.163
REMARK SMILES CC1=CCC[C@@H](C)C(=O)C[C@@H](C(C)C)C(=O)C1
REMARK SMILES IDX 8 1 9 2 6 3 7 4 5 5 4 6 3 7 2 8 1 9 10 11 11 12 15 13 16 14
REMARK SMILES IDX 17 15 12 17 13 18 14 19
REMARK H PARENT
REMARK Flexibility Score: 70.00
ROOT
ATOM      1  C   UNL     1      -6.241  68.742  22.352  1.00  0.00     0.136 C 
ATOM      2  O   UNL     1      -5.655  69.107  21.344  1.00  0.00    -0.299 OA
ENDROOT
BRANCH   1   3
ATOM      3  C   UNL     1      -6.226  67.256  22.760  1.00  0.00     0.053 C 
ATOM      4  C   UNL     1      -7.147  66.384  21.898  1.00  0.00     0.016 C 
BRANCH   3   5
ATOM      5  C   UNL     1      -6.681  67.280  24.200  1.00  0.00     0.015 C 
BRANCH   5   6
ATOM      6  C   UNL     1      -5.909  66.931  25.439  1.00  0.00     0.028 C 
BRANCH   6   7
ATOM      7  C   UNL     1      -4.555  67.649  25.358  1.00  0.00    -0.028 C 
ATOM      8  C   UNL     1      -4.250  68.979  25.582  1.00  0.00    -0.070 CG0
ATOM      9  C   UNL     1      -2.781  69.330  25.564  1.00  0.00     0.039 C 
ATOM     10  G   UNL     1      -5.242  70.154  25.803  1.00  0.00     0.000 G0
ENDBRANCH   6   7
ENDBRANCH   5   6
ENDBRANCH   3   5
ENDBRANCH   1   3
BRANCH   1  11
ATOM     11  C   UNL     1      -6.981  69.781  23.207  1.00  0.00     0.087 C 
BRANCH  11  12
ATOM     12  C   UNL     1      -6.288  71.173  23.536  1.00  0.00     0.066 C 
BRANCH  12  13
ATOM     13  C   UNL     1      -5.284  71.238  24.710  1.00  0.00     0.140 C 
ATOM     14  O   UNL     1      -4.438  72.121  24.729  1.00  0.00    -0.299 OA
BRANCH  13  15
ATOM     15  C   UNL     1      -5.250  70.169  25.816  1.00  0.00     0.106 CG0
ATOM     16  G   UNL     1      -4.253  69.000  25.588  1.00  0.00     0.000 G0
ENDBRANCH  13  15
ENDBRANCH  12  13
BRANCH  12  17
ATOM     17  C   UNL     1      -7.278  72.384  23.569  1.00  0.00    -0.006 C 
ATOM     18  C   UNL     1      -8.216  72.381  24.786  1.00  0.00     0.008 C 
ATOM     19  C   UNL     1      -8.100  72.501  22.273  1.00  0.00     0.008 C 
ENDBRANCH  12  17
ENDBRANCH  11  12
ENDBRANCH   1  11
TORSDOF 1
ENDMDL
MODEL 6
REMARK VINA RESULT:    -3.419      4.497      6.075
REMARK INTER + INTRA:          -5.381
REMARK INTER:                  -4.864
REMARK INTRA:                  -0.516
REMARK UNBOUND:                -0.163
REMARK SMILES CC1=CCC[C@@H](C)C(=O)C[C@@H](C(C)C)C(=O)C1
REMARK SMILES IDX 8 1 9 2 6 3 7 4 5 5 4 6 3 7 2 8 1 9 10 11 11 12 15 13 16 14
REMARK SMILES IDX 17 15 12 17 13 18 14 19
REMARK H PARENT
REMARK Flexibility Score: 70.00
ROOT
ATOM      1  C   UNL     1      -5.688  67.100  24.017  1.00  0.00     0.136 C 
ATOM      2  O   UNL     1      -4.773  67.029  23.211  1.00  0.00    -0.299 OA
ENDROOT
BRANCH   1   3
ATOM      3  C   UNL     1      -7.150  67.054  23.532  1.00  0.00     0.053 C 
ATOM      4  C   UNL     1      -7.417  65.926  22.527  1.00  0.00     0.016 C 
BRANCH   3   5
ATOM      5  C   UNL     1      -7.358  68.411  22.903  1.00  0.00     0.015 C 
BRANCH   5   6
ATOM      6  C   UNL     1      -7.301  69.768  23.544  1.00  0.00     0.028 C 
BRANCH   6   7
ATOM      7  C   UNL     1      -6.220  70.578  22.816  1.00  0.00    -0.028 C 
ATOM      8  C   UNL     1      -4.983  70.998  23.267  1.00  0.00    -0.070 CG0
ATOM      9  C   UNL     1      -4.093  71.653  22.237  1.00  0.00     0.039 C 
ATOM     10  G   UNL     1      -4.424  70.914  24.715  1.00  0.00     0.000 G0
ENDBRANCH   6   7
ENDBRANCH   5   6
ENDBRANCH   3   5
ENDBRANCH   1   3
BRANCH   1  11
ATOM     11  C   UNL     1      -5.363  67.226  25.513  1.00  0.00     0.087 C 
BRANCH  11  12
ATOM     12  C   UNL     1      -4.806  68.599  26.088  1.00  0.00     0.066 C 
BRANCH  12  13
ATOM     13  C   UNL     1      -3.956  69.497  25.161  1.00  0.00     0.140 C 
ATOM     14  O   UNL     1      -2.842  69.125  24.820  1.00  0.00    -0.299 OA
BRANCH  13  15
ATOM     15  C   UNL     1      -4.425  70.894  24.723  1.00  0.00     0.106 CG0
ATOM     16  G   UNL     1      -4.967  70.996  23.270  1.00  0.00     0.000 G0
ENDBRANCH  13  15
ENDBRANCH  12  13
BRANCH  12  17
ATOM     17  C   UNL     1      -4.160  68.477  27.508  1.00  0.00    -0.006 C 
ATOM     18  C   UNL     1      -4.522  67.177  28.241  1.00  0.00     0.008 C 
ATOM     19  C   UNL     1      -4.479  69.690  28.400  1.00  0.00     0.008 C 
ENDBRANCH  12  17
ENDBRANCH  11  12
ENDBRANCH   1  11
TORSDOF 1
ENDMDL
MODEL 7
REMARK VINA RESULT:    -3.237      3.922      6.197
REMARK INTER + INTRA:          -5.102
REMARK INTER:                  -4.435
REMARK INTRA:                  -0.668
REMARK UNBOUND:                -0.163
REMARK SMILES CC1=CCC[C@@H](C)C(=O)C[C@@H](C(C)C)C(=O)C1
REMARK SMILES IDX 8 1 9 2 6 3 7 4 5 5 4 6 3 7 2 8 1 9 10 11 11 12 15 13 16 14
REMARK SMILES IDX 17 15 12 17 13 18 14 19
REMARK H PARENT
REMARK Flexibility Score: 70.00
ROOT
ATOM      1  C   UNL     1      -6.272  71.054  24.597  1.00  0.00     0.136 C 
ATOM      2  O   UNL     1      -6.954  71.890  25.169  1.00  0.00    -0.299 OA
ENDROOT
BRANCH   1   3
ATOM      3  C   UNL     1      -6.545  70.713  23.120  1.00  0.00     0.053 C 
ATOM      4  C   UNL     1      -7.338  71.802  22.386  1.00  0.00     0.016 C 
BRANCH   3   5
ATOM      5  C   UNL     1      -7.324  69.421  23.192  1.00  0.00     0.015 C 
BRANCH   5   6
ATOM      6  C   UNL     1      -6.902  68.040  22.779  1.00  0.00     0.028 C 
BRANCH   6   7
ATOM      7  C   UNL     1      -6.939  67.152  24.030  1.00  0.00    -0.028 C 
ATOM      8  C   UNL     1      -5.897  66.704  24.821  1.00  0.00    -0.070 CG0
ATOM      9  C   UNL     1      -6.295  65.964  26.077  1.00  0.00     0.039 C 
ATOM     10  G   UNL     1      -4.374  66.835  24.544  1.00  0.00     0.000 G0
ENDBRANCH   6   7
ENDBRANCH   5   6
ENDBRANCH   3   5
ENDBRANCH   1   3
BRANCH   1  11
ATOM     11  C   UNL     1      -5.138  70.358  25.364  1.00  0.00     0.087 C 
BRANCH  11  12
ATOM     12  C   UNL     1      -4.054  69.507  24.573  1.00  0.00     0.066 C 
BRANCH  12  13
ATOM     13  C   UNL     1      -3.700  68.095  25.094  1.00  0.00     0.140 C 
ATOM     14  O   UNL     1      -2.802  67.965  25.915  1.00  0.00    -0.299 OA
BRANCH  13  15
ATOM     15  C   UNL     1      -4.378  66.828  24.546  1.00  0.00     0.106 CG0
ATOM     16  G   UNL     1      -5.902  66.708  24.824  1.00  0.00     0.000 G0
ENDBRANCH  13  15
ENDBRANCH  12  13
BRANCH  12  17
ATOM     17  C   UNL     1      -2.766  70.311  24.196  1.00  0.00    -0.006 C 
ATOM     18  C   UNL     1      -2.483  71.496  25.131  1.00  0.00     0.008 C 
ATOM     19  C   UNL     1      -2.783  70.788  22.733  1.00  0.00     0.008 C 
ENDBRANCH  12  17
ENDBRANCH  11  12
ENDBRANCH   1  11
TORSDOF 1
ENDMDL
MODEL 8
REMARK VINA RESULT:    -3.226     11.986     13.722
REMARK INTER + INTRA:          -5.085
REMARK INTER:                  -4.582
REMARK INTRA:                  -0.504
REMARK UNBOUND:                -0.163
REMARK SMILES CC1=CCC[C@@H](C)C(=O)C[C@@H](C(C)C)C(=O)C1
REMARK SMILES IDX 8 1 9 2 6 3 7 4 5 5 4 6 3 7 2 8 1 9 10 11 11 12 15 13 16 14
REMARK SMILES IDX 17 15 12 17 13 18 14 19
REMARK H PARENT
REMARK Flexibility Score: 70.00
ROOT
ATOM      1  C   UNL     1      -7.789  67.344  35.175  1.00  0.00     0.136 C 
ATOM      2  O   UNL     1      -7.914  66.138  35.030  1.00  0.00    -0.299 OA
ENDROOT
BRANCH   1   3
ATOM      3  C   UNL     1      -8.598  68.081  36.260  1.00  0.00     0.053 C 
ATOM      4  C   UNL     1      -8.556  69.607  36.111  1.00  0.00     0.016 C 
BRANCH   3   5
ATOM      5  C   UNL     1      -7.948  67.637  37.549  1.00  0.00     0.015 C 
BRANCH   5   6
ATOM      6  C   UNL     1      -6.557  67.122  37.776  1.00  0.00     0.028 C 
BRANCH   6   7
ATOM      7  C   UNL     1      -5.670  68.325  38.124  1.00  0.00    -0.028 C 
ATOM      8  C   UNL     1      -4.538  68.797  37.485  1.00  0.00    -0.070 CG0
ATOM      9  C   UNL     1      -3.986  70.105  38.003  1.00  0.00     0.039 C 
ATOM     10  G   UNL     1      -3.748  68.118  36.333  1.00  0.00     0.000 G0
ENDBRANCH   6   7
ENDBRANCH   5   6
ENDBRANCH   3   5
ENDBRANCH   1   3
BRANCH   1  11
ATOM     11  C   UNL     1      -6.811  68.111  34.271  1.00  0.00     0.087 C 
BRANCH  11  12
ATOM     12  C   UNL     1      -5.297  67.640  34.165  1.00  0.00     0.066 C 
BRANCH  12  13
ATOM     13  C   UNL     1      -4.215  68.464  34.900  1.00  0.00     0.140 C 
ATOM     14  O   UNL     1      -3.653  69.378  34.312  1.00  0.00    -0.299 OA
BRANCH  13  15
ATOM     15  C   UNL     1      -3.748  68.115  36.323  1.00  0.00     0.106 CG0
ATOM     16  G   UNL     1      -4.542  68.792  37.475  1.00  0.00     0.000 G0
ENDBRANCH  13  15
ENDBRANCH  12  13
BRANCH  12  17
ATOM     17  C   UNL     1      -4.844  67.278  32.712  1.00  0.00    -0.006 C 
ATOM     18  C   UNL     1      -6.002  67.206  31.705  1.00  0.00     0.008 C 
ATOM     19  C   UNL     1      -4.025  65.976  32.664  1.00  0.00     0.008 C 
ENDBRANCH  12  17
ENDBRANCH  11  12
ENDBRANCH   1  11
TORSDOF 1
ENDMDL
MODEL 9
REMARK VINA RESULT:    -3.194      3.690      6.058
REMARK INTER + INTRA:          -5.037
REMARK INTER:                  -4.762
REMARK INTRA:                  -0.274
REMARK UNBOUND:                -0.163
REMARK SMILES CC1=CCC[C@@H](C)C(=O)C[C@@H](C(C)C)C(=O)C1
REMARK SMILES IDX 8 1 9 2 6 3 7 4 5 5 4 6 3 7 2 8 1 9 10 11 11 12 15 13 16 14
REMARK SMILES IDX 17 15 12 17 13 18 14 19
REMARK H PARENT
REMARK Flexibility Score: 70.00
ROOT
ATOM      1  C   UNL     1      -5.117  71.383  24.632  1.00  0.00     0.136 C 
ATOM      2  O   UNL     1      -4.142  72.114  24.713  1.00  0.00    -0.299 OA
ENDROOT
BRANCH   1   3
ATOM      3  C   UNL     1      -6.187  71.640  23.553  1.00  0.00     0.053 C 
ATOM      4  C   UNL     1      -7.467  72.276  24.112  1.00  0.00     0.016 C 
BRANCH   3   5
ATOM      5  C   UNL     1      -6.458  70.266  22.989  1.00  0.00     0.015 C 
BRANCH   5   6
ATOM      6  C   UNL     1      -7.525  69.281  23.373  1.00  0.00     0.028 C 
BRANCH   6   7
ATOM      7  C   UNL     1      -7.030  67.885  22.972  1.00  0.00    -0.028 C 
ATOM      8  C   UNL     1      -6.365  66.937  23.727  1.00  0.00    -0.070 CG0
ATOM      9  C   UNL     1      -6.154  65.596  23.065  1.00  0.00     0.039 C 
ATOM     10  G   UNL     1      -5.774  67.108  25.154  1.00  0.00     0.000 G0
ENDBRANCH   6   7
ENDBRANCH   5   6
ENDBRANCH   3   5
ENDBRANCH   1   3
BRANCH   1  11
ATOM     11  C   UNL     1      -5.256  70.205  25.607  1.00  0.00     0.087 C 
BRANCH  11  12
ATOM     12  C   UNL     1      -4.087  69.135  25.725  1.00  0.00     0.066 C 
BRANCH  12  13
ATOM     13  C   UNL     1      -4.350  67.696  25.223  1.00  0.00     0.140 C 
ATOM     14  O   UNL     1      -3.419  67.030  24.793  1.00  0.00    -0.299 OA
BRANCH  13  15
ATOM     15  C   UNL     1      -5.767  67.100  25.157  1.00  0.00     0.106 CG0
ATOM     16  G   UNL     1      -6.359  66.934  23.731  1.00  0.00     0.000 G0
ENDBRANCH  13  15
ENDBRANCH  12  13
BRANCH  12  17
ATOM     17  C   UNL     1      -3.370  69.127  27.116  1.00  0.00    -0.006 C 
ATOM     18  C   UNL     1      -4.335  69.213  28.307  1.00  0.00     0.008 C 
ATOM     19  C   UNL     1      -2.299  70.227  27.226  1.00  0.00     0.008 C 
ENDBRANCH  12  17
ENDBRANCH  11  12
ENDBRANCH   1  11
TORSDOF 1
ENDMDL
