MODEL 1
REMARK VINA RESULT:    -3.331      0.000      0.000
REMARK INTER + INTRA:          -3.331
REMARK INTER:                  -3.331
REMARK INTRA:                   0.000
REMARK UNBOUND:                 0.000
REMARK SMILES O=C1CCCCC1
REMARK SMILES IDX 5 1 4 2 3 3 2 4 1 5 7 6 6 7
REMARK H PARENT
REMARK Flexibility Score: inf
ROOT
ATOM      1  C   UNL     1      11.576  -4.977  -0.763  1.00  0.00     0.001 C 
ATOM      2  C   UNL     1      10.627  -4.217  -1.703  1.00  0.00     0.008 C 
ATOM      3  C   UNL     1      11.126  -4.257  -3.152  1.00  0.00     0.075 C 
ATOM      4  C   UNL     1      12.570  -3.838  -3.221  1.00  0.00     0.132 C 
ATOM      5  O   UNL     1      12.951  -3.080  -4.099  1.00  0.00    -0.300 OA
ATOM      6  C   UNL     1      13.554  -4.437  -2.255  1.00  0.00     0.075 C 
ATOM      7  C   UNL     1      12.995  -4.393  -0.827  1.00  0.00     0.008 C 
ENDROOT
TORSDOF 0
ENDMDL
MODEL 2
REMARK VINA RESULT:    -3.266      1.338      2.114
REMARK INTER + INTRA:          -3.266
REMARK INTER:                  -3.266
REMARK INTRA:                   0.000
REMARK UNBOUND:                 0.000
REMARK SMILES O=C1CCCCC1
REMARK SMILES IDX 5 1 4 2 3 3 2 4 1 5 7 6 6 7
REMARK H PARENT
REMARK Flexibility Score: inf
ROOT
ATOM      1  C   UNL     1      14.128  -5.631  -0.323  1.00  0.00     0.001 C 
ATOM      2  C   UNL     1      13.401  -4.294  -0.116  1.00  0.00     0.008 C 
ATOM      3  C   UNL     1      12.460  -3.981  -1.285  1.00  0.00     0.075 C 
ATOM      4  C   UNL     1      13.189  -4.119  -2.595  1.00  0.00     0.132 C 
ATOM      5  O   UNL     1      13.037  -3.287  -3.475  1.00  0.00    -0.300 OA
ATOM      6  C   UNL     1      14.031  -5.340  -2.841  1.00  0.00     0.075 C 
ATOM      7  C   UNL     1      14.932  -5.620  -1.632  1.00  0.00     0.008 C 
ENDROOT
TORSDOF 0
ENDMDL
MODEL 3
REMARK VINA RESULT:    -3.156      0.832      2.040
REMARK INTER + INTRA:          -3.156
REMARK INTER:                  -3.156
REMARK INTRA:                   0.000
REMARK UNBOUND:                 0.000
REMARK SMILES O=C1CCCCC1
REMARK SMILES IDX 5 1 4 2 3 3 2 4 1 5 7 6 6 7
REMARK H PARENT
REMARK Flexibility Score: inf
ROOT
ATOM      1  C   UNL     1      10.801  -5.139  -0.982  1.00  0.00     0.001 C 
ATOM      2  C   UNL     1      12.304  -4.869  -0.815  1.00  0.00     0.008 C 
ATOM      3  C   UNL     1      12.738  -3.619  -1.590  1.00  0.00     0.075 C 
ATOM      4  C   UNL     1      12.253  -3.691  -3.013  1.00  0.00     0.132 C 
ATOM      5  O   UNL     1      12.989  -3.370  -3.932  1.00  0.00    -0.300 OA
ATOM      6  C   UNL     1      10.823  -4.071  -3.282  1.00  0.00     0.075 C 
ATOM      7  C   UNL     1      10.437  -5.310  -2.464  1.00  0.00     0.008 C 
ENDROOT
TORSDOF 0
ENDMDL
MODEL 4
REMARK VINA RESULT:    -2.984      1.070      2.143
REMARK INTER + INTRA:          -2.984
REMARK INTER:                  -2.984
REMARK INTRA:                   0.000
REMARK UNBOUND:                 0.000
REMARK SMILES O=C1CCCCC1
REMARK SMILES IDX 5 1 4 2 3 3 2 4 1 5 7 6 6 7
REMARK H PARENT
REMARK Flexibility Score: inf
ROOT
ATOM      1  C   UNL     1      12.705  -5.986  -0.777  1.00  0.00     0.001 C 
ATOM      2  C   UNL     1      13.680  -6.120  -1.957  1.00  0.00     0.008 C 
ATOM      3  C   UNL     1      14.097  -4.747  -2.497  1.00  0.00     0.075 C 
ATOM      4  C   UNL     1      12.883  -3.897  -2.760  1.00  0.00     0.132 C 
ATOM      5  O   UNL     1      12.807  -3.231  -3.781  1.00  0.00    -0.300 OA
ATOM      6  C   UNL     1      11.812  -3.803  -1.710  1.00  0.00     0.075 C 
ATOM      7  C   UNL     1      11.451  -5.200  -1.188  1.00  0.00     0.008 C 
ENDROOT
TORSDOF 0
ENDMDL
MODEL 5
REMARK VINA RESULT:    -2.781      1.788      3.015
REMARK INTER + INTRA:          -2.781
REMARK INTER:                  -2.781
REMARK INTRA:                   0.000
REMARK UNBOUND:                 0.000
REMARK SMILES O=C1CCCCC1
REMARK SMILES IDX 5 1 4 2 3 3 2 4 1 5 7 6 6 7
REMARK H PARENT
REMARK Flexibility Score: inf
ROOT
ATOM      1  C   UNL     1      11.639  -4.535  -3.239  1.00  0.00     0.001 C 
ATOM      2  C   UNL     1      13.112  -4.099  -3.195  1.00  0.00     0.008 C 
ATOM      3  C   UNL     1      13.859  -4.771  -2.037  1.00  0.00     0.075 C 
ATOM      4  C   UNL     1      13.098  -4.596  -0.750  1.00  0.00     0.132 C 
ATOM      5  O   UNL     1      13.687  -4.302   0.279  1.00  0.00    -0.300 OA
ATOM      6  C   UNL     1      11.622  -4.879  -0.727  1.00  0.00     0.075 C 
ATOM      7  C   UNL     1      10.930  -4.205  -1.918  1.00  0.00     0.008 C 
ENDROOT
TORSDOF 0
ENDMDL
MODEL 6
REMARK VINA RESULT:    -2.725      1.858      2.838
REMARK INTER + INTRA:          -2.725
REMARK INTER:                  -2.725
REMARK INTRA:                   0.000
REMARK UNBOUND:                 0.000
REMARK SMILES O=C1CCCCC1
REMARK SMILES IDX 5 1 4 2 3 3 2 4 1 5 7 6 6 7
REMARK H PARENT
REMARK Flexibility Score: inf
ROOT
ATOM      1  C   UNL     1      15.069  -5.402  -1.704  1.00  0.00     0.001 C 
ATOM      2  C   UNL     1      14.061  -5.238  -2.851  1.00  0.00     0.008 C 
ATOM      3  C   UNL     1      13.137  -4.036  -2.617  1.00  0.00     0.075 C 
ATOM      4  C   UNL     1      12.537  -4.099  -1.238  1.00  0.00     0.132 C 
ATOM      5  O   UNL     1      11.354  -3.847  -1.069  1.00  0.00    -0.300 OA
ATOM      6  C   UNL     1      13.429  -4.379  -0.061  1.00  0.00     0.075 C 
ATOM      7  C   UNL     1      14.346  -5.572  -0.359  1.00  0.00     0.008 C 
ENDROOT
TORSDOF 0
ENDMDL
MODEL 7
REMARK VINA RESULT:    -2.700      1.280      2.335
REMARK INTER + INTRA:          -2.700
REMARK INTER:                  -2.700
REMARK INTRA:                   0.000
REMARK UNBOUND:                 0.000
REMARK SMILES O=C1CCCCC1
REMARK SMILES IDX 5 1 4 2 3 3 2 4 1 5 7 6 6 7
REMARK H PARENT
REMARK Flexibility Score: inf
ROOT
ATOM      1  C   UNL     1      13.037  -3.906  -1.178  1.00  0.00     0.001 C 
ATOM      2  C   UNL     1      13.461  -4.263  -2.611  1.00  0.00     0.008 C 
ATOM      3  C   UNL     1      12.377  -3.882  -3.627  1.00  0.00     0.075 C 
ATOM      4  C   UNL     1      11.042  -4.428  -3.197  1.00  0.00     0.132 C 
ATOM      5  O   UNL     1      10.299  -4.951  -4.013  1.00  0.00    -0.300 OA
ATOM      6  C   UNL     1      10.594  -4.236  -1.775  1.00  0.00     0.075 C 
ATOM      7  C   UNL     1      11.722  -4.608  -0.805  1.00  0.00     0.008 C 
ENDROOT
TORSDOF 0
ENDMDL
MODEL 8
REMARK VINA RESULT:    -2.696      1.601      2.808
REMARK INTER + INTRA:          -2.696
REMARK INTER:                  -2.696
REMARK INTRA:                   0.000
REMARK UNBOUND:                 0.000
REMARK SMILES O=C1CCCCC1
REMARK SMILES IDX 5 1 4 2 3 3 2 4 1 5 7 6 6 7
REMARK H PARENT
REMARK Flexibility Score: inf
ROOT
ATOM      1  C   UNL     1      13.548  -4.359  -2.456  1.00  0.00     0.001 C 
ATOM      2  C   UNL     1      12.953  -3.957  -1.098  1.00  0.00     0.008 C 
ATOM      3  C   UNL     1      11.548  -4.543  -0.906  1.00  0.00     0.075 C 
ATOM      4  C   UNL     1      10.686  -4.237  -2.102  1.00  0.00     0.132 C 
ATOM      5  O   UNL     1       9.532  -3.868  -1.951  1.00  0.00    -0.300 OA
ATOM      6  C   UNL     1      11.231  -4.481  -3.481  1.00  0.00     0.075 C 
ATOM      7  C   UNL     1      12.644  -3.897  -3.609  1.00  0.00     0.008 C 
ENDROOT
TORSDOF 0
ENDMDL
