MODEL 1
REMARK VINA RESULT:    -3.621      0.000      0.000
REMARK INTER + INTRA:          -5.934
REMARK INTER:                  -5.526
REMARK INTRA:                  -0.408
REMARK UNBOUND:                -0.408
REMARK SMILES O=C([O-])CCCCCCCCC(=O)[O-]
REMARK SMILES IDX 7 1 6 2 5 3 4 4 2 5 1 6 3 7 8 8 9 9 10 10 11 11 12 12 13 13
REMARK SMILES IDX 14 14
REMARK H PARENT
REMARK Flexibility Score: inf
ROOT
ATOM      1  C   UNL     1     -96.042 150.246 240.119  1.00  0.00     0.000 C 
ENDROOT
BRANCH   1   2
ATOM      2  C   UNL     1     -95.254 148.934 240.012  1.00  0.00     0.000 C 
BRANCH   2   3
ATOM      3  C   UNL     1     -94.254 148.986 238.851  1.00  0.00     0.006 C 
BRANCH   3   4
ATOM      4  C   UNL     1     -94.951 149.365 237.541  1.00  0.00     0.053 C 
BRANCH   4   5
ATOM      5  C   UNL     1     -94.643 148.362 236.474  1.00  0.00     0.041 C 
ATOM      6  O   UNL     1     -95.018 148.562 235.289  1.00  0.00    -0.550 OA
ATOM      7  O   UNL     1     -93.898 147.230 236.780  1.00  0.00    -0.550 OA
ENDBRANCH   4   5
ENDBRANCH   3   4
ENDBRANCH   2   3
ENDBRANCH   1   2
BRANCH   1   8
ATOM      8  C   UNL     1     -97.479 150.044 240.634  1.00  0.00     0.000 C 
BRANCH   8   9
ATOM      9  C   UNL     1     -97.668 148.860 241.601  1.00  0.00     0.000 C 
BRANCH   9  10
ATOM     10  C   UNL     1     -98.301 149.212 242.961  1.00  0.00     0.006 C 
BRANCH  10  11
ATOM     11  C   UNL     1     -98.789 150.669 243.065  1.00  0.00     0.053 C 
BRANCH  11  12
ATOM     12  C   UNL     1     -99.137 151.063 244.469  1.00  0.00     0.041 C 
ATOM     13  O   UNL     1     -98.545 152.026 245.024  1.00  0.00    -0.550 OA
ATOM     14  O   UNL     1    -100.089 150.342 245.179  1.00  0.00    -0.550 OA
ENDBRANCH  11  12
ENDBRANCH  10  11
ENDBRANCH   9  10
ENDBRANCH   8   9
ENDBRANCH   1   8
TORSDOF 9
ENDMDL
MODEL 2
REMARK VINA RESULT:    -3.603      1.938      2.809
REMARK INTER + INTRA:          -5.907
REMARK INTER:                  -5.011
REMARK INTRA:                  -0.896
REMARK UNBOUND:                -0.408
REMARK SMILES O=C([O-])CCCCCCCCC(=O)[O-]
REMARK SMILES IDX 7 1 6 2 5 3 4 4 2 5 1 6 3 7 8 8 9 9 10 10 11 11 12 12 13 13
REMARK SMILES IDX 14 14
REMARK H PARENT
REMARK Flexibility Score: inf
ROOT
ATOM      1  C   UNL     1     -94.656 148.058 239.211  1.00  0.00     0.000 C 
ENDROOT
BRANCH   1   2
ATOM      2  C   UNL     1     -94.291 149.067 238.113  1.00  0.00     0.000 C 
BRANCH   2   3
ATOM      3  C   UNL     1     -94.749 148.569 236.736  1.00  0.00     0.006 C 
BRANCH   3   4
ATOM      4  C   UNL     1     -95.845 149.471 236.162  1.00  0.00     0.053 C 
BRANCH   4   5
ATOM      5  C   UNL     1     -97.173 149.124 236.756  1.00  0.00     0.041 C 
ATOM      6  O   UNL     1     -98.017 150.028 236.992  1.00  0.00    -0.550 OA
ATOM      7  O   UNL     1     -97.498 147.796 237.005  1.00  0.00    -0.550 OA
ENDBRANCH   4   5
ENDBRANCH   3   4
ENDBRANCH   2   3
ENDBRANCH   1   2
BRANCH   1   8
ATOM      8  C   UNL     1     -95.720 148.592 240.188  1.00  0.00     0.000 C 
BRANCH   8   9
ATOM      9  C   UNL     1     -95.898 150.122 240.191  1.00  0.00     0.000 C 
BRANCH   9  10
ATOM     10  C   UNL     1     -97.346 150.619 240.368  1.00  0.00     0.006 C 
BRANCH  10  11
ATOM     11  C   UNL     1     -98.299 149.567 240.964  1.00  0.00     0.053 C 
BRANCH  11  12
ATOM     12  C   UNL     1     -98.347 149.614 242.461  1.00  0.00     0.041 C 
ATOM     13  O   UNL     1     -98.098 148.581 243.138  1.00  0.00    -0.550 OA
ATOM     14  O   UNL     1     -98.704 150.789 243.111  1.00  0.00    -0.550 OA
ENDBRANCH  11  12
ENDBRANCH  10  11
ENDBRANCH   9  10
ENDBRANCH   8   9
ENDBRANCH   1   8
TORSDOF 9
ENDMDL
MODEL 3
REMARK VINA RESULT:    -3.597      2.156      6.392
REMARK INTER + INTRA:          -5.897
REMARK INTER:                  -4.938
REMARK INTRA:                  -0.959
REMARK UNBOUND:                -0.408
REMARK SMILES O=C([O-])CCCCCCCCC(=O)[O-]
REMARK SMILES IDX 7 1 6 2 5 3 4 4 2 5 1 6 3 7 8 8 9 9 10 10 11 11 12 12 13 13
REMARK SMILES IDX 14 14
REMARK H PARENT
REMARK Flexibility Score: inf
ROOT
ATOM      1  C   UNL     1     -95.308 148.131 240.255  1.00  0.00     0.000 C 
ENDROOT
BRANCH   1   2
ATOM      2  C   UNL     1     -96.623 148.762 240.732  1.00  0.00     0.000 C 
BRANCH   2   3
ATOM      3  C   UNL     1     -96.637 150.272 240.465  1.00  0.00     0.006 C 
BRANCH   3   4
ATOM      4  C   UNL     1     -98.060 150.770 240.198  1.00  0.00     0.053 C 
BRANCH   4   5
ATOM      5  C   UNL     1     -98.968 150.390 241.325  1.00  0.00     0.041 C 
ATOM      6  O   UNL     1    -100.029 149.751 241.096  1.00  0.00    -0.550 OA
ATOM      7  O   UNL     1     -98.619 150.699 242.633  1.00  0.00    -0.550 OA
ENDBRANCH   4   5
ENDBRANCH   3   4
ENDBRANCH   2   3
ENDBRANCH   1   2
BRANCH   1   8
ATOM      8  C   UNL     1     -94.487 149.068 239.349  1.00  0.00     0.000 C 
BRANCH   8   9
ATOM      9  C   UNL     1     -93.880 148.404 238.098  1.00  0.00     0.000 C 
BRANCH   9  10
ATOM     10  C   UNL     1     -94.803 148.350 236.865  1.00  0.00     0.006 C 
BRANCH  10  11
ATOM     11  C   UNL     1     -95.690 149.597 236.693  1.00  0.00     0.053 C 
BRANCH  11  12
ATOM     12  C   UNL     1     -97.150 149.292 236.847  1.00  0.00     0.041 C 
ATOM     13  O   UNL     1     -97.521 148.210 237.375  1.00  0.00    -0.550 OA
ATOM     14  O   UNL     1     -98.102 150.186 236.373  1.00  0.00    -0.550 OA
ENDBRANCH  11  12
ENDBRANCH  10  11
ENDBRANCH   9  10
ENDBRANCH   8   9
ENDBRANCH   1   8
TORSDOF 9
ENDMDL
MODEL 4
REMARK VINA RESULT:    -3.582      2.154      6.567
REMARK INTER + INTRA:          -5.875
REMARK INTER:                  -4.958
REMARK INTRA:                  -0.916
REMARK UNBOUND:                -0.408
REMARK SMILES O=C([O-])CCCCCCCCC(=O)[O-]
REMARK SMILES IDX 7 1 6 2 5 3 4 4 2 5 1 6 3 7 8 8 9 9 10 10 11 11 12 12 13 13
REMARK SMILES IDX 14 14
REMARK H PARENT
REMARK Flexibility Score: inf
ROOT
ATOM      1  C   UNL     1     -95.105 147.975 240.137  1.00  0.00     0.000 C 
ENDROOT
BRANCH   1   2
ATOM      2  C   UNL     1     -95.050 149.507 240.059  1.00  0.00     0.000 C 
BRANCH   2   3
ATOM      3  C   UNL     1     -96.438 150.119 240.286  1.00  0.00     0.006 C 
BRANCH   3   4
ATOM      4  C   UNL     1     -97.450 149.048 240.703  1.00  0.00     0.053 C 
BRANCH   4   5
ATOM      5  C   UNL     1     -98.036 149.374 242.041  1.00  0.00     0.041 C 
ATOM      6  O   UNL     1     -98.079 148.497 242.944  1.00  0.00    -0.550 OA
ATOM      7  O   UNL     1     -98.489 150.660 242.307  1.00  0.00    -0.550 OA
ENDBRANCH   4   5
ENDBRANCH   3   4
ENDBRANCH   2   3
ENDBRANCH   1   2
BRANCH   1   8
ATOM      8  C   UNL     1     -94.385 147.288 238.962  1.00  0.00     0.000 C 
BRANCH   8   9
ATOM      9  C   UNL     1     -93.861 148.238 237.868  1.00  0.00     0.000 C 
BRANCH   9  10
ATOM     10  C   UNL     1     -94.721 148.313 236.591  1.00  0.00     0.006 C 
BRANCH  10  11
ATOM     11  C   UNL     1     -95.483 149.641 236.429  1.00  0.00     0.053 C 
BRANCH  11  12
ATOM     12  C   UNL     1     -96.969 149.450 236.376  1.00  0.00     0.041 C 
ATOM     13  O   UNL     1     -97.671 150.142 235.592  1.00  0.00    -0.550 OA
ATOM     14  O   UNL     1     -97.585 148.536 237.221  1.00  0.00    -0.550 OA
ENDBRANCH  11  12
ENDBRANCH  10  11
ENDBRANCH   9  10
ENDBRANCH   8   9
ENDBRANCH   1   8
TORSDOF 9
ENDMDL
MODEL 5
REMARK VINA RESULT:    -3.569      2.074      3.029
REMARK INTER + INTRA:          -5.855
REMARK INTER:                  -5.219
REMARK INTRA:                  -0.635
REMARK UNBOUND:                -0.408
REMARK SMILES O=C([O-])CCCCCCCCC(=O)[O-]
REMARK SMILES IDX 7 1 6 2 5 3 4 4 2 5 1 6 3 7 8 8 9 9 10 10 11 11 12 12 13 13
REMARK SMILES IDX 14 14
REMARK H PARENT
REMARK Flexibility Score: inf
ROOT
ATOM      1  C   UNL     1     -94.260 148.904 238.902  1.00  0.00     0.000 C 
ENDROOT
BRANCH   1   2
ATOM      2  C   UNL     1     -93.849 147.947 237.774  1.00  0.00     0.000 C 
BRANCH   2   3
ATOM      3  C   UNL     1     -94.638 148.238 236.491  1.00  0.00     0.006 C 
BRANCH   3   4
ATOM      4  C   UNL     1     -95.417 149.551 236.611  1.00  0.00     0.053 C 
BRANCH   4   5
ATOM      5  C   UNL     1     -95.995 149.940 235.287  1.00  0.00     0.041 C 
ATOM      6  O   UNL     1     -96.807 149.177 234.701  1.00  0.00    -0.550 OA
ATOM      7  O   UNL     1     -95.674 151.168 234.723  1.00  0.00    -0.550 OA
ENDBRANCH   4   5
ENDBRANCH   3   4
ENDBRANCH   2   3
ENDBRANCH   1   2
BRANCH   1   8
ATOM      8  C   UNL     1     -95.021 148.198 240.039  1.00  0.00     0.000 C 
BRANCH   8   9
ATOM      9  C   UNL     1     -96.416 148.774 240.351  1.00  0.00     0.000 C 
BRANCH   9  10
ATOM     10  C   UNL     1     -96.512 150.312 240.347  1.00  0.00     0.006 C 
BRANCH  10  11
ATOM     11  C   UNL     1     -97.955 150.847 240.294  1.00  0.00     0.053 C 
BRANCH  11  12
ATOM     12  C   UNL     1     -98.817 150.292 241.387  1.00  0.00     0.041 C 
ATOM     13  O   UNL     1     -99.889 149.691 241.107  1.00  0.00    -0.550 OA
ATOM     14  O   UNL     1     -98.458 150.469 242.717  1.00  0.00    -0.550 OA
ENDBRANCH  11  12
ENDBRANCH  10  11
ENDBRANCH   9  10
ENDBRANCH   8   9
ENDBRANCH   1   8
TORSDOF 9
ENDMDL
MODEL 6
REMARK VINA RESULT:    -3.554      0.358      7.745
REMARK INTER + INTRA:          -5.831
REMARK INTER:                  -5.422
REMARK INTRA:                  -0.409
REMARK UNBOUND:                -0.408
REMARK SMILES O=C([O-])CCCCCCCCC(=O)[O-]
REMARK SMILES IDX 7 1 6 2 5 3 4 4 2 5 1 6 3 7 8 8 9 9 10 10 11 11 12 12 13 13
REMARK SMILES IDX 14 14
REMARK H PARENT
REMARK Flexibility Score: inf
ROOT
ATOM      1  C   UNL     1     -97.168 150.173 240.783  1.00  0.00     0.000 C 
ENDROOT
BRANCH   1   2
ATOM      2  C   UNL     1     -97.455 148.871 241.542  1.00  0.00     0.000 C 
BRANCH   2   3
ATOM      3  C   UNL     1     -98.540 149.082 242.606  1.00  0.00     0.006 C 
BRANCH   3   4
ATOM      4  C   UNL     1     -98.821 150.573 242.815  1.00  0.00     0.053 C 
BRANCH   4   5
ATOM      5  C   UNL     1     -99.132 150.850 244.253  1.00  0.00     0.041 C 
ATOM      6  O   UNL     1     -98.673 151.880 244.813  1.00  0.00    -0.550 OA
ATOM      7  O   UNL     1     -99.969 149.996 244.959  1.00  0.00    -0.550 OA
ENDBRANCH   4   5
ENDBRANCH   3   4
ENDBRANCH   2   3
ENDBRANCH   1   2
BRANCH   1   8
ATOM      8  C   UNL     1     -95.813 150.156 240.052  1.00  0.00     0.000 C 
BRANCH   8   9
ATOM      9  C   UNL     1     -95.120 148.782 239.988  1.00  0.00     0.000 C 
BRANCH   9  10
ATOM     10  C   UNL     1     -94.246 148.539 238.742  1.00  0.00     0.006 C 
BRANCH  10  11
ATOM     11  C   UNL     1     -94.826 149.136 237.446  1.00  0.00     0.053 C 
BRANCH  11  12
ATOM     12  C   UNL     1     -94.709 148.205 236.278  1.00  0.00     0.041 C 
ATOM     13  O   UNL     1     -94.390 146.999 236.457  1.00  0.00    -0.550 OA
ATOM     14  O   UNL     1     -94.912 148.676 234.987  1.00  0.00    -0.550 OA
ENDBRANCH  11  12
ENDBRANCH  10  11
ENDBRANCH   9  10
ENDBRANCH   8   9
ENDBRANCH   1   8
TORSDOF 9
ENDMDL
MODEL 7
REMARK VINA RESULT:    -3.490      1.507      7.071
REMARK INTER + INTRA:          -5.734
REMARK INTER:                  -5.098
REMARK INTRA:                  -0.636
REMARK UNBOUND:                -0.408
REMARK SMILES O=C([O-])CCCCCCCCC(=O)[O-]
REMARK SMILES IDX 7 1 6 2 5 3 4 4 2 5 1 6 3 7 8 8 9 9 10 10 11 11 12 12 13 13
REMARK SMILES IDX 14 14
REMARK H PARENT
REMARK Flexibility Score: inf
ROOT
ATOM      1  C   UNL     1     -94.991 149.537 239.999  1.00  0.00     0.000 C 
ENDROOT
BRANCH   1   2
ATOM      2  C   UNL     1     -96.296 150.305 240.252  1.00  0.00     0.000 C 
BRANCH   2   3
ATOM      3  C   UNL     1     -97.255 149.486 241.125  1.00  0.00     0.006 C 
BRANCH   3   4
ATOM      4  C   UNL     1     -98.433 150.342 241.599  1.00  0.00     0.053 C 
BRANCH   4   5
ATOM      5  C   UNL     1     -98.714 150.090 243.047  1.00  0.00     0.041 C 
ATOM      6  O   UNL     1     -98.928 148.919 243.457  1.00  0.00    -0.550 OA
ATOM      7  O   UNL     1     -98.690 151.144 243.952  1.00  0.00    -0.550 OA
ENDBRANCH   4   5
ENDBRANCH   3   4
ENDBRANCH   2   3
ENDBRANCH   1   2
BRANCH   1   8
ATOM      8  C   UNL     1     -95.180 148.010 240.016  1.00  0.00     0.000 C 
BRANCH   8   9
ATOM      9  C   UNL     1     -94.485 147.249 238.872  1.00  0.00     0.000 C 
BRANCH   9  10
ATOM     10  C   UNL     1     -93.909 148.131 237.746  1.00  0.00     0.006 C 
BRANCH  10  11
ATOM     11  C   UNL     1     -94.711 148.072 236.434  1.00  0.00     0.053 C 
BRANCH  11  12
ATOM     12  C   UNL     1     -95.747 149.150 236.341  1.00  0.00     0.041 C 
ATOM     13  O   UNL     1     -96.832 149.045 236.973  1.00  0.00    -0.550 OA
ATOM     14  O   UNL     1     -95.534 150.254 235.525  1.00  0.00    -0.550 OA
ENDBRANCH  11  12
ENDBRANCH  10  11
ENDBRANCH   9  10
ENDBRANCH   8   9
ENDBRANCH   1   8
TORSDOF 9
ENDMDL
MODEL 8
REMARK VINA RESULT:    -3.476      2.068      7.247
REMARK INTER + INTRA:          -5.712
REMARK INTER:                  -5.122
REMARK INTRA:                  -0.591
REMARK UNBOUND:                -0.408
REMARK SMILES O=C([O-])CCCCCCCCC(=O)[O-]
REMARK SMILES IDX 7 1 6 2 5 3 4 4 2 5 1 6 3 7 8 8 9 9 10 10 11 11 12 12 13 13
REMARK SMILES IDX 14 14
REMARK H PARENT
REMARK Flexibility Score: inf
ROOT
ATOM      1  C   UNL     1     -94.979 148.445 240.032  1.00  0.00     0.000 C 
ENDROOT
BRANCH   1   2
ATOM      2  C   UNL     1     -96.453 148.858 240.140  1.00  0.00     0.000 C 
BRANCH   2   3
ATOM      3  C   UNL     1     -96.583 150.360 240.428  1.00  0.00     0.006 C 
BRANCH   3   4
ATOM      4  C   UNL     1     -98.040 150.817 240.314  1.00  0.00     0.053 C 
BRANCH   4   5
ATOM      5  C   UNL     1     -98.821 150.382 241.514  1.00  0.00     0.041 C 
ATOM      6  O   UNL     1     -98.305 150.436 242.660  1.00  0.00    -0.550 OA
ATOM      7  O   UNL     1    -100.138 149.962 241.370  1.00  0.00    -0.550 OA
ENDBRANCH   4   5
ENDBRANCH   3   4
ENDBRANCH   2   3
ENDBRANCH   1   2
BRANCH   1   8
ATOM      8  C   UNL     1     -94.256 149.107 238.844  1.00  0.00     0.000 C 
BRANCH   8   9
ATOM      9  C   UNL     1     -93.914 148.163 237.676  1.00  0.00     0.000 C 
BRANCH   9  10
ATOM     10  C   UNL     1     -94.873 148.227 236.472  1.00  0.00     0.006 C 
BRANCH  10  11
ATOM     11  C   UNL     1     -95.667 149.542 236.374  1.00  0.00     0.053 C 
BRANCH  11  12
ATOM     12  C   UNL     1     -95.767 150.054 234.969  1.00  0.00     0.041 C 
ATOM     13  O   UNL     1     -95.709 151.291 234.738  1.00  0.00    -0.550 OA
ATOM     14  O   UNL     1     -95.964 149.168 233.917  1.00  0.00    -0.550 OA
ENDBRANCH  11  12
ENDBRANCH  10  11
ENDBRANCH   9  10
ENDBRANCH   8   9
ENDBRANCH   1   8
TORSDOF 9
ENDMDL
MODEL 9
REMARK VINA RESULT:    -3.428     13.537     15.534
REMARK INTER + INTRA:          -5.639
REMARK INTER:                  -5.110
REMARK INTRA:                  -0.529
REMARK UNBOUND:                -0.408
REMARK SMILES O=C([O-])CCCCCCCCC(=O)[O-]
REMARK SMILES IDX 7 1 6 2 5 3 4 4 2 5 1 6 3 7 8 8 9 9 10 10 11 11 12 12 13 13
REMARK SMILES IDX 14 14
REMARK H PARENT
REMARK Flexibility Score: inf
ROOT
ATOM      1  C   UNL     1     -91.820 162.736 234.361  1.00  0.00     0.000 C 
ENDROOT
BRANCH   1   2
ATOM      2  C   UNL     1     -90.875 163.327 235.416  1.00  0.00     0.000 C 
BRANCH   2   3
ATOM      3  C   UNL     1     -91.235 162.824 236.820  1.00  0.00     0.006 C 
BRANCH   3   4
ATOM      4  C   UNL     1     -91.547 163.992 237.759  1.00  0.00     0.053 C 
BRANCH   4   5
ATOM      5  C   UNL     1     -92.798 163.721 238.534  1.00  0.00     0.041 C 
ATOM      6  O   UNL     1     -92.740 163.122 239.640  1.00  0.00    -0.550 OA
ATOM      7  O   UNL     1     -94.022 164.173 238.058  1.00  0.00    -0.550 OA
ENDBRANCH   4   5
ENDBRANCH   3   4
ENDBRANCH   2   3
ENDBRANCH   1   2
BRANCH   1   8
ATOM      8  C   UNL     1     -91.095 162.328 233.066  1.00  0.00     0.000 C 
BRANCH   8   9
ATOM      9  C   UNL     1     -90.903 160.812 232.872  1.00  0.00     0.000 C 
BRANCH   9  10
ATOM     10  C   UNL     1     -92.115 159.938 233.250  1.00  0.00     0.006 C 
BRANCH  10  11
ATOM     11  C   UNL     1     -93.269 159.997 232.232  1.00  0.00     0.053 C 
BRANCH  11  12
ATOM     12  C   UNL     1     -94.589 160.303 232.873  1.00  0.00     0.041 C 
ATOM     13  O   UNL     1     -94.910 161.494 233.129  1.00  0.00    -0.550 OA
ATOM     14  O   UNL     1     -95.450 159.271 233.224  1.00  0.00    -0.550 OA
ENDBRANCH  11  12
ENDBRANCH  10  11
ENDBRANCH   9  10
ENDBRANCH   8   9
ENDBRANCH   1   8
TORSDOF 9
ENDMDL
