MODEL 1
REMARK VINA RESULT:    -7.209      0.000      0.000
REMARK INTER + INTRA:          -8.573
REMARK INTER:                  -8.262
REMARK INTRA:                  -0.311
REMARK UNBOUND:                -0.311
REMARK SMILES O=C1C[C@H](c2ccc(O)cc2)Oc2cc(O)cc(O)c21
REMARK SMILES IDX 3 1 4 2 12 3 13 4 14 5 15 6 17 7 18 8 20 9 2 10 1 11 5 12
REMARK SMILES IDX 6 13 11 14 7 15 10 16 8 17 9 18 19 20 16 22
REMARK H PARENT 9 19 19 21 16 23
REMARK Flexibility Score: inf
ROOT
ATOM      1  C   UNL     1     -23.952  84.348 -23.994  1.00  0.00     0.131 C 
ATOM      2  C   UNL     1     -22.511  84.691 -23.589  1.00  0.00     0.211 C 
ATOM      3  O   UNL     1     -22.316  86.108 -23.581  1.00  0.00    -0.484 OA
ATOM      4  C   UNL     1     -22.875  86.955 -24.547  1.00  0.00     0.138 A 
ATOM      5  C   UNL     1     -22.421  88.272 -24.639  1.00  0.00     0.093 A 
ATOM      6  C   UNL     1     -22.949  89.136 -25.603  1.00  0.00     0.123 A 
ATOM      7  C   UNL     1     -23.958  88.686 -26.457  1.00  0.00     0.093 A 
ATOM      8  C   UNL     1     -24.458  87.382 -26.357  1.00  0.00     0.133 A 
ATOM      9  C   UNL     1     -23.890  86.487 -25.412  1.00  0.00     0.102 A 
ATOM     10  C   UNL     1     -24.290  85.066 -25.266  1.00  0.00     0.174 C 
ATOM     11  O   UNL     1     -24.855  84.437 -26.199  1.00  0.00    -0.294 OA
ENDROOT
BRANCH   2  12
ATOM     12  C   UNL     1     -22.186  84.115 -22.233  1.00  0.00    -0.007 A 
ATOM     13  C   UNL     1     -22.154  84.941 -21.095  1.00  0.00     0.011 A 
ATOM     14  C   UNL     1     -21.965  82.736 -22.085  1.00  0.00     0.011 A 
ATOM     15  C   UNL     1     -21.882  84.398 -19.836  1.00  0.00     0.046 A 
ATOM     16  C   UNL     1     -21.693  82.196 -20.824  1.00  0.00     0.046 A 
ATOM     17  C   UNL     1     -21.649  83.023 -19.697  1.00  0.00     0.115 A 
BRANCH  17  18
ATOM     18  O   UNL     1     -21.376  82.471 -18.448  1.00  0.00    -0.508 OA
ATOM     19  H   UNL     1     -22.073  82.454 -17.712  1.00  0.00     0.293 HD
ENDBRANCH  17  18
ENDBRANCH   2  12
BRANCH   8  20
ATOM     20  O   UNL     1     -25.529  87.039 -27.184  1.00  0.00    -0.507 OA
ATOM     21  H   UNL     1     -26.458  86.832 -26.848  1.00  0.00     0.293 HD
ENDBRANCH   8  20
BRANCH   6  22
ATOM     22  O   UNL     1     -22.486  90.444 -25.714  1.00  0.00    -0.508 OA
ATOM     23  H   UNL     1     -23.121  91.220 -25.859  1.00  0.00     0.293 HD
ENDBRANCH   6  22
TORSDOF 4
ENDMDL
MODEL 2
REMARK VINA RESULT:    -6.514     12.904     14.460
REMARK INTER + INTRA:          -7.777
REMARK INTER:                  -7.461
REMARK INTRA:                  -0.316
REMARK UNBOUND:                -0.311
REMARK SMILES O=C1C[C@H](c2ccc(O)cc2)Oc2cc(O)cc(O)c21
REMARK SMILES IDX 3 1 4 2 12 3 13 4 14 5 15 6 17 7 18 8 20 9 2 10 1 11 5 12
REMARK SMILES IDX 6 13 11 14 7 15 10 16 8 17 9 18 19 20 16 22
REMARK H PARENT 9 19 19 21 16 23
REMARK Flexibility Score: inf
ROOT
ATOM      1  C   UNL     1     -36.056  82.133 -19.091  1.00  0.00     0.131 C 
ATOM      2  C   UNL     1     -35.977  81.183 -20.295  1.00  0.00     0.211 C 
ATOM      3  O   UNL     1     -34.694  80.554 -20.355  1.00  0.00    -0.484 OA
ATOM      4  C   UNL     1     -33.504  81.233 -20.062  1.00  0.00     0.138 A 
ATOM      5  C   UNL     1     -32.286  80.646 -20.408  1.00  0.00     0.093 A 
ATOM      6  C   UNL     1     -31.082  81.306 -20.141  1.00  0.00     0.123 A 
ATOM      7  C   UNL     1     -31.100  82.545 -19.498  1.00  0.00     0.093 A 
ATOM      8  C   UNL     1     -32.309  83.135 -19.105  1.00  0.00     0.133 A 
ATOM      9  C   UNL     1     -33.534  82.490 -19.418  1.00  0.00     0.102 A 
ATOM     10  C   UNL     1     -34.873  83.054 -19.115  1.00  0.00     0.174 C 
ATOM     11  O   UNL     1     -35.046  84.288 -18.931  1.00  0.00    -0.294 OA
ENDROOT
BRANCH   2  12
ATOM     12  C   UNL     1     -37.063  80.137 -20.221  1.00  0.00    -0.007 A 
ATOM     13  C   UNL     1     -38.382  80.499 -19.889  1.00  0.00     0.011 A 
ATOM     14  C   UNL     1     -36.780  78.798 -20.537  1.00  0.00     0.011 A 
ATOM     15  C   UNL     1     -39.391  79.532 -19.852  1.00  0.00     0.046 A 
ATOM     16  C   UNL     1     -37.791  77.834 -20.500  1.00  0.00     0.046 A 
ATOM     17  C   UNL     1     -39.098  78.196 -20.155  1.00  0.00     0.115 A 
BRANCH  17  18
ATOM     18  O   UNL     1     -40.095  77.225 -20.121  1.00  0.00    -0.508 OA
ATOM     19  H   UNL     1     -41.022  77.429 -19.767  1.00  0.00     0.293 HD
ENDBRANCH  17  18
ENDBRANCH   2  12
BRANCH   8  20
ATOM     20  O   UNL     1     -32.236  84.329 -18.385  1.00  0.00    -0.507 OA
ATOM     21  H   UNL     1     -32.952  84.649 -17.750  1.00  0.00     0.293 HD
ENDBRANCH   8  20
BRANCH   6  22
ATOM     22  O   UNL     1     -29.864  80.737 -20.502  1.00  0.00    -0.508 OA
ATOM     23  H   UNL     1     -29.047  81.307 -20.687  1.00  0.00     0.293 HD
ENDBRANCH   6  22
TORSDOF 4
ENDMDL
MODEL 3
REMARK VINA RESULT:    -6.442      1.565      6.629
REMARK INTER + INTRA:          -7.695
REMARK INTER:                  -7.386
REMARK INTRA:                  -0.309
REMARK UNBOUND:                -0.311
REMARK SMILES O=C1C[C@H](c2ccc(O)cc2)Oc2cc(O)cc(O)c21
REMARK SMILES IDX 3 1 4 2 12 3 13 4 14 5 15 6 17 7 18 8 20 9 2 10 1 11 5 12
REMARK SMILES IDX 6 13 11 14 7 15 10 16 8 17 9 18 19 20 16 22
REMARK H PARENT 9 19 19 21 16 23
REMARK Flexibility Score: inf
ROOT
ATOM      1  C   UNL     1     -23.201  84.107 -24.707  1.00  0.00     0.131 C 
ATOM      2  C   UNL     1     -23.629  85.221 -23.742  1.00  0.00     0.211 C 
ATOM      3  O   UNL     1     -22.895  85.135 -22.517  1.00  0.00    -0.484 OA
ATOM      4  C   UNL     1     -22.583  83.914 -21.906  1.00  0.00     0.138 A 
ATOM      5  C   UNL     1     -22.116  83.914 -20.590  1.00  0.00     0.093 A 
ATOM      6  C   UNL     1     -21.810  82.710 -19.949  1.00  0.00     0.123 A 
ATOM      7  C   UNL     1     -21.946  81.504 -20.640  1.00  0.00     0.093 A 
ATOM      8  C   UNL     1     -22.374  81.482 -21.973  1.00  0.00     0.133 A 
ATOM      9  C   UNL     1     -22.731  82.699 -22.611  1.00  0.00     0.102 A 
ATOM     10  C   UNL     1     -23.263  82.789 -23.994  1.00  0.00     0.174 C 
ATOM     11  O   UNL     1     -23.810  81.806 -24.559  1.00  0.00    -0.294 OA
ENDROOT
BRANCH   2  12
ATOM     12  C   UNL     1     -23.430  86.578 -24.371  1.00  0.00    -0.007 A 
ATOM     13  C   UNL     1     -22.297  87.351 -24.060  1.00  0.00     0.011 A 
ATOM     14  C   UNL     1     -24.348  87.060 -25.319  1.00  0.00     0.011 A 
ATOM     15  C   UNL     1     -22.101  88.594 -24.669  1.00  0.00     0.046 A 
ATOM     16  C   UNL     1     -24.149  88.304 -25.927  1.00  0.00     0.046 A 
ATOM     17  C   UNL     1     -23.028  89.075 -25.603  1.00  0.00     0.115 A 
BRANCH  17  18
ATOM     18  O   UNL     1     -22.843  90.312 -26.215  1.00  0.00    -0.508 OA
ATOM     19  H   UNL     1     -21.955  90.572 -26.627  1.00  0.00     0.293 HD
ENDBRANCH  17  18
ENDBRANCH   2  12
BRANCH   8  20
ATOM     20  O   UNL     1     -22.393  80.246 -22.622  1.00  0.00    -0.507 OA
ATOM     21  H   UNL     1     -21.570  79.690 -22.803  1.00  0.00     0.293 HD
ENDBRANCH   8  20
BRANCH   6  22
ATOM     22  O   UNL     1     -21.364  82.701 -18.630  1.00  0.00    -0.508 OA
ATOM     23  H   UNL     1     -21.138  83.559 -18.142  1.00  0.00     0.293 HD
ENDBRANCH   6  22
TORSDOF 4
ENDMDL
MODEL 4
REMARK VINA RESULT:    -6.323      6.234      9.533
REMARK INTER + INTRA:          -7.558
REMARK INTER:                  -7.273
REMARK INTRA:                  -0.286
REMARK UNBOUND:                -0.311
REMARK SMILES O=C1C[C@H](c2ccc(O)cc2)Oc2cc(O)cc(O)c21
REMARK SMILES IDX 3 1 4 2 12 3 13 4 14 5 15 6 17 7 18 8 20 9 2 10 1 11 5 12
REMARK SMILES IDX 6 13 11 14 7 15 10 16 8 17 9 18 19 20 16 22
REMARK H PARENT 9 19 19 21 16 23
REMARK Flexibility Score: inf
ROOT
ATOM      1  C   UNL     1     -23.797  91.826 -31.105  1.00  0.00     0.131 C 
ATOM      2  C   UNL     1     -23.555  91.538 -29.616  1.00  0.00     0.211 C 
ATOM      3  O   UNL     1     -24.275  92.467 -28.801  1.00  0.00    -0.484 OA
ATOM      4  C   UNL     1     -24.396  93.824 -29.127  1.00  0.00     0.138 A 
ATOM      5  C   UNL     1     -24.867  94.713 -28.159  1.00  0.00     0.093 A 
ATOM      6  C   UNL     1     -24.984  96.076 -28.450  1.00  0.00     0.123 A 
ATOM      7  C   UNL     1     -24.658  96.543 -29.724  1.00  0.00     0.093 A 
ATOM      8  C   UNL     1     -24.222  95.663 -30.723  1.00  0.00     0.133 A 
ATOM      9  C   UNL     1     -24.055  94.287 -30.417  1.00  0.00     0.102 A 
ATOM     10  C   UNL     1     -23.534  93.278 -31.373  1.00  0.00     0.174 C 
ATOM     11  O   UNL     1     -22.837  93.606 -32.368  1.00  0.00    -0.294 OA
ENDROOT
BRANCH   2  12
ATOM     12  C   UNL     1     -23.959  90.125 -29.274  1.00  0.00    -0.007 A 
ATOM     13  C   UNL     1     -23.087  89.286 -28.556  1.00  0.00     0.011 A 
ATOM     14  C   UNL     1     -25.235  89.650 -29.620  1.00  0.00     0.011 A 
ATOM     15  C   UNL     1     -23.478  87.988 -28.215  1.00  0.00     0.046 A 
ATOM     16  C   UNL     1     -25.623  88.352 -29.276  1.00  0.00     0.046 A 
ATOM     17  C   UNL     1     -24.747  87.516 -28.576  1.00  0.00     0.115 A 
BRANCH  17  18
ATOM     18  O   UNL     1     -25.147  86.225 -28.241  1.00  0.00    -0.508 OA
ATOM     19  H   UNL     1     -25.873  86.056 -27.555  1.00  0.00     0.293 HD
ENDBRANCH  17  18
ENDBRANCH   2  12
BRANCH   8  20
ATOM     20  O   UNL     1     -24.005  96.193 -31.997  1.00  0.00    -0.507 OA
ATOM     21  H   UNL     1     -24.661  96.116 -32.760  1.00  0.00     0.293 HD
ENDBRANCH   8  20
BRANCH   6  22
ATOM     22  O   UNL     1     -25.433  96.972 -27.483  1.00  0.00    -0.508 OA
ATOM     23  H   UNL     1     -26.350  97.398 -27.540  1.00  0.00     0.293 HD
ENDBRANCH   6  22
TORSDOF 4
ENDMDL
MODEL 5
REMARK VINA RESULT:    -6.232      5.791      9.150
REMARK INTER + INTRA:          -7.454
REMARK INTER:                  -7.133
REMARK INTRA:                  -0.321
REMARK UNBOUND:                -0.311
REMARK SMILES O=C1C[C@H](c2ccc(O)cc2)Oc2cc(O)cc(O)c21
REMARK SMILES IDX 3 1 4 2 12 3 13 4 14 5 15 6 17 7 18 8 20 9 2 10 1 11 5 12
REMARK SMILES IDX 6 13 11 14 7 15 10 16 8 17 9 18 19 20 16 22
REMARK H PARENT 9 19 19 21 16 23
REMARK Flexibility Score: inf
ROOT
ATOM      1  C   UNL     1     -25.876  92.514 -27.112  1.00  0.00     0.131 C 
ATOM      2  C   UNL     1     -25.778  91.703 -28.412  1.00  0.00     0.211 C 
ATOM      3  O   UNL     1     -24.811  92.280 -29.294  1.00  0.00    -0.484 OA
ATOM      4  C   UNL     1     -24.662  93.664 -29.451  1.00  0.00     0.138 A 
ATOM      5  C   UNL     1     -23.903  94.147 -30.519  1.00  0.00     0.093 A 
ATOM      6  C   UNL     1     -23.748  95.523 -30.710  1.00  0.00     0.123 A 
ATOM      7  C   UNL     1     -24.331  96.417 -29.809  1.00  0.00     0.093 A 
ATOM      8  C   UNL     1     -25.062  95.955 -28.708  1.00  0.00     0.133 A 
ATOM      9  C   UNL     1     -25.262  94.560 -28.538  1.00  0.00     0.102 A 
ATOM     10  C   UNL     1     -26.076  93.961 -27.451  1.00  0.00     0.174 C 
ATOM     11  O   UNL     1     -26.962  94.621 -26.847  1.00  0.00    -0.294 OA
ENDROOT
BRANCH   2  12
ATOM     12  C   UNL     1     -25.420  90.266 -28.119  1.00  0.00    -0.007 A 
ATOM     13  C   UNL     1     -24.346  89.648 -28.784  1.00  0.00     0.011 A 
ATOM     14  C   UNL     1     -26.122  89.548 -27.136  1.00  0.00     0.011 A 
ATOM     15  C   UNL     1     -23.998  88.327 -28.486  1.00  0.00     0.046 A 
ATOM     16  C   UNL     1     -25.771  88.227 -26.841  1.00  0.00     0.046 A 
ATOM     17  C   UNL     1     -24.711  87.612 -27.515  1.00  0.00     0.115 A 
BRANCH  17  18
ATOM     18  O   UNL     1     -24.374  86.296 -27.212  1.00  0.00    -0.508 OA
ATOM     19  H   UNL     1     -24.055  86.030 -26.287  1.00  0.00     0.293 HD
ENDBRANCH  17  18
ENDBRANCH   2  12
BRANCH   8  20
ATOM     20  O   UNL     1     -25.532  96.909 -27.803  1.00  0.00    -0.507 OA
ATOM     21  H   UNL     1     -25.940  96.685 -26.907  1.00  0.00     0.293 HD
ENDBRANCH   8  20
BRANCH   6  22
ATOM     22  O   UNL     1     -23.011  96.013 -31.785  1.00  0.00    -0.508 OA
ATOM     23  H   UNL     1     -22.080  95.669 -31.988  1.00  0.00     0.293 HD
ENDBRANCH   6  22
TORSDOF 4
ENDMDL
MODEL 6
REMARK VINA RESULT:    -6.222      2.554      6.937
REMARK INTER + INTRA:          -7.442
REMARK INTER:                  -7.156
REMARK INTRA:                  -0.286
REMARK UNBOUND:                -0.311
REMARK SMILES O=C1C[C@H](c2ccc(O)cc2)Oc2cc(O)cc(O)c21
REMARK SMILES IDX 3 1 4 2 12 3 13 4 14 5 15 6 17 7 18 8 20 9 2 10 1 11 5 12
REMARK SMILES IDX 6 13 11 14 7 15 10 16 8 17 9 18 19 20 16 22
REMARK H PARENT 9 19 19 21 16 23
REMARK Flexibility Score: inf
ROOT
ATOM      1  C   UNL     1     -23.251  84.184 -22.095  1.00  0.00     0.131 C 
ATOM      2  C   UNL     1     -22.128  84.640 -23.037  1.00  0.00     0.211 C 
ATOM      3  O   UNL     1     -21.830  83.620 -23.995  1.00  0.00    -0.484 OA
ATOM      4  C   UNL     1     -21.809  82.258 -23.668  1.00  0.00     0.138 A 
ATOM      5  C   UNL     1     -21.245  81.354 -24.570  1.00  0.00     0.093 A 
ATOM      6  C   UNL     1     -21.196  79.990 -24.265  1.00  0.00     0.123 A 
ATOM      7  C   UNL     1     -21.741  79.529 -23.065  1.00  0.00     0.093 A 
ATOM      8  C   UNL     1     -22.348  80.412 -22.164  1.00  0.00     0.133 A 
ATOM      9  C   UNL     1     -22.356  81.803 -22.448  1.00  0.00     0.102 A 
ATOM     10  C   UNL     1     -22.906  82.836 -21.535  1.00  0.00     0.174 C 
ATOM     11  O   UNL     1     -23.039  82.627 -20.301  1.00  0.00    -0.294 OA
ENDROOT
BRANCH   2  12
ATOM     12  C   UNL     1     -22.509  85.919 -23.742  1.00  0.00    -0.007 A 
ATOM     13  C   UNL     1     -23.768  86.048 -24.357  1.00  0.00     0.011 A 
ATOM     14  C   UNL     1     -21.630  87.015 -23.745  1.00  0.00     0.011 A 
ATOM     15  C   UNL     1     -24.128  87.245 -24.982  1.00  0.00     0.046 A 
ATOM     16  C   UNL     1     -21.994  88.211 -24.372  1.00  0.00     0.046 A 
ATOM     17  C   UNL     1     -23.241  88.329 -24.993  1.00  0.00     0.115 A 
BRANCH  17  18
ATOM     18  O   UNL     1     -23.590  89.526 -25.614  1.00  0.00    -0.508 OA
ATOM     19  H   UNL     1     -23.766  90.369 -25.080  1.00  0.00     0.293 HD
ENDBRANCH  17  18
ENDBRANCH   2  12
BRANCH   8  20
ATOM     20  O   UNL     1     -22.951  79.861 -21.032  1.00  0.00    -0.507 OA
ATOM     21  H   UNL     1     -23.351  78.935 -21.000  1.00  0.00     0.293 HD
ENDBRANCH   8  20
BRANCH   6  22
ATOM     22  O   UNL     1     -20.617  79.085 -25.150  1.00  0.00    -0.508 OA
ATOM     23  H   UNL     1     -20.263  78.189 -24.835  1.00  0.00     0.293 HD
ENDBRANCH   6  22
TORSDOF 4
ENDMDL
MODEL 7
REMARK VINA RESULT:    -6.043      6.207     11.215
REMARK INTER + INTRA:          -7.237
REMARK INTER:                  -6.928
REMARK INTRA:                  -0.309
REMARK UNBOUND:                -0.311
REMARK SMILES O=C1C[C@H](c2ccc(O)cc2)Oc2cc(O)cc(O)c21
REMARK SMILES IDX 3 1 4 2 12 3 13 4 14 5 15 6 17 7 18 8 20 9 2 10 1 11 5 12
REMARK SMILES IDX 6 13 11 14 7 15 10 16 8 17 9 18 19 20 16 22
REMARK H PARENT 9 19 19 21 16 23
REMARK Flexibility Score: inf
ROOT
ATOM      1  C   UNL     1     -25.814  93.469 -28.681  1.00  0.00     0.131 C 
ATOM      2  C   UNL     1     -24.317  93.616 -28.993  1.00  0.00     0.211 C 
ATOM      3  O   UNL     1     -23.732  92.340 -29.265  1.00  0.00    -0.484 OA
ATOM      4  C   UNL     1     -24.075  91.183 -28.553  1.00  0.00     0.138 A 
ATOM      5  C   UNL     1     -23.274  90.046 -28.681  1.00  0.00     0.093 A 
ATOM      6  C   UNL     1     -23.582  88.882 -27.971  1.00  0.00     0.123 A 
ATOM      7  C   UNL     1     -24.714  88.847 -27.155  1.00  0.00     0.093 A 
ATOM      8  C   UNL     1     -25.555  89.962 -27.043  1.00  0.00     0.133 A 
ATOM      9  C   UNL     1     -25.218  91.162 -27.723  1.00  0.00     0.102 A 
ATOM     10  C   UNL     1     -25.994  92.423 -27.622  1.00  0.00     0.174 C 
ATOM     11  O   UNL     1     -26.755  92.656 -26.647  1.00  0.00    -0.294 OA
ENDROOT
BRANCH   2  12
ATOM     12  C   UNL     1     -24.105  94.544 -30.163  1.00  0.00    -0.007 A 
ATOM     13  C   UNL     1     -24.313  95.929 -30.025  1.00  0.00     0.011 A 
ATOM     14  C   UNL     1     -23.642  94.041 -31.391  1.00  0.00     0.011 A 
ATOM     15  C   UNL     1     -24.086  96.788 -31.104  1.00  0.00     0.046 A 
ATOM     16  C   UNL     1     -23.415  94.904 -32.468  1.00  0.00     0.046 A 
ATOM     17  C   UNL     1     -23.638  96.278 -32.329  1.00  0.00     0.115 A 
BRANCH  17  18
ATOM     18  O   UNL     1     -23.409  97.124 -33.410  1.00  0.00    -0.508 OA
ATOM     19  H   UNL     1     -22.471  97.406 -33.674  1.00  0.00     0.293 HD
ENDBRANCH  17  18
ENDBRANCH   2  12
BRANCH   8  20
ATOM     20  O   UNL     1     -26.716  89.817 -26.281  1.00  0.00    -0.507 OA
ATOM     21  H   UNL     1     -27.624  89.607 -26.669  1.00  0.00     0.293 HD
ENDBRANCH   8  20
BRANCH   6  22
ATOM     22  O   UNL     1     -22.776  87.751 -28.077  1.00  0.00    -0.508 OA
ATOM     23  H   UNL     1     -22.982  87.015 -28.742  1.00  0.00     0.293 HD
ENDBRANCH   6  22
TORSDOF 4
ENDMDL
MODEL 8
REMARK VINA RESULT:    -6.014      1.473      3.124
REMARK INTER + INTRA:          -7.204
REMARK INTER:                  -6.893
REMARK INTRA:                  -0.310
REMARK UNBOUND:                -0.311
REMARK SMILES O=C1C[C@H](c2ccc(O)cc2)Oc2cc(O)cc(O)c21
REMARK SMILES IDX 3 1 4 2 12 3 13 4 14 5 15 6 17 7 18 8 20 9 2 10 1 11 5 12
REMARK SMILES IDX 6 13 11 14 7 15 10 16 8 17 9 18 19 20 16 22
REMARK H PARENT 9 19 19 21 16 23
REMARK Flexibility Score: inf
ROOT
ATOM      1  C   UNL     1     -22.039  86.588 -23.938  1.00  0.00     0.131 C 
ATOM      2  C   UNL     1     -23.244  85.694 -23.609  1.00  0.00     0.211 C 
ATOM      3  O   UNL     1     -23.952  85.346 -24.802  1.00  0.00    -0.484 OA
ATOM      4  C   UNL     1     -24.158  86.252 -25.851  1.00  0.00     0.138 A 
ATOM      5  C   UNL     1     -25.084  85.935 -26.847  1.00  0.00     0.093 A 
ATOM      6  C   UNL     1     -25.323  86.825 -27.898  1.00  0.00     0.123 A 
ATOM      7  C   UNL     1     -24.609  88.023 -27.967  1.00  0.00     0.093 A 
ATOM      8  C   UNL     1     -23.646  88.343 -27.001  1.00  0.00     0.133 A 
ATOM      9  C   UNL     1     -23.437  87.464 -25.906  1.00  0.00     0.102 A 
ATOM     10  C   UNL     1     -22.496  87.734 -24.790  1.00  0.00     0.174 C 
ATOM     11  O   UNL     1     -22.118  88.902 -24.510  1.00  0.00    -0.294 OA
ENDROOT
BRANCH   2  12
ATOM     12  C   UNL     1     -22.800  84.446 -22.886  1.00  0.00    -0.007 A 
ATOM     13  C   UNL     1     -22.691  83.223 -23.573  1.00  0.00     0.011 A 
ATOM     14  C   UNL     1     -22.438  84.504 -21.530  1.00  0.00     0.011 A 
ATOM     15  C   UNL     1     -22.250  82.076 -22.907  1.00  0.00     0.046 A 
ATOM     16  C   UNL     1     -21.998  83.354 -20.867  1.00  0.00     0.046 A 
ATOM     17  C   UNL     1     -21.905  82.138 -21.550  1.00  0.00     0.115 A 
BRANCH  17  18
ATOM     18  O   UNL     1     -21.465  81.001 -20.877  1.00  0.00    -0.508 OA
ATOM     19  H   UNL     1     -20.994  81.064 -19.982  1.00  0.00     0.293 HD
ENDBRANCH  17  18
ENDBRANCH   2  12
BRANCH   8  20
ATOM     20  O   UNL     1     -22.910  89.515 -27.191  1.00  0.00    -0.507 OA
ATOM     21  H   UNL     1     -23.066  90.162 -27.950  1.00  0.00     0.293 HD
ENDBRANCH   8  20
BRANCH   6  22
ATOM     22  O   UNL     1     -26.260  86.526 -28.884  1.00  0.00    -0.508 OA
ATOM     23  H   UNL     1     -26.387  85.580 -29.223  1.00  0.00     0.293 HD
ENDBRANCH   6  22
TORSDOF 4
ENDMDL
MODEL 9
REMARK VINA RESULT:    -5.993      2.748      7.836
REMARK INTER + INTRA:          -7.179
REMARK INTER:                  -6.889
REMARK INTRA:                  -0.291
REMARK UNBOUND:                -0.311
REMARK SMILES O=C1C[C@H](c2ccc(O)cc2)Oc2cc(O)cc(O)c21
REMARK SMILES IDX 3 1 4 2 12 3 13 4 14 5 15 6 17 7 18 8 20 9 2 10 1 11 5 12
REMARK SMILES IDX 6 13 11 14 7 15 10 16 8 17 9 18 19 20 16 22
REMARK H PARENT 9 19 19 21 16 23
REMARK Flexibility Score: inf
ROOT
ATOM      1  C   UNL     1     -25.252  88.223 -27.312  1.00  0.00     0.131 C 
ATOM      2  C   UNL     1     -24.329  89.381 -26.904  1.00  0.00     0.211 C 
ATOM      3  O   UNL     1     -23.144  88.881 -26.278  1.00  0.00    -0.484 OA
ATOM      4  C   UNL     1     -23.156  87.796 -25.391  1.00  0.00     0.138 A 
ATOM      5  C   UNL     1     -22.025  87.544 -24.613  1.00  0.00     0.093 A 
ATOM      6  C   UNL     1     -22.012  86.477 -23.709  1.00  0.00     0.123 A 
ATOM      7  C   UNL     1     -23.127  85.643 -23.607  1.00  0.00     0.093 A 
ATOM      8  C   UNL     1     -24.258  85.852 -24.407  1.00  0.00     0.133 A 
ATOM      9  C   UNL     1     -24.292  86.963 -25.291  1.00  0.00     0.102 A 
ATOM     10  C   UNL     1     -25.461  87.323 -26.131  1.00  0.00     0.174 C 
ATOM     11  O   UNL     1     -26.625  86.935 -25.849  1.00  0.00    -0.294 OA
ENDROOT
BRANCH   2  12
ATOM     12  C   UNL     1     -23.966  90.222 -28.103  1.00  0.00    -0.007 A 
ATOM     13  C   UNL     1     -24.313  91.585 -28.150  1.00  0.00     0.011 A 
ATOM     14  C   UNL     1     -23.229  89.666 -29.161  1.00  0.00     0.011 A 
ATOM     15  C   UNL     1     -23.948  92.368 -29.249  1.00  0.00     0.046 A 
ATOM     16  C   UNL     1     -22.866  90.452 -30.259  1.00  0.00     0.046 A 
ATOM     17  C   UNL     1     -23.225  91.803 -30.308  1.00  0.00     0.115 A 
BRANCH  17  18
ATOM     18  O   UNL     1     -22.858  92.574 -31.408  1.00  0.00    -0.508 OA
ATOM     19  H   UNL     1     -23.386  93.394 -31.682  1.00  0.00     0.293 HD
ENDBRANCH  17  18
ENDBRANCH   2  12
BRANCH   8  20
ATOM     20  O   UNL     1     -25.293  84.920 -24.313  1.00  0.00    -0.507 OA
ATOM     21  H   UNL     1     -25.425  84.301 -23.526  1.00  0.00     0.293 HD
ENDBRANCH   8  20
BRANCH   6  22
ATOM     22  O   UNL     1     -20.895  86.233 -22.914  1.00  0.00    -0.508 OA
ATOM     23  H   UNL     1     -20.965  85.707 -22.051  1.00  0.00     0.293 HD
ENDBRANCH   6  22
TORSDOF 4
ENDMDL
