MODEL 1
REMARK VINA RESULT:     3.335      0.000      0.000
REMARK INTER + INTRA:           3.443
REMARK INTER:                   4.602
REMARK INTRA:                  -1.159
REMARK UNBOUND:                -1.159
REMARK SMILES O=C([O-])[C@@H]1O[C@@H](Oc2cc3oc(-c4ccccc4)cc(=O)c3c(O)c2O)[C@@H](O)[C@H](O)[C@@H]1O
REMARK SMILES IDX 7 1 6 2 4 3 31 4 5 5 29 6 27 7 2 8 1 9 3 10 32 11 30 13
REMARK SMILES IDX 28 15 8 17 25 18 9 19 23 20 10 21 22 22 11 23 20 24 12 25
REMARK SMILES IDX 19 26 21 27 26 28 24 30 13 32 14 33 18 34 15 35 17 36 16 37
REMARK H PARENT 32 12 30 14 28 16 26 29 24 31
REMARK Flexibility Score: inf
ROOT
ATOM      1  O   UNL     1     -32.630 -21.972 -32.715  1.00  0.00    -0.458 OA
ENDROOT
BRANCH   1   2
ATOM      2  C   UNL     1     -31.467 -21.593 -31.970  1.00  0.00     0.339 C 
ATOM      3  C   UNL     1     -29.102 -21.331 -32.283  1.00  0.00     0.199 C 
ATOM      4  C   UNL     1     -29.044 -21.168 -30.749  1.00  0.00     0.180 C 
ATOM      5  O   UNL     1     -30.406 -21.230 -32.843  1.00  0.00    -0.328 OA
ATOM      6  C   UNL     1     -29.873 -22.281 -30.070  1.00  0.00     0.181 C 
ATOM      7  C   UNL     1     -31.126 -22.665 -30.901  1.00  0.00     0.214 C 
BRANCH   3   8
ATOM      8  C   UNL     1     -28.218 -20.309 -32.936  1.00  0.00     0.073 C 
ATOM      9  O   UNL     1     -27.200 -19.875 -32.334  1.00  0.00    -0.547 OA
ATOM     10  O   UNL     1     -28.488 -19.876 -34.231  1.00  0.00    -0.547 OA
ENDBRANCH   3   8
BRANCH   4  11
ATOM     11  O   UNL     1     -29.531 -19.898 -30.393  1.00  0.00    -0.387 OA
ATOM     12  H   UNL     1     -30.336 -20.044 -29.824  1.00  0.00     0.211 HD
ENDBRANCH   4  11
BRANCH   6  13
ATOM     13  O   UNL     1     -30.264 -21.875 -28.784  1.00  0.00    -0.387 OA
ATOM     14  H   UNL     1     -30.463 -22.698 -28.268  1.00  0.00     0.211 HD
ENDBRANCH   6  13
BRANCH   7  15
ATOM     15  O   UNL     1     -30.991 -23.945 -31.471  1.00  0.00    -0.384 OA
ATOM     16  H   UNL     1     -31.392 -24.602 -30.847  1.00  0.00     0.211 HD
ENDBRANCH   7  15
ENDBRANCH   1   2
BRANCH   1  17
ATOM     17  C   UNL     1     -32.713 -22.207 -34.100  1.00  0.00     0.172 A 
ATOM     18  C   UNL     1     -33.006 -21.123 -34.931  1.00  0.00     0.201 A 
ATOM     19  C   UNL     1     -32.483 -23.467 -34.671  1.00  0.00     0.098 A 
ATOM     20  C   UNL     1     -33.096 -21.281 -36.331  1.00  0.00     0.176 A 
ATOM     21  C   UNL     1     -32.566 -23.651 -36.049  1.00  0.00     0.146 A 
ATOM     22  C   UNL     1     -32.900 -22.574 -36.905  1.00  0.00     0.111 A 
ATOM     23  O   UNL     1     -32.331 -24.865 -36.535  1.00  0.00    -0.456 OA
ATOM     24  C   UNL     1     -33.037 -22.880 -38.283  1.00  0.00     0.197 A 
ATOM     25  C   UNL     1     -32.395 -25.165 -37.826  1.00  0.00     0.138 A 
ATOM     26  C   UNL     1     -32.768 -24.175 -38.738  1.00  0.00     0.100 A 
ATOM     27  O   UNL     1     -33.420 -22.030 -39.125  1.00  0.00    -0.289 OA
BRANCH  18  28
ATOM     28  O   UNL     1     -33.224 -19.875 -34.340  1.00  0.00    -0.502 OA
ATOM     29  H   UNL     1     -32.567 -19.451 -33.694  1.00  0.00     0.293 HD
ENDBRANCH  18  28
BRANCH  20  30
ATOM     30  O   UNL     1     -33.367 -20.127 -37.079  1.00  0.00    -0.504 OA
ATOM     31  H   UNL     1     -33.917 -20.085 -37.923  1.00  0.00     0.293 HD
ENDBRANCH  20  30
BRANCH  25  32
ATOM     32  C   UNL     1     -32.076 -26.554 -38.253  1.00  0.00     0.017 A 
ATOM     33  C   UNL     1     -33.102 -27.376 -38.754  1.00  0.00     0.012 A 
ATOM     34  C   UNL     1     -30.781 -27.096 -38.114  1.00  0.00     0.012 A 
ATOM     35  C   UNL     1     -32.834 -28.699 -39.125  1.00  0.00     0.001 A 
ATOM     36  C   UNL     1     -30.520 -28.417 -38.486  1.00  0.00     0.001 A 
ATOM     37  C   UNL     1     -31.544 -29.217 -38.996  1.00  0.00     0.000 A 
ENDBRANCH  25  32
ENDBRANCH   1  17
TORSDOF 9
ENDMDL
