MODEL 1
REMARK VINA RESULT:    -5.239      0.000      0.000
REMARK INTER + INTRA:          -8.170
REMARK INTER:                  -7.689
REMARK INTRA:                  -0.481
REMARK UNBOUND:                -0.481
REMARK SMILES O=C([O-])CCCCCCCC(=O)[O-]
REMARK SMILES IDX 7 1 6 2 5 3 4 4 2 5 1 6 3 7 8 8 9 9 10 10 11 11 12 12 13 13
REMARK H PARENT
REMARK Flexibility Score: inf
ROOT
ATOM      1  C   UNL     1      11.201  22.958   0.008  1.00  0.00     0.000 C 
ENDROOT
BRANCH   1   2
ATOM      2  C   UNL     1      12.497  22.162   0.198  1.00  0.00     0.000 C 
BRANCH   2   3
ATOM      3  C   UNL     1      13.718  22.988  -0.222  1.00  0.00     0.006 C 
BRANCH   3   4
ATOM      4  C   UNL     1      13.713  23.248  -1.731  1.00  0.00     0.053 C 
BRANCH   4   5
ATOM      5  C   UNL     1      13.382  24.680  -2.015  1.00  0.00     0.041 C 
ATOM      6  O   UNL     1      13.846  25.594  -1.285  1.00  0.00    -0.550 OA
ATOM      7  O   UNL     1      12.521  25.000  -3.058  1.00  0.00    -0.550 OA
ENDBRANCH   4   5
ENDBRANCH   3   4
ENDBRANCH   2   3
ENDBRANCH   1   2
BRANCH   1   8
ATOM      8  C   UNL     1      10.273  22.265  -1.000  1.00  0.00     0.000 C 
BRANCH   8   9
ATOM      9  C   UNL     1      10.745  20.846  -1.360  1.00  0.00     0.006 C 
BRANCH   9  10
ATOM     10  C   UNL     1       9.936  20.227  -2.508  1.00  0.00     0.053 C 
BRANCH  10  11
ATOM     11  C   UNL     1      10.577  20.535  -3.824  1.00  0.00     0.041 C 
ATOM     12  O   UNL     1       9.913  20.439  -4.889  1.00  0.00    -0.550 OA
ATOM     13  O   UNL     1      11.892  20.978  -3.870  1.00  0.00    -0.550 OA
ENDBRANCH  10  11
ENDBRANCH   9  10
ENDBRANCH   8   9
ENDBRANCH   1   8
TORSDOF 8
ENDMDL
MODEL 2
REMARK VINA RESULT:    -5.225      0.210      4.686
REMARK INTER + INTRA:          -8.150
REMARK INTER:                  -7.662
REMARK INTRA:                  -0.487
REMARK UNBOUND:                -0.481
REMARK SMILES O=C([O-])CCCCCCCC(=O)[O-]
REMARK SMILES IDX 7 1 6 2 5 3 4 4 2 5 1 6 3 7 8 8 9 9 10 10 11 11 12 12 13 13
REMARK H PARENT
REMARK Flexibility Score: inf
ROOT
ATOM      1  C   UNL     1      10.974  22.923  -0.218  1.00  0.00     0.000 C 
ENDROOT
BRANCH   1   2
ATOM      2  C   UNL     1      10.158  22.163  -1.270  1.00  0.00     0.000 C 
BRANCH   2   3
ATOM      3  C   UNL     1      10.682  20.734  -1.447  1.00  0.00     0.006 C 
BRANCH   3   4
ATOM      4  C   UNL     1      10.060  20.070  -2.680  1.00  0.00     0.053 C 
BRANCH   4   5
ATOM      5  C   UNL     1      10.704  20.581  -3.931  1.00  0.00     0.041 C 
ATOM      6  O   UNL     1      10.036  20.672  -4.994  1.00  0.00    -0.550 OA
ATOM      7  O   UNL     1      12.053  20.912  -3.933  1.00  0.00    -0.550 OA
ENDBRANCH   4   5
ENDBRANCH   3   4
ENDBRANCH   2   3
ENDBRANCH   1   2
BRANCH   1   8
ATOM      8  C   UNL     1      12.251  22.151   0.150  1.00  0.00     0.000 C 
BRANCH   8   9
ATOM      9  C   UNL     1      13.532  22.921  -0.209  1.00  0.00     0.006 C 
BRANCH   9  10
ATOM     10  C   UNL     1      13.658  23.192  -1.713  1.00  0.00     0.053 C 
BRANCH  10  11
ATOM     11  C   UNL     1      13.313  24.616  -2.019  1.00  0.00     0.041 C 
ATOM     12  O   UNL     1      13.818  25.549  -1.341  1.00  0.00    -0.550 OA
ATOM     13  O   UNL     1      12.475  24.914  -3.085  1.00  0.00    -0.550 OA
ENDBRANCH  10  11
ENDBRANCH   9  10
ENDBRANCH   8   9
ENDBRANCH   1   8
TORSDOF 8
ENDMDL
MODEL 3
REMARK VINA RESULT:    -5.154      1.598      2.135
REMARK INTER + INTRA:          -8.045
REMARK INTER:                  -7.361
REMARK INTRA:                  -0.684
REMARK UNBOUND:                -0.481
REMARK SMILES O=C([O-])CCCCCCCC(=O)[O-]
REMARK SMILES IDX 7 1 6 2 5 3 4 4 2 5 1 6 3 7 8 8 9 9 10 10 11 11 12 12 13 13
REMARK H PARENT
REMARK Flexibility Score: inf
ROOT
ATOM      1  C   UNL     1      10.252  22.434  -1.020  1.00  0.00     0.000 C 
ENDROOT
BRANCH   1   2
ATOM      2  C   UNL     1      11.112  23.611  -0.545  1.00  0.00     0.000 C 
BRANCH   2   3
ATOM      3  C   UNL     1      11.746  24.345  -1.733  1.00  0.00     0.006 C 
BRANCH   3   4
ATOM      4  C   UNL     1      13.219  24.664  -1.459  1.00  0.00     0.053 C 
BRANCH   4   5
ATOM      5  C   UNL     1      13.995  23.404  -1.235  1.00  0.00     0.041 C 
ATOM      6  O   UNL     1      13.976  22.487  -2.097  1.00  0.00    -0.550 OA
ATOM      7  O   UNL     1      14.701  23.224  -0.052  1.00  0.00    -0.550 OA
ENDBRANCH   4   5
ENDBRANCH   3   4
ENDBRANCH   2   3
ENDBRANCH   1   2
BRANCH   1   8
ATOM      8  C   UNL     1      11.050  21.122  -0.987  1.00  0.00     0.000 C 
BRANCH   8   9
ATOM      9  C   UNL     1      10.475  20.056  -1.934  1.00  0.00     0.006 C 
BRANCH   9  10
ATOM     10  C   UNL     1      10.164  20.610  -3.330  1.00  0.00     0.053 C 
BRANCH  10  11
ATOM     11  C   UNL     1      11.430  20.842  -4.094  1.00  0.00     0.041 C 
ATOM     12  O   UNL     1      12.185  19.875  -4.377  1.00  0.00    -0.550 OA
ATOM     13  O   UNL     1      11.750  22.118  -4.537  1.00  0.00    -0.550 OA
ENDBRANCH  10  11
ENDBRANCH   9  10
ENDBRANCH   8   9
ENDBRANCH   1   8
TORSDOF 8
ENDMDL
MODEL 4
REMARK VINA RESULT:    -4.935      1.104      4.664
REMARK INTER + INTRA:          -7.725
REMARK INTER:                  -7.214
REMARK INTRA:                  -0.511
REMARK UNBOUND:                -0.481
REMARK SMILES O=C([O-])CCCCCCCC(=O)[O-]
REMARK SMILES IDX 7 1 6 2 5 3 4 4 2 5 1 6 3 7 8 8 9 9 10 10 11 11 12 12 13 13
REMARK H PARENT
REMARK Flexibility Score: inf
ROOT
ATOM      1  C   UNL     1      11.435  22.206   0.044  1.00  0.00     0.000 C 
ENDROOT
BRANCH   1   2
ATOM      2  C   UNL     1      11.343  20.872  -0.706  1.00  0.00     0.000 C 
BRANCH   2   3
ATOM      3  C   UNL     1      10.220  20.902  -1.749  1.00  0.00     0.006 C 
BRANCH   3   4
ATOM      4  C   UNL     1      10.514  19.938  -2.903  1.00  0.00     0.053 C 
BRANCH   4   5
ATOM      5  C   UNL     1      10.614  20.684  -4.196  1.00  0.00     0.041 C 
ATOM      6  O   UNL     1       9.796  20.453  -5.125  1.00  0.00    -0.550 OA
ATOM      7  O   UNL     1      11.640  21.600  -4.393  1.00  0.00    -0.550 OA
ENDBRANCH   4   5
ENDBRANCH   3   4
ENDBRANCH   2   3
ENDBRANCH   1   2
BRANCH   1   8
ATOM      8  C   UNL     1      10.468  23.240  -0.554  1.00  0.00     0.000 C 
BRANCH   8   9
ATOM      9  C   UNL     1      11.188  24.503  -1.053  1.00  0.00     0.006 C 
BRANCH   9  10
ATOM     10  C   UNL     1      12.202  24.207  -2.164  1.00  0.00     0.053 C 
BRANCH  10  11
ATOM     11  C   UNL     1      13.600  24.361  -1.652  1.00  0.00     0.041 C 
ATOM     12  O   UNL     1      14.060  25.506  -1.403  1.00  0.00    -0.550 OA
ATOM     13  O   UNL     1      14.375  23.237  -1.400  1.00  0.00    -0.550 OA
ENDBRANCH  10  11
ENDBRANCH   9  10
ENDBRANCH   8   9
ENDBRANCH   1   8
TORSDOF 8
ENDMDL
MODEL 5
REMARK VINA RESULT:    -4.791      1.525      4.454
REMARK INTER + INTRA:          -7.514
REMARK INTER:                  -6.953
REMARK INTRA:                  -0.561
REMARK UNBOUND:                -0.481
REMARK SMILES O=C([O-])CCCCCCCC(=O)[O-]
REMARK SMILES IDX 7 1 6 2 5 3 4 4 2 5 1 6 3 7 8 8 9 9 10 10 11 11 12 12 13 13
REMARK H PARENT
REMARK Flexibility Score: inf
ROOT
ATOM      1  C   UNL     1      10.236  22.077  -1.213  1.00  0.00     0.000 C 
ENDROOT
BRANCH   1   2
ATOM      2  C   UNL     1      10.999  20.781  -1.510  1.00  0.00     0.000 C 
BRANCH   2   3
ATOM      3  C   UNL     1      10.210  19.885  -2.472  1.00  0.00     0.006 C 
BRANCH   3   4
ATOM      4  C   UNL     1      10.136  20.509  -3.869  1.00  0.00     0.053 C 
BRANCH   4   5
ATOM      5  C   UNL     1      11.505  20.867  -4.356  1.00  0.00     0.041 C 
ATOM      6  O   UNL     1      11.780  22.058  -4.656  1.00  0.00    -0.550 OA
ATOM      7  O   UNL     1      12.464  19.875  -4.523  1.00  0.00    -0.550 OA
ENDBRANCH   4   5
ENDBRANCH   3   4
ENDBRANCH   2   3
ENDBRANCH   1   2
BRANCH   1   8
ATOM      8  C   UNL     1      11.032  22.977  -0.256  1.00  0.00     0.000 C 
BRANCH   8   9
ATOM      9  C   UNL     1      11.458  24.303  -0.906  1.00  0.00     0.006 C 
BRANCH   9  10
ATOM     10  C   UNL     1      12.576  24.122  -1.940  1.00  0.00     0.053 C 
BRANCH  10  11
ATOM     11  C   UNL     1      13.684  23.292  -1.373  1.00  0.00     0.041 C 
ATOM     12  O   UNL     1      14.014  22.212  -1.929  1.00  0.00    -0.550 OA
ATOM     13  O   UNL     1      14.386  23.738  -0.261  1.00  0.00    -0.550 OA
ENDBRANCH  10  11
ENDBRANCH   9  10
ENDBRANCH   8   9
ENDBRANCH   1   8
TORSDOF 8
ENDMDL
MODEL 6
REMARK VINA RESULT:    -4.445      1.258      4.379
REMARK INTER + INTRA:          -7.005
REMARK INTER:                  -6.508
REMARK INTRA:                  -0.497
REMARK UNBOUND:                -0.481
REMARK SMILES O=C([O-])CCCCCCCC(=O)[O-]
REMARK SMILES IDX 7 1 6 2 5 3 4 4 2 5 1 6 3 7 8 8 9 9 10 10 11 11 12 12 13 13
REMARK H PARENT
REMARK Flexibility Score: inf
ROOT
ATOM      1  C   UNL     1      10.586  20.418  -1.272  1.00  0.00     0.000 C 
ENDROOT
BRANCH   1   2
ATOM      2  C   UNL     1       9.527  19.875  -2.240  1.00  0.00     0.000 C 
BRANCH   2   3
ATOM      3  C   UNL     1       9.938  20.113  -3.697  1.00  0.00     0.006 C 
BRANCH   3   4
ATOM      4  C   UNL     1      11.445  19.913  -3.883  1.00  0.00     0.053 C 
BRANCH   4   5
ATOM      5  C   UNL     1      12.110  21.213  -4.207  1.00  0.00     0.041 C 
ATOM      6  O   UNL     1      13.174  21.544  -3.620  1.00  0.00    -0.550 OA
ATOM      7  O   UNL     1      11.529  22.082  -5.123  1.00  0.00    -0.550 OA
ENDBRANCH   4   5
ENDBRANCH   3   4
ENDBRANCH   2   3
ENDBRANCH   1   2
BRANCH   1   8
ATOM      8  C   UNL     1      10.407  21.928  -1.053  1.00  0.00     0.000 C 
BRANCH   8   9
ATOM      9  C   UNL     1      11.731  22.639  -0.731  1.00  0.00     0.006 C 
BRANCH   9  10
ATOM     10  C   UNL     1      11.630  24.165  -0.861  1.00  0.00     0.053 C 
BRANCH  10  11
ATOM     11  C   UNL     1      12.557  24.662  -1.925  1.00  0.00     0.041 C 
ATOM     12  O   UNL     1      13.765  24.892  -1.655  1.00  0.00    -0.550 OA
ATOM     13  O   UNL     1      12.100  24.822  -3.226  1.00  0.00    -0.550 OA
ENDBRANCH  10  11
ENDBRANCH   9  10
ENDBRANCH   8   9
ENDBRANCH   1   8
TORSDOF 8
ENDMDL
MODEL 7
REMARK VINA RESULT:    -4.279      2.060      4.648
REMARK INTER + INTRA:          -6.762
REMARK INTER:                  -6.228
REMARK INTRA:                  -0.533
REMARK UNBOUND:                -0.481
REMARK SMILES O=C([O-])CCCCCCCC(=O)[O-]
REMARK SMILES IDX 7 1 6 2 5 3 4 4 2 5 1 6 3 7 8 8 9 9 10 10 11 11 12 12 13 13
REMARK H PARENT
REMARK Flexibility Score: inf
ROOT
ATOM      1  C   UNL     1      11.867  20.934  -3.626  1.00  0.00     0.000 C 
ENDROOT
BRANCH   1   2
ATOM      2  C   UNL     1      10.501  20.269  -3.416  1.00  0.00     0.000 C 
BRANCH   2   3
ATOM      3  C   UNL     1       9.917  20.631  -2.045  1.00  0.00     0.006 C 
BRANCH   3   4
ATOM      4  C   UNL     1      11.024  20.773  -0.996  1.00  0.00     0.053 C 
BRANCH   4   5
ATOM      5  C   UNL     1      10.909  22.087  -0.288  1.00  0.00     0.041 C 
ATOM      6  O   UNL     1      10.069  22.942  -0.673  1.00  0.00    -0.550 OA
ATOM      7  O   UNL     1      11.763  22.385   0.766  1.00  0.00    -0.550 OA
ENDBRANCH   4   5
ENDBRANCH   3   4
ENDBRANCH   2   3
ENDBRANCH   1   2
BRANCH   1   8
ATOM      8  C   UNL     1      11.705  22.361  -4.173  1.00  0.00     0.000 C 
BRANCH   8   9
ATOM      9  C   UNL     1      12.357  23.419  -3.268  1.00  0.00     0.006 C 
BRANCH   9  10
ATOM     10  C   UNL     1      13.473  22.839  -2.390  1.00  0.00     0.053 C 
BRANCH  10  11
ATOM     11  C   UNL     1      13.930  23.853  -1.388  1.00  0.00     0.041 C 
ATOM     12  O   UNL     1      13.647  25.070  -1.545  1.00  0.00    -0.550 OA
ATOM     13  O   UNL     1      14.624  23.447  -0.256  1.00  0.00    -0.550 OA
ENDBRANCH  10  11
ENDBRANCH   9  10
ENDBRANCH   8   9
ENDBRANCH   1   8
TORSDOF 8
ENDMDL
MODEL 8
REMARK VINA RESULT:    -4.272      2.106      3.380
REMARK INTER + INTRA:          -6.751
REMARK INTER:                  -6.185
REMARK INTRA:                  -0.567
REMARK UNBOUND:                -0.481
REMARK SMILES O=C([O-])CCCCCCCC(=O)[O-]
REMARK SMILES IDX 7 1 6 2 5 3 4 4 2 5 1 6 3 7 8 8 9 9 10 10 11 11 12 12 13 13
REMARK H PARENT
REMARK Flexibility Score: inf
ROOT
ATOM      1  C   UNL     1      10.668  21.259  -1.496  1.00  0.00     0.000 C 
ENDROOT
BRANCH   1   2
ATOM      2  C   UNL     1      10.205  22.638  -1.012  1.00  0.00     0.000 C 
BRANCH   2   3
ATOM      3  C   UNL     1      11.169  23.207   0.035  1.00  0.00     0.006 C 
BRANCH   3   4
ATOM      4  C   UNL     1      12.379  22.289   0.225  1.00  0.00     0.053 C 
BRANCH   4   5
ATOM      5  C   UNL     1      13.625  22.953  -0.272  1.00  0.00     0.041 C 
ATOM      6  O   UNL     1      13.662  24.204  -0.413  1.00  0.00    -0.550 OA
ATOM      7  O   UNL     1      14.728  22.186  -0.625  1.00  0.00    -0.550 OA
ENDBRANCH   4   5
ENDBRANCH   3   4
ENDBRANCH   2   3
ENDBRANCH   1   2
BRANCH   1   8
ATOM      8  C   UNL     1      10.908  21.261  -3.013  1.00  0.00     0.000 C 
BRANCH   8   9
ATOM      9  C   UNL     1      12.141  22.086  -3.417  1.00  0.00     0.006 C 
BRANCH   9  10
ATOM     10  C   UNL     1      11.868  23.012  -4.609  1.00  0.00     0.053 C 
BRANCH  10  11
ATOM     11  C   UNL     1      11.956  24.445  -4.188  1.00  0.00     0.041 C 
ATOM     12  O   UNL     1      12.231  24.739  -2.996  1.00  0.00    -0.550 OA
ATOM     13  O   UNL     1      11.783  25.456  -5.125  1.00  0.00    -0.550 OA
ENDBRANCH  10  11
ENDBRANCH   9  10
ENDBRANCH   8   9
ENDBRANCH   1   8
TORSDOF 8
ENDMDL
MODEL 9
REMARK VINA RESULT:    -4.150      2.350      3.671
REMARK INTER + INTRA:          -6.572
REMARK INTER:                  -5.967
REMARK INTRA:                  -0.605
REMARK UNBOUND:                -0.481
REMARK SMILES O=C([O-])CCCCCCCC(=O)[O-]
REMARK SMILES IDX 7 1 6 2 5 3 4 4 2 5 1 6 3 7 8 8 9 9 10 10 11 11 12 12 13 13
REMARK H PARENT
REMARK Flexibility Score: inf
ROOT
ATOM      1  C   UNL     1      10.329  20.463  -3.839  1.00  0.00     0.000 C 
ENDROOT
BRANCH   1   2
ATOM      2  C   UNL     1      11.740  20.946  -4.193  1.00  0.00     0.000 C 
BRANCH   2   3
ATOM      3  C   UNL     1      11.754  22.454  -4.472  1.00  0.00     0.006 C 
BRANCH   3   4
ATOM      4  C   UNL     1      12.506  23.209  -3.373  1.00  0.00     0.053 C 
BRANCH   4   5
ATOM      5  C   UNL     1      12.039  24.629  -3.300  1.00  0.00     0.041 C 
ATOM      6  O   UNL     1      11.579  25.090  -2.222  1.00  0.00    -0.550 OA
ATOM      7  O   UNL     1      12.069  25.430  -4.435  1.00  0.00    -0.550 OA
ENDBRANCH   4   5
ENDBRANCH   3   4
ENDBRANCH   2   3
ENDBRANCH   1   2
BRANCH   1   8
ATOM      8  C   UNL     1      10.257  20.002  -2.375  1.00  0.00     0.000 C 
BRANCH   8   9
ATOM      9  C   UNL     1      10.299  21.176  -1.383  1.00  0.00     0.006 C 
BRANCH   9  10
ATOM     10  C   UNL     1      11.513  21.116  -0.447  1.00  0.00     0.053 C 
BRANCH  10  11
ATOM     11  C   UNL     1      11.869  22.487   0.035  1.00  0.00     0.041 C 
ATOM     12  O   UNL     1      10.967  23.280   0.412  1.00  0.00    -0.550 OA
ATOM     13  O   UNL     1      13.201  22.871   0.115  1.00  0.00    -0.550 OA
ENDBRANCH  10  11
ENDBRANCH   9  10
ENDBRANCH   8   9
ENDBRANCH   1   8
TORSDOF 8
ENDMDL
