MODEL 1
REMARK VINA RESULT:    -3.001      0.000      0.000
REMARK INTER + INTRA:          -5.491
REMARK INTER:                  -5.807
REMARK INTRA:                   0.316
REMARK UNBOUND:                 0.316
REMARK SMILES CCCCCCCCCCCCCCCCCC(=O)[O-]
REMARK SMILES IDX 10 1 11 2 12 3 13 4 14 5 15 6 16 7 17 8 18 9 19 10 20 11
REMARK SMILES IDX 9 12 8 13 7 14 6 15 5 16 4 17 3 18 2 19 1 20
REMARK H PARENT
REMARK Flexibility Score: inf
ROOT
ATOM      1  C   UNL     1       2.554 -37.126  20.100  1.00  0.00     0.000 C 
ENDROOT
BRANCH   1   2
ATOM      2  C   UNL     1       3.832 -37.967  19.928  1.00  0.00     0.000 C 
BRANCH   2   3
ATOM      3  C   UNL     1       5.107 -37.110  19.863  1.00  0.00     0.000 C 
BRANCH   3   4
ATOM      4  C   UNL     1       4.833 -35.608  20.066  1.00  0.00     0.000 C 
BRANCH   4   5
ATOM      5  C   UNL     1       5.892 -34.848  20.885  1.00  0.00     0.000 C 
BRANCH   5   6
ATOM      6  C   UNL     1       6.067 -35.409  22.308  1.00  0.00     0.000 C 
BRANCH   6   7
ATOM      7  C   UNL     1       6.120 -34.303  23.375  1.00  0.00     0.006 C 
BRANCH   7   8
ATOM      8  C   UNL     1       6.125 -34.861  24.804  1.00  0.00     0.053 C 
BRANCH   8   9
ATOM      9  C   UNL     1       5.629 -36.272  24.814  1.00  0.00     0.041 C 
ATOM     10  O   UNL     1       6.078 -37.107  23.985  1.00  0.00    -0.550 OA
ATOM     11  O   UNL     1       4.708 -36.679  25.771  1.00  0.00    -0.550 OA
ENDBRANCH   8   9
ENDBRANCH   7   8
ENDBRANCH   6   7
ENDBRANCH   5   6
ENDBRANCH   4   5
ENDBRANCH   3   4
ENDBRANCH   2   3
ENDBRANCH   1   2
BRANCH   1  12
ATOM     12  C   UNL     1       1.264 -37.768  19.548  1.00  0.00     0.000 C 
BRANCH  12  13
ATOM     13  C   UNL     1       1.175 -37.839  18.012  1.00  0.00    -0.000 C 
BRANCH  13  14
ATOM     14  C   UNL     1       2.337 -37.158  17.260  1.00  0.00    -0.000 C 
BRANCH  14  15
ATOM     15  C   UNL     1       1.907 -36.151  16.178  1.00  0.00    -0.000 C 
BRANCH  15  16
ATOM     16  C   UNL     1       2.428 -36.519  14.778  1.00  0.00    -0.000 C 
BRANCH  16  17
ATOM     17  C   UNL     1       3.941 -36.256  14.630  1.00  0.00    -0.000 C 
BRANCH  17  18
ATOM     18  C   UNL     1       4.700 -37.394  13.919  1.00  0.00    -0.000 C 
BRANCH  18  19
ATOM     19  C   UNL     1       4.062 -38.784  14.074  1.00  0.00    -0.003 C 
ATOM     20  C   UNL     1       5.080 -39.919  13.965  1.00  0.00     0.004 C 
ENDBRANCH  18  19
ENDBRANCH  17  18
ENDBRANCH  16  17
ENDBRANCH  15  16
ENDBRANCH  14  15
ENDBRANCH  13  14
ENDBRANCH  12  13
ENDBRANCH   1  12
TORSDOF 16
ENDMDL
MODEL 2
REMARK VINA RESULT:    -2.647      4.122      8.149
REMARK INTER + INTRA:          -4.806
REMARK INTER:                  -4.078
REMARK INTRA:                  -0.728
REMARK UNBOUND:                 0.316
REMARK SMILES CCCCCCCCCCCCCCCCCC(=O)[O-]
REMARK SMILES IDX 10 1 11 2 12 3 13 4 14 5 15 6 16 7 17 8 18 9 19 10 20 11
REMARK SMILES IDX 9 12 8 13 7 14 6 15 5 16 4 17 3 18 2 19 1 20
REMARK H PARENT
REMARK Flexibility Score: inf
ROOT
ATOM      1  C   UNL     1       4.828 -35.008  20.898  1.00  0.00     0.000 C 
ENDROOT
BRANCH   1   2
ATOM      2  C   UNL     1       5.769 -36.126  20.416  1.00  0.00     0.000 C 
BRANCH   2   3
ATOM      3  C   UNL     1       5.047 -37.192  19.574  1.00  0.00     0.000 C 
BRANCH   3   4
ATOM      4  C   UNL     1       3.513 -37.099  19.672  1.00  0.00     0.000 C 
BRANCH   4   5
ATOM      5  C   UNL     1       2.748 -37.411  18.372  1.00  0.00     0.000 C 
BRANCH   5   6
ATOM      6  C   UNL     1       3.309 -36.660  17.151  1.00  0.00     0.000 C 
BRANCH   6   7
ATOM      7  C   UNL     1       2.221 -36.320  16.119  1.00  0.00     0.006 C 
BRANCH   7   8
ATOM      8  C   UNL     1       2.773 -36.212  14.692  1.00  0.00     0.053 C 
BRANCH   8   9
ATOM      9  C   UNL     1       3.764 -37.303  14.433  1.00  0.00     0.041 C 
ATOM     10  O   UNL     1       3.463 -38.502  14.672  1.00  0.00    -0.550 OA
ATOM     11  O   UNL     1       5.003 -37.001  13.883  1.00  0.00    -0.550 OA
ENDBRANCH   8   9
ENDBRANCH   7   8
ENDBRANCH   6   7
ENDBRANCH   5   6
ENDBRANCH   4   5
ENDBRANCH   3   4
ENDBRANCH   2   3
ENDBRANCH   1   2
BRANCH   1  12
ATOM     12  C   UNL     1       4.967 -34.627  22.387  1.00  0.00     0.000 C 
BRANCH  12  13
ATOM     13  C   UNL     1       6.047 -35.404  23.163  1.00  0.00    -0.000 C 
BRANCH  13  14
ATOM     14  C   UNL     1       5.511 -36.516  24.087  1.00  0.00    -0.000 C 
BRANCH  14  15
ATOM     15  C   UNL     1       6.009 -37.934  23.752  1.00  0.00    -0.000 C 
BRANCH  15  16
ATOM     16  C   UNL     1       5.357 -38.513  22.485  1.00  0.00    -0.000 C 
BRANCH  16  17
ATOM     17  C   UNL     1       5.660 -40.016  22.307  1.00  0.00    -0.000 C 
BRANCH  17  18
ATOM     18  C   UNL     1       5.669 -40.807  23.629  1.00  0.00    -0.000 C 
BRANCH  18  19
ATOM     19  C   UNL     1       6.125 -42.269  23.498  1.00  0.00    -0.003 C 
ATOM     20  C   UNL     1       6.078 -43.026  24.826  1.00  0.00     0.004 C 
ENDBRANCH  18  19
ENDBRANCH  17  18
ENDBRANCH  16  17
ENDBRANCH  15  16
ENDBRANCH  14  15
ENDBRANCH  13  14
ENDBRANCH  12  13
ENDBRANCH   1  12
TORSDOF 16
ENDMDL
MODEL 3
REMARK VINA RESULT:    -2.501      3.608      7.998
REMARK INTER + INTRA:          -4.524
REMARK INTER:                  -3.319
REMARK INTRA:                  -1.204
REMARK UNBOUND:                 0.316
REMARK SMILES CCCCCCCCCCCCCCCCCC(=O)[O-]
REMARK SMILES IDX 10 1 11 2 12 3 13 4 14 5 15 6 16 7 17 8 18 9 19 10 20 11
REMARK SMILES IDX 9 12 8 13 7 14 6 15 5 16 4 17 3 18 2 19 1 20
REMARK H PARENT
REMARK Flexibility Score: inf
ROOT
ATOM      1  C   UNL     1       5.223 -35.116  22.592  1.00  0.00     0.000 C 
ENDROOT
BRANCH   1   2
ATOM      2  C   UNL     1       5.947 -35.679  21.356  1.00  0.00     0.000 C 
BRANCH   2   3
ATOM      3  C   UNL     1       5.782 -34.791  20.111  1.00  0.00     0.000 C 
BRANCH   3   4
ATOM      4  C   UNL     1       4.947 -35.459  19.002  1.00  0.00     0.000 C 
BRANCH   4   5
ATOM      5  C   UNL     1       4.359 -36.837  19.358  1.00  0.00     0.000 C 
BRANCH   5   6
ATOM      6  C   UNL     1       3.393 -37.372  18.286  1.00  0.00     0.000 C 
BRANCH   6   7
ATOM      7  C   UNL     1       2.979 -36.291  17.274  1.00  0.00     0.006 C 
BRANCH   7   8
ATOM      8  C   UNL     1       2.272 -36.873  16.043  1.00  0.00     0.053 C 
BRANCH   8   9
ATOM      9  C   UNL     1       3.267 -37.189  14.972  1.00  0.00     0.041 C 
ATOM     10  O   UNL     1       3.816 -38.322  14.932  1.00  0.00    -0.550 OA
ATOM     11  O   UNL     1       3.553 -36.251  13.989  1.00  0.00    -0.550 OA
ENDBRANCH   8   9
ENDBRANCH   7   8
ENDBRANCH   6   7
ENDBRANCH   5   6
ENDBRANCH   4   5
ENDBRANCH   3   4
ENDBRANCH   2   3
ENDBRANCH   1   2
BRANCH   1  12
ATOM     12  C   UNL     1       6.125 -34.385  23.608  1.00  0.00     0.000 C 
BRANCH  12  13
ATOM     13  C   UNL     1       5.994 -34.869  25.065  1.00  0.00    -0.000 C 
BRANCH  13  14
ATOM     14  C   UNL     1       6.101 -36.396  25.256  1.00  0.00    -0.000 C 
BRANCH  14  15
ATOM     15  C   UNL     1       4.759 -37.119  25.469  1.00  0.00    -0.000 C 
BRANCH  15  16
ATOM     16  C   UNL     1       4.807 -38.601  25.062  1.00  0.00    -0.000 C 
BRANCH  16  17
ATOM     17  C   UNL     1       5.560 -38.818  23.733  1.00  0.00    -0.000 C 
BRANCH  17  18
ATOM     18  C   UNL     1       5.589 -40.288  23.271  1.00  0.00    -0.000 C 
BRANCH  18  19
ATOM     19  C   UNL     1       5.883 -40.484  21.775  1.00  0.00    -0.003 C 
ATOM     20  C   UNL     1       6.011 -39.162  21.018  1.00  0.00     0.004 C 
ENDBRANCH  18  19
ENDBRANCH  17  18
ENDBRANCH  16  17
ENDBRANCH  15  16
ENDBRANCH  14  15
ENDBRANCH  13  14
ENDBRANCH  12  13
ENDBRANCH   1  12
TORSDOF 16
ENDMDL
MODEL 4
REMARK VINA RESULT:    -2.410      1.675      2.985
REMARK INTER + INTRA:          -4.347
REMARK INTER:                  -3.542
REMARK INTRA:                  -0.806
REMARK UNBOUND:                 0.316
REMARK SMILES CCCCCCCCCCCCCCCCCC(=O)[O-]
REMARK SMILES IDX 10 1 11 2 12 3 13 4 14 5 15 6 16 7 17 8 18 9 19 10 20 11
REMARK SMILES IDX 9 12 8 13 7 14 6 15 5 16 4 17 3 18 2 19 1 20
REMARK H PARENT
REMARK Flexibility Score: inf
ROOT
ATOM      1  C   UNL     1       3.533 -35.569  21.340  1.00  0.00     0.000 C 
ENDROOT
BRANCH   1   2
ATOM      2  C   UNL     1       4.790 -34.728  21.057  1.00  0.00     0.000 C 
BRANCH   2   3
ATOM      3  C   UNL     1       6.026 -35.220  21.830  1.00  0.00     0.000 C 
BRANCH   3   4
ATOM      4  C   UNL     1       6.125 -34.626  23.247  1.00  0.00     0.000 C 
BRANCH   4   5
ATOM      5  C   UNL     1       5.217 -35.282  24.303  1.00  0.00     0.000 C 
BRANCH   5   6
ATOM      6  C   UNL     1       5.956 -36.316  25.171  1.00  0.00     0.000 C 
BRANCH   6   7
ATOM      7  C   UNL     1       5.761 -37.755  24.665  1.00  0.00     0.006 C 
BRANCH   7   8
ATOM      8  C   UNL     1       6.107 -37.910  23.178  1.00  0.00     0.053 C 
BRANCH   8   9
ATOM      9  C   UNL     1       5.594 -39.216  22.658  1.00  0.00     0.041 C 
ATOM     10  O   UNL     1       5.227 -40.117  23.458  1.00  0.00    -0.550 OA
ATOM     11  O   UNL     1       5.476 -39.421  21.289  1.00  0.00    -0.550 OA
ENDBRANCH   8   9
ENDBRANCH   7   8
ENDBRANCH   6   7
ENDBRANCH   5   6
ENDBRANCH   4   5
ENDBRANCH   3   4
ENDBRANCH   2   3
ENDBRANCH   1   2
BRANCH   1  12
ATOM     12  C   UNL     1       3.199 -36.633  20.273  1.00  0.00     0.000 C 
BRANCH  12  13
ATOM     13  C   UNL     1       4.291 -36.859  19.211  1.00  0.00    -0.000 C 
BRANCH  13  14
ATOM     14  C   UNL     1       3.769 -37.243  17.811  1.00  0.00    -0.000 C 
BRANCH  14  15
ATOM     15  C   UNL     1       2.253 -37.496  17.732  1.00  0.00    -0.000 C 
BRANCH  15  16
ATOM     16  C   UNL     1       1.589 -36.785  16.541  1.00  0.00    -0.000 C 
BRANCH  16  17
ATOM     17  C   UNL     1       2.597 -35.948  15.724  1.00  0.00    -0.000 C 
BRANCH  17  18
ATOM     18  C   UNL     1       2.848 -36.493  14.305  1.00  0.00    -0.000 C 
BRANCH  18  19
ATOM     19  C   UNL     1       4.240 -37.108  14.091  1.00  0.00    -0.003 C 
ATOM     20  C   UNL     1       4.231 -38.636  14.164  1.00  0.00     0.004 C 
ENDBRANCH  18  19
ENDBRANCH  17  18
ENDBRANCH  16  17
ENDBRANCH  15  16
ENDBRANCH  14  15
ENDBRANCH  13  14
ENDBRANCH  12  13
ENDBRANCH   1  12
TORSDOF 16
ENDMDL
MODEL 5
REMARK VINA RESULT:    -2.164      3.195      8.139
REMARK INTER + INTRA:          -3.872
REMARK INTER:                  -2.564
REMARK INTRA:                  -1.308
REMARK UNBOUND:                 0.316
REMARK SMILES CCCCCCCCCCCCCCCCCC(=O)[O-]
REMARK SMILES IDX 10 1 11 2 12 3 13 4 14 5 15 6 16 7 17 8 18 9 19 10 20 11
REMARK SMILES IDX 9 12 8 13 7 14 6 15 5 16 4 17 3 18 2 19 1 20
REMARK H PARENT
REMARK Flexibility Score: inf
ROOT
ATOM      1  C   UNL     1       5.392 -35.759  20.069  1.00  0.00     0.000 C 
ENDROOT
BRANCH   1   2
ATOM      2  C   UNL     1       5.058 -37.259  20.157  1.00  0.00     0.000 C 
BRANCH   2   3
ATOM      3  C   UNL     1       3.897 -37.668  19.234  1.00  0.00     0.000 C 
BRANCH   3   4
ATOM      4  C   UNL     1       2.516 -37.502  19.894  1.00  0.00     0.000 C 
BRANCH   4   5
ATOM      5  C   UNL     1       1.313 -37.567  18.936  1.00  0.00     0.000 C 
BRANCH   5   6
ATOM      6  C   UNL     1       1.728 -37.663  17.457  1.00  0.00     0.000 C 
BRANCH   6   7
ATOM      7  C   UNL     1       1.300 -36.431  16.643  1.00  0.00     0.006 C 
BRANCH   7   8
ATOM      8  C   UNL     1       1.907 -36.411  15.235  1.00  0.00     0.053 C 
BRANCH   8   9
ATOM      9  C   UNL     1       3.368 -36.728  15.294  1.00  0.00     0.041 C 
ATOM     10  O   UNL     1       3.866 -37.575  14.506  1.00  0.00    -0.550 OA
ATOM     11  O   UNL     1       4.191 -36.052  16.187  1.00  0.00    -0.550 OA
ENDBRANCH   8   9
ENDBRANCH   7   8
ENDBRANCH   6   7
ENDBRANCH   5   6
ENDBRANCH   4   5
ENDBRANCH   3   4
ENDBRANCH   2   3
ENDBRANCH   1   2
BRANCH   1  12
ATOM     12  C   UNL     1       5.063 -34.935  21.330  1.00  0.00     0.000 C 
BRANCH  12  13
ATOM     13  C   UNL     1       6.068 -35.084  22.489  1.00  0.00    -0.000 C 
BRANCH  13  14
ATOM     14  C   UNL     1       5.649 -34.401  23.806  1.00  0.00    -0.000 C 
BRANCH  14  15
ATOM     15  C   UNL     1       5.994 -35.188  25.083  1.00  0.00    -0.000 C 
BRANCH  15  16
ATOM     16  C   UNL     1       6.124 -36.700  24.837  1.00  0.00    -0.000 C 
BRANCH  16  17
ATOM     17  C   UNL     1       4.926 -37.490  25.405  1.00  0.00    -0.000 C 
BRANCH  17  18
ATOM     18  C   UNL     1       4.668 -38.826  24.683  1.00  0.00    -0.000 C 
BRANCH  18  19
ATOM     19  C   UNL     1       5.323 -38.943  23.297  1.00  0.00    -0.003 C 
ATOM     20  C   UNL     1       5.616 -40.390  22.900  1.00  0.00     0.004 C 
ENDBRANCH  18  19
ENDBRANCH  17  18
ENDBRANCH  16  17
ENDBRANCH  15  16
ENDBRANCH  14  15
ENDBRANCH  13  14
ENDBRANCH  12  13
ENDBRANCH   1  12
TORSDOF 16
ENDMDL
MODEL 6
REMARK VINA RESULT:    -2.015      3.460      7.324
REMARK INTER + INTRA:          -3.584
REMARK INTER:                  -2.217
REMARK INTRA:                  -1.367
REMARK UNBOUND:                 0.316
REMARK SMILES CCCCCCCCCCCCCCCCCC(=O)[O-]
REMARK SMILES IDX 10 1 11 2 12 3 13 4 14 5 15 6 16 7 17 8 18 9 19 10 20 11
REMARK SMILES IDX 9 12 8 13 7 14 6 15 5 16 4 17 3 18 2 19 1 20
REMARK H PARENT
REMARK Flexibility Score: inf
ROOT
ATOM      1  C   UNL     1       4.447 -35.084  22.150  1.00  0.00     0.000 C 
ENDROOT
BRANCH   1   2
ATOM      2  C   UNL     1       4.452 -35.660  20.722  1.00  0.00     0.000 C 
BRANCH   2   3
ATOM      3  C   UNL     1       5.454 -34.950  19.795  1.00  0.00     0.000 C 
BRANCH   3   4
ATOM      4  C   UNL     1       4.896 -34.710  18.380  1.00  0.00     0.000 C 
BRANCH   4   5
ATOM      5  C   UNL     1       4.720 -35.973  17.516  1.00  0.00     0.000 C 
BRANCH   5   6
ATOM      6  C   UNL     1       3.426 -35.955  16.684  1.00  0.00     0.000 C 
BRANCH   6   7
ATOM      7  C   UNL     1       2.497 -37.136  17.013  1.00  0.00     0.006 C 
BRANCH   7   8
ATOM      8  C   UNL     1       2.524 -37.511  18.501  1.00  0.00     0.053 C 
BRANCH   8   9
ATOM      9  C   UNL     1       1.131 -37.645  19.029  1.00  0.00     0.041 C 
ATOM     10  O   UNL     1       0.254 -38.250  18.357  1.00  0.00    -0.550 OA
ATOM     11  O   UNL     1       0.812 -37.145  20.285  1.00  0.00    -0.550 OA
ENDBRANCH   8   9
ENDBRANCH   7   8
ENDBRANCH   6   7
ENDBRANCH   5   6
ENDBRANCH   4   5
ENDBRANCH   3   4
ENDBRANCH   2   3
ENDBRANCH   1   2
BRANCH   1  12
ATOM     12  C   UNL     1       5.840 -34.855  22.772  1.00  0.00     0.000 C 
BRANCH  12  13
ATOM     13  C   UNL     1       5.947 -35.185  24.273  1.00  0.00    -0.000 C 
BRANCH  13  14
ATOM     14  C   UNL     1       5.301 -36.521  24.693  1.00  0.00    -0.000 C 
BRANCH  14  15
ATOM     15  C   UNL     1       6.124 -37.776  24.352  1.00  0.00    -0.000 C 
BRANCH  15  16
ATOM     16  C   UNL     1       5.270 -38.909  23.758  1.00  0.00    -0.000 C 
BRANCH  16  17
ATOM     17  C   UNL     1       5.706 -39.279  22.325  1.00  0.00    -0.000 C 
BRANCH  17  18
ATOM     18  C   UNL     1       5.999 -40.780  22.136  1.00  0.00    -0.000 C 
BRANCH  18  19
ATOM     19  C   UNL     1       6.118 -41.579  23.444  1.00  0.00    -0.003 C 
ATOM     20  C   UNL     1       5.821 -43.068  23.258  1.00  0.00     0.004 C 
ENDBRANCH  18  19
ENDBRANCH  17  18
ENDBRANCH  16  17
ENDBRANCH  15  16
ENDBRANCH  14  15
ENDBRANCH  13  14
ENDBRANCH  12  13
ENDBRANCH   1  12
TORSDOF 16
ENDMDL
MODEL 7
REMARK VINA RESULT:    -1.990      3.634      8.467
REMARK INTER + INTRA:          -3.535
REMARK INTER:                  -2.573
REMARK INTRA:                  -0.961
REMARK UNBOUND:                 0.316
REMARK SMILES CCCCCCCCCCCCCCCCCC(=O)[O-]
REMARK SMILES IDX 10 1 11 2 12 3 13 4 14 5 15 6 16 7 17 8 18 9 19 10 20 11
REMARK SMILES IDX 9 12 8 13 7 14 6 15 5 16 4 17 3 18 2 19 1 20
REMARK H PARENT
REMARK Flexibility Score: inf
ROOT
ATOM      1  C   UNL     1       5.247 -37.438  20.355  1.00  0.00     0.000 C 
ENDROOT
BRANCH   1   2
ATOM      2  C   UNL     1       4.339 -37.941  19.219  1.00  0.00     0.000 C 
BRANCH   2   3
ATOM      3  C   UNL     1       3.050 -37.113  19.073  1.00  0.00     0.000 C 
BRANCH   3   4
ATOM      4  C   UNL     1       2.017 -37.769  18.137  1.00  0.00     0.000 C 
BRANCH   4   5
ATOM      5  C   UNL     1       1.293 -36.808  17.176  1.00  0.00     0.000 C 
BRANCH   5   6
ATOM      6  C   UNL     1       2.251 -35.835  16.465  1.00  0.00     0.000 C 
BRANCH   6   7
ATOM      7  C   UNL     1       2.662 -36.329  15.068  1.00  0.00     0.006 C 
BRANCH   7   8
ATOM      8  C   UNL     1       2.974 -37.831  15.040  1.00  0.00     0.053 C 
BRANCH   8   9
ATOM      9  C   UNL     1       4.232 -38.087  14.274  1.00  0.00     0.041 C 
ATOM     10  O   UNL     1       4.548 -39.262  13.949  1.00  0.00    -0.550 OA
ATOM     11  O   UNL     1       5.033 -37.024  13.875  1.00  0.00    -0.550 OA
ENDBRANCH   8   9
ENDBRANCH   7   8
ENDBRANCH   6   7
ENDBRANCH   5   6
ENDBRANCH   4   5
ENDBRANCH   3   4
ENDBRANCH   2   3
ENDBRANCH   1   2
BRANCH   1  12
ATOM     12  C   UNL     1       6.120 -36.214  20.007  1.00  0.00     0.000 C 
BRANCH  12  13
ATOM     13  C   UNL     1       5.551 -34.856  20.461  1.00  0.00    -0.000 C 
BRANCH  13  14
ATOM     14  C   UNL     1       4.313 -34.942  21.377  1.00  0.00    -0.000 C 
BRANCH  14  15
ATOM     15  C   UNL     1       4.451 -34.209  22.723  1.00  0.00    -0.000 C 
BRANCH  15  16
ATOM     16  C   UNL     1       5.908 -34.114  23.207  1.00  0.00    -0.000 C 
BRANCH  16  17
ATOM     17  C   UNL     1       6.125 -34.833  24.555  1.00  0.00    -0.000 C 
BRANCH  17  18
ATOM     18  C   UNL     1       5.555 -36.264  24.591  1.00  0.00    -0.000 C 
BRANCH  18  19
ATOM     19  C   UNL     1       5.513 -36.902  25.989  1.00  0.00    -0.003 C 
ATOM     20  C   UNL     1       4.283 -37.787  26.200  1.00  0.00     0.004 C 
ENDBRANCH  18  19
ENDBRANCH  17  18
ENDBRANCH  16  17
ENDBRANCH  15  16
ENDBRANCH  14  15
ENDBRANCH  13  14
ENDBRANCH  12  13
ENDBRANCH   1  12
TORSDOF 16
ENDMDL
MODEL 8
REMARK VINA RESULT:    -1.700      3.486      7.044
REMARK INTER + INTRA:          -2.974
REMARK INTER:                  -1.627
REMARK INTRA:                  -1.347
REMARK UNBOUND:                 0.316
REMARK SMILES CCCCCCCCCCCCCCCCCC(=O)[O-]
REMARK SMILES IDX 10 1 11 2 12 3 13 4 14 5 15 6 16 7 17 8 18 9 19 10 20 11
REMARK SMILES IDX 9 12 8 13 7 14 6 15 5 16 4 17 3 18 2 19 1 20
REMARK H PARENT
REMARK Flexibility Score: inf
ROOT
ATOM      1  C   UNL     1       6.117 -35.501  22.930  1.00  0.00     0.000 C 
ENDROOT
BRANCH   1   2
ATOM      2  C   UNL     1       4.961 -34.654  22.370  1.00  0.00     0.000 C 
BRANCH   2   3
ATOM      3  C   UNL     1       4.716 -34.892  20.870  1.00  0.00     0.000 C 
BRANCH   3   4
ATOM      4  C   UNL     1       6.019 -35.074  20.070  1.00  0.00     0.000 C 
BRANCH   4   5
ATOM      5  C   UNL     1       5.997 -34.517  18.635  1.00  0.00     0.000 C 
BRANCH   5   6
ATOM      6  C   UNL     1       4.598 -34.561  17.995  1.00  0.00     0.000 C 
BRANCH   6   7
ATOM      7  C   UNL     1       4.303 -35.907  17.314  1.00  0.00     0.006 C 
BRANCH   7   8
ATOM      8  C   UNL     1       2.952 -35.919  16.589  1.00  0.00     0.053 C 
BRANCH   8   9
ATOM      9  C   UNL     1       3.029 -36.765  15.357  1.00  0.00     0.041 C 
ATOM     10  O   UNL     1       3.728 -37.813  15.351  1.00  0.00    -0.550 OA
ATOM     11  O   UNL     1       2.291 -36.424  14.231  1.00  0.00    -0.550 OA
ENDBRANCH   8   9
ENDBRANCH   7   8
ENDBRANCH   6   7
ENDBRANCH   5   6
ENDBRANCH   4   5
ENDBRANCH   3   4
ENDBRANCH   2   3
ENDBRANCH   1   2
BRANCH   1  12
ATOM     12  C   UNL     1       6.033 -35.816  24.437  1.00  0.00     0.000 C 
BRANCH  12  13
ATOM     13  C   UNL     1       5.943 -37.314  24.788  1.00  0.00    -0.000 C 
BRANCH  13  14
ATOM     14  C   UNL     1       5.126 -38.167  23.796  1.00  0.00    -0.000 C 
BRANCH  14  15
ATOM     15  C   UNL     1       5.901 -39.330  23.150  1.00  0.00    -0.000 C 
BRANCH  15  16
ATOM     16  C   UNL     1       5.528 -39.551  21.674  1.00  0.00    -0.000 C 
BRANCH  16  17
ATOM     17  C   UNL     1       5.514 -38.232  20.872  1.00  0.00    -0.000 C 
BRANCH  17  18
ATOM     18  C   UNL     1       4.386 -38.157  19.825  1.00  0.00    -0.000 C 
BRANCH  18  19
ATOM     19  C   UNL     1       3.107 -37.456  20.311  1.00  0.00    -0.003 C 
ATOM     20  C   UNL     1       1.897 -37.750  19.424  1.00  0.00     0.004 C 
ENDBRANCH  18  19
ENDBRANCH  17  18
ENDBRANCH  16  17
ENDBRANCH  15  16
ENDBRANCH  14  15
ENDBRANCH  13  14
ENDBRANCH  12  13
ENDBRANCH   1  12
TORSDOF 16
ENDMDL
MODEL 9
REMARK VINA RESULT:    -0.963      2.536      4.424
REMARK INTER + INTRA:          -1.547
REMARK INTER:                  -1.321
REMARK INTRA:                  -0.226
REMARK UNBOUND:                 0.316
REMARK SMILES CCCCCCCCCCCCCCCCCC(=O)[O-]
REMARK SMILES IDX 10 1 11 2 12 3 13 4 14 5 15 6 16 7 17 8 18 9 19 10 20 11
REMARK SMILES IDX 9 12 8 13 7 14 6 15 5 16 4 17 3 18 2 19 1 20
REMARK H PARENT
REMARK Flexibility Score: inf
ROOT
ATOM      1  C   UNL     1       4.861 -35.397  21.594  1.00  0.00     0.000 C 
ENDROOT
BRANCH   1   2
ATOM      2  C   UNL     1       5.517 -34.864  22.879  1.00  0.00     0.000 C 
BRANCH   2   3
ATOM      3  C   UNL     1       6.125 -35.980  23.747  1.00  0.00     0.000 C 
BRANCH   3   4
ATOM      4  C   UNL     1       5.437 -36.117  25.118  1.00  0.00     0.000 C 
BRANCH   4   5
ATOM      5  C   UNL     1       5.351 -37.551  25.674  1.00  0.00     0.000 C 
BRANCH   5   6
ATOM      6  C   UNL     1       4.533 -38.495  24.775  1.00  0.00     0.000 C 
BRANCH   6   7
ATOM      7  C   UNL     1       5.395 -39.179  23.700  1.00  0.00     0.006 C 
BRANCH   7   8
ATOM      8  C   UNL     1       5.753 -40.626  24.063  1.00  0.00     0.053 C 
BRANCH   8   9
ATOM      9  C   UNL     1       5.987 -41.430  22.823  1.00  0.00     0.041 C 
ATOM     10  O   UNL     1       6.120 -40.855  21.710  1.00  0.00    -0.550 OA
ATOM     11  O   UNL     1       6.108 -42.812  22.903  1.00  0.00    -0.550 OA
ENDBRANCH   8   9
ENDBRANCH   7   8
ENDBRANCH   6   7
ENDBRANCH   5   6
ENDBRANCH   4   5
ENDBRANCH   3   4
ENDBRANCH   2   3
ENDBRANCH   1   2
BRANCH   1  12
ATOM     12  C   UNL     1       5.583 -35.025  20.282  1.00  0.00     0.000 C 
BRANCH  12  13
ATOM     13  C   UNL     1       5.513 -36.092  19.172  1.00  0.00    -0.000 C 
BRANCH  13  14
ATOM     14  C   UNL     1       4.778 -37.390  19.562  1.00  0.00    -0.000 C 
BRANCH  14  15
ATOM     15  C   UNL     1       3.375 -37.550  18.950  1.00  0.00    -0.000 C 
BRANCH  15  16
ATOM     16  C   UNL     1       3.374 -37.430  17.416  1.00  0.00    -0.000 C 
BRANCH  16  17
ATOM     17  C   UNL     1       2.769 -36.094  16.935  1.00  0.00    -0.000 C 
BRANCH  17  18
ATOM     18  C   UNL     1       2.143 -36.170  15.529  1.00  0.00    -0.000 C 
BRANCH  18  19
ATOM     19  C   UNL     1       3.138 -36.485  14.401  1.00  0.00    -0.003 C 
ATOM     20  C   UNL     1       3.782 -37.864  14.546  1.00  0.00     0.004 C 
ENDBRANCH  18  19
ENDBRANCH  17  18
ENDBRANCH  16  17
ENDBRANCH  15  16
ENDBRANCH  14  15
ENDBRANCH  13  14
ENDBRANCH  12  13
ENDBRANCH   1  12
TORSDOF 16
ENDMDL
