MODEL 1
REMARK VINA RESULT:    -3.053      0.000      0.000
REMARK INTER + INTRA:          -4.526
REMARK INTER:                  -4.123
REMARK INTRA:                  -0.403
REMARK UNBOUND:                -0.403
REMARK SMILES CCCCCCCC(=O)[O-]
REMARK SMILES IDX 5 1 6 2 7 3 8 4 9 5 10 6 4 7 3 8 2 9 1 10
REMARK H PARENT
REMARK Flexibility Score: inf
ROOT
ATOM      1  C   UNL     1     -34.678  -7.027 -31.595  1.00  0.00     0.000 C 
ENDROOT
BRANCH   1   2
ATOM      2  C   UNL     1     -33.522  -6.890 -30.595  1.00  0.00     0.006 C 
BRANCH   2   3
ATOM      3  C   UNL     1     -32.329  -7.785 -30.958  1.00  0.00     0.053 C 
BRANCH   3   4
ATOM      4  C   UNL     1     -32.586  -9.220 -30.617  1.00  0.00     0.041 C 
ATOM      5  O   UNL     1     -32.312  -9.657 -29.468  1.00  0.00    -0.550 OA
ATOM      6  O   UNL     1     -33.096 -10.085 -31.578  1.00  0.00    -0.550 OA
ENDBRANCH   3   4
ENDBRANCH   2   3
ENDBRANCH   1   2
BRANCH   1   7
ATOM      7  C   UNL     1     -35.214  -5.650 -32.009  1.00  0.00     0.000 C 
BRANCH   7   8
ATOM      8  C   UNL     1     -34.732  -5.273 -33.418  1.00  0.00    -0.000 C 
BRANCH   8   9
ATOM      9  C   UNL     1     -33.874  -3.999 -33.427  1.00  0.00    -0.003 C 
ATOM     10  C   UNL     1     -32.381  -4.291 -33.284  1.00  0.00     0.004 C 
ENDBRANCH   8   9
ENDBRANCH   7   8
ENDBRANCH   1   7
TORSDOF 6
ENDMDL
MODEL 2
REMARK VINA RESULT:    -2.956     14.358     14.824
REMARK INTER + INTRA:          -4.395
REMARK INTER:                  -4.140
REMARK INTRA:                  -0.255
REMARK UNBOUND:                -0.403
REMARK SMILES CCCCCCCC(=O)[O-]
REMARK SMILES IDX 5 1 6 2 7 3 8 4 9 5 10 6 4 7 3 8 2 9 1 10
REMARK H PARENT
REMARK Flexibility Score: inf
ROOT
ATOM      1  C   UNL     1     -26.733   5.618 -36.455  1.00  0.00     0.000 C 
ENDROOT
BRANCH   1   2
ATOM      2  C   UNL     1     -26.437   5.493 -34.954  1.00  0.00     0.006 C 
BRANCH   2   3
ATOM      3  C   UNL     1     -25.480   4.333 -34.645  1.00  0.00     0.053 C 
BRANCH   3   4
ATOM      4  C   UNL     1     -24.441   4.722 -33.638  1.00  0.00     0.041 C 
ATOM      5  O   UNL     1     -23.252   4.329 -33.772  1.00  0.00    -0.550 OA
ATOM      6  O   UNL     1     -24.793   5.488 -32.534  1.00  0.00    -0.550 OA
ENDBRANCH   3   4
ENDBRANCH   2   3
ENDBRANCH   1   2
BRANCH   1   7
ATOM      7  C   UNL     1     -26.870   4.237 -37.106  1.00  0.00     0.000 C 
BRANCH   7   8
ATOM      8  C   UNL     1     -28.043   4.208 -38.097  1.00  0.00    -0.000 C 
BRANCH   8   9
ATOM      9  C   UNL     1     -28.688   5.589 -38.289  1.00  0.00    -0.003 C 
ATOM     10  C   UNL     1     -29.363   5.742 -39.651  1.00  0.00     0.004 C 
ENDBRANCH   8   9
ENDBRANCH   7   8
ENDBRANCH   1   7
TORSDOF 6
ENDMDL
MODEL 3
REMARK VINA RESULT:    -2.895     15.271     16.676
REMARK INTER + INTRA:          -4.313
REMARK INTER:                  -3.796
REMARK INTRA:                  -0.517
REMARK UNBOUND:                -0.403
REMARK SMILES CCCCCCCC(=O)[O-]
REMARK SMILES IDX 5 1 6 2 7 3 8 4 9 5 10 6 4 7 3 8 2 9 1 10
REMARK H PARENT
REMARK Flexibility Score: inf
ROOT
ATOM      1  C   UNL     1     -25.369   7.807 -29.369  1.00  0.00     0.000 C 
ENDROOT
BRANCH   1   2
ATOM      2  C   UNL     1     -25.076   6.589 -30.256  1.00  0.00     0.006 C 
BRANCH   2   3
ATOM      3  C   UNL     1     -23.686   5.995 -29.988  1.00  0.00     0.053 C 
BRANCH   3   4
ATOM      4  C   UNL     1     -23.753   4.523 -29.717  1.00  0.00     0.041 C 
ATOM      5  O   UNL     1     -23.146   3.713 -30.466  1.00  0.00    -0.550 OA
ATOM      6  O   UNL     1     -24.514   4.043 -28.658  1.00  0.00    -0.550 OA
ENDBRANCH   3   4
ENDBRANCH   2   3
ENDBRANCH   1   2
BRANCH   1   7
ATOM      7  C   UNL     1     -24.319   7.945 -28.259  1.00  0.00     0.000 C 
BRANCH   7   8
ATOM      8  C   UNL     1     -24.988   8.125 -26.888  1.00  0.00    -0.000 C 
BRANCH   8   9
ATOM      9  C   UNL     1     -24.675   6.973 -25.922  1.00  0.00    -0.003 C 
ATOM     10  C   UNL     1     -23.375   6.248 -26.267  1.00  0.00     0.004 C 
ENDBRANCH   8   9
ENDBRANCH   7   8
ENDBRANCH   1   7
TORSDOF 6
ENDMDL
MODEL 4
REMARK VINA RESULT:    -2.882      2.997      5.091
REMARK INTER + INTRA:          -4.295
REMARK INTER:                  -4.007
REMARK INTRA:                  -0.288
REMARK UNBOUND:                -0.403
REMARK SMILES CCCCCCCC(=O)[O-]
REMARK SMILES IDX 5 1 6 2 7 3 8 4 9 5 10 6 4 7 3 8 2 9 1 10
REMARK H PARENT
REMARK Flexibility Score: inf
ROOT
ATOM      1  C   UNL     1     -34.179  -7.306 -31.367  1.00  0.00     0.000 C 
ENDROOT
BRANCH   1   2
ATOM      2  C   UNL     1     -35.165  -6.130 -31.370  1.00  0.00     0.006 C 
BRANCH   2   3
ATOM      3  C   UNL     1     -34.501  -4.815 -31.801  1.00  0.00     0.053 C 
BRANCH   3   4
ATOM      4  C   UNL     1     -34.481  -4.664 -33.291  1.00  0.00     0.041 C 
ATOM      5  O   UNL     1     -33.693  -3.846 -33.834  1.00  0.00    -0.550 OA
ATOM      6  O   UNL     1     -35.358  -5.400 -34.078  1.00  0.00    -0.550 OA
ENDBRANCH   3   4
ENDBRANCH   2   3
ENDBRANCH   1   2
BRANCH   1   7
ATOM      7  C   UNL     1     -32.881  -6.935 -30.639  1.00  0.00     0.000 C 
BRANCH   7   8
ATOM      8  C   UNL     1     -31.828  -8.042 -30.790  1.00  0.00    -0.000 C 
BRANCH   8   9
ATOM      9  C   UNL     1     -32.326  -9.404 -30.285  1.00  0.00    -0.003 C 
ATOM     10  C   UNL     1     -32.336  -9.501 -28.760  1.00  0.00     0.004 C 
ENDBRANCH   8   9
ENDBRANCH   7   8
ENDBRANCH   1   7
TORSDOF 6
ENDMDL
MODEL 5
REMARK VINA RESULT:    -2.860     14.496     15.899
REMARK INTER + INTRA:          -4.266
REMARK INTER:                  -3.776
REMARK INTRA:                  -0.489
REMARK UNBOUND:                -0.403
REMARK SMILES CCCCCCCC(=O)[O-]
REMARK SMILES IDX 5 1 6 2 7 3 8 4 9 5 10 6 4 7 3 8 2 9 1 10
REMARK H PARENT
REMARK Flexibility Score: inf
ROOT
ATOM      1  C   UNL     1     -24.655   4.652 -29.816  1.00  0.00     0.000 C 
ENDROOT
BRANCH   1   2
ATOM      2  C   UNL     1     -25.382   4.570 -31.165  1.00  0.00     0.006 C 
BRANCH   2   3
ATOM      3  C   UNL     1     -24.774   5.513 -32.212  1.00  0.00     0.053 C 
BRANCH   3   4
ATOM      4  C   UNL     1     -24.395   4.785 -33.465  1.00  0.00     0.041 C 
ATOM      5  O   UNL     1     -23.233   4.320 -33.600  1.00  0.00    -0.550 OA
ATOM      6  O   UNL     1     -25.314   4.651 -34.498  1.00  0.00    -0.550 OA
ENDBRANCH   3   4
ENDBRANCH   2   3
ENDBRANCH   1   2
BRANCH   1   7
ATOM      7  C   UNL     1     -23.710   5.860 -29.772  1.00  0.00     0.000 C 
BRANCH   7   8
ATOM      8  C   UNL     1     -24.082   6.808 -28.624  1.00  0.00    -0.000 C 
BRANCH   8   9
ATOM      9  C   UNL     1     -24.800   8.075 -29.113  1.00  0.00    -0.003 C 
ATOM     10  C   UNL     1     -26.320   7.923 -29.131  1.00  0.00     0.004 C 
ENDBRANCH   8   9
ENDBRANCH   7   8
ENDBRANCH   1   7
TORSDOF 6
ENDMDL
MODEL 6
REMARK VINA RESULT:    -2.823     14.722     15.722
REMARK INTER + INTRA:          -4.216
REMARK INTER:                  -3.999
REMARK INTRA:                  -0.217
REMARK UNBOUND:                -0.403
REMARK SMILES CCCCCCCC(=O)[O-]
REMARK SMILES IDX 5 1 6 2 7 3 8 4 9 5 10 6 4 7 3 8 2 9 1 10
REMARK H PARENT
REMARK Flexibility Score: inf
ROOT
ATOM      1  C   UNL     1     -19.124  -2.845 -32.620  1.00  0.00     0.000 C 
ENDROOT
BRANCH   1   2
ATOM      2  C   UNL     1     -20.281  -1.924 -32.210  1.00  0.00     0.006 C 
BRANCH   2   3
ATOM      3  C   UNL     1     -19.790  -0.555 -31.722  1.00  0.00     0.053 C 
BRANCH   3   4
ATOM      4  C   UNL     1     -20.057   0.523 -32.726  1.00  0.00     0.041 C 
ATOM      5  O   UNL     1     -20.144   1.724 -32.358  1.00  0.00    -0.550 OA
ATOM      6  O   UNL     1     -20.245   0.198 -34.064  1.00  0.00    -0.550 OA
ENDBRANCH   3   4
ENDBRANCH   2   3
ENDBRANCH   1   2
BRANCH   1   7
ATOM      7  C   UNL     1     -19.138  -3.109 -34.131  1.00  0.00     0.000 C 
BRANCH   7   8
ATOM      8  C   UNL     1     -18.253  -4.312 -34.488  1.00  0.00    -0.000 C 
BRANCH   8   9
ATOM      9  C   UNL     1     -18.995  -5.651 -34.359  1.00  0.00    -0.003 C 
ATOM     10  C   UNL     1     -18.150  -6.841 -34.808  1.00  0.00     0.004 C 
ENDBRANCH   8   9
ENDBRANCH   7   8
ENDBRANCH   1   7
TORSDOF 6
ENDMDL
MODEL 7
REMARK VINA RESULT:    -2.818     14.287     15.157
REMARK INTER + INTRA:          -4.209
REMARK INTER:                  -3.995
REMARK INTRA:                  -0.214
REMARK UNBOUND:                -0.403
REMARK SMILES CCCCCCCC(=O)[O-]
REMARK SMILES IDX 5 1 6 2 7 3 8 4 9 5 10 6 4 7 3 8 2 9 1 10
REMARK H PARENT
REMARK Flexibility Score: inf
ROOT
ATOM      1  C   UNL     1     -24.800   4.196 -34.183  1.00  0.00     0.000 C 
ENDROOT
BRANCH   1   2
ATOM      2  C   UNL     1     -23.787   4.568 -33.091  1.00  0.00     0.006 C 
BRANCH   2   3
ATOM      3  C   UNL     1     -24.287   5.714 -32.200  1.00  0.00     0.053 C 
BRANCH   3   4
ATOM      4  C   UNL     1     -23.760   5.602 -30.803  1.00  0.00     0.041 C 
ATOM      5  O   UNL     1     -23.237   4.527 -30.408  1.00  0.00    -0.550 OA
ATOM      6  O   UNL     1     -23.880   6.672 -29.925  1.00  0.00    -0.550 OA
ENDBRANCH   3   4
ENDBRANCH   2   3
ENDBRANCH   1   2
BRANCH   1   7
ATOM      7  C   UNL     1     -25.976   5.180 -34.201  1.00  0.00     0.000 C 
BRANCH   7   8
ATOM      8  C   UNL     1     -27.048   4.738 -35.208  1.00  0.00    -0.000 C 
BRANCH   8   9
ATOM      9  C   UNL     1     -26.604   4.932 -36.666  1.00  0.00    -0.003 C 
ATOM     10  C   UNL     1     -27.755   4.778 -37.659  1.00  0.00     0.004 C 
ENDBRANCH   8   9
ENDBRANCH   7   8
ENDBRANCH   1   7
TORSDOF 6
ENDMDL
MODEL 8
REMARK VINA RESULT:    -2.793      3.791      5.249
REMARK INTER + INTRA:          -4.175
REMARK INTER:                  -3.745
REMARK INTRA:                  -0.430
REMARK UNBOUND:                -0.403
REMARK SMILES CCCCCCCC(=O)[O-]
REMARK SMILES IDX 5 1 6 2 7 3 8 4 9 5 10 6 4 7 3 8 2 9 1 10
REMARK H PARENT
REMARK Flexibility Score: inf
ROOT
ATOM      1  C   UNL     1     -34.696  -3.875 -30.051  1.00  0.00     0.000 C 
ENDROOT
BRANCH   1   2
ATOM      2  C   UNL     1     -33.468  -3.662 -30.947  1.00  0.00     0.006 C 
BRANCH   2   3
ATOM      3  C   UNL     1     -33.594  -2.402 -31.815  1.00  0.00     0.053 C 
BRANCH   3   4
ATOM      4  C   UNL     1     -33.679  -2.737 -33.273  1.00  0.00     0.041 C 
ATOM      5  O   UNL     1     -33.490  -1.844 -34.140  1.00  0.00    -0.550 OA
ATOM      6  O   UNL     1     -34.001  -4.028 -33.674  1.00  0.00    -0.550 OA
ENDBRANCH   3   4
ENDBRANCH   2   3
ENDBRANCH   1   2
BRANCH   1   7
ATOM      7  C   UNL     1     -34.919  -5.366 -29.767  1.00  0.00     0.000 C 
BRANCH   7   8
ATOM      8  C   UNL     1     -35.448  -6.091 -31.013  1.00  0.00    -0.000 C 
BRANCH   8   9
ATOM      9  C   UNL     1     -34.479  -7.166 -31.527  1.00  0.00    -0.003 C 
ATOM     10  C   UNL     1     -33.369  -7.487 -30.528  1.00  0.00     0.004 C 
ENDBRANCH   8   9
ENDBRANCH   7   8
ENDBRANCH   1   7
TORSDOF 6
ENDMDL
MODEL 9
REMARK VINA RESULT:    -2.793      1.218      1.659
REMARK INTER + INTRA:          -4.175
REMARK INTER:                  -3.682
REMARK INTRA:                  -0.493
REMARK UNBOUND:                -0.403
REMARK SMILES CCCCCCCC(=O)[O-]
REMARK SMILES IDX 5 1 6 2 7 3 8 4 9 5 10 6 4 7 3 8 2 9 1 10
REMARK H PARENT
REMARK Flexibility Score: inf
ROOT
ATOM      1  C   UNL     1     -34.609  -5.063 -31.385  1.00  0.00     0.000 C 
ENDROOT
BRANCH   1   2
ATOM      2  C   UNL     1     -34.732  -6.435 -30.707  1.00  0.00     0.006 C 
BRANCH   2   3
ATOM      3  C   UNL     1     -34.165  -7.566 -31.576  1.00  0.00     0.053 C 
BRANCH   3   4
ATOM      4  C   UNL     1     -32.850  -8.060 -31.058  1.00  0.00     0.041 C 
ATOM      5  O   UNL     1     -31.830  -7.324 -31.116  1.00  0.00    -0.550 OA
ATOM      6  O   UNL     1     -32.742  -9.346 -30.543  1.00  0.00    -0.550 OA
ENDBRANCH   3   4
ENDBRANCH   2   3
ENDBRANCH   1   2
BRANCH   1   7
ATOM      7  C   UNL     1     -34.759  -5.185 -32.907  1.00  0.00     0.000 C 
BRANCH   7   8
ATOM      8  C   UNL     1     -33.889  -4.148 -33.631  1.00  0.00    -0.000 C 
BRANCH   8   9
ATOM      9  C   UNL     1     -32.577  -3.854 -32.887  1.00  0.00    -0.003 C 
ATOM     10  C   UNL     1     -31.380  -4.590 -33.487  1.00  0.00     0.004 C 
ENDBRANCH   8   9
ENDBRANCH   7   8
ENDBRANCH   1   7
TORSDOF 6
ENDMDL
