MODEL 1
REMARK VINA RESULT:    -2.986      0.000      0.000
REMARK INTER + INTRA:          -3.467
REMARK INTER:                  -3.422
REMARK INTRA:                  -0.045
REMARK UNBOUND:                -0.045
REMARK SMILES O=C([O-])c1cc(O)c(O)c(O)c1
REMARK SMILES IDX 4 1 5 2 12 3 6 4 10 5 8 6 2 7 1 8 3 9 7 10 11 12 9 14
REMARK H PARENT 7 11 11 13 9 15
REMARK Flexibility Score: inf
ROOT
ATOM      1  C   UNL     1      -0.293 -26.264  -9.176  1.00  0.00     0.005 A 
ATOM      2  C   UNL     1       0.615 -25.263  -9.556  1.00  0.00     0.060 A 
ATOM      3  C   UNL     1      -1.641 -25.924  -8.990  1.00  0.00     0.060 A 
ATOM      4  C   UNL     1       0.187 -23.946  -9.747  1.00  0.00     0.162 A 
ATOM      5  C   UNL     1      -2.087 -24.611  -9.177  1.00  0.00     0.162 A 
ATOM      6  C   UNL     1      -1.166 -23.607  -9.560  1.00  0.00     0.200 A 
ENDROOT
BRANCH   1   7
ATOM      7  C   UNL     1       0.162 -27.659  -8.974  1.00  0.00     0.072 C 
ATOM      8  O   UNL     1      -0.137 -28.557  -9.805  1.00  0.00    -0.545 OA
ATOM      9  O   UNL     1       0.925 -27.996  -7.862  1.00  0.00    -0.545 OA
ENDBRANCH   1   7
BRANCH   4  10
ATOM     10  O   UNL     1       1.125 -22.986 -10.125  1.00  0.00    -0.504 OA
ATOM     11  H   UNL     1       1.614 -23.026 -11.011  1.00  0.00     0.293 HD
ENDBRANCH   4  10
BRANCH   5  12
ATOM     12  O   UNL     1      -3.444 -24.352  -8.973  1.00  0.00    -0.504 OA
ATOM     13  H   UNL     1      -4.104 -24.165  -9.713  1.00  0.00     0.293 HD
ENDBRANCH   5  12
BRANCH   6  14
ATOM     14  O   UNL     1      -1.551 -22.279  -9.762  1.00  0.00    -0.502 OA
ATOM     15  H   UNL     1      -2.368 -21.855  -9.346  1.00  0.00     0.293 HD
ENDBRANCH   6  14
TORSDOF 4
ENDMDL
MODEL 2
REMARK VINA RESULT:    -2.488      6.987      8.885
REMARK INTER + INTRA:          -2.897
REMARK INTER:                  -2.847
REMARK INTRA:                  -0.050
REMARK UNBOUND:                -0.045
REMARK SMILES O=C([O-])c1cc(O)c(O)c(O)c1
REMARK SMILES IDX 4 1 5 2 12 3 6 4 10 5 8 6 2 7 1 8 3 9 7 10 11 12 9 14
REMARK H PARENT 7 11 11 13 9 15
REMARK Flexibility Score: inf
ROOT
ATOM      1  C   UNL     1      -2.168 -17.616  -9.587  1.00  0.00     0.005 A 
ATOM      2  C   UNL     1      -0.988 -16.855  -9.588  1.00  0.00     0.060 A 
ATOM      3  C   UNL     1      -3.397 -16.964  -9.769  1.00  0.00     0.060 A 
ATOM      4  C   UNL     1      -1.032 -15.470  -9.766  1.00  0.00     0.162 A 
ATOM      5  C   UNL     1      -3.460 -15.578  -9.949  1.00  0.00     0.162 A 
ATOM      6  C   UNL     1      -2.265 -14.817  -9.949  1.00  0.00     0.200 A 
ENDROOT
BRANCH   1   7
ATOM      7  C   UNL     1      -2.121 -19.083  -9.397  1.00  0.00     0.072 C 
ATOM      8  O   UNL     1      -2.970 -19.829  -9.953  1.00  0.00    -0.545 OA
ATOM      9  O   UNL     1      -1.139 -19.659  -8.600  1.00  0.00    -0.545 OA
ENDBRANCH   1   7
BRANCH   4  10
ATOM     10  O   UNL     1       0.166 -14.756  -9.761  1.00  0.00    -0.504 OA
ATOM     11  H   UNL     1       0.986 -15.070 -10.266  1.00  0.00     0.293 HD
ENDBRANCH   4  10
BRANCH   5  12
ATOM     12  O   UNL     1      -4.720 -15.002 -10.124  1.00  0.00    -0.504 OA
ATOM     13  H   UNL     1      -5.131 -14.797 -11.022  1.00  0.00     0.293 HD
ENDBRANCH   5  12
BRANCH   6  14
ATOM     14  O   UNL     1      -2.263 -13.431 -10.125  1.00  0.00    -0.502 OA
ATOM     15  H   UNL     1      -1.604 -12.934 -10.706  1.00  0.00     0.293 HD
ENDBRANCH   6  14
TORSDOF 4
ENDMDL
MODEL 3
REMARK VINA RESULT:    -2.282      6.892      9.094
REMARK INTER + INTRA:          -2.661
REMARK INTER:                  -2.611
REMARK INTRA:                  -0.050
REMARK UNBOUND:                -0.045
REMARK SMILES O=C([O-])c1cc(O)c(O)c(O)c1
REMARK SMILES IDX 4 1 5 2 12 3 6 4 10 5 8 6 2 7 1 8 3 9 7 10 11 12 9 14
REMARK H PARENT 7 11 11 13 9 15
REMARK Flexibility Score: inf
ROOT
ATOM      1  C   UNL     1      -2.166 -17.724  -9.667  1.00  0.00     0.005 A 
ATOM      2  C   UNL     1      -3.413 -17.097  -9.820  1.00  0.00     0.060 A 
ATOM      3  C   UNL     1      -1.005 -16.937  -9.667  1.00  0.00     0.060 A 
ATOM      4  C   UNL     1      -3.500 -15.710  -9.972  1.00  0.00     0.162 A 
ATOM      5  C   UNL     1      -1.074 -15.548  -9.817  1.00  0.00     0.162 A 
ATOM      6  C   UNL     1      -2.335 -14.922  -9.971  1.00  0.00     0.200 A 
ENDROOT
BRANCH   1   7
ATOM      7  C   UNL     1      -2.075 -19.193  -9.508  1.00  0.00     0.072 C 
ATOM      8  O   UNL     1      -2.898 -19.952 -10.084  1.00  0.00    -0.545 OA
ATOM      9  O   UNL     1      -1.079 -19.755  -8.717  1.00  0.00    -0.545 OA
ENDBRANCH   1   7
BRANCH   4  10
ATOM     10  O   UNL     1      -4.761 -15.131 -10.120  1.00  0.00    -0.504 OA
ATOM     11  H   UNL     1      -4.944 -14.164  -9.882  1.00  0.00     0.293 HD
ENDBRANCH   4  10
BRANCH   5  12
ATOM     12  O   UNL     1       0.126 -14.833  -9.808  1.00  0.00    -0.504 OA
ATOM     13  H   UNL     1       0.986 -15.173  -9.402  1.00  0.00     0.293 HD
ENDBRANCH   5  12
BRANCH   6  14
ATOM     14  O   UNL     1      -2.468 -13.539 -10.125  1.00  0.00    -0.502 OA
ATOM     15  H   UNL     1      -1.914 -12.857  -9.627  1.00  0.00     0.293 HD
ENDBRANCH   6  14
TORSDOF 4
ENDMDL
