MODEL 1
REMARK VINA RESULT:    -4.115      0.000      0.000
REMARK INTER + INTRA:         -10.447
REMARK INTER:                  -7.483
REMARK INTRA:                  -2.964
REMARK UNBOUND:                -2.964
REMARK SMILES CCCCCC=CCC=CCCCCCCCC(=O)[O-]
REMARK SMILES IDX 11 1 12 2 13 3 14 4 15 5 16 6 17 7 18 8 19 9 20 10 10 11
REMARK SMILES IDX 9 12 8 13 7 14 6 15 5 16 4 17 3 18 2 19 1 20
REMARK H PARENT
REMARK Flexibility Score: inf
ROOT
ATOM      1  C   UNL     1       8.223   2.288   9.495  1.00  0.00     0.027 C 
ENDROOT
BRANCH   1   2
ATOM      2  C   UNL     1       8.591   1.137   8.548  1.00  0.00     0.004 C 
BRANCH   2   3
ATOM      3  C   UNL     1       7.445   0.795   7.580  1.00  0.00     0.000 C 
BRANCH   3   4
ATOM      4  C   UNL     1       7.948   0.351   6.198  1.00  0.00     0.000 C 
BRANCH   4   5
ATOM      5  C   UNL     1       7.528   1.313   5.076  1.00  0.00     0.000 C 
BRANCH   5   6
ATOM      6  C   UNL     1       8.198   2.681   5.248  1.00  0.00     0.006 C 
BRANCH   6   7
ATOM      7  C   UNL     1       7.357   3.790   4.608  1.00  0.00     0.053 C 
BRANCH   7   8
ATOM      8  C   UNL     1       8.161   5.043   4.467  1.00  0.00     0.041 C 
ATOM      9  O   UNL     1       9.062   5.124   3.591  1.00  0.00    -0.550 OA
ATOM     10  O   UNL     1       7.948   6.108   5.335  1.00  0.00    -0.550 OA
ENDBRANCH   7   8
ENDBRANCH   6   7
ENDBRANCH   5   6
ENDBRANCH   4   5
ENDBRANCH   3   4
ENDBRANCH   2   3
ENDBRANCH   1   2
BRANCH   1  11
ATOM     11  C   UNL     1       7.021   3.059   9.017  1.00  0.00    -0.031 C 
ATOM     12  C   UNL     1       7.139   4.290   8.497  1.00  0.00    -0.027 C 
BRANCH  12  13
ATOM     13  C   UNL     1       5.938   5.072   8.046  1.00  0.00     0.054 C 
BRANCH  13  14
ATOM     14  C   UNL     1       4.920   5.227   9.148  1.00  0.00    -0.027 C 
ATOM     15  C   UNL     1       3.592   5.344   8.957  1.00  0.00    -0.031 C 
BRANCH  15  16
ATOM     16  C   UNL     1       2.919   5.409   7.608  1.00  0.00     0.027 C 
BRANCH  16  17
ATOM     17  C   UNL     1       2.486   4.005   7.161  1.00  0.00     0.004 C 
BRANCH  17  18
ATOM     18  C   UNL     1       3.357   3.452   6.022  1.00  0.00     0.000 C 
BRANCH  18  19
ATOM     19  C   UNL     1       4.220   2.263   6.464  1.00  0.00    -0.003 C 
ATOM     20  C   UNL     1       3.777   1.738   7.826  1.00  0.00     0.004 C 
ENDBRANCH  18  19
ENDBRANCH  17  18
ENDBRANCH  16  17
ENDBRANCH  15  16
ENDBRANCH  13  14
ENDBRANCH  12  13
ENDBRANCH   1  11
TORSDOF 14
ENDMDL
MODEL 2
REMARK VINA RESULT:    -4.019      1.866      2.888
REMARK INTER + INTRA:         -10.273
REMARK INTER:                  -7.782
REMARK INTRA:                  -2.490
REMARK UNBOUND:                -2.964
REMARK SMILES CCCCCC=CCC=CCCCCCCCC(=O)[O-]
REMARK SMILES IDX 11 1 12 2 13 3 14 4 15 5 16 6 17 7 18 8 19 9 20 10 10 11
REMARK SMILES IDX 9 12 8 13 7 14 6 15 5 16 4 17 3 18 2 19 1 20
REMARK H PARENT
REMARK Flexibility Score: inf
ROOT
ATOM      1  C   UNL     1       7.634   0.172   9.992  1.00  0.00     0.027 C 
ENDROOT
BRANCH   1   2
ATOM      2  C   UNL     1       9.016   0.803  10.213  1.00  0.00     0.004 C 
BRANCH   2   3
ATOM      3  C   UNL     1       8.920   2.304  10.539  1.00  0.00     0.000 C 
BRANCH   3   4
ATOM      4  C   UNL     1       9.791   3.168   9.613  1.00  0.00     0.000 C 
BRANCH   4   5
ATOM      5  C   UNL     1       8.974   3.881   8.525  1.00  0.00     0.000 C 
BRANCH   5   6
ATOM      6  C   UNL     1       8.749   2.962   7.318  1.00  0.00     0.006 C 
BRANCH   6   7
ATOM      7  C   UNL     1       8.728   3.764   6.013  1.00  0.00     0.053 C 
BRANCH   7   8
ATOM      8  C   UNL     1       7.475   4.573   5.913  1.00  0.00     0.041 C 
ATOM      9  O   UNL     1       6.399   4.033   5.546  1.00  0.00    -0.550 OA
ATOM     10  O   UNL     1       7.505   5.937   6.180  1.00  0.00    -0.550 OA
ENDBRANCH   7   8
ENDBRANCH   6   7
ENDBRANCH   5   6
ENDBRANCH   4   5
ENDBRANCH   3   4
ENDBRANCH   2   3
ENDBRANCH   1   2
BRANCH   1  11
ATOM     11  C   UNL     1       6.548   1.205   9.858  1.00  0.00    -0.031 C 
ATOM     12  C   UNL     1       5.938   1.435   8.686  1.00  0.00    -0.027 C 
BRANCH  12  13
ATOM     13  C   UNL     1       4.873   2.485   8.544  1.00  0.00     0.054 C 
BRANCH  13  14
ATOM     14  C   UNL     1       5.365   3.847   8.968  1.00  0.00    -0.027 C 
ATOM     15  C   UNL     1       4.808   5.016   8.594  1.00  0.00    -0.031 C 
BRANCH  15  16
ATOM     16  C   UNL     1       3.648   5.150   7.640  1.00  0.00     0.027 C 
BRANCH  16  17
ATOM     17  C   UNL     1       2.337   5.328   8.418  1.00  0.00     0.004 C 
BRANCH  17  18
ATOM     18  C   UNL     1       1.345   4.179   8.177  1.00  0.00     0.000 C 
BRANCH  18  19
ATOM     19  C   UNL     1       0.974   3.440   9.470  1.00  0.00    -0.003 C 
ATOM     20  C   UNL     1       1.726   4.015  10.667  1.00  0.00     0.004 C 
ENDBRANCH  18  19
ENDBRANCH  17  18
ENDBRANCH  16  17
ENDBRANCH  15  16
ENDBRANCH  13  14
ENDBRANCH  12  13
ENDBRANCH   1  11
TORSDOF 14
ENDMDL
MODEL 3
REMARK VINA RESULT:    -3.980     11.704     14.586
REMARK INTER + INTRA:         -10.201
REMARK INTER:                  -7.997
REMARK INTRA:                  -2.205
REMARK UNBOUND:                -2.964
REMARK SMILES CCCCCC=CCC=CCCCCCCCC(=O)[O-]
REMARK SMILES IDX 11 1 12 2 13 3 14 4 15 5 16 6 17 7 18 8 19 9 20 10 10 11
REMARK SMILES IDX 9 12 8 13 7 14 6 15 5 16 4 17 3 18 2 19 1 20
REMARK H PARENT
REMARK Flexibility Score: inf
ROOT
ATOM      1  C   UNL     1      -6.099  -4.702   8.748  1.00  0.00     0.027 C 
ENDROOT
BRANCH   1   2
ATOM      2  C   UNL     1      -6.510  -3.223   8.724  1.00  0.00     0.004 C 
BRANCH   2   3
ATOM      3  C   UNL     1      -7.816  -2.973   9.496  1.00  0.00     0.000 C 
BRANCH   3   4
ATOM      4  C   UNL     1      -8.836  -2.154   8.689  1.00  0.00     0.000 C 
BRANCH   4   5
ATOM      5  C   UNL     1      -9.451  -2.950   7.528  1.00  0.00     0.000 C 
BRANCH   5   6
ATOM      6  C   UNL     1      -8.974  -2.405   6.176  1.00  0.00     0.006 C 
BRANCH   6   7
ATOM      7  C   UNL     1      -8.931  -3.514   5.120  1.00  0.00     0.053 C 
BRANCH   7   8
ATOM      8  C   UNL     1      -7.770  -4.425   5.363  1.00  0.00     0.041 C 
ATOM      9  O   UNL     1      -7.963  -5.627   5.682  1.00  0.00    -0.550 OA
ATOM     10  O   UNL     1      -6.472  -3.934   5.285  1.00  0.00    -0.550 OA
ENDBRANCH   7   8
ENDBRANCH   6   7
ENDBRANCH   5   6
ENDBRANCH   4   5
ENDBRANCH   3   4
ENDBRANCH   2   3
ENDBRANCH   1   2
BRANCH   1  11
ATOM     11  C   UNL     1      -4.688  -4.896   9.234  1.00  0.00    -0.031 C 
ATOM     12  C   UNL     1      -3.640  -4.805   8.401  1.00  0.00    -0.027 C 
BRANCH  12  13
ATOM     13  C   UNL     1      -2.232  -5.025   8.878  1.00  0.00     0.054 C 
BRANCH  13  14
ATOM     14  C   UNL     1      -1.294  -3.955   8.377  1.00  0.00    -0.027 C 
ATOM     15  C   UNL     1      -0.572  -3.137   9.167  1.00  0.00    -0.031 C 
BRANCH  15  16
ATOM     16  C   UNL     1      -0.637  -3.116  10.673  1.00  0.00     0.027 C 
BRANCH  16  17
ATOM     17  C   UNL     1      -1.489  -1.932  11.153  1.00  0.00     0.004 C 
BRANCH  17  18
ATOM     18  C   UNL     1      -2.978  -2.289  11.282  1.00  0.00     0.000 C 
BRANCH  18  19
ATOM     19  C   UNL     1      -3.875  -1.399  10.412  1.00  0.00    -0.003 C 
ATOM     20  C   UNL     1      -3.041  -0.475   9.529  1.00  0.00     0.004 C 
ENDBRANCH  18  19
ENDBRANCH  17  18
ENDBRANCH  16  17
ENDBRANCH  15  16
ENDBRANCH  13  14
ENDBRANCH  12  13
ENDBRANCH   1  11
TORSDOF 14
ENDMDL
MODEL 4
REMARK VINA RESULT:    -3.959      2.497      3.479
REMARK INTER + INTRA:         -10.163
REMARK INTER:                  -7.905
REMARK INTRA:                  -2.258
REMARK UNBOUND:                -2.964
REMARK SMILES CCCCCC=CCC=CCCCCCCCC(=O)[O-]
REMARK SMILES IDX 11 1 12 2 13 3 14 4 15 5 16 6 17 7 18 8 19 9 20 10 10 11
REMARK SMILES IDX 9 12 8 13 7 14 6 15 5 16 4 17 3 18 2 19 1 20
REMARK H PARENT
REMARK Flexibility Score: inf
ROOT
ATOM      1  C   UNL     1       6.457   2.874   8.698  1.00  0.00     0.027 C 
ENDROOT
BRANCH   1   2
ATOM      2  C   UNL     1       7.611   3.787   9.135  1.00  0.00     0.004 C 
BRANCH   2   3
ATOM      3  C   UNL     1       8.477   4.233   7.945  1.00  0.00     0.000 C 
BRANCH   3   4
ATOM      4  C   UNL     1       9.076   3.047   7.170  1.00  0.00     0.000 C 
BRANCH   4   5
ATOM      5  C   UNL     1       9.150   3.304   5.657  1.00  0.00     0.000 C 
BRANCH   5   6
ATOM      6  C   UNL     1       8.081   4.310   5.219  1.00  0.00     0.006 C 
BRANCH   6   7
ATOM      7  C   UNL     1       7.074   3.662   4.263  1.00  0.00     0.053 C 
BRANCH   7   8
ATOM      8  C   UNL     1       5.971   3.005   5.029  1.00  0.00     0.041 C 
ATOM      9  O   UNL     1       6.056   1.789   5.347  1.00  0.00    -0.550 OA
ATOM     10  O   UNL     1       4.825   3.722   5.352  1.00  0.00    -0.550 OA
ENDBRANCH   7   8
ENDBRANCH   6   7
ENDBRANCH   5   6
ENDBRANCH   4   5
ENDBRANCH   3   4
ENDBRANCH   2   3
ENDBRANCH   1   2
BRANCH   1  11
ATOM     11  C   UNL     1       5.118   3.553   8.808  1.00  0.00    -0.031 C 
ATOM     12  C   UNL     1       5.004   4.890   8.784  1.00  0.00    -0.027 C 
BRANCH  12  13
ATOM     13  C   UNL     1       3.672   5.571   8.921  1.00  0.00     0.054 C 
BRANCH  13  14
ATOM     14  C   UNL     1       2.679   5.075   7.898  1.00  0.00    -0.027 C 
ATOM     15  C   UNL     1       1.549   4.402   8.188  1.00  0.00    -0.031 C 
BRANCH  15  16
ATOM     16  C   UNL     1       1.131   3.978   9.573  1.00  0.00     0.027 C 
BRANCH  16  17
ATOM     17  C   UNL     1       1.700   2.590   9.900  1.00  0.00     0.004 C 
BRANCH  17  18
ATOM     18  C   UNL     1       2.452   2.558  11.240  1.00  0.00     0.000 C 
BRANCH  18  19
ATOM     19  C   UNL     1       2.448   3.919  11.949  1.00  0.00    -0.003 C 
ATOM     20  C   UNL     1       2.267   3.753  13.455  1.00  0.00     0.004 C 
ENDBRANCH  18  19
ENDBRANCH  17  18
ENDBRANCH  16  17
ENDBRANCH  15  16
ENDBRANCH  13  14
ENDBRANCH  12  13
ENDBRANCH   1  11
TORSDOF 14
ENDMDL
MODEL 5
REMARK VINA RESULT:    -3.958      1.915      3.355
REMARK INTER + INTRA:         -10.162
REMARK INTER:                  -7.593
REMARK INTRA:                  -2.569
REMARK UNBOUND:                -2.964
REMARK SMILES CCCCCC=CCC=CCCCCCCCC(=O)[O-]
REMARK SMILES IDX 11 1 12 2 13 3 14 4 15 5 16 6 17 7 18 8 19 9 20 10 10 11
REMARK SMILES IDX 9 12 8 13 7 14 6 15 5 16 4 17 3 18 2 19 1 20
REMARK H PARENT
REMARK Flexibility Score: inf
ROOT
ATOM      1  C   UNL     1       5.234   1.506   8.255  1.00  0.00     0.027 C 
ENDROOT
BRANCH   1   2
ATOM      2  C   UNL     1       6.340   0.954   9.166  1.00  0.00     0.004 C 
BRANCH   2   3
ATOM      3  C   UNL     1       7.741   1.383   8.698  1.00  0.00     0.000 C 
BRANCH   3   4
ATOM      4  C   UNL     1       8.411   2.376   9.663  1.00  0.00     0.000 C 
BRANCH   4   5
ATOM      5  C   UNL     1       8.448   3.808   9.108  1.00  0.00     0.000 C 
BRANCH   5   6
ATOM      6  C   UNL     1       8.704   3.804   7.597  1.00  0.00     0.006 C 
BRANCH   6   7
ATOM      7  C   UNL     1       7.441   4.197   6.824  1.00  0.00     0.053 C 
BRANCH   7   8
ATOM      8  C   UNL     1       7.578   5.575   6.261  1.00  0.00     0.041 C 
ATOM      9  O   UNL     1       7.203   6.574   6.930  1.00  0.00    -0.550 OA
ATOM     10  O   UNL     1       8.076   5.756   4.976  1.00  0.00    -0.550 OA
ENDBRANCH   7   8
ENDBRANCH   6   7
ENDBRANCH   5   6
ENDBRANCH   4   5
ENDBRANCH   3   4
ENDBRANCH   2   3
ENDBRANCH   1   2
BRANCH   1  11
ATOM     11  C   UNL     1       3.933   1.697   8.987  1.00  0.00    -0.031 C 
ATOM     12  C   UNL     1       3.887   1.797  10.324  1.00  0.00    -0.027 C 
BRANCH  12  13
ATOM     13  C   UNL     1       2.586   1.959  11.058  1.00  0.00     0.054 C 
BRANCH  13  14
ATOM     14  C   UNL     1       2.235   3.412  11.265  1.00  0.00    -0.027 C 
ATOM     15  C   UNL     1       1.408   4.122  10.473  1.00  0.00    -0.031 C 
BRANCH  15  16
ATOM     16  C   UNL     1       0.757   3.598   9.218  1.00  0.00     0.027 C 
BRANCH  16  17
ATOM     17  C   UNL     1       1.347   4.293   7.982  1.00  0.00     0.004 C 
BRANCH  17  18
ATOM     18  C   UNL     1       2.279   5.459   8.347  1.00  0.00     0.000 C 
BRANCH  18  19
ATOM     19  C   UNL     1       3.724   5.224   7.888  1.00  0.00    -0.003 C 
ATOM     20  C   UNL     1       4.693   5.299   9.063  1.00  0.00     0.004 C 
ENDBRANCH  18  19
ENDBRANCH  17  18
ENDBRANCH  16  17
ENDBRANCH  15  16
ENDBRANCH  13  14
ENDBRANCH  12  13
ENDBRANCH   1  11
TORSDOF 14
ENDMDL
MODEL 6
REMARK VINA RESULT:    -3.947     11.917     14.453
REMARK INTER + INTRA:         -10.140
REMARK INTER:                  -7.199
REMARK INTRA:                  -2.942
REMARK UNBOUND:                -2.964
REMARK SMILES CCCCCC=CCC=CCCCCCCCC(=O)[O-]
REMARK SMILES IDX 11 1 12 2 13 3 14 4 15 5 16 6 17 7 18 8 19 9 20 10 10 11
REMARK SMILES IDX 9 12 8 13 7 14 6 15 5 16 4 17 3 18 2 19 1 20
REMARK H PARENT
REMARK Flexibility Score: inf
ROOT
ATOM      1  C   UNL     1      -6.729  -5.217   8.260  1.00  0.00     0.027 C 
ENDROOT
BRANCH   1   2
ATOM      2  C   UNL     1      -5.905  -4.283   9.157  1.00  0.00     0.004 C 
BRANCH   2   3
ATOM      3  C   UNL     1      -4.486  -4.823   9.404  1.00  0.00     0.000 C 
BRANCH   3   4
ATOM      4  C   UNL     1      -3.531  -3.753   9.958  1.00  0.00     0.000 C 
BRANCH   4   5
ATOM      5  C   UNL     1      -3.906  -2.333   9.507  1.00  0.00     0.000 C 
BRANCH   5   6
ATOM      6  C   UNL     1      -3.312  -2.021   8.128  1.00  0.00     0.006 C 
BRANCH   6   7
ATOM      7  C   UNL     1      -4.401  -1.567   7.150  1.00  0.00     0.053 C 
BRANCH   7   8
ATOM      8  C   UNL     1      -4.465  -2.487   5.973  1.00  0.00     0.041 C 
ATOM      9  O   UNL     1      -4.070  -3.678   6.077  1.00  0.00    -0.550 OA
ATOM     10  O   UNL     1      -4.918  -2.017   4.746  1.00  0.00    -0.550 OA
ENDBRANCH   7   8
ENDBRANCH   6   7
ENDBRANCH   5   6
ENDBRANCH   4   5
ENDBRANCH   3   4
ENDBRANCH   2   3
ENDBRANCH   1   2
BRANCH   1  11
ATOM     11  C   UNL     1      -7.883  -4.508   7.603  1.00  0.00    -0.031 C 
ATOM     12  C   UNL     1      -7.724  -3.325   6.991  1.00  0.00    -0.027 C 
BRANCH  12  13
ATOM     13  C   UNL     1      -8.881  -2.603   6.359  1.00  0.00     0.054 C 
BRANCH  13  14
ATOM     14  C   UNL     1      -8.448  -1.318   5.697  1.00  0.00    -0.027 C 
ATOM     15  C   UNL     1      -8.348  -0.129   6.322  1.00  0.00    -0.031 C 
BRANCH  15  16
ATOM     16  C   UNL     1      -8.716   0.120   7.763  1.00  0.00     0.027 C 
BRANCH  16  17
ATOM     17  C   UNL     1      -7.493  -0.083   8.668  1.00  0.00     0.004 C 
BRANCH  17  18
ATOM     18  C   UNL     1      -7.774  -1.042   9.836  1.00  0.00     0.000 C 
BRANCH  18  19
ATOM     19  C   UNL     1      -9.275  -1.245  10.083  1.00  0.00    -0.003 C 
ATOM     20  C   UNL     1      -9.614  -2.726  10.223  1.00  0.00     0.004 C 
ENDBRANCH  18  19
ENDBRANCH  17  18
ENDBRANCH  16  17
ENDBRANCH  15  16
ENDBRANCH  13  14
ENDBRANCH  12  13
ENDBRANCH   1  11
TORSDOF 14
ENDMDL
MODEL 7
REMARK VINA RESULT:    -3.946      2.024      5.202
REMARK INTER + INTRA:         -10.139
REMARK INTER:                  -7.125
REMARK INTRA:                  -3.014
REMARK UNBOUND:                -2.964
REMARK SMILES CCCCCC=CCC=CCCCCCCCC(=O)[O-]
REMARK SMILES IDX 11 1 12 2 13 3 14 4 15 5 16 6 17 7 18 8 19 9 20 10 10 11
REMARK SMILES IDX 9 12 8 13 7 14 6 15 5 16 4 17 3 18 2 19 1 20
REMARK H PARENT
REMARK Flexibility Score: inf
ROOT
ATOM      1  C   UNL     1       6.444   5.434   8.339  1.00  0.00     0.027 C 
ENDROOT
BRANCH   1   2
ATOM      2  C   UNL     1       4.913   5.424   8.231  1.00  0.00     0.004 C 
BRANCH   2   3
ATOM      3  C   UNL     1       4.253   4.764   9.454  1.00  0.00     0.000 C 
BRANCH   3   4
ATOM      4  C   UNL     1       3.253   3.663   9.065  1.00  0.00     0.000 C 
BRANCH   4   5
ATOM      5  C   UNL     1       3.889   2.264   9.042  1.00  0.00     0.000 C 
BRANCH   5   6
ATOM      6  C   UNL     1       4.221   1.837   7.608  1.00  0.00     0.006 C 
BRANCH   6   7
ATOM      7  C   UNL     1       3.052   2.130   6.662  1.00  0.00     0.053 C 
BRANCH   7   8
ATOM      8  C   UNL     1       3.540   2.801   5.418  1.00  0.00     0.041 C 
ATOM      9  O   UNL     1       3.522   4.056   5.325  1.00  0.00    -0.550 OA
ATOM     10  O   UNL     1       3.971   2.038   4.339  1.00  0.00    -0.550 OA
ENDBRANCH   7   8
ENDBRANCH   6   7
ENDBRANCH   5   6
ENDBRANCH   4   5
ENDBRANCH   3   4
ENDBRANCH   2   3
ENDBRANCH   1   2
BRANCH   1  11
ATOM     11  C   UNL     1       6.998   4.097   8.754  1.00  0.00    -0.031 C 
ATOM     12  C   UNL     1       8.309   3.919   8.978  1.00  0.00    -0.027 C 
BRANCH  12  13
ATOM     13  C   UNL     1       8.867   2.579   9.365  1.00  0.00     0.054 C 
BRANCH  13  14
ATOM     14  C   UNL     1       7.796   1.518   9.422  1.00  0.00    -0.027 C 
ATOM     15  C   UNL     1       7.623   0.550   8.502  1.00  0.00    -0.031 C 
BRANCH  15  16
ATOM     16  C   UNL     1       8.430   0.413   7.235  1.00  0.00     0.027 C 
BRANCH  16  17
ATOM     17  C   UNL     1       7.857   1.321   6.138  1.00  0.00     0.004 C 
BRANCH  17  18
ATOM     18  C   UNL     1       8.937   2.169   5.447  1.00  0.00     0.000 C 
BRANCH  18  19
ATOM     19  C   UNL     1       8.531   3.642   5.309  1.00  0.00    -0.003 C 
ATOM     20  C   UNL     1       7.039   3.777   5.022  1.00  0.00     0.004 C 
ENDBRANCH  18  19
ENDBRANCH  17  18
ENDBRANCH  16  17
ENDBRANCH  15  16
ENDBRANCH  13  14
ENDBRANCH  12  13
ENDBRANCH   1  11
TORSDOF 14
ENDMDL
MODEL 8
REMARK VINA RESULT:    -3.943     11.851     14.902
REMARK INTER + INTRA:         -10.133
REMARK INTER:                  -7.554
REMARK INTRA:                  -2.580
REMARK UNBOUND:                -2.964
REMARK SMILES CCCCCC=CCC=CCCCCCCCC(=O)[O-]
REMARK SMILES IDX 11 1 12 2 13 3 14 4 15 5 16 6 17 7 18 8 19 9 20 10 10 11
REMARK SMILES IDX 9 12 8 13 7 14 6 15 5 16 4 17 3 18 2 19 1 20
REMARK H PARENT
REMARK Flexibility Score: inf
ROOT
ATOM      1  C   UNL     1      -6.024  -0.495   8.458  1.00  0.00     0.027 C 
ENDROOT
BRANCH   1   2
ATOM      2  C   UNL     1      -7.021  -0.279   9.606  1.00  0.00     0.004 C 
BRANCH   2   3
ATOM      3  C   UNL     1      -8.460  -0.633   9.194  1.00  0.00     0.000 C 
BRANCH   3   4
ATOM      4  C   UNL     1      -9.066  -1.751  10.058  1.00  0.00     0.000 C 
BRANCH   4   5
ATOM      5  C   UNL     1      -9.706  -2.868   9.219  1.00  0.00     0.000 C 
BRANCH   5   6
ATOM      6  C   UNL     1      -8.635  -3.783   8.617  1.00  0.00     0.006 C 
BRANCH   6   7
ATOM      7  C   UNL     1      -8.625  -3.688   7.087  1.00  0.00     0.053 C 
BRANCH   7   8
ATOM      8  C   UNL     1      -7.582  -4.591   6.512  1.00  0.00     0.041 C 
ATOM      9  O   UNL     1      -6.819  -4.178   5.599  1.00  0.00    -0.550 OA
ATOM     10  O   UNL     1      -7.482  -5.906   6.949  1.00  0.00    -0.550 OA
ENDBRANCH   7   8
ENDBRANCH   6   7
ENDBRANCH   5   6
ENDBRANCH   4   5
ENDBRANCH   3   4
ENDBRANCH   2   3
ENDBRANCH   1   2
BRANCH   1  11
ATOM     11  C   UNL     1      -5.630  -1.939   8.306  1.00  0.00    -0.031 C 
ATOM     12  C   UNL     1      -5.351  -2.707   9.370  1.00  0.00    -0.027 C 
BRANCH  12  13
ATOM     13  C   UNL     1      -4.931  -4.142   9.219  1.00  0.00     0.054 C 
BRANCH  13  14
ATOM     14  C   UNL     1      -4.118  -4.361   7.968  1.00  0.00    -0.027 C 
ATOM     15  C   UNL     1      -2.789  -4.580   7.944  1.00  0.00    -0.031 C 
BRANCH  15  16
ATOM     16  C   UNL     1      -1.894  -4.574   9.158  1.00  0.00     0.027 C 
BRANCH  16  17
ATOM     17  C   UNL     1      -1.100  -3.262   9.228  1.00  0.00     0.004 C 
BRANCH  17  18
ATOM     18  C   UNL     1      -1.637  -2.302  10.301  1.00  0.00     0.000 C 
BRANCH  18  19
ATOM     19  C   UNL     1      -2.335  -3.037  11.453  1.00  0.00    -0.003 C 
ATOM     20  C   UNL     1      -2.772  -2.062  12.542  1.00  0.00     0.004 C 
ENDBRANCH  18  19
ENDBRANCH  17  18
ENDBRANCH  16  17
ENDBRANCH  15  16
ENDBRANCH  13  14
ENDBRANCH  12  13
ENDBRANCH   1  11
TORSDOF 14
ENDMDL
MODEL 9
REMARK VINA RESULT:    -3.921     13.029     15.207
REMARK INTER + INTRA:         -10.094
REMARK INTER:                  -7.039
REMARK INTRA:                  -3.055
REMARK UNBOUND:                -2.964
REMARK SMILES CCCCCC=CCC=CCCCCCCCC(=O)[O-]
REMARK SMILES IDX 11 1 12 2 13 3 14 4 15 5 16 6 17 7 18 8 19 9 20 10 10 11
REMARK SMILES IDX 9 12 8 13 7 14 6 15 5 16 4 17 3 18 2 19 1 20
REMARK H PARENT
REMARK Flexibility Score: inf
ROOT
ATOM      1  C   UNL     1      -6.011  -4.198   8.623  1.00  0.00     0.027 C 
ENDROOT
BRANCH   1   2
ATOM      2  C   UNL     1      -4.905  -3.200   8.997  1.00  0.00     0.004 C 
BRANCH   2   3
ATOM      3  C   UNL     1      -4.402  -2.411   7.776  1.00  0.00     0.000 C 
BRANCH   3   4
ATOM      4  C   UNL     1      -4.113  -3.313   6.565  1.00  0.00     0.000 C 
BRANCH   4   5
ATOM      5  C   UNL     1      -4.703  -2.761   5.259  1.00  0.00     0.000 C 
BRANCH   5   6
ATOM      6  C   UNL     1      -6.194  -2.443   5.423  1.00  0.00     0.006 C 
BRANCH   6   7
ATOM      7  C   UNL     1      -7.063  -3.556   4.827  1.00  0.00     0.053 C 
BRANCH   7   8
ATOM      8  C   UNL     1      -8.426  -3.038   4.498  1.00  0.00     0.041 C 
ATOM      9  O   UNL     1      -8.557  -1.973   3.839  1.00  0.00    -0.550 OA
ATOM     10  O   UNL     1      -9.554  -3.706   4.959  1.00  0.00    -0.550 OA
ENDBRANCH   7   8
ENDBRANCH   6   7
ENDBRANCH   5   6
ENDBRANCH   4   5
ENDBRANCH   3   4
ENDBRANCH   2   3
ENDBRANCH   1   2
BRANCH   1  11
ATOM     11  C   UNL     1      -7.362  -3.771   9.131  1.00  0.00    -0.031 C 
ATOM     12  C   UNL     1      -8.378  -3.514   8.293  1.00  0.00    -0.027 C 
BRANCH  12  13
ATOM     13  C   UNL     1      -9.719  -3.061   8.796  1.00  0.00     0.054 C 
BRANCH  13  14
ATOM     14  C   UNL     1      -9.663  -2.635  10.242  1.00  0.00    -0.027 C 
ATOM     15  C   UNL     1      -9.428  -1.378  10.664  1.00  0.00    -0.031 C 
BRANCH  15  16
ATOM     16  C   UNL     1      -9.116  -0.211   9.761  1.00  0.00     0.027 C 
BRANCH  16  17
ATOM     17  C   UNL     1      -7.598  -0.061   9.589  1.00  0.00     0.004 C 
BRANCH  17  18
ATOM     18  C   UNL     1      -7.176   0.037   8.115  1.00  0.00     0.000 C 
BRANCH  18  19
ATOM     19  C   UNL     1      -8.373  -0.002   7.156  1.00  0.00    -0.003 C 
ATOM     20  C   UNL     1      -8.161   0.939   5.974  1.00  0.00     0.004 C 
ENDBRANCH  18  19
ENDBRANCH  17  18
ENDBRANCH  16  17
ENDBRANCH  15  16
ENDBRANCH  13  14
ENDBRANCH  12  13
ENDBRANCH   1  11
TORSDOF 14
ENDMDL
