MODEL 1
REMARK VINA RESULT:    -5.239      0.000      0.000
REMARK INTER + INTRA:          -5.644
REMARK INTER:                  -5.545
REMARK INTRA:                  -0.099
REMARK UNBOUND:                -0.099
REMARK SMILES C=C(C)[C@H]1CC=C(C)C(=O)C1
REMARK SMILES IDX 8 1 7 2 6 3 5 4 4 5 11 6 9 7 10 8 2 9 1 10 3 11
REMARK H PARENT
REMARK Flexibility Score: inf
ROOT
ATOM      1  C   UNL     1      15.083 -33.520  21.170  1.00  0.00     0.048 C 
ATOM      2  C   UNL     1      14.203 -32.440  21.736  1.00  0.00    -0.012 C 
ATOM      3  C   UNL     1      14.369 -32.041  23.009  1.00  0.00    -0.019 C 
ATOM      4  C   UNL     1      13.503 -30.978  23.631  1.00  0.00     0.036 C 
ATOM      5  C   UNL     1      13.069 -29.934  22.585  1.00  0.00     0.025 C 
ATOM      6  C   UNL     1      12.379 -30.625  21.394  1.00  0.00     0.089 C 
ATOM      7  C   UNL     1      13.240 -31.733  20.855  1.00  0.00     0.158 C 
ATOM      8  O   UNL     1      13.108 -32.083  19.651  1.00  0.00    -0.295 OA
ENDROOT
BRANCH   5   9
ATOM      9  C   UNL     1      12.178 -28.865  23.201  1.00  0.00    -0.077 C 
ATOM     10  C   UNL     1      10.888 -28.773  22.841  1.00  0.00     0.008 C 
ATOM     11  C   UNL     1      12.711 -27.892  24.224  1.00  0.00     0.039 C 
ENDBRANCH   5   9
TORSDOF 1
ENDMDL
MODEL 2
REMARK VINA RESULT:    -5.168      1.398      1.945
REMARK INTER + INTRA:          -5.569
REMARK INTER:                  -5.470
REMARK INTRA:                  -0.098
REMARK UNBOUND:                -0.099
REMARK SMILES C=C(C)[C@H]1CC=C(C)C(=O)C1
REMARK SMILES IDX 8 1 7 2 6 3 5 4 4 5 11 6 9 7 10 8 2 9 1 10 3 11
REMARK H PARENT
REMARK Flexibility Score: inf
ROOT
ATOM      1  C   UNL     1      16.533 -34.741  22.531  1.00  0.00     0.048 C 
ATOM      2  C   UNL     1      15.432 -33.719  22.551  1.00  0.00    -0.012 C 
ATOM      3  C   UNL     1      14.985 -33.239  23.724  1.00  0.00    -0.019 C 
ATOM      4  C   UNL     1      13.871 -32.228  23.801  1.00  0.00     0.036 C 
ATOM      5  C   UNL     1      13.893 -31.286  22.583  1.00  0.00     0.025 C 
ATOM      6  C   UNL     1      13.853 -32.099  21.277  1.00  0.00     0.089 C 
ATOM      7  C   UNL     1      14.927 -33.151  21.275  1.00  0.00     0.158 C 
ATOM      8  O   UNL     1      15.370 -33.575  20.174  1.00  0.00    -0.295 OA
ENDROOT
BRANCH   5   9
ATOM      9  C   UNL     1      12.759 -30.271  22.643  1.00  0.00    -0.077 C 
ATOM     10  C   UNL     1      11.695 -30.402  21.835  1.00  0.00     0.008 C 
ATOM     11  C   UNL     1      12.796 -29.108  23.603  1.00  0.00     0.039 C 
ENDBRANCH   5   9
TORSDOF 1
ENDMDL
MODEL 3
REMARK VINA RESULT:    -5.139      1.697      2.481
REMARK INTER + INTRA:          -5.538
REMARK INTER:                  -5.443
REMARK INTRA:                  -0.094
REMARK UNBOUND:                -0.099
REMARK SMILES C=C(C)[C@H]1CC=C(C)C(=O)C1
REMARK SMILES IDX 8 1 7 2 6 3 5 4 4 5 11 6 9 7 10 8 2 9 1 10 3 11
REMARK H PARENT
REMARK Flexibility Score: inf
ROOT
ATOM      1  C   UNL     1      14.258 -32.517  21.333  1.00  0.00     0.048 C 
ATOM      2  C   UNL     1      13.747 -31.184  21.805  1.00  0.00    -0.012 C 
ATOM      3  C   UNL     1      12.424 -30.977  21.919  1.00  0.00    -0.019 C 
ATOM      4  C   UNL     1      11.858 -29.656  22.369  1.00  0.00     0.036 C 
ATOM      5  C   UNL     1      12.798 -28.964  23.373  1.00  0.00     0.025 C 
ATOM      6  C   UNL     1      14.209 -28.820  22.774  1.00  0.00     0.089 C 
ATOM      7  C   UNL     1      14.704 -30.144  22.261  1.00  0.00     0.158 C 
ATOM      8  O   UNL     1      15.945 -30.350  22.188  1.00  0.00    -0.295 OA
ENDROOT
BRANCH   5   9
ATOM      9  C   UNL     1      12.243 -27.618  23.820  1.00  0.00    -0.077 C 
ATOM     10  C   UNL     1      12.850 -26.932  24.801  1.00  0.00     0.008 C 
ATOM     11  C   UNL     1      11.013 -27.024  23.179  1.00  0.00     0.039 C 
ENDBRANCH   5   9
TORSDOF 1
ENDMDL
MODEL 4
REMARK VINA RESULT:    -5.062      1.805      2.197
REMARK INTER + INTRA:          -5.457
REMARK INTER:                  -5.367
REMARK INTRA:                  -0.090
REMARK UNBOUND:                -0.099
REMARK SMILES C=C(C)[C@H]1CC=C(C)C(=O)C1
REMARK SMILES IDX 8 1 7 2 6 3 5 4 4 5 11 6 9 7 10 8 2 9 1 10 3 11
REMARK H PARENT
REMARK Flexibility Score: inf
ROOT
ATOM      1  C   UNL     1      16.514 -31.625  21.462  1.00  0.00     0.048 C 
ATOM      2  C   UNL     1      15.498 -30.754  22.147  1.00  0.00    -0.012 C 
ATOM      3  C   UNL     1      15.570 -29.418  22.023  1.00  0.00    -0.019 C 
ATOM      4  C   UNL     1      14.590 -28.499  22.704  1.00  0.00     0.036 C 
ATOM      5  C   UNL     1      13.200 -29.152  22.809  1.00  0.00     0.025 C 
ATOM      6  C   UNL     1      13.302 -30.518  23.512  1.00  0.00     0.089 C 
ATOM      7  C   UNL     1      14.349 -31.374  22.854  1.00  0.00     0.158 C 
ATOM      8  O   UNL     1      14.261 -32.629  22.941  1.00  0.00    -0.295 OA
ENDROOT
BRANCH   5   9
ATOM      9  C   UNL     1      12.206 -28.237  23.513  1.00  0.00    -0.077 C 
ATOM     10  C   UNL     1      10.916 -28.232  23.142  1.00  0.00     0.008 C 
ATOM     11  C   UNL     1      12.637 -27.325  24.635  1.00  0.00     0.039 C 
ENDBRANCH   5   9
TORSDOF 1
ENDMDL
MODEL 5
REMARK VINA RESULT:    -4.982      1.581      4.839
REMARK INTER + INTRA:          -5.372
REMARK INTER:                  -5.277
REMARK INTRA:                  -0.095
REMARK UNBOUND:                -0.099
REMARK SMILES C=C(C)[C@H]1CC=C(C)C(=O)C1
REMARK SMILES IDX 8 1 7 2 6 3 5 4 4 5 11 6 9 7 10 8 2 9 1 10 3 11
REMARK H PARENT
REMARK Flexibility Score: inf
ROOT
ATOM      1  C   UNL     1      12.290 -30.204  22.356  1.00  0.00     0.048 C 
ATOM      2  C   UNL     1      13.419 -31.197  22.335  1.00  0.00    -0.012 C 
ATOM      3  C   UNL     1      14.113 -31.444  23.459  1.00  0.00    -0.019 C 
ATOM      4  C   UNL     1      15.264 -32.414  23.489  1.00  0.00     0.036 C 
ATOM      5  C   UNL     1      15.043 -33.568  22.494  1.00  0.00     0.025 C 
ATOM      6  C   UNL     1      14.785 -33.014  21.081  1.00  0.00     0.089 C 
ATOM      7  C   UNL     1      13.685 -31.989  21.108  1.00  0.00     0.158 C 
ATOM      8  O   UNL     1      13.012 -31.783  20.062  1.00  0.00    -0.295 OA
ENDROOT
BRANCH   5   9
ATOM      9  C   UNL     1      16.212 -34.544  22.504  1.00  0.00    -0.077 C 
ATOM     10  C   UNL     1      16.783 -34.899  23.666  1.00  0.00     0.008 C 
ATOM     11  C   UNL     1      16.751 -35.136  21.225  1.00  0.00     0.039 C 
ENDBRANCH   5   9
TORSDOF 1
ENDMDL
MODEL 6
REMARK VINA RESULT:    -4.963      3.213      5.074
REMARK INTER + INTRA:          -5.351
REMARK INTER:                  -5.253
REMARK INTRA:                  -0.098
REMARK UNBOUND:                -0.099
REMARK SMILES C=C(C)[C@H]1CC=C(C)C(=O)C1
REMARK SMILES IDX 8 1 7 2 6 3 5 4 4 5 11 6 9 7 10 8 2 9 1 10 3 11
REMARK H PARENT
REMARK Flexibility Score: inf
ROOT
ATOM      1  C   UNL     1      17.619 -37.104  20.190  1.00  0.00     0.048 C 
ATOM      2  C   UNL     1      16.887 -35.832  20.516  1.00  0.00    -0.012 C 
ATOM      3  C   UNL     1      16.047 -35.294  19.615  1.00  0.00    -0.019 C 
ATOM      4  C   UNL     1      15.304 -34.012  19.883  1.00  0.00     0.036 C 
ATOM      5  C   UNL     1      14.965 -33.870  21.379  1.00  0.00     0.025 C 
ATOM      6  C   UNL     1      16.242 -33.992  22.230  1.00  0.00     0.089 C 
ATOM      7  C   UNL     1      16.998 -35.242  21.874  1.00  0.00     0.158 C 
ATOM      8  O   UNL     1      17.759 -35.766  22.732  1.00  0.00    -0.295 OA
ENDROOT
BRANCH   5   9
ATOM      9  C   UNL     1      14.229 -32.568  21.663  1.00  0.00    -0.077 C 
ATOM     10  C   UNL     1      14.234 -32.047  22.900  1.00  0.00     0.008 C 
ATOM     11  C   UNL     1      13.486 -31.833  20.575  1.00  0.00     0.039 C 
ENDBRANCH   5   9
TORSDOF 1
ENDMDL
MODEL 7
REMARK VINA RESULT:    -4.942      2.875      5.899
REMARK INTER + INTRA:          -5.330
REMARK INTER:                  -5.242
REMARK INTRA:                  -0.087
REMARK UNBOUND:                -0.099
REMARK SMILES C=C(C)[C@H]1CC=C(C)C(=O)C1
REMARK SMILES IDX 8 1 7 2 6 3 5 4 4 5 11 6 9 7 10 8 2 9 1 10 3 11
REMARK H PARENT
REMARK Flexibility Score: inf
ROOT
ATOM      1  C   UNL     1      13.866 -32.504  23.844  1.00  0.00     0.048 C 
ATOM      2  C   UNL     1      14.749 -33.094  22.779  1.00  0.00    -0.012 C 
ATOM      3  C   UNL     1      15.728 -33.949  23.121  1.00  0.00    -0.019 C 
ATOM      4  C   UNL     1      16.652 -34.554  22.097  1.00  0.00     0.036 C 
ATOM      5  C   UNL     1      15.930 -34.764  20.754  1.00  0.00     0.025 C 
ATOM      6  C   UNL     1      15.308 -33.443  20.268  1.00  0.00     0.089 C 
ATOM      7  C   UNL     1      14.459 -32.829  21.347  1.00  0.00     0.158 C 
ATOM      8  O   UNL     1      13.518 -32.055  21.024  1.00  0.00    -0.295 OA
ENDROOT
BRANCH   5   9
ATOM      9  C   UNL     1      16.862 -35.359  19.707  1.00  0.00    -0.077 C 
ATOM     10  C   UNL     1      16.775 -36.661  19.389  1.00  0.00     0.008 C 
ATOM     11  C   UNL     1      17.893 -34.513  19.002  1.00  0.00     0.039 C 
ENDBRANCH   5   9
TORSDOF 1
ENDMDL
MODEL 8
REMARK VINA RESULT:    -4.921      1.425      4.494
REMARK INTER + INTRA:          -5.307
REMARK INTER:                  -5.213
REMARK INTRA:                  -0.095
REMARK UNBOUND:                -0.099
REMARK SMILES C=C(C)[C@H]1CC=C(C)C(=O)C1
REMARK SMILES IDX 8 1 7 2 6 3 5 4 4 5 11 6 9 7 10 8 2 9 1 10 3 11
REMARK H PARENT
REMARK Flexibility Score: inf
ROOT
ATOM      1  C   UNL     1      12.713 -29.145  23.719  1.00  0.00     0.048 C 
ATOM      2  C   UNL     1      13.476 -30.065  22.805  1.00  0.00    -0.012 C 
ATOM      3  C   UNL     1      14.780 -30.299  23.030  1.00  0.00    -0.019 C 
ATOM      4  C   UNL     1      15.595 -31.195  22.135  1.00  0.00     0.036 C 
ATOM      5  C   UNL     1      14.733 -32.334  21.558  1.00  0.00     0.025 C 
ATOM      6  C   UNL     1      13.500 -31.758  20.838  1.00  0.00     0.089 C 
ATOM      7  C   UNL     1      12.761 -30.805  21.736  1.00  0.00     0.158 C 
ATOM      8  O   UNL     1      11.529 -30.613  21.547  1.00  0.00    -0.295 OA
ENDROOT
BRANCH   5   9
ATOM      9  C   UNL     1      15.545 -33.235  20.637  1.00  0.00    -0.077 C 
ATOM     10  C   UNL     1      14.990 -34.342  20.118  1.00  0.00     0.008 C 
ATOM     11  C   UNL     1      16.976 -32.913  20.284  1.00  0.00     0.039 C 
ENDBRANCH   5   9
TORSDOF 1
ENDMDL
MODEL 9
REMARK VINA RESULT:    -4.906      2.197      3.565
REMARK INTER + INTRA:          -5.292
REMARK INTER:                  -5.193
REMARK INTRA:                  -0.098
REMARK UNBOUND:                -0.099
REMARK SMILES C=C(C)[C@H]1CC=C(C)C(=O)C1
REMARK SMILES IDX 8 1 7 2 6 3 5 4 4 5 11 6 9 7 10 8 2 9 1 10 3 11
REMARK H PARENT
REMARK Flexibility Score: inf
ROOT
ATOM      1  C   UNL     1      17.652 -35.859  21.696  1.00  0.00     0.048 C 
ATOM      2  C   UNL     1      16.488 -34.908  21.699  1.00  0.00    -0.012 C 
ATOM      3  C   UNL     1      16.143 -34.276  22.834  1.00  0.00    -0.019 C 
ATOM      4  C   UNL     1      14.974 -33.328  22.896  1.00  0.00     0.036 C 
ATOM      5  C   UNL     1      14.790 -32.588  21.558  1.00  0.00     0.025 C 
ATOM      6  C   UNL     1      14.661 -33.596  20.402  1.00  0.00     0.089 C 
ATOM      7  C   UNL     1      15.802 -34.575  20.425  1.00  0.00     0.158 C 
ATOM      8  O   UNL     1      16.147 -35.141  19.352  1.00  0.00    -0.295 OA
ENDROOT
BRANCH   5   9
ATOM      9  C   UNL     1      13.599 -31.640  21.606  1.00  0.00    -0.077 C 
ATOM     10  C   UNL     1      12.911 -31.366  20.486  1.00  0.00     0.008 C 
ATOM     11  C   UNL     1      13.161 -30.993  22.897  1.00  0.00     0.039 C 
ENDBRANCH   5   9
TORSDOF 1
ENDMDL
