MODEL 1
REMARK VINA RESULT:    -5.640      0.000      0.000
REMARK INTER + INTRA:          -6.752
REMARK INTER:                  -6.629
REMARK INTRA:                  -0.123
REMARK UNBOUND:                -0.123
REMARK SMILES O=C([O-])C=Cc1ccc(O)c(O)c1
REMARK SMILES IDX 6 1 13 2 7 3 11 4 8 5 9 6 5 7 4 8 2 9 1 10 3 11 12 12 10 14
REMARK H PARENT 12 13 10 15
REMARK Flexibility Score: inf
ROOT
ATOM      1  C   UNL     1      11.594   7.828  11.265  1.00  0.00    -0.022 A 
ATOM      2  C   UNL     1      12.143   6.954  10.305  1.00  0.00     0.058 A 
ATOM      3  C   UNL     1      10.948   7.283  12.387  1.00  0.00     0.012 A 
ATOM      4  C   UNL     1      12.070   5.563  10.482  1.00  0.00     0.157 A 
ATOM      5  C   UNL     1      10.876   5.899  12.563  1.00  0.00     0.051 A 
ATOM      6  C   UNL     1      11.436   5.035  11.618  1.00  0.00     0.157 A 
ENDROOT
BRANCH   1   7
ATOM      7  C   UNL     1      11.636   9.304  11.118  1.00  0.00     0.010 C 
ATOM      8  C   UNL     1      12.383   9.940  10.205  1.00  0.00     0.025 C 
BRANCH   8   9
ATOM      9  C   UNL     1      12.409  11.408  10.096  1.00  0.00     0.064 C 
ATOM     10  O   UNL     1      12.416  11.980   8.974  1.00  0.00    -0.545 OA
ATOM     11  O   UNL     1      12.429  12.177  11.253  1.00  0.00    -0.545 OA
ENDBRANCH   8   9
ENDBRANCH   1   7
BRANCH   4  12
ATOM     12  O   UNL     1      12.621   4.707   9.529  1.00  0.00    -0.504 OA
ATOM     13  H   UNL     1      12.822   5.019   8.587  1.00  0.00     0.293 HD
ENDBRANCH   4  12
BRANCH   6  14
ATOM     14  O   UNL     1      11.350   3.658  11.822  1.00  0.00    -0.504 OA
ATOM     15  H   UNL     1      10.905   3.042  11.153  1.00  0.00     0.293 HD
ENDBRANCH   6  14
TORSDOF 4
ENDMDL
MODEL 2
REMARK VINA RESULT:    -5.324      1.238      5.875
REMARK INTER + INTRA:          -6.381
REMARK INTER:                  -6.258
REMARK INTRA:                  -0.123
REMARK UNBOUND:                -0.123
REMARK SMILES O=C([O-])C=Cc1ccc(O)c(O)c1
REMARK SMILES IDX 6 1 13 2 7 3 11 4 8 5 9 6 5 7 4 8 2 9 1 10 3 11 12 12 10 14
REMARK H PARENT 12 13 10 15
REMARK Flexibility Score: inf
ROOT
ATOM      1  C   UNL     1      11.735   9.505  11.049  1.00  0.00    -0.022 A 
ATOM      2  C   UNL     1      12.434  10.073   9.965  1.00  0.00     0.058 A 
ATOM      3  C   UNL     1      11.227  10.353  12.046  1.00  0.00     0.012 A 
ATOM      4  C   UNL     1      12.595  11.465   9.870  1.00  0.00     0.157 A 
ATOM      5  C   UNL     1      11.385  11.737  11.952  1.00  0.00     0.051 A 
ATOM      6  C   UNL     1      12.065  12.299  10.868  1.00  0.00     0.157 A 
ENDROOT
BRANCH   1   7
ATOM      7  C   UNL     1      11.549   8.041  11.199  1.00  0.00     0.010 C 
ATOM      8  C   UNL     1      11.991   7.139  10.311  1.00  0.00     0.025 C 
BRANCH   8   9
ATOM      9  C   UNL     1      11.776   5.692  10.487  1.00  0.00     0.064 C 
ATOM     10  O   UNL     1      10.819   5.102   9.922  1.00  0.00    -0.545 OA
ATOM     11  O   UNL     1      12.644   4.968  11.293  1.00  0.00    -0.545 OA
ENDBRANCH   8   9
ENDBRANCH   1   7
BRANCH   4  12
ATOM     12  O   UNL     1      13.284  12.018   8.791  1.00  0.00    -0.504 OA
ATOM     13  H   UNL     1      14.296  12.045   8.765  1.00  0.00     0.293 HD
ENDBRANCH   4  12
BRANCH   6  14
ATOM     14  O   UNL     1      12.206  13.685  10.800  1.00  0.00    -0.504 OA
ATOM     15  H   UNL     1      12.997  14.123  10.343  1.00  0.00     0.293 HD
ENDBRANCH   6  14
TORSDOF 4
ENDMDL
MODEL 3
REMARK VINA RESULT:    -5.230      1.269      6.169
REMARK INTER + INTRA:          -6.270
REMARK INTER:                  -6.119
REMARK INTRA:                  -0.151
REMARK UNBOUND:                -0.123
REMARK SMILES O=C([O-])C=Cc1ccc(O)c(O)c1
REMARK SMILES IDX 6 1 13 2 7 3 11 4 8 5 9 6 5 7 4 8 2 9 1 10 3 11 12 12 10 14
REMARK H PARENT 12 13 10 15
REMARK Flexibility Score: inf
ROOT
ATOM      1  C   UNL     1      11.667   9.346  11.269  1.00  0.00    -0.022 A 
ATOM      2  C   UNL     1      11.375  10.371  12.191  1.00  0.00     0.058 A 
ATOM      3  C   UNL     1      12.288   9.683  10.055  1.00  0.00     0.012 A 
ATOM      4  C   UNL     1      11.723  11.702  11.912  1.00  0.00     0.157 A 
ATOM      5  C   UNL     1      12.636  11.007   9.778  1.00  0.00     0.051 A 
ATOM      6  C   UNL     1      12.359  12.019  10.701  1.00  0.00     0.157 A 
ENDROOT
BRANCH   1   7
ATOM      7  C   UNL     1      11.309   7.927  11.513  1.00  0.00     0.010 C 
ATOM      8  C   UNL     1      11.731   6.910  10.748  1.00  0.00     0.025 C 
BRANCH   8   9
ATOM      9  C   UNL     1      11.345   5.514  11.013  1.00  0.00     0.064 C 
ATOM     10  O   UNL     1      10.136   5.162  11.023  1.00  0.00    -0.545 OA
ATOM     11  O   UNL     1      12.332   4.569  11.260  1.00  0.00    -0.545 OA
ENDBRANCH   8   9
ENDBRANCH   1   7
BRANCH   4  12
ATOM     12  O   UNL     1      11.434  12.709  12.832  1.00  0.00    -0.504 OA
ATOM     13  H   UNL     1      12.060  13.492  12.978  1.00  0.00     0.293 HD
ENDBRANCH   4  12
BRANCH   6  14
ATOM     14  O   UNL     1      12.720  13.332  10.396  1.00  0.00    -0.504 OA
ATOM     15  H   UNL     1      12.442  14.114  10.977  1.00  0.00     0.293 HD
ENDBRANCH   6  14
TORSDOF 4
ENDMDL
MODEL 4
REMARK VINA RESULT:    -5.135      0.794      1.902
REMARK INTER + INTRA:          -6.159
REMARK INTER:                  -6.006
REMARK INTRA:                  -0.153
REMARK UNBOUND:                -0.123
REMARK SMILES O=C([O-])C=Cc1ccc(O)c(O)c1
REMARK SMILES IDX 6 1 13 2 7 3 11 4 8 5 9 6 5 7 4 8 2 9 1 10 3 11 12 12 10 14
REMARK H PARENT 12 13 10 15
REMARK Flexibility Score: inf
ROOT
ATOM      1  C   UNL     1      11.503   7.682  11.335  1.00  0.00    -0.022 A 
ATOM      2  C   UNL     1      10.880   7.072  12.442  1.00  0.00     0.058 A 
ATOM      3  C   UNL     1      12.029   6.867  10.319  1.00  0.00     0.012 A 
ATOM      4  C   UNL     1      10.764   5.675  12.515  1.00  0.00     0.157 A 
ATOM      5  C   UNL     1      11.913   5.477  10.391  1.00  0.00     0.051 A 
ATOM      6  C   UNL     1      11.281   4.876  11.483  1.00  0.00     0.157 A 
ENDROOT
BRANCH   1   7
ATOM      7  C   UNL     1      11.659   9.153  11.217  1.00  0.00     0.010 C 
ATOM      8  C   UNL     1      12.278   9.756  10.192  1.00  0.00     0.025 C 
BRANCH   8   9
ATOM      9  C   UNL     1      12.425  11.219  10.115  1.00  0.00     0.064 C 
ATOM     10  O   UNL     1      12.498  11.810   9.005  1.00  0.00    -0.545 OA
ATOM     11  O   UNL     1      12.488  11.961  11.287  1.00  0.00    -0.545 OA
ENDBRANCH   8   9
ENDBRANCH   1   7
BRANCH   4  12
ATOM     12  O   UNL     1      10.143   5.080  13.613  1.00  0.00    -0.504 OA
ATOM     13  H   UNL     1       9.481   5.587  14.188  1.00  0.00     0.293 HD
ENDBRANCH   4  12
BRANCH   6  14
ATOM     14  O   UNL     1      11.179   3.485  11.526  1.00  0.00    -0.504 OA
ATOM     15  H   UNL     1      11.994   2.885  11.493  1.00  0.00     0.293 HD
ENDBRANCH   6  14
TORSDOF 4
ENDMDL
MODEL 5
REMARK VINA RESULT:    -5.068      1.403      1.787
REMARK INTER + INTRA:          -6.080
REMARK INTER:                  -5.935
REMARK INTRA:                  -0.145
REMARK UNBOUND:                -0.123
REMARK SMILES O=C([O-])C=Cc1ccc(O)c(O)c1
REMARK SMILES IDX 6 1 13 2 7 3 11 4 8 5 9 6 5 7 4 8 2 9 1 10 3 11 12 12 10 14
REMARK H PARENT 12 13 10 15
REMARK Flexibility Score: inf
ROOT
ATOM      1  C   UNL     1      11.822   6.202  10.823  1.00  0.00    -0.022 A 
ATOM      2  C   UNL     1      12.795   5.211  10.585  1.00  0.00     0.058 A 
ATOM      3  C   UNL     1      10.586   5.820  11.370  1.00  0.00     0.012 A 
ATOM      4  C   UNL     1      12.544   3.870  10.915  1.00  0.00     0.157 A 
ATOM      5  C   UNL     1      10.336   4.486  11.699  1.00  0.00     0.051 A 
ATOM      6  C   UNL     1      11.309   3.508  11.476  1.00  0.00     0.157 A 
ENDROOT
BRANCH   1   7
ATOM      7  C   UNL     1      12.036   7.630  10.482  1.00  0.00     0.010 C 
ATOM      8  C   UNL     1      11.654   8.648  11.266  1.00  0.00     0.025 C 
BRANCH   8   9
ATOM      9  C   UNL     1      11.872  10.055  10.889  1.00  0.00     0.064 C 
ATOM     10  O   UNL     1      12.515  10.359   9.850  1.00  0.00    -0.545 OA
ATOM     11  O   UNL     1      11.362  11.064  11.695  1.00  0.00    -0.545 OA
ENDBRANCH   8   9
ENDBRANCH   1   7
BRANCH   4  12
ATOM     12  O   UNL     1      13.515   2.897  10.679  1.00  0.00    -0.504 OA
ATOM     13  H   UNL     1      13.917   2.759   9.760  1.00  0.00     0.293 HD
ENDBRANCH   4  12
BRANCH   6  14
ATOM     14  O   UNL     1      11.031   2.184  11.817  1.00  0.00    -0.504 OA
ATOM     15  H   UNL     1      11.088   1.431  11.141  1.00  0.00     0.293 HD
ENDBRANCH   6  14
TORSDOF 4
ENDMDL
MODEL 6
REMARK VINA RESULT:    -4.943      2.714      3.683
REMARK INTER + INTRA:          -5.933
REMARK INTER:                  -5.796
REMARK INTRA:                  -0.137
REMARK UNBOUND:                -0.123
REMARK SMILES O=C([O-])C=Cc1ccc(O)c(O)c1
REMARK SMILES IDX 6 1 13 2 7 3 11 4 8 5 9 6 5 7 4 8 2 9 1 10 3 11 12 12 10 14
REMARK H PARENT 12 13 10 15
REMARK Flexibility Score: inf
ROOT
ATOM      1  C   UNL     1      12.327   4.592  10.434  1.00  0.00    -0.022 A 
ATOM      2  C   UNL     1      11.660   3.718   9.551  1.00  0.00     0.058 A 
ATOM      3  C   UNL     1      13.145   4.047  11.437  1.00  0.00     0.012 A 
ATOM      4  C   UNL     1      11.832   2.329   9.656  1.00  0.00     0.157 A 
ATOM      5  C   UNL     1      13.317   2.665  11.541  1.00  0.00     0.051 A 
ATOM      6  C   UNL     1      12.667   1.802  10.655  1.00  0.00     0.157 A 
ENDROOT
BRANCH   1   7
ATOM      7  C   UNL     1      12.169   6.066  10.370  1.00  0.00     0.010 C 
ATOM      8  C   UNL     1      11.665   6.804  11.369  1.00  0.00     0.025 C 
BRANCH   8   9
ATOM      9  C   UNL     1      11.511   8.265  11.265  1.00  0.00     0.064 C 
ATOM     10  O   UNL     1      10.888   8.920  12.143  1.00  0.00    -0.545 OA
ATOM     11  O   UNL     1      12.060   8.933  10.179  1.00  0.00    -0.545 OA
ENDBRANCH   8   9
ENDBRANCH   1   7
BRANCH   4  12
ATOM     12  O   UNL     1      11.171   1.473   8.776  1.00  0.00    -0.504 OA
ATOM     13  H   UNL     1      10.187   1.587   8.562  1.00  0.00     0.293 HD
ENDBRANCH   4  12
BRANCH   6  14
ATOM     14  O   UNL     1      12.860   0.427  10.782  1.00  0.00    -0.504 OA
ATOM     15  H   UNL     1      13.582   0.038  11.378  1.00  0.00     0.293 HD
ENDBRANCH   6  14
TORSDOF 4
ENDMDL
MODEL 7
REMARK VINA RESULT:    -4.929      1.642      5.992
REMARK INTER + INTRA:          -5.917
REMARK INTER:                  -5.777
REMARK INTRA:                  -0.140
REMARK UNBOUND:                -0.123
REMARK SMILES O=C([O-])C=Cc1ccc(O)c(O)c1
REMARK SMILES IDX 6 1 13 2 7 3 11 4 8 5 9 6 5 7 4 8 2 9 1 10 3 11 12 12 10 14
REMARK H PARENT 12 13 10 15
REMARK Flexibility Score: inf
ROOT
ATOM      1  C   UNL     1      11.613   7.120  11.300  1.00  0.00    -0.022 A 
ATOM      2  C   UNL     1      10.963   7.846  12.319  1.00  0.00     0.058 A 
ATOM      3  C   UNL     1      12.173   7.822  10.221  1.00  0.00     0.012 A 
ATOM      4  C   UNL     1      10.901   9.248  12.269  1.00  0.00     0.157 A 
ATOM      5  C   UNL     1      12.113   9.216  10.171  1.00  0.00     0.051 A 
ATOM      6  C   UNL     1      11.482   9.934  11.190  1.00  0.00     0.157 A 
ENDROOT
BRANCH   1   7
ATOM      7  C   UNL     1      11.695   5.639  11.303  1.00  0.00     0.010 C 
ATOM      8  C   UNL     1      12.811   4.955  11.014  1.00  0.00     0.025 C 
BRANCH   8   9
ATOM      9  C   UNL     1      12.852   3.482  11.015  1.00  0.00     0.064 C 
ATOM     10  O   UNL     1      13.345   2.844  11.982  1.00  0.00    -0.545 OA
ATOM     11  O   UNL     1      12.341   2.786   9.928  1.00  0.00    -0.545 OA
ENDBRANCH   8   9
ENDBRANCH   1   7
BRANCH   4  12
ATOM     12  O   UNL     1      10.260   9.957  13.283  1.00  0.00    -0.504 OA
ATOM     13  H   UNL     1      10.735  10.201  14.144  1.00  0.00     0.293 HD
ENDBRANCH   4  12
BRANCH   6  14
ATOM     14  O   UNL     1      11.439  11.326  11.114  1.00  0.00    -0.504 OA
ATOM     15  H   UNL     1      10.961  11.809  10.362  1.00  0.00     0.293 HD
ENDBRANCH   6  14
TORSDOF 4
ENDMDL
MODEL 8
REMARK VINA RESULT:    -4.838      3.674      4.890
REMARK INTER + INTRA:          -5.810
REMARK INTER:                  -5.671
REMARK INTRA:                  -0.139
REMARK UNBOUND:                -0.123
REMARK SMILES O=C([O-])C=Cc1ccc(O)c(O)c1
REMARK SMILES IDX 6 1 13 2 7 3 11 4 8 5 9 6 5 7 4 8 2 9 1 10 3 11 12 12 10 14
REMARK H PARENT 12 13 10 15
REMARK Flexibility Score: inf
ROOT
ATOM      1  C   UNL     1      10.961   5.294  12.797  1.00  0.00    -0.022 A 
ATOM      2  C   UNL     1      11.601   5.770  11.635  1.00  0.00     0.058 A 
ATOM      3  C   UNL     1      11.111   3.942  13.148  1.00  0.00     0.012 A 
ATOM      4  C   UNL     1      12.397   4.914  10.857  1.00  0.00     0.157 A 
ATOM      5  C   UNL     1      11.904   3.091  12.375  1.00  0.00     0.051 A 
ATOM      6  C   UNL     1      12.550   3.570  11.232  1.00  0.00     0.157 A 
ENDROOT
BRANCH   1   7
ATOM      7  C   UNL     1      10.101   6.156  13.645  1.00  0.00     0.010 C 
ATOM      8  C   UNL     1      10.187   6.207  14.982  1.00  0.00     0.025 C 
BRANCH   8   9
ATOM      9  C   UNL     1       9.308   7.066  15.794  1.00  0.00     0.064 C 
ATOM     10  O   UNL     1       8.335   6.586  16.432  1.00  0.00    -0.545 OA
ATOM     11  O   UNL     1       9.555   8.432  15.853  1.00  0.00    -0.545 OA
ENDBRANCH   8   9
ENDBRANCH   1   7
BRANCH   4  12
ATOM     12  O   UNL     1      13.029   5.395   9.711  1.00  0.00    -0.504 OA
ATOM     13  H   UNL     1      13.613   4.799   9.136  1.00  0.00     0.293 HD
ENDBRANCH   4  12
BRANCH   6  14
ATOM     14  O   UNL     1      13.336   2.696  10.481  1.00  0.00    -0.504 OA
ATOM     15  H   UNL     1      13.707   1.837  10.870  1.00  0.00     0.293 HD
ENDBRANCH   6  14
TORSDOF 4
ENDMDL
MODEL 9
REMARK VINA RESULT:    -4.771      3.914      6.169
REMARK INTER + INTRA:          -5.731
REMARK INTER:                  -5.610
REMARK INTRA:                  -0.121
REMARK UNBOUND:                -0.123
REMARK SMILES O=C([O-])C=Cc1ccc(O)c(O)c1
REMARK SMILES IDX 6 1 13 2 7 3 11 4 8 5 9 6 5 7 4 8 2 9 1 10 3 11 12 12 10 14
REMARK H PARENT 12 13 10 15
REMARK Flexibility Score: inf
ROOT
ATOM      1  C   UNL     1      10.982  10.809  12.118  1.00  0.00    -0.022 A 
ATOM      2  C   UNL     1      11.460  12.111  11.866  1.00  0.00     0.058 A 
ATOM      3  C   UNL     1      11.369   9.768  11.260  1.00  0.00     0.012 A 
ATOM      4  C   UNL     1      12.329  12.357  10.792  1.00  0.00     0.157 A 
ATOM      5  C   UNL     1      12.235  10.012  10.191  1.00  0.00     0.051 A 
ATOM      6  C   UNL     1      12.719  11.301   9.953  1.00  0.00     0.157 A 
ENDROOT
BRANCH   1   7
ATOM      7  C   UNL     1      10.054  10.501  13.234  1.00  0.00     0.010 C 
ATOM      8  C   UNL     1      10.013  11.193  14.382  1.00  0.00     0.025 C 
BRANCH   8   9
ATOM      9  C   UNL     1       9.086  10.850  15.473  1.00  0.00     0.064 C 
ATOM     10  O   UNL     1       7.877  11.201  15.436  1.00  0.00    -0.545 OA
ATOM     11  O   UNL     1       9.554  10.130  16.564  1.00  0.00    -0.545 OA
ENDBRANCH   8   9
ENDBRANCH   1   7
BRANCH   4  12
ATOM     12  O   UNL     1      12.799  13.648  10.553  1.00  0.00    -0.504 OA
ATOM     13  H   UNL     1      12.866  14.024   9.614  1.00  0.00     0.293 HD
ENDBRANCH   4  12
BRANCH   6  14
ATOM     14  O   UNL     1      13.584  11.513   8.879  1.00  0.00    -0.504 OA
ATOM     15  H   UNL     1      14.452  11.000   8.778  1.00  0.00     0.293 HD
ENDBRANCH   6  14
TORSDOF 4
ENDMDL
