MODEL 1
REMARK VINA RESULT:    -7.125      0.000      0.000
REMARK INTER + INTRA:         -12.187
REMARK INTER:                 -10.457
REMARK INTRA:                  -1.729
REMARK UNBOUND:                -1.729
REMARK SMILES O=c1c(O[C@H]2O[C@H](CO)[C@@H](O)[C@@H](O)[C@@H]2O)c(-c2ccc(O)c(O)c2)oc2cc(O)cc(O)c12
REMARK SMILES IDX 4 1 3 2 16 3 25 4 2 5 26 6 1 7 33 8 27 9 31 10 28 11 30 12
REMARK SMILES IDX 17 13 18 14 19 15 20 16 24 17 22 18 21 19 23 21 32 23 29 25
REMARK SMILES IDX 5 27 14 28 6 29 12 30 7 31 10 32 15 33 13 35 8 37 9 38 11 40
REMARK H PARENT 21 20 23 22 32 24 29 26 15 34 13 36 9 39 11 41
REMARK Flexibility Score: inf
ROOT
ATOM      1  O   UNL     1     113.606 123.955 141.494  1.00  0.00    -0.454 OA
ENDROOT
BRANCH   1   2
ATOM      2  C   UNL     1     112.979 123.525 140.304  1.00  0.00     0.214 A 
ATOM      3  C   UNL     1     113.700 122.662 139.455  1.00  0.00     0.180 A 
ATOM      4  O   UNL     1     113.210 122.329 138.268  1.00  0.00    -0.452 OA
ATOM      5  C   UNL     1     111.692 123.944 139.892  1.00  0.00     0.239 A 
ATOM      6  C   UNL     1     112.014 122.706 137.840  1.00  0.00     0.146 A 
ATOM      7  O   UNL     1     111.040 124.751 140.602  1.00  0.00    -0.285 OA
ATOM      8  C   UNL     1     111.164 123.489 138.657  1.00  0.00     0.111 A 
ATOM      9  C   UNL     1     111.603 122.302 136.563  1.00  0.00     0.094 A 
ATOM     10  C   UNL     1     109.854 123.794 138.182  1.00  0.00     0.134 A 
ATOM     11  C   UNL     1     110.339 122.649 136.085  1.00  0.00     0.123 A 
ATOM     12  C   UNL     1     109.477 123.394 136.891  1.00  0.00     0.093 A 
BRANCH   3  13
ATOM     13  C   UNL     1     115.029 122.137 139.828  1.00  0.00     0.025 A 
ATOM     14  C   UNL     1     115.133 120.872 140.427  1.00  0.00     0.016 A 
ATOM     15  C   UNL     1     116.383 120.366 140.795  1.00  0.00     0.051 A 
ATOM     16  C   UNL     1     117.543 121.124 140.580  1.00  0.00     0.157 A 
ATOM     17  C   UNL     1     116.188 122.907 139.644  1.00  0.00     0.062 A 
ATOM     18  C   UNL     1     117.443 122.405 140.009  1.00  0.00     0.158 A 
BRANCH  16  19
ATOM     19  O   UNL     1     118.790 120.613 140.936  1.00  0.00    -0.504 OA
ATOM     20  H   UNL     1     119.575 120.649 140.302  1.00  0.00     0.293 HD
ENDBRANCH  16  19
BRANCH  18  21
ATOM     21  O   UNL     1     118.575 123.194 139.804  1.00  0.00    -0.504 OA
ATOM     22  H   UNL     1     118.515 124.163 139.525  1.00  0.00     0.293 HD
ENDBRANCH  18  21
ENDBRANCH   3  13
BRANCH  10  23
ATOM     23  O   UNL     1     108.876 124.432 138.947  1.00  0.00    -0.507 OA
ATOM     24  H   UNL     1     108.033 124.845 138.562  1.00  0.00     0.293 HD
ENDBRANCH  10  23
BRANCH  11  25
ATOM     25  O   UNL     1     109.921 122.240 134.821  1.00  0.00    -0.508 OA
ATOM     26  H   UNL     1     110.561 122.217 134.035  1.00  0.00     0.293 HD
ENDBRANCH  11  25
ENDBRANCH   1   2
BRANCH   1  27
ATOM     27  C   UNL     1     113.302 123.539 142.831  1.00  0.00     0.339 C 
ATOM     28  C   UNL     1     113.033 124.775 143.728  1.00  0.00     0.214 C 
ATOM     29  O   UNL     1     114.330 122.712 143.363  1.00  0.00    -0.332 OA
ATOM     30  C   UNL     1     114.331 125.544 144.038  1.00  0.00     0.180 C 
ATOM     31  C   UNL     1     115.562 123.407 143.469  1.00  0.00     0.179 C 
ATOM     32  C   UNL     1     115.434 124.558 144.495  1.00  0.00     0.177 C 
BRANCH  28  33
ATOM     33  O   UNL     1     112.377 124.402 144.916  1.00  0.00    -0.384 OA
ATOM     34  H   UNL     1     112.461 123.416 145.023  1.00  0.00     0.211 HD
ENDBRANCH  28  33
BRANCH  30  35
ATOM     35  O   UNL     1     114.713 126.264 142.890  1.00  0.00    -0.387 OA
ATOM     36  H   UNL     1     114.245 127.145 142.914  1.00  0.00     0.211 HD
ENDBRANCH  30  35
BRANCH  31  37
ATOM     37  C   UNL     1     116.641 122.391 143.878  1.00  0.00     0.191 C 
BRANCH  37  38
ATOM     38  O   UNL     1     116.778 122.327 145.268  1.00  0.00    -0.394 OA
ATOM     39  H   UNL     1     117.257 123.146 145.547  1.00  0.00     0.210 HD
ENDBRANCH  37  38
ENDBRANCH  31  37
BRANCH  32  40
ATOM     40  O   UNL     1     116.660 125.236 144.639  1.00  0.00    -0.387 OA
ATOM     41  H   UNL     1     116.449 126.205 144.703  1.00  0.00     0.211 HD
ENDBRANCH  32  40
ENDBRANCH   1  27
TORSDOF 12
ENDMDL
MODEL 2
REMARK VINA RESULT:    -7.076      1.899      6.170
REMARK INTER + INTRA:         -12.115
REMARK INTER:                 -10.364
REMARK INTRA:                  -1.750
REMARK UNBOUND:                -1.729
REMARK SMILES O=c1c(O[C@H]2O[C@H](CO)[C@@H](O)[C@@H](O)[C@@H]2O)c(-c2ccc(O)c(O)c2)oc2cc(O)cc(O)c12
REMARK SMILES IDX 4 1 3 2 16 3 25 4 2 5 26 6 1 7 33 8 27 9 31 10 28 11 30 12
REMARK SMILES IDX 17 13 18 14 19 15 20 16 24 17 22 18 21 19 23 21 32 23 29 25
REMARK SMILES IDX 5 27 14 28 6 29 12 30 7 31 10 32 15 33 13 35 8 37 9 38 11 40
REMARK H PARENT 21 20 23 22 32 24 29 26 15 34 13 36 9 39 11 41
REMARK Flexibility Score: inf
ROOT
ATOM      1  O   UNL     1     113.993 123.409 142.407  1.00  0.00    -0.454 OA
ENDROOT
BRANCH   1   2
ATOM      2  C   UNL     1     114.775 122.745 141.438  1.00  0.00     0.214 A 
ATOM      3  C   UNL     1     114.166 122.421 140.209  1.00  0.00     0.180 A 
ATOM      4  O   UNL     1     114.815 121.688 139.313  1.00  0.00    -0.452 OA
ATOM      5  C   UNL     1     116.117 122.345 141.643  1.00  0.00     0.239 A 
ATOM      6  C   UNL     1     116.068 121.287 139.468  1.00  0.00     0.146 A 
ATOM      7  O   UNL     1     116.676 122.575 142.744  1.00  0.00    -0.285 OA
ATOM      8  C   UNL     1     116.808 121.644 140.621  1.00  0.00     0.111 A 
ATOM      9  C   UNL     1     116.650 120.508 138.460  1.00  0.00     0.094 A 
ATOM     10  C   UNL     1     118.179 121.258 140.698  1.00  0.00     0.134 A 
ATOM     11  C   UNL     1     117.978 120.091 138.567  1.00  0.00     0.123 A 
ATOM     12  C   UNL     1     118.730 120.462 139.682  1.00  0.00     0.093 A 
BRANCH   3  13
ATOM     13  C   UNL     1     112.786 122.841 139.891  1.00  0.00     0.025 A 
ATOM     14  C   UNL     1     112.572 123.917 139.016  1.00  0.00     0.016 A 
ATOM     15  C   UNL     1     111.272 124.332 138.714  1.00  0.00     0.051 A 
ATOM     16  C   UNL     1     110.170 123.685 139.293  1.00  0.00     0.157 A 
ATOM     17  C   UNL     1     111.684 122.217 140.495  1.00  0.00     0.062 A 
ATOM     18  C   UNL     1     110.379 122.628 140.195  1.00  0.00     0.158 A 
BRANCH  16  19
ATOM     19  O   UNL     1     108.875 124.093 138.982  1.00  0.00    -0.504 OA
ATOM     20  H   UNL     1     108.068 123.588 139.320  1.00  0.00     0.293 HD
ENDBRANCH  16  19
BRANCH  18  21
ATOM     21  O   UNL     1     109.306 121.978 140.807  1.00  0.00    -0.504 OA
ATOM     22  H   UNL     1     108.392 122.403 140.888  1.00  0.00     0.293 HD
ENDBRANCH  18  21
ENDBRANCH   3  13
BRANCH  10  23
ATOM     23  O   UNL     1     119.050 121.670 141.708  1.00  0.00    -0.507 OA
ATOM     24  H   UNL     1     118.756 121.909 142.649  1.00  0.00     0.293 HD
ENDBRANCH  10  23
BRANCH  11  25
ATOM     25  O   UNL     1     118.565 119.326 137.562  1.00  0.00    -0.508 OA
ATOM     26  H   UNL     1     118.199 118.415 137.309  1.00  0.00     0.293 HD
ENDBRANCH  11  25
ENDBRANCH   1   2
BRANCH   1  27
ATOM     27  C   UNL     1     113.786 124.820 142.534  1.00  0.00     0.339 C 
ATOM     28  C   UNL     1     114.332 125.321 143.896  1.00  0.00     0.214 C 
ATOM     29  O   UNL     1     112.417 125.162 142.355  1.00  0.00    -0.332 OA
ATOM     30  C   UNL     1     113.437 124.874 145.066  1.00  0.00     0.180 C 
ATOM     31  C   UNL     1     111.595 124.583 143.354  1.00  0.00     0.179 C 
ATOM     32  C   UNL     1     111.953 125.172 144.740  1.00  0.00     0.177 C 
BRANCH  28  33
ATOM     33  O   UNL     1     114.488 126.720 143.892  1.00  0.00    -0.384 OA
ATOM     34  H   UNL     1     113.594 127.134 143.749  1.00  0.00     0.211 HD
ENDBRANCH  28  33
BRANCH  30  35
ATOM     35  O   UNL     1     113.658 123.503 145.303  1.00  0.00    -0.387 OA
ATOM     36  H   UNL     1     112.886 123.157 145.832  1.00  0.00     0.211 HD
ENDBRANCH  30  35
BRANCH  31  37
ATOM     37  C   UNL     1     110.130 124.857 142.976  1.00  0.00     0.191 C 
BRANCH  37  38
ATOM     38  O   UNL     1     109.286 123.845 143.442  1.00  0.00    -0.394 OA
ATOM     39  H   UNL     1     108.506 124.290 143.856  1.00  0.00     0.210 HD
ENDBRANCH  37  38
ENDBRANCH  31  37
BRANCH  32  40
ATOM     40  O   UNL     1     111.120 124.633 145.741  1.00  0.00    -0.387 OA
ATOM     41  H   UNL     1     111.708 124.374 146.498  1.00  0.00     0.211 HD
ENDBRANCH  32  40
ENDBRANCH   1  27
TORSDOF 12
ENDMDL
MODEL 3
REMARK VINA RESULT:    -6.901      2.145      6.439
REMARK INTER + INTRA:         -11.858
REMARK INTER:                 -10.439
REMARK INTRA:                  -1.419
REMARK UNBOUND:                -1.729
REMARK SMILES O=c1c(O[C@H]2O[C@H](CO)[C@@H](O)[C@@H](O)[C@@H]2O)c(-c2ccc(O)c(O)c2)oc2cc(O)cc(O)c12
REMARK SMILES IDX 4 1 3 2 16 3 25 4 2 5 26 6 1 7 33 8 27 9 31 10 28 11 30 12
REMARK SMILES IDX 17 13 18 14 19 15 20 16 24 17 22 18 21 19 23 21 32 23 29 25
REMARK SMILES IDX 5 27 14 28 6 29 12 30 7 31 10 32 15 33 13 35 8 37 9 38 11 40
REMARK H PARENT 21 20 23 22 32 24 29 26 15 34 13 36 9 39 11 41
REMARK Flexibility Score: inf
ROOT
ATOM      1  O   UNL     1     113.792 122.790 140.305  1.00  0.00    -0.454 OA
ENDROOT
BRANCH   1   2
ATOM      2  C   UNL     1     115.071 122.211 140.450  1.00  0.00     0.214 A 
ATOM      3  C   UNL     1     115.999 122.863 141.286  1.00  0.00     0.180 A 
ATOM      4  O   UNL     1     117.252 122.434 141.359  1.00  0.00    -0.452 OA
ATOM      5  C   UNL     1     115.491 121.042 139.771  1.00  0.00     0.239 A 
ATOM      6  C   UNL     1     117.689 121.349 140.734  1.00  0.00     0.146 A 
ATOM      7  O   UNL     1     114.706 120.462 138.981  1.00  0.00    -0.285 OA
ATOM      8  C   UNL     1     116.814 120.561 139.950  1.00  0.00     0.111 A 
ATOM      9  C   UNL     1     119.037 120.994 140.876  1.00  0.00     0.094 A 
ATOM     10  C   UNL     1     117.316 119.358 139.370  1.00  0.00     0.134 A 
ATOM     11  C   UNL     1     119.531 119.843 140.263  1.00  0.00     0.123 A 
ATOM     12  C   UNL     1     118.674 119.037 139.512  1.00  0.00     0.093 A 
BRANCH   3  13
ATOM     13  C   UNL     1     115.631 124.061 142.068  1.00  0.00     0.025 A 
ATOM     14  C   UNL     1     115.455 123.955 143.456  1.00  0.00     0.016 A 
ATOM     15  C   UNL     1     115.097 125.078 144.210  1.00  0.00     0.051 A 
ATOM     16  C   UNL     1     114.898 126.316 143.582  1.00  0.00     0.157 A 
ATOM     17  C   UNL     1     115.400 125.294 141.439  1.00  0.00     0.062 A 
ATOM     18  C   UNL     1     115.042 126.421 142.188  1.00  0.00     0.158 A 
BRANCH  16  19
ATOM     19  O   UNL     1     114.553 127.436 144.335  1.00  0.00    -0.504 OA
ATOM     20  H   UNL     1     113.591 127.727 144.437  1.00  0.00     0.293 HD
ENDBRANCH  16  19
BRANCH  18  21
ATOM     21  O   UNL     1     114.829 127.633 141.529  1.00  0.00    -0.504 OA
ATOM     22  H   UNL     1     115.268 127.853 140.646  1.00  0.00     0.293 HD
ENDBRANCH  18  21
ENDBRANCH   3  13
BRANCH  10  23
ATOM     23  O   UNL     1     116.522 118.425 138.700  1.00  0.00    -0.507 OA
ATOM     24  H   UNL     1     115.689 118.001 139.093  1.00  0.00     0.293 HD
ENDBRANCH  10  23
BRANCH  11  25
ATOM     25  O   UNL     1     120.868 119.479 140.410  1.00  0.00    -0.508 OA
ATOM     26  H   UNL     1     121.475 119.950 141.071  1.00  0.00     0.293 HD
ENDBRANCH  11  25
ENDBRANCH   1   2
BRANCH   1  27
ATOM     27  C   UNL     1     112.536 122.223 140.694  1.00  0.00     0.339 C 
ATOM     28  C   UNL     1     111.483 122.433 139.574  1.00  0.00     0.214 C 
ATOM     29  O   UNL     1     112.094 122.745 141.941  1.00  0.00    -0.332 OA
ATOM     30  C   UNL     1     111.031 123.903 139.491  1.00  0.00     0.180 C 
ATOM     31  C   UNL     1     111.856 124.141 141.871  1.00  0.00     0.179 C 
ATOM     32  C   UNL     1     110.684 124.431 140.904  1.00  0.00     0.177 C 
BRANCH  28  33
ATOM     33  O   UNL     1     110.379 121.579 139.754  1.00  0.00    -0.384 OA
ATOM     34  H   UNL     1     110.107 121.618 140.711  1.00  0.00     0.211 HD
ENDBRANCH  28  33
BRANCH  30  35
ATOM     35  O   UNL     1     112.056 124.655 138.886  1.00  0.00    -0.387 OA
ATOM     36  H   UNL     1     112.028 125.575 139.273  1.00  0.00     0.211 HD
ENDBRANCH  30  35
BRANCH  31  37
ATOM     37  C   UNL     1     111.561 124.639 143.296  1.00  0.00     0.191 C 
BRANCH  37  38
ATOM     38  O   UNL     1     111.889 123.672 144.251  1.00  0.00    -0.394 OA
ATOM     39  H   UNL     1     112.877 123.623 144.281  1.00  0.00     0.210 HD
ENDBRANCH  37  38
ENDBRANCH  31  37
BRANCH  32  40
ATOM     40  O   UNL     1     110.410 125.812 140.851  1.00  0.00    -0.387 OA
ATOM     41  H   UNL     1     110.205 126.030 139.904  1.00  0.00     0.211 HD
ENDBRANCH  32  40
ENDBRANCH   1  27
TORSDOF 12
ENDMDL
MODEL 4
REMARK VINA RESULT:    -6.779      6.816      9.778
REMARK INTER + INTRA:         -11.679
REMARK INTER:                 -10.189
REMARK INTRA:                  -1.490
REMARK UNBOUND:                -1.729
REMARK SMILES O=c1c(O[C@H]2O[C@H](CO)[C@@H](O)[C@@H](O)[C@@H]2O)c(-c2ccc(O)c(O)c2)oc2cc(O)cc(O)c12
REMARK SMILES IDX 4 1 3 2 16 3 25 4 2 5 26 6 1 7 33 8 27 9 31 10 28 11 30 12
REMARK SMILES IDX 17 13 18 14 19 15 20 16 24 17 22 18 21 19 23 21 32 23 29 25
REMARK SMILES IDX 5 27 14 28 6 29 12 30 7 31 10 32 15 33 13 35 8 37 9 38 11 40
REMARK H PARENT 21 20 23 22 32 24 29 26 15 34 13 36 9 39 11 41
REMARK Flexibility Score: inf
ROOT
ATOM      1  O   UNL     1     116.800 117.363 136.796  1.00  0.00    -0.454 OA
ENDROOT
BRANCH   1   2
ATOM      2  C   UNL     1     116.892 116.491 135.689  1.00  0.00     0.214 A 
ATOM      3  C   UNL     1     115.698 116.136 135.030  1.00  0.00     0.180 A 
ATOM      4  O   UNL     1     115.712 115.224 134.067  1.00  0.00    -0.452 OA
ATOM      5  C   UNL     1     118.102 115.918 135.231  1.00  0.00     0.239 A 
ATOM      6  C   UNL     1     116.821 114.657 133.613  1.00  0.00     0.146 A 
ATOM      7  O   UNL     1     119.179 116.175 135.826  1.00  0.00    -0.285 OA
ATOM      8  C   UNL     1     118.086 115.018 134.135  1.00  0.00     0.111 A 
ATOM      9  C   UNL     1     116.715 113.698 132.597  1.00  0.00     0.094 A 
ATOM     10  C   UNL     1     119.253 114.441 133.553  1.00  0.00     0.134 A 
ATOM     11  C   UNL     1     117.859 113.100 132.069  1.00  0.00     0.123 A 
ATOM     12  C   UNL     1     119.116 113.469 132.550  1.00  0.00     0.093 A 
BRANCH   3  13
ATOM     13  C   UNL     1     114.397 116.722 135.410  1.00  0.00     0.025 A 
ATOM     14  C   UNL     1     114.040 117.991 134.928  1.00  0.00     0.016 A 
ATOM     15  C   UNL     1     112.817 118.564 135.287  1.00  0.00     0.051 A 
ATOM     16  C   UNL     1     111.940 117.880 136.142  1.00  0.00     0.157 A 
ATOM     17  C   UNL     1     113.533 116.055 136.292  1.00  0.00     0.062 A 
ATOM     18  C   UNL     1     112.306 116.623 136.654  1.00  0.00     0.158 A 
BRANCH  16  19
ATOM     19  O   UNL     1     110.716 118.447 136.490  1.00  0.00    -0.504 OA
ATOM     20  H   UNL     1     110.011 117.918 136.983  1.00  0.00     0.293 HD
ENDBRANCH  16  19
BRANCH  18  21
ATOM     21  O   UNL     1     111.467 115.927 137.526  1.00  0.00    -0.504 OA
ATOM     22  H   UNL     1     111.168 116.313 138.411  1.00  0.00     0.293 HD
ENDBRANCH  18  21
ENDBRANCH   3  13
BRANCH  10  23
ATOM     23  O   UNL     1     120.556 114.820 133.877  1.00  0.00    -0.507 OA
ATOM     24  H   UNL     1     121.267 114.181 134.216  1.00  0.00     0.293 HD
ENDBRANCH  10  23
BRANCH  11  25
ATOM     25  O   UNL     1     117.760 112.155 131.050  1.00  0.00    -0.508 OA
ATOM     26  H   UNL     1     117.546 111.184 131.249  1.00  0.00     0.293 HD
ENDBRANCH  11  25
ENDBRANCH   1   2
BRANCH   1  27
ATOM     27  C   UNL     1     116.957 117.026 138.179  1.00  0.00     0.339 C 
ATOM     28  C   UNL     1     115.635 117.288 138.947  1.00  0.00     0.214 C 
ATOM     29  O   UNL     1     118.054 117.718 138.761  1.00  0.00    -0.332 OA
ATOM     30  C   UNL     1     115.375 118.795 139.128  1.00  0.00     0.180 C 
ATOM     31  C   UNL     1     117.855 119.122 138.749  1.00  0.00     0.179 C 
ATOM     32  C   UNL     1     116.654 119.494 139.650  1.00  0.00     0.177 C 
BRANCH  28  33
ATOM     33  O   UNL     1     115.636 116.627 140.190  1.00  0.00    -0.384 OA
ATOM     34  H   UNL     1     115.973 117.260 140.881  1.00  0.00     0.211 HD
ENDBRANCH  28  33
BRANCH  30  35
ATOM     35  O   UNL     1     114.949 119.329 137.897  1.00  0.00    -0.387 OA
ATOM     36  H   UNL     1     114.879 120.319 138.002  1.00  0.00     0.211 HD
ENDBRANCH  30  35
BRANCH  31  37
ATOM     37  C   UNL     1     119.158 119.785 139.228  1.00  0.00     0.191 C 
BRANCH  37  38
ATOM     38  O   UNL     1     119.008 120.336 140.504  1.00  0.00    -0.394 OA
ATOM     39  H   UNL     1     118.358 121.076 140.423  1.00  0.00     0.210 HD
ENDBRANCH  37  38
ENDBRANCH  31  37
BRANCH  32  40
ATOM     40  O   UNL     1     116.464 120.890 139.678  1.00  0.00    -0.387 OA
ATOM     41  H   UNL     1     115.757 121.073 140.351  1.00  0.00     0.211 HD
ENDBRANCH  32  40
ENDBRANCH   1  27
TORSDOF 12
ENDMDL
MODEL 5
REMARK VINA RESULT:    -6.763      3.461      7.900
REMARK INTER + INTRA:         -11.655
REMARK INTER:                 -10.092
REMARK INTRA:                  -1.563
REMARK UNBOUND:                -1.729
REMARK SMILES O=c1c(O[C@H]2O[C@H](CO)[C@@H](O)[C@@H](O)[C@@H]2O)c(-c2ccc(O)c(O)c2)oc2cc(O)cc(O)c12
REMARK SMILES IDX 4 1 3 2 16 3 25 4 2 5 26 6 1 7 33 8 27 9 31 10 28 11 30 12
REMARK SMILES IDX 17 13 18 14 19 15 20 16 24 17 22 18 21 19 23 21 32 23 29 25
REMARK SMILES IDX 5 27 14 28 6 29 12 30 7 31 10 32 15 33 13 35 8 37 9 38 11 40
REMARK H PARENT 21 20 23 22 32 24 29 26 15 34 13 36 9 39 11 41
REMARK Flexibility Score: inf
ROOT
ATOM      1  O   UNL     1     118.090 120.295 139.571  1.00  0.00    -0.454 OA
ENDROOT
BRANCH   1   2
ATOM      2  C   UNL     1     117.151 120.787 140.502  1.00  0.00     0.214 A 
ATOM      3  C   UNL     1     115.786 120.545 140.252  1.00  0.00     0.180 A 
ATOM      4  O   UNL     1     114.856 121.091 141.024  1.00  0.00    -0.452 OA
ATOM      5  C   UNL     1     117.494 121.546 141.647  1.00  0.00     0.239 A 
ATOM      6  C   UNL     1     115.133 121.815 142.099  1.00  0.00     0.146 A 
ATOM      7  O   UNL     1     118.698 121.823 141.875  1.00  0.00    -0.285 OA
ATOM      8  C   UNL     1     116.472 122.034 142.501  1.00  0.00     0.111 A 
ATOM      9  C   UNL     1     114.069 122.351 142.837  1.00  0.00     0.094 A 
ATOM     10  C   UNL     1     116.711 122.747 143.713  1.00  0.00     0.134 A 
ATOM     11  C   UNL     1     114.315 123.092 143.993  1.00  0.00     0.123 A 
ATOM     12  C   UNL     1     115.628 123.289 144.421  1.00  0.00     0.093 A 
BRANCH   3  13
ATOM     13  C   UNL     1     115.340 119.722 139.108  1.00  0.00     0.025 A 
ATOM     14  C   UNL     1     114.894 120.349 137.935  1.00  0.00     0.016 A 
ATOM     15  C   UNL     1     114.459 119.584 136.848  1.00  0.00     0.051 A 
ATOM     16  C   UNL     1     114.453 118.184 136.926  1.00  0.00     0.157 A 
ATOM     17  C   UNL     1     115.302 118.322 139.196  1.00  0.00     0.062 A 
ATOM     18  C   UNL     1     114.869 117.551 138.111  1.00  0.00     0.158 A 
BRANCH  16  19
ATOM     19  O   UNL     1     114.031 117.423 135.838  1.00  0.00    -0.504 OA
ATOM     20  H   UNL     1     114.628 116.723 135.422  1.00  0.00     0.293 HD
ENDBRANCH  16  19
BRANCH  18  21
ATOM     21  O   UNL     1     114.853 116.160 138.230  1.00  0.00    -0.504 OA
ATOM     22  H   UNL     1     114.206 115.677 138.836  1.00  0.00     0.293 HD
ENDBRANCH  18  21
ENDBRANCH   3  13
BRANCH  10  23
ATOM     23  O   UNL     1     117.973 122.904 144.290  1.00  0.00    -0.507 OA
ATOM     24  H   UNL     1     118.689 122.185 144.294  1.00  0.00     0.293 HD
ENDBRANCH  10  23
BRANCH  11  25
ATOM     25  O   UNL     1     113.260 123.617 144.736  1.00  0.00    -0.508 OA
ATOM     26  H   UNL     1     113.302 124.551 145.127  1.00  0.00     0.293 HD
ENDBRANCH  11  25
ENDBRANCH   1   2
BRANCH   1  27
ATOM     27  C   UNL     1     119.176 119.397 139.829  1.00  0.00     0.339 C 
ATOM     28  C   UNL     1     120.519 120.042 139.399  1.00  0.00     0.214 C 
ATOM     29  O   UNL     1     118.968 118.138 139.201  1.00  0.00    -0.332 OA
ATOM     30  C   UNL     1     120.655 120.098 137.866  1.00  0.00     0.180 C 
ATOM     31  C   UNL     1     118.922 118.256 137.789  1.00  0.00     0.179 C 
ATOM     32  C   UNL     1     120.296 118.723 137.252  1.00  0.00     0.177 C 
BRANCH  28  33
ATOM     33  O   UNL     1     121.610 119.364 139.974  1.00  0.00    -0.384 OA
ATOM     34  H   UNL     1     121.361 119.101 140.901  1.00  0.00     0.211 HD
ENDBRANCH  28  33
BRANCH  30  35
ATOM     35  O   UNL     1     119.824 121.125 137.379  1.00  0.00    -0.387 OA
ATOM     36  H   UNL     1     119.069 121.237 138.022  1.00  0.00     0.211 HD
ENDBRANCH  30  35
BRANCH  31  37
ATOM     37  C   UNL     1     118.518 116.888 137.216  1.00  0.00     0.191 C 
BRANCH  37  38
ATOM     38  O   UNL     1     117.963 116.067 138.203  1.00  0.00    -0.394 OA
ATOM     39  H   UNL     1     118.718 115.637 138.676  1.00  0.00     0.210 HD
ENDBRANCH  37  38
ENDBRANCH  31  37
BRANCH  32  40
ATOM     40  O   UNL     1     120.278 118.812 135.846  1.00  0.00    -0.387 OA
ATOM     41  H   UNL     1     120.950 119.497 135.591  1.00  0.00     0.211 HD
ENDBRANCH  32  40
ENDBRANCH   1  27
TORSDOF 12
ENDMDL
MODEL 6
REMARK VINA RESULT:    -6.744      1.836      5.597
REMARK INTER + INTRA:         -11.628
REMARK INTER:                 -10.457
REMARK INTRA:                  -1.171
REMARK UNBOUND:                -1.729
REMARK SMILES O=c1c(O[C@H]2O[C@H](CO)[C@@H](O)[C@@H](O)[C@@H]2O)c(-c2ccc(O)c(O)c2)oc2cc(O)cc(O)c12
REMARK SMILES IDX 4 1 3 2 16 3 25 4 2 5 26 6 1 7 33 8 27 9 31 10 28 11 30 12
REMARK SMILES IDX 17 13 18 14 19 15 20 16 24 17 22 18 21 19 23 21 32 23 29 25
REMARK SMILES IDX 5 27 14 28 6 29 12 30 7 31 10 32 15 33 13 35 8 37 9 38 11 40
REMARK H PARENT 21 20 23 22 32 24 29 26 15 34 13 36 9 39 11 41
REMARK Flexibility Score: inf
ROOT
ATOM      1  O   UNL     1     114.521 123.364 141.154  1.00  0.00    -0.454 OA
ENDROOT
BRANCH   1   2
ATOM      2  C   UNL     1     114.821 122.196 140.419  1.00  0.00     0.214 A 
ATOM      3  C   UNL     1     113.819 121.671 139.579  1.00  0.00     0.180 A 
ATOM      4  O   UNL     1     114.002 120.510 138.964  1.00  0.00    -0.452 OA
ATOM      5  C   UNL     1     116.049 121.498 140.510  1.00  0.00     0.239 A 
ATOM      6  C   UNL     1     115.132 119.820 139.029  1.00  0.00     0.146 A 
ATOM      7  O   UNL     1     116.946 121.912 141.286  1.00  0.00    -0.285 OA
ATOM      8  C   UNL     1     116.240 120.309 139.762  1.00  0.00     0.111 A 
ATOM      9  C   UNL     1     115.210 118.599 138.345  1.00  0.00     0.094 A 
ATOM     10  C   UNL     1     117.459 119.568 139.728  1.00  0.00     0.134 A 
ATOM     11  C   UNL     1     116.392 117.857 138.360  1.00  0.00     0.123 A 
ATOM     12  C   UNL     1     117.503 118.340 139.052  1.00  0.00     0.093 A 
BRANCH   3  13
ATOM     13  C   UNL     1     112.526 122.360 139.387  1.00  0.00     0.025 A 
ATOM     14  C   UNL     1     112.420 123.381 138.431  1.00  0.00     0.016 A 
ATOM     15  C   UNL     1     111.206 124.049 138.244  1.00  0.00     0.051 A 
ATOM     16  C   UNL     1     110.088 123.712 139.021  1.00  0.00     0.157 A 
ATOM     17  C   UNL     1     111.415 122.047 140.185  1.00  0.00     0.062 A 
ATOM     18  C   UNL     1     110.197 122.712 140.002  1.00  0.00     0.158 A 
BRANCH  16  19
ATOM     19  O   UNL     1     108.875 124.370 138.826  1.00  0.00    -0.504 OA
ATOM     20  H   UNL     1     108.051 124.125 139.356  1.00  0.00     0.293 HD
ENDBRANCH  16  19
BRANCH  18  21
ATOM     21  O   UNL     1     109.110 122.369 140.808  1.00  0.00    -0.504 OA
ATOM     22  H   UNL     1     108.391 121.729 140.501  1.00  0.00     0.293 HD
ENDBRANCH  18  21
ENDBRANCH   3  13
BRANCH  10  23
ATOM     23  O   UNL     1     118.658 120.015 140.287  1.00  0.00    -0.507 OA
ATOM     24  H   UNL     1     118.743 120.390 141.225  1.00  0.00     0.293 HD
ENDBRANCH  10  23
BRANCH  11  25
ATOM     25  O   UNL     1     116.478 116.648 137.673  1.00  0.00    -0.508 OA
ATOM     26  H   UNL     1     117.321 116.381 137.176  1.00  0.00     0.293 HD
ENDBRANCH  11  25
ENDBRANCH   1   2
BRANCH   1  27
ATOM     27  C   UNL     1     113.825 123.446 142.403  1.00  0.00     0.339 C 
ATOM     28  C   UNL     1     113.502 124.925 142.740  1.00  0.00     0.214 C 
ATOM     29  O   UNL     1     114.555 122.812 143.446  1.00  0.00    -0.332 OA
ATOM     30  C   UNL     1     114.766 125.701 143.155  1.00  0.00     0.180 C 
ATOM     31  C   UNL     1     115.798 123.451 143.680  1.00  0.00     0.179 C 
ATOM     32  C   UNL     1     115.565 124.888 144.203  1.00  0.00     0.177 C 
BRANCH  28  33
ATOM     33  O   UNL     1     112.513 125.009 143.738  1.00  0.00    -0.384 OA
ATOM     34  H   UNL     1     112.956 125.242 144.599  1.00  0.00     0.211 HD
ENDBRANCH  28  33
BRANCH  30  35
ATOM     35  O   UNL     1     115.529 125.966 142.001  1.00  0.00    -0.387 OA
ATOM     36  H   UNL     1     115.515 126.952 141.848  1.00  0.00     0.211 HD
ENDBRANCH  30  35
BRANCH  31  37
ATOM     37  C   UNL     1     116.583 122.595 144.688  1.00  0.00     0.191 C 
BRANCH  37  38
ATOM     38  O   UNL     1     117.961 122.802 144.567  1.00  0.00    -0.394 OA
ATOM     39  H   UNL     1     118.085 123.511 143.889  1.00  0.00     0.210 HD
ENDBRANCH  37  38
ENDBRANCH  31  37
BRANCH  32  40
ATOM     40  O   UNL     1     116.792 125.526 144.475  1.00  0.00    -0.387 OA
ATOM     41  H   UNL     1     117.008 126.086 143.684  1.00  0.00     0.211 HD
ENDBRANCH  32  40
ENDBRANCH   1  27
TORSDOF 12
ENDMDL
MODEL 7
REMARK VINA RESULT:    -6.648      2.307      5.429
REMARK INTER + INTRA:         -11.487
REMARK INTER:                  -9.878
REMARK INTRA:                  -1.609
REMARK UNBOUND:                -1.729
REMARK SMILES O=c1c(O[C@H]2O[C@H](CO)[C@@H](O)[C@@H](O)[C@@H]2O)c(-c2ccc(O)c(O)c2)oc2cc(O)cc(O)c12
REMARK SMILES IDX 4 1 3 2 16 3 25 4 2 5 26 6 1 7 33 8 27 9 31 10 28 11 30 12
REMARK SMILES IDX 17 13 18 14 19 15 20 16 24 17 22 18 21 19 23 21 32 23 29 25
REMARK SMILES IDX 5 27 14 28 6 29 12 30 7 31 10 32 15 33 13 35 8 37 9 38 11 40
REMARK H PARENT 21 20 23 22 32 24 29 26 15 34 13 36 9 39 11 41
REMARK Flexibility Score: inf
ROOT
ATOM      1  O   UNL     1     114.638 122.588 141.612  1.00  0.00    -0.454 OA
ENDROOT
BRANCH   1   2
ATOM      2  C   UNL     1     114.673 121.808 140.436  1.00  0.00     0.214 A 
ATOM      3  C   UNL     1     113.970 122.280 139.310  1.00  0.00     0.180 A 
ATOM      4  O   UNL     1     113.866 121.528 138.223  1.00  0.00    -0.452 OA
ATOM      5  C   UNL     1     115.334 120.560 140.335  1.00  0.00     0.239 A 
ATOM      6  C   UNL     1     114.461 120.352 138.089  1.00  0.00     0.146 A 
ATOM      7  O   UNL     1     115.931 120.086 141.334  1.00  0.00    -0.285 OA
ATOM      8  C   UNL     1     115.277 119.829 139.121  1.00  0.00     0.111 A 
ATOM      9  C   UNL     1     114.273 119.639 136.897  1.00  0.00     0.094 A 
ATOM     10  C   UNL     1     115.963 118.600 138.890  1.00  0.00     0.134 A 
ATOM     11  C   UNL     1     114.907 118.411 136.701  1.00  0.00     0.123 A 
ATOM     12  C   UNL     1     115.741 117.898 137.696  1.00  0.00     0.093 A 
BRANCH   3  13
ATOM     13  C   UNL     1     113.292 123.593 139.312  1.00  0.00     0.025 A 
ATOM     14  C   UNL     1     113.953 124.715 138.789  1.00  0.00     0.016 A 
ATOM     15  C   UNL     1     113.330 125.966 138.793  1.00  0.00     0.051 A 
ATOM     16  C   UNL     1     112.043 126.113 139.331  1.00  0.00     0.157 A 
ATOM     17  C   UNL     1     112.019 123.749 139.880  1.00  0.00     0.062 A 
ATOM     18  C   UNL     1     111.389 124.999 139.885  1.00  0.00     0.158 A 
BRANCH  16  19
ATOM     19  O   UNL     1     111.418 127.358 139.323  1.00  0.00    -0.504 OA
ATOM     20  H   UNL     1     111.029 127.747 138.477  1.00  0.00     0.293 HD
ENDBRANCH  16  19
BRANCH  18  21
ATOM     21  O   UNL     1     110.118 125.115 140.450  1.00  0.00    -0.504 OA
ATOM     22  H   UNL     1     109.977 125.381 141.415  1.00  0.00     0.293 HD
ENDBRANCH  18  21
ENDBRANCH   3  13
BRANCH  10  23
ATOM     23  O   UNL     1     116.904 118.056 139.766  1.00  0.00    -0.507 OA
ATOM     24  H   UNL     1     117.330 118.567 140.532  1.00  0.00     0.293 HD
ENDBRANCH  10  23
BRANCH  11  25
ATOM     25  O   UNL     1     114.733 117.705 135.514  1.00  0.00    -0.508 OA
ATOM     26  H   UNL     1     115.240 116.846 135.330  1.00  0.00     0.293 HD
ENDBRANCH  11  25
ENDBRANCH   1   2
BRANCH   1  27
ATOM     27  C   UNL     1     115.733 123.274 142.230  1.00  0.00     0.339 C 
ATOM     28  C   UNL     1     115.798 122.929 143.740  1.00  0.00     0.214 C 
ATOM     29  O   UNL     1     115.657 124.677 142.010  1.00  0.00    -0.332 OA
ATOM     30  C   UNL     1     114.659 123.606 144.526  1.00  0.00     0.180 C 
ATOM     31  C   UNL     1     114.498 125.240 142.600  1.00  0.00     0.179 C 
ATOM     32  C   UNL     1     114.567 125.102 144.139  1.00  0.00     0.177 C 
BRANCH  28  33
ATOM     33  O   UNL     1     117.051 123.270 144.282  1.00  0.00    -0.384 OA
ATOM     34  H   UNL     1     116.901 123.722 145.157  1.00  0.00     0.211 HD
ENDBRANCH  28  33
BRANCH  30  35
ATOM     35  O   UNL     1     113.459 122.919 144.259  1.00  0.00    -0.387 OA
ATOM     36  H   UNL     1     113.403 122.776 143.273  1.00  0.00     0.211 HD
ENDBRANCH  30  35
BRANCH  31  37
ATOM     37  C   UNL     1     114.412 126.710 142.159  1.00  0.00     0.191 C 
BRANCH  37  38
ATOM     38  O   UNL     1     115.266 127.518 142.916  1.00  0.00    -0.394 OA
ATOM     39  H   UNL     1     116.015 127.777 142.325  1.00  0.00     0.210 HD
ENDBRANCH  37  38
ENDBRANCH  31  37
BRANCH  32  40
ATOM     40  O   UNL     1     113.438 125.689 144.744  1.00  0.00    -0.387 OA
ATOM     41  H   UNL     1     112.689 125.044 144.645  1.00  0.00     0.211 HD
ENDBRANCH  32  40
ENDBRANCH   1  27
TORSDOF 12
ENDMDL
MODEL 8
REMARK VINA RESULT:    -6.641      7.378     11.083
REMARK INTER + INTRA:         -11.476
REMARK INTER:                 -10.444
REMARK INTRA:                  -1.032
REMARK UNBOUND:                -1.729
REMARK SMILES O=c1c(O[C@H]2O[C@H](CO)[C@@H](O)[C@@H](O)[C@@H]2O)c(-c2ccc(O)c(O)c2)oc2cc(O)cc(O)c12
REMARK SMILES IDX 4 1 3 2 16 3 25 4 2 5 26 6 1 7 33 8 27 9 31 10 28 11 30 12
REMARK SMILES IDX 17 13 18 14 19 15 20 16 24 17 22 18 21 19 23 21 32 23 29 25
REMARK SMILES IDX 5 27 14 28 6 29 12 30 7 31 10 32 15 33 13 35 8 37 9 38 11 40
REMARK H PARENT 21 20 23 22 32 24 29 26 15 34 13 36 9 39 11 41
REMARK Flexibility Score: inf
ROOT
ATOM      1  O   UNL     1     115.289 115.949 135.125  1.00  0.00    -0.454 OA
ENDROOT
BRANCH   1   2
ATOM      2  C   UNL     1     116.644 115.599 134.936  1.00  0.00     0.214 A 
ATOM      3  C   UNL     1     117.587 116.098 135.855  1.00  0.00     0.180 A 
ATOM      4  O   UNL     1     118.884 115.905 135.655  1.00  0.00    -0.452 OA
ATOM      5  C   UNL     1     117.115 114.815 133.856  1.00  0.00     0.239 A 
ATOM      6  C   UNL     1     119.369 115.185 134.653  1.00  0.00     0.146 A 
ATOM      7  O   UNL     1     116.307 114.392 132.991  1.00  0.00    -0.285 OA
ATOM      8  C   UNL     1     118.503 114.552 133.730  1.00  0.00     0.111 A 
ATOM      9  C   UNL     1     120.759 115.056 134.533  1.00  0.00     0.094 A 
ATOM     10  C   UNL     1     119.074 113.719 132.722  1.00  0.00     0.134 A 
ATOM     11  C   UNL     1     121.310 114.280 133.512  1.00  0.00     0.123 A 
ATOM     12  C   UNL     1     120.470 113.623 132.613  1.00  0.00     0.093 A 
BRANCH   3  13
ATOM     13  C   UNL     1     117.179 116.885 137.038  1.00  0.00     0.025 A 
ATOM     14  C   UNL     1     117.602 118.216 137.164  1.00  0.00     0.016 A 
ATOM     15  C   UNL     1     117.233 118.971 138.282  1.00  0.00     0.051 A 
ATOM     16  C   UNL     1     116.448 118.398 139.293  1.00  0.00     0.157 A 
ATOM     17  C   UNL     1     116.422 116.304 138.066  1.00  0.00     0.062 A 
ATOM     18  C   UNL     1     116.048 117.054 139.187  1.00  0.00     0.158 A 
BRANCH  16  19
ATOM     19  O   UNL     1     116.071 119.153 140.401  1.00  0.00    -0.504 OA
ATOM     20  H   UNL     1     116.205 120.154 140.427  1.00  0.00     0.293 HD
ENDBRANCH  16  19
BRANCH  18  21
ATOM     21  O   UNL     1     115.286 116.447 140.187  1.00  0.00    -0.504 OA
ATOM     22  H   UNL     1     115.355 116.717 141.158  1.00  0.00     0.293 HD
ENDBRANCH  18  21
ENDBRANCH   3  13
BRANCH  10  23
ATOM     23  O   UNL     1     118.326 112.929 131.847  1.00  0.00    -0.507 OA
ATOM     24  H   UNL     1     117.601 112.284 132.142  1.00  0.00     0.293 HD
ENDBRANCH  10  23
BRANCH  11  25
ATOM     25  O   UNL     1     122.691 114.140 133.396  1.00  0.00    -0.508 OA
ATOM     26  H   UNL     1     123.188 114.459 132.572  1.00  0.00     0.293 HD
ENDBRANCH  11  25
ENDBRANCH   1   2
BRANCH   1  27
ATOM     27  C   UNL     1     114.335 116.294 134.114  1.00  0.00     0.339 C 
ATOM     28  C   UNL     1     114.123 117.830 134.081  1.00  0.00     0.214 C 
ATOM     29  O   UNL     1     113.111 115.594 134.295  1.00  0.00    -0.332 OA
ATOM     30  C   UNL     1     113.319 118.318 135.300  1.00  0.00     0.180 C 
ATOM     31  C   UNL     1     112.484 115.939 135.519  1.00  0.00     0.179 C 
ATOM     32  C   UNL     1     112.067 117.429 135.499  1.00  0.00     0.177 C 
BRANCH  28  33
ATOM     33  O   UNL     1     113.502 118.227 132.881  1.00  0.00    -0.384 OA
ATOM     34  H   UNL     1     113.215 117.408 132.392  1.00  0.00     0.211 HD
ENDBRANCH  28  33
BRANCH  30  35
ATOM     35  O   UNL     1     114.161 118.300 136.429  1.00  0.00    -0.387 OA
ATOM     36  H   UNL     1     113.599 118.077 137.224  1.00  0.00     0.211 HD
ENDBRANCH  30  35
BRANCH  31  37
ATOM     37  C   UNL     1     111.275 115.008 135.706  1.00  0.00     0.191 C 
BRANCH  37  38
ATOM     38  O   UNL     1     110.779 115.075 137.012  1.00  0.00    -0.394 OA
ATOM     39  H   UNL     1     110.626 114.144 137.309  1.00  0.00     0.210 HD
ENDBRANCH  37  38
ENDBRANCH  31  37
BRANCH  32  40
ATOM     40  O   UNL     1     111.410 117.779 136.695  1.00  0.00    -0.387 OA
ATOM     41  H   UNL     1     112.066 118.277 137.250  1.00  0.00     0.211 HD
ENDBRANCH  32  40
ENDBRANCH   1  27
TORSDOF 12
ENDMDL
MODEL 9
REMARK VINA RESULT:    -6.522      3.036      3.317
REMARK INTER + INTRA:         -11.302
REMARK INTER:                  -9.578
REMARK INTRA:                  -1.724
REMARK UNBOUND:                -1.729
REMARK SMILES O=c1c(O[C@H]2O[C@H](CO)[C@@H](O)[C@@H](O)[C@@H]2O)c(-c2ccc(O)c(O)c2)oc2cc(O)cc(O)c12
REMARK SMILES IDX 4 1 3 2 16 3 25 4 2 5 26 6 1 7 33 8 27 9 31 10 28 11 30 12
REMARK SMILES IDX 17 13 18 14 19 15 20 16 24 17 22 18 21 19 23 21 32 23 29 25
REMARK SMILES IDX 5 27 14 28 6 29 12 30 7 31 10 32 15 33 13 35 8 37 9 38 11 40
REMARK H PARENT 21 20 23 22 32 24 29 26 15 34 13 36 9 39 11 41
REMARK Flexibility Score: inf
ROOT
ATOM      1  O   UNL     1     114.357 124.871 141.474  1.00  0.00    -0.454 OA
ENDROOT
BRANCH   1   2
ATOM      2  C   UNL     1     114.156 125.522 140.238  1.00  0.00     0.214 A 
ATOM      3  C   UNL     1     114.830 125.015 139.109  1.00  0.00     0.180 A 
ATOM      4  O   UNL     1     114.778 125.661 137.952  1.00  0.00    -0.452 OA
ATOM      5  C   UNL     1     113.356 126.677 140.073  1.00  0.00     0.239 A 
ATOM      6  C   UNL     1     114.048 126.750 137.756  1.00  0.00     0.146 A 
ATOM      7  O   UNL     1     112.778 127.185 141.066  1.00  0.00    -0.285 OA
ATOM      8  C   UNL     1     113.250 127.285 138.795  1.00  0.00     0.111 A 
ATOM      9  C   UNL     1     114.076 127.355 136.493  1.00  0.00     0.094 A 
ATOM     10  C   UNL     1     112.418 128.408 138.506  1.00  0.00     0.134 A 
ATOM     11  C   UNL     1     113.298 128.484 136.234  1.00  0.00     0.123 A 
ATOM     12  C   UNL     1     112.481 129.005 137.238  1.00  0.00     0.093 A 
BRANCH   3  13
ATOM     13  C   UNL     1     115.648 123.786 139.180  1.00  0.00     0.025 A 
ATOM     14  C   UNL     1     115.072 122.550 138.850  1.00  0.00     0.016 A 
ATOM     15  C   UNL     1     115.830 121.377 138.921  1.00  0.00     0.051 A 
ATOM     16  C   UNL     1     117.168 121.425 139.336  1.00  0.00     0.157 A 
ATOM     17  C   UNL     1     116.978 123.827 139.625  1.00  0.00     0.062 A 
ATOM     18  C   UNL     1     117.742 122.656 139.698  1.00  0.00     0.158 A 
BRANCH  16  19
ATOM     19  O   UNL     1     117.926 120.257 139.395  1.00  0.00    -0.504 OA
ATOM     20  H   UNL     1     118.142 119.726 138.564  1.00  0.00     0.293 HD
ENDBRANCH  16  19
BRANCH  18  21
ATOM     21  O   UNL     1     119.064 122.736 140.137  1.00  0.00    -0.504 OA
ATOM     22  H   UNL     1     119.849 122.670 139.504  1.00  0.00     0.293 HD
ENDBRANCH  18  21
ENDBRANCH   3  13
BRANCH  10  23
ATOM     23  O   UNL     1     111.483 128.936 139.398  1.00  0.00    -0.507 OA
ATOM     24  H   UNL     1     111.665 129.720 140.014  1.00  0.00     0.293 HD
ENDBRANCH  10  23
BRANCH  11  25
ATOM     25  O   UNL     1     113.313 129.083 134.977  1.00  0.00    -0.508 OA
ATOM     26  H   UNL     1     114.082 129.675 134.682  1.00  0.00     0.293 HD
ENDBRANCH  11  25
ENDBRANCH   1   2
BRANCH   1  27
ATOM     27  C   UNL     1     113.538 123.851 142.058  1.00  0.00     0.339 C 
ATOM     28  C   UNL     1     113.010 124.315 143.441  1.00  0.00     0.214 C 
ATOM     29  O   UNL     1     114.234 122.614 142.145  1.00  0.00    -0.332 OA
ATOM     30  C   UNL     1     114.126 124.319 144.502  1.00  0.00     0.180 C 
ATOM     31  C   UNL     1     115.364 122.704 142.996  1.00  0.00     0.179 C 
ATOM     32  C   UNL     1     114.911 122.986 144.449  1.00  0.00     0.177 C 
BRANCH  28  33
ATOM     33  O   UNL     1     111.926 123.520 143.858  1.00  0.00    -0.384 OA
ATOM     34  H   UNL     1     111.273 124.105 144.330  1.00  0.00     0.211 HD
ENDBRANCH  28  33
BRANCH  30  35
ATOM     35  O   UNL     1     114.960 125.430 144.272  1.00  0.00    -0.387 OA
ATOM     36  H   UNL     1     115.816 125.092 143.885  1.00  0.00     0.211 HD
ENDBRANCH  30  35
BRANCH  31  37
ATOM     37  C   UNL     1     116.144 121.384 142.884  1.00  0.00     0.191 C 
BRANCH  37  38
ATOM     38  O   UNL     1     115.708 120.454 143.833  1.00  0.00    -0.394 OA
ATOM     39  H   UNL     1     116.025 120.773 144.714  1.00  0.00     0.210 HD
ENDBRANCH  37  38
ENDBRANCH  31  37
BRANCH  32  40
ATOM     40  O   UNL     1     116.021 123.043 145.315  1.00  0.00    -0.387 OA
ATOM     41  H   UNL     1     116.720 123.577 144.854  1.00  0.00     0.211 HD
ENDBRANCH  32  40
ENDBRANCH   1  27
TORSDOF 12
ENDMDL
