MODEL 1
REMARK VINA RESULT:    -4.200      0.000      0.000
REMARK INTER + INTRA:          -4.834
REMARK INTER:                  -4.691
REMARK INTRA:                  -0.143
REMARK UNBOUND:                -0.143
REMARK SMILES O=C([O-])c1ccccc1C(=O)[O-]
REMARK SMILES IDX 4 1 9 2 5 3 8 4 6 5 7 6 2 7 1 8 3 9 10 10 11 11 12 12
REMARK H PARENT
REMARK Flexibility Score: inf
ROOT
ATOM      1  C   UNL     1      13.253   1.883 -18.361  1.00  0.00     0.006 A 
ATOM      2  C   UNL     1      14.439   1.661 -19.116  1.00  0.00     0.006 A 
ATOM      3  C   UNL     1      12.704   0.818 -17.622  1.00  0.00     0.010 A 
ATOM      4  C   UNL     1      14.994   0.369 -19.155  1.00  0.00     0.010 A 
ATOM      5  C   UNL     1      13.283  -0.449 -17.658  1.00  0.00     0.001 A 
ATOM      6  C   UNL     1      14.418  -0.678 -18.433  1.00  0.00     0.001 A 
ENDROOT
BRANCH   1   7
ATOM      7  C   UNL     1      12.521   3.171 -18.366  1.00  0.00     0.072 C 
ATOM      8  O   UNL     1      12.441   3.872 -17.323  1.00  0.00    -0.545 OA
ATOM      9  O   UNL     1      11.970   3.654 -19.547  1.00  0.00    -0.545 OA
ENDBRANCH   1   7
BRANCH   2  10
ATOM     10  C   UNL     1      15.167   2.747 -19.814  1.00  0.00     0.072 C 
ATOM     11  O   UNL     1      16.124   3.345 -19.254  1.00  0.00    -0.545 OA
ATOM     12  O   UNL     1      14.843   3.072 -21.126  1.00  0.00    -0.545 OA
ENDBRANCH   2  10
TORSDOF 2
ENDMDL
MODEL 2
REMARK VINA RESULT:    -4.181      0.060      2.879
REMARK INTER + INTRA:          -4.813
REMARK INTER:                  -4.684
REMARK INTRA:                  -0.129
REMARK UNBOUND:                -0.143
REMARK SMILES O=C([O-])c1ccccc1C(=O)[O-]
REMARK SMILES IDX 4 1 9 2 5 3 8 4 6 5 7 6 2 7 1 8 3 9 10 10 11 11 12 12
REMARK H PARENT
REMARK Flexibility Score: inf
ROOT
ATOM      1  C   UNL     1      14.442   1.708 -19.084  1.00  0.00     0.006 A 
ATOM      2  C   UNL     1      13.242   1.917 -18.346  1.00  0.00     0.006 A 
ATOM      3  C   UNL     1      15.001   0.417 -19.127  1.00  0.00     0.010 A 
ATOM      4  C   UNL     1      12.684   0.843 -17.628  1.00  0.00     0.010 A 
ATOM      5  C   UNL     1      14.419  -0.637 -18.424  1.00  0.00     0.001 A 
ATOM      6  C   UNL     1      13.270  -0.423 -17.667  1.00  0.00     0.001 A 
ENDROOT
BRANCH   1   7
ATOM      7  C   UNL     1      15.176   2.802 -19.759  1.00  0.00     0.072 C 
ATOM      8  O   UNL     1      16.125   3.396 -19.180  1.00  0.00    -0.545 OA
ATOM      9  O   UNL     1      14.869   3.142 -21.071  1.00  0.00    -0.545 OA
ENDBRANCH   1   7
BRANCH   2  10
ATOM     10  C   UNL     1      12.504   3.202 -18.351  1.00  0.00     0.072 C 
ATOM     11  O   UNL     1      12.384   3.880 -17.296  1.00  0.00    -0.545 OA
ATOM     12  O   UNL     1      11.993   3.707 -19.541  1.00  0.00    -0.545 OA
ENDBRANCH   2  10
TORSDOF 2
ENDMDL
MODEL 3
REMARK VINA RESULT:    -3.825      2.207      3.767
REMARK INTER + INTRA:          -4.416
REMARK INTER:                  -4.200
REMARK INTRA:                  -0.216
REMARK UNBOUND:                -0.143
REMARK SMILES O=C([O-])c1ccccc1C(=O)[O-]
REMARK SMILES IDX 4 1 9 2 5 3 8 4 6 5 7 6 2 7 1 8 3 9 10 10 11 11 12 12
REMARK H PARENT
REMARK Flexibility Score: inf
ROOT
ATOM      1  C   UNL     1      13.677   3.616 -19.993  1.00  0.00     0.006 A 
ATOM      2  C   UNL     1      13.557   2.461 -19.168  1.00  0.00     0.006 A 
ATOM      3  C   UNL     1      13.131   4.834 -19.547  1.00  0.00     0.010 A 
ATOM      4  C   UNL     1      12.841   2.555 -17.961  1.00  0.00     0.010 A 
ATOM      5  C   UNL     1      12.444   4.908 -18.336  1.00  0.00     0.001 A 
ATOM      6  C   UNL     1      12.288   3.768 -17.550  1.00  0.00     0.001 A 
ENDROOT
BRANCH   1   7
ATOM      7  C   UNL     1      14.292   3.586 -21.340  1.00  0.00     0.072 C 
ATOM      8  O   UNL     1      13.592   3.372 -22.365  1.00  0.00    -0.545 OA
ATOM      9  O   UNL     1      15.645   3.863 -21.494  1.00  0.00    -0.545 OA
ENDBRANCH   1   7
BRANCH   2  10
ATOM     10  C   UNL     1      14.212   1.171 -19.485  1.00  0.00     0.072 C 
ATOM     11  O   UNL     1      15.336   0.882 -18.996  1.00  0.00    -0.545 OA
ATOM     12  O   UNL     1      13.559   0.233 -20.277  1.00  0.00    -0.545 OA
ENDBRANCH   2  10
TORSDOF 2
ENDMDL
MODEL 4
REMARK VINA RESULT:    -3.815      2.170      3.886
REMARK INTER + INTRA:          -4.404
REMARK INTER:                  -4.283
REMARK INTRA:                  -0.121
REMARK UNBOUND:                -0.143
REMARK SMILES O=C([O-])c1ccccc1C(=O)[O-]
REMARK SMILES IDX 4 1 9 2 5 3 8 4 6 5 7 6 2 7 1 8 3 9 10 10 11 11 12 12
REMARK H PARENT
REMARK Flexibility Score: inf
ROOT
ATOM      1  C   UNL     1      13.425   1.998 -19.450  1.00  0.00     0.006 A 
ATOM      2  C   UNL     1      13.046   3.325 -19.102  1.00  0.00     0.006 A 
ATOM      3  C   UNL     1      13.474   1.637 -20.809  1.00  0.00     0.010 A 
ATOM      4  C   UNL     1      12.668   4.219 -20.120  1.00  0.00     0.010 A 
ATOM      5  C   UNL     1      13.116   2.546 -21.804  1.00  0.00     0.001 A 
ATOM      6  C   UNL     1      12.702   3.831 -21.460  1.00  0.00     0.001 A 
ENDROOT
BRANCH   1   7
ATOM      7  C   UNL     1      13.708   0.948 -18.445  1.00  0.00     0.072 C 
ATOM      8  O   UNL     1      12.808   0.547 -17.660  1.00  0.00    -0.545 OA
ATOM      9  O   UNL     1      14.958   0.342 -18.403  1.00  0.00    -0.545 OA
ENDBRANCH   1   7
BRANCH   2  10
ATOM     10  C   UNL     1      13.095   3.841 -17.713  1.00  0.00     0.072 C 
ATOM     11  O   UNL     1      14.180   4.232 -17.209  1.00  0.00    -0.545 OA
ATOM     12  O   UNL     1      11.924   3.960 -16.972  1.00  0.00    -0.545 OA
ENDBRANCH   2  10
TORSDOF 2
ENDMDL
MODEL 5
REMARK VINA RESULT:    -3.813      2.180      3.421
REMARK INTER + INTRA:          -4.402
REMARK INTER:                  -4.280
REMARK INTRA:                  -0.123
REMARK UNBOUND:                -0.143
REMARK SMILES O=C([O-])c1ccccc1C(=O)[O-]
REMARK SMILES IDX 4 1 9 2 5 3 8 4 6 5 7 6 2 7 1 8 3 9 10 10 11 11 12 12
REMARK H PARENT
REMARK Flexibility Score: inf
ROOT
ATOM      1  C   UNL     1      13.046   3.332 -19.104  1.00  0.00     0.006 A 
ATOM      2  C   UNL     1      13.410   2.004 -19.465  1.00  0.00     0.006 A 
ATOM      3  C   UNL     1      12.668   4.235 -20.114  1.00  0.00     0.010 A 
ATOM      4  C   UNL     1      13.445   1.650 -20.827  1.00  0.00     0.010 A 
ATOM      5  C   UNL     1      12.689   3.856 -21.456  1.00  0.00     0.001 A 
ATOM      6  C   UNL     1      13.088   2.570 -21.813  1.00  0.00     0.001 A 
ENDROOT
BRANCH   1   7
ATOM      7  C   UNL     1      13.110   3.837 -17.713  1.00  0.00     0.072 C 
ATOM      8  O   UNL     1      14.200   4.230 -17.219  1.00  0.00    -0.545 OA
ATOM      9  O   UNL     1      11.949   3.948 -16.958  1.00  0.00    -0.545 OA
ENDBRANCH   1   7
BRANCH   2  10
ATOM     10  C   UNL     1      13.691   0.944 -18.468  1.00  0.00     0.072 C 
ATOM     11  O   UNL     1      12.793   0.547 -17.679  1.00  0.00    -0.545 OA
ATOM     12  O   UNL     1      14.936   0.326 -18.440  1.00  0.00    -0.545 OA
ENDBRANCH   2  10
TORSDOF 2
ENDMDL
MODEL 6
REMARK VINA RESULT:    -3.784      2.255      3.587
REMARK INTER + INTRA:          -4.370
REMARK INTER:                  -4.158
REMARK INTRA:                  -0.213
REMARK UNBOUND:                -0.143
REMARK SMILES O=C([O-])c1ccccc1C(=O)[O-]
REMARK SMILES IDX 4 1 9 2 5 3 8 4 6 5 7 6 2 7 1 8 3 9 10 10 11 11 12 12
REMARK H PARENT
REMARK Flexibility Score: inf
ROOT
ATOM      1  C   UNL     1      13.606   2.554 -19.212  1.00  0.00     0.006 A 
ATOM      2  C   UNL     1      13.721   3.703 -20.043  1.00  0.00     0.006 A 
ATOM      3  C   UNL     1      12.908   2.658 -17.995  1.00  0.00     0.010 A 
ATOM      4  C   UNL     1      13.189   4.927 -19.597  1.00  0.00     0.010 A 
ATOM      5  C   UNL     1      12.369   3.876 -17.582  1.00  0.00     0.001 A 
ATOM      6  C   UNL     1      12.520   5.011 -18.375  1.00  0.00     0.001 A 
ENDROOT
BRANCH   1   7
ATOM      7  C   UNL     1      14.249   1.258 -19.531  1.00  0.00     0.072 C 
ATOM      8  O   UNL     1      15.355   0.942 -19.017  1.00  0.00    -0.545 OA
ATOM      9  O   UNL     1      13.602   0.343 -20.353  1.00  0.00    -0.545 OA
ENDBRANCH   1   7
BRANCH   2  10
ATOM     10  C   UNL     1      14.316   3.663 -21.400  1.00  0.00     0.072 C 
ATOM     11  O   UNL     1      13.628   3.317 -22.396  1.00  0.00    -0.545 OA
ATOM     12  O   UNL     1      15.630   4.072 -21.597  1.00  0.00    -0.545 OA
ENDBRANCH   2  10
TORSDOF 2
ENDMDL
MODEL 7
REMARK VINA RESULT:    -3.727      2.421      3.965
REMARK INTER + INTRA:          -4.306
REMARK INTER:                  -4.076
REMARK INTRA:                  -0.230
REMARK UNBOUND:                -0.143
REMARK SMILES O=C([O-])c1ccccc1C(=O)[O-]
REMARK SMILES IDX 4 1 9 2 5 3 8 4 6 5 7 6 2 7 1 8 3 9 10 10 11 11 12 12
REMARK H PARENT
REMARK Flexibility Score: inf
ROOT
ATOM      1  C   UNL     1      12.921   4.631 -19.482  1.00  0.00     0.006 A 
ATOM      2  C   UNL     1      13.790   3.919 -18.607  1.00  0.00     0.006 A 
ATOM      3  C   UNL     1      12.193   5.725 -18.979  1.00  0.00     0.010 A 
ATOM      4  C   UNL     1      13.849   4.288 -17.251  1.00  0.00     0.010 A 
ATOM      5  C   UNL     1      12.283   6.086 -17.635  1.00  0.00     0.001 A 
ATOM      6  C   UNL     1      13.099   5.362 -16.770  1.00  0.00     0.001 A 
ENDROOT
BRANCH   1   7
ATOM      7  C   UNL     1      12.689   4.235 -20.890  1.00  0.00     0.072 C 
ATOM      8  O   UNL     1      13.351   4.758 -21.825  1.00  0.00    -0.545 OA
ATOM      9  O   UNL     1      11.782   3.225 -21.189  1.00  0.00    -0.545 OA
ENDBRANCH   1   7
BRANCH   2  10
ATOM     10  C   UNL     1      14.698   2.844 -19.071  1.00  0.00     0.072 C 
ATOM     11  O   UNL     1      14.333   1.638 -19.051  1.00  0.00    -0.545 OA
ATOM     12  O   UNL     1      15.945   3.162 -19.597  1.00  0.00    -0.545 OA
ENDBRANCH   2  10
TORSDOF 2
ENDMDL
MODEL 8
REMARK VINA RESULT:    -3.723      2.431      4.260
REMARK INTER + INTRA:          -4.301
REMARK INTER:                  -4.072
REMARK INTRA:                  -0.229
REMARK UNBOUND:                -0.143
REMARK SMILES O=C([O-])c1ccccc1C(=O)[O-]
REMARK SMILES IDX 4 1 9 2 5 3 8 4 6 5 7 6 2 7 1 8 3 9 10 10 11 11 12 12
REMARK H PARENT
REMARK Flexibility Score: inf
ROOT
ATOM      1  C   UNL     1      13.810   3.890 -18.649  1.00  0.00     0.006 A 
ATOM      2  C   UNL     1      12.946   4.605 -19.526  1.00  0.00     0.006 A 
ATOM      3  C   UNL     1      13.854   4.251 -17.290  1.00  0.00     0.010 A 
ATOM      4  C   UNL     1      12.209   5.693 -19.025  1.00  0.00     0.010 A 
ATOM      5  C   UNL     1      13.098   5.320 -16.810  1.00  0.00     0.001 A 
ATOM      6  C   UNL     1      12.286   6.047 -17.677  1.00  0.00     0.001 A 
ENDROOT
BRANCH   1   7
ATOM      7  C   UNL     1      14.725   2.820 -19.110  1.00  0.00     0.072 C 
ATOM      8  O   UNL     1      14.361   1.614 -19.106  1.00  0.00    -0.545 OA
ATOM      9  O   UNL     1      15.977   3.145 -19.618  1.00  0.00    -0.545 OA
ENDBRANCH   1   7
BRANCH   2  10
ATOM     10  C   UNL     1      12.728   4.215 -20.939  1.00  0.00     0.072 C 
ATOM     11  O   UNL     1      13.376   4.767 -21.868  1.00  0.00    -0.545 OA
ATOM     12  O   UNL     1      11.849   3.184 -21.250  1.00  0.00    -0.545 OA
ENDBRANCH   2  10
TORSDOF 2
ENDMDL
MODEL 9
REMARK VINA RESULT:    -3.659     10.075     11.463
REMARK INTER + INTRA:          -4.230
REMARK INTER:                  -4.002
REMARK INTRA:                  -0.228
REMARK UNBOUND:                -0.143
REMARK SMILES O=C([O-])c1ccccc1C(=O)[O-]
REMARK SMILES IDX 4 1 9 2 5 3 8 4 6 5 7 6 2 7 1 8 3 9 10 10 11 11 12 12
REMARK H PARENT
REMARK Flexibility Score: inf
ROOT
ATOM      1  C   UNL     1       3.414   4.661 -15.401  1.00  0.00     0.006 A 
ATOM      2  C   UNL     1       3.020   3.555 -16.206  1.00  0.00     0.006 A 
ATOM      3  C   UNL     1       2.473   5.243 -14.532  1.00  0.00     0.010 A 
ATOM      4  C   UNL     1       1.684   3.115 -16.158  1.00  0.00     0.010 A 
ATOM      5  C   UNL     1       1.160   4.776 -14.485  1.00  0.00     0.001 A 
ATOM      6  C   UNL     1       0.762   3.723 -15.305  1.00  0.00     0.001 A 
ENDROOT
BRANCH   1   7
ATOM      7  C   UNL     1       4.757   5.281 -15.481  1.00  0.00     0.072 C 
ATOM      8  O   UNL     1       5.645   5.009 -14.630  1.00  0.00    -0.545 OA
ATOM      9  O   UNL     1       5.074   6.121 -16.542  1.00  0.00    -0.545 OA
ENDBRANCH   1   7
BRANCH   2  10
ATOM     10  C   UNL     1       3.970   2.790 -17.049  1.00  0.00     0.072 C 
ATOM     11  O   UNL     1       4.090   3.045 -18.276  1.00  0.00    -0.545 OA
ATOM     12  O   UNL     1       4.789   1.825 -16.475  1.00  0.00    -0.545 OA
ENDBRANCH   2  10
TORSDOF 2
ENDMDL
