MODEL 1
REMARK VINA RESULT:    -6.872      0.000      0.000
REMARK INTER + INTRA:          -6.872
REMARK INTER:                  -6.872
REMARK INTRA:                   0.000
REMARK UNBOUND:                 0.000
REMARK SMILES C=C1CCC[C@@]2(C)CC(=O)C(=C(C)C)C[C@@H]12
REMARK SMILES IDX 13 1 12 2 11 3 15 4 16 5 2 6 1 7 3 8 4 9 5 10 6 11 8 12 9 13
REMARK SMILES IDX 10 14 7 15 14 16
REMARK H PARENT
REMARK Flexibility Score: inf
ROOT
ATOM      1  C   UNL     1      30.093  58.468  12.121  1.00  0.00     0.039 C 
ATOM      2  C   UNL     1      28.657  58.306  12.564  1.00  0.00    -0.070 C 
ATOM      3  C   UNL     1      27.782  57.536  11.853  1.00  0.00    -0.006 C 
ATOM      4  C   UNL     1      28.189  56.750  10.625  1.00  0.00     0.047 C 
ATOM      5  C   UNL     1      27.970  55.238  10.864  1.00  0.00     0.025 C 
ATOM      6  C   UNL     1      29.119  54.692  11.716  1.00  0.00    -0.073 C 
ATOM      7  C   UNL     1      30.325  54.505  11.151  1.00  0.00     0.008 C 
ATOM      8  C   UNL     1      28.973  54.361  13.184  1.00  0.00     0.031 C 
ATOM      9  C   UNL     1      27.559  54.569  13.714  1.00  0.00     0.005 C 
ATOM     10  C   UNL     1      26.532  54.055  12.711  1.00  0.00     0.008 C 
ATOM     11  C   UNL     1      26.505  54.891  11.394  1.00  0.00    -0.018 C 
ATOM     12  C   UNL     1      25.622  56.172  11.599  1.00  0.00     0.088 C 
ATOM     13  C   UNL     1      26.369  57.301  12.249  1.00  0.00     0.159 C 
ATOM     14  O   UNL     1      25.758  58.061  13.047  1.00  0.00    -0.295 OA
ATOM     15  C   UNL     1      25.781  54.023  10.334  1.00  0.00     0.012 C 
ATOM     16  C   UNL     1      28.249  58.999  13.843  1.00  0.00     0.039 C 
ENDROOT
TORSDOF 0
ENDMDL
MODEL 2
REMARK VINA RESULT:    -6.772      5.711      8.130
REMARK INTER + INTRA:          -6.772
REMARK INTER:                  -6.772
REMARK INTRA:                   0.000
REMARK UNBOUND:                 0.000
REMARK SMILES C=C1CCC[C@@]2(C)CC(=O)C(=C(C)C)C[C@@H]12
REMARK SMILES IDX 13 1 12 2 11 3 15 4 16 5 2 6 1 7 3 8 4 9 5 10 6 11 8 12 9 13
REMARK SMILES IDX 10 14 7 15 14 16
REMARK H PARENT
REMARK Flexibility Score: inf
ROOT
ATOM      1  C   UNL     1      30.123  47.575  15.480  1.00  0.00     0.039 C 
ATOM      2  C   UNL     1      28.688  47.794  15.056  1.00  0.00    -0.070 C 
ATOM      3  C   UNL     1      27.848  48.581  15.788  1.00  0.00    -0.006 C 
ATOM      4  C   UNL     1      28.295  49.335  17.023  1.00  0.00     0.047 C 
ATOM      5  C   UNL     1      28.125  50.857  16.810  1.00  0.00     0.025 C 
ATOM      6  C   UNL     1      29.283  51.377  15.953  1.00  0.00    -0.073 C 
ATOM      7  C   UNL     1      30.501  51.513  16.507  1.00  0.00     0.008 C 
ATOM      8  C   UNL     1      29.132  51.735  14.492  1.00  0.00     0.031 C 
ATOM      9  C   UNL     1      27.706  51.583  13.974  1.00  0.00     0.005 C 
ATOM     10  C   UNL     1      26.709  52.116  14.997  1.00  0.00     0.008 C 
ATOM     11  C   UNL     1      26.667  51.262  16.302  1.00  0.00    -0.018 C 
ATOM     12  C   UNL     1      25.739  50.014  16.088  1.00  0.00     0.088 C 
ATOM     13  C   UNL     1      26.440  48.871  15.412  1.00  0.00     0.159 C 
ATOM     14  O   UNL     1      25.795  48.145  14.609  1.00  0.00    -0.295 OA
ATOM     15  C   UNL     1      25.985  52.137  17.383  1.00  0.00     0.012 C 
ATOM     16  C   UNL     1      28.243  47.134  13.771  1.00  0.00     0.039 C 
ENDROOT
TORSDOF 0
ENDMDL
MODEL 3
REMARK VINA RESULT:    -6.633      1.235      4.027
REMARK INTER + INTRA:          -6.633
REMARK INTER:                  -6.633
REMARK INTRA:                   0.000
REMARK UNBOUND:                 0.000
REMARK SMILES C=C1CCC[C@@]2(C)CC(=O)C(=C(C)C)C[C@@H]12
REMARK SMILES IDX 13 1 12 2 11 3 15 4 16 5 2 6 1 7 3 8 4 9 5 10 6 11 8 12 9 13
REMARK SMILES IDX 10 14 7 15 14 16
REMARK H PARENT
REMARK Flexibility Score: inf
ROOT
ATOM      1  C   UNL     1      26.557  52.673  11.597  1.00  0.00     0.039 C 
ATOM      2  C   UNL     1      26.090  54.031  11.124  1.00  0.00    -0.070 C 
ATOM      3  C   UNL     1      26.241  55.140  11.906  1.00  0.00    -0.006 C 
ATOM      4  C   UNL     1      26.932  55.109  13.253  1.00  0.00     0.047 C 
ATOM      5  C   UNL     1      28.180  56.022  13.233  1.00  0.00     0.025 C 
ATOM      6  C   UNL     1      29.323  55.294  12.519  1.00  0.00    -0.073 C 
ATOM      7  C   UNL     1      29.967  54.300  13.154  1.00  0.00     0.008 C 
ATOM      8  C   UNL     1      29.762  55.630  11.111  1.00  0.00     0.031 C 
ATOM      9  C   UNL     1      28.996  56.797  10.499  1.00  0.00     0.005 C 
ATOM     10  C   UNL     1      28.810  57.909  11.525  1.00  0.00     0.008 C 
ATOM     11  C   UNL     1      27.873  57.495  12.701  1.00  0.00    -0.018 C 
ATOM     12  C   UNL     1      26.374  57.677  12.272  1.00  0.00     0.088 C 
ATOM     13  C   UNL     1      25.841  56.510  11.492  1.00  0.00     0.159 C 
ATOM     14  O   UNL     1      25.013  56.718  10.566  1.00  0.00    -0.295 OA
ATOM     15  C   UNL     1      28.128  58.504  13.848  1.00  0.00     0.012 C 
ATOM     16  C   UNL     1      25.487  54.109   9.741  1.00  0.00     0.039 C 
ENDROOT
TORSDOF 0
ENDMDL
MODEL 4
REMARK VINA RESULT:    -6.545      5.628      7.336
REMARK INTER + INTRA:          -6.545
REMARK INTER:                  -6.545
REMARK INTRA:                   0.000
REMARK UNBOUND:                 0.000
REMARK SMILES C=C1CCC[C@@]2(C)CC(=O)C(=C(C)C)C[C@@H]12
REMARK SMILES IDX 13 1 12 2 11 3 15 4 16 5 2 6 1 7 3 8 4 9 5 10 6 11 8 12 9 13
REMARK SMILES IDX 10 14 7 15 14 16
REMARK H PARENT
REMARK Flexibility Score: inf
ROOT
ATOM      1  C   UNL     1      26.566  53.413  16.178  1.00  0.00     0.039 C 
ATOM      2  C   UNL     1      26.146  52.034  16.631  1.00  0.00    -0.070 C 
ATOM      3  C   UNL     1      26.309  50.946  15.822  1.00  0.00    -0.006 C 
ATOM      4  C   UNL     1      26.968  51.024  14.462  1.00  0.00     0.047 C 
ATOM      5  C   UNL     1      28.240  50.144  14.434  1.00  0.00     0.025 C 
ATOM      6  C   UNL     1      29.380  50.887  15.139  1.00  0.00    -0.073 C 
ATOM      7  C   UNL     1      29.983  51.912  14.511  1.00  0.00     0.008 C 
ATOM      8  C   UNL     1      29.859  50.534  16.528  1.00  0.00     0.031 C 
ATOM      9  C   UNL     1      29.138  49.334  17.132  1.00  0.00     0.005 C 
ATOM     10  C   UNL     1      28.958  48.239  16.086  1.00  0.00     0.008 C 
ATOM     11  C   UNL     1      27.984  48.653  14.940  1.00  0.00    -0.018 C 
ATOM     12  C   UNL     1      26.501  48.421  15.398  1.00  0.00     0.088 C 
ATOM     13  C   UNL     1      25.955  49.557  16.215  1.00  0.00     0.159 C 
ATOM     14  O   UNL     1      25.154  49.307  17.154  1.00  0.00    -0.295 OA
ATOM     15  C   UNL     1      28.240  47.675  13.766  1.00  0.00     0.012 C 
ATOM     16  C   UNL     1      25.577  51.910  18.025  1.00  0.00     0.039 C 
ENDROOT
TORSDOF 0
ENDMDL
MODEL 5
REMARK VINA RESULT:    -6.414      2.825      5.168
REMARK INTER + INTRA:          -6.414
REMARK INTER:                  -6.414
REMARK INTRA:                   0.000
REMARK UNBOUND:                 0.000
REMARK SMILES C=C1CCC[C@@]2(C)CC(=O)C(=C(C)C)C[C@@H]12
REMARK SMILES IDX 13 1 12 2 11 3 15 4 16 5 2 6 1 7 3 8 4 9 5 10 6 11 8 12 9 13
REMARK SMILES IDX 10 14 7 15 14 16
REMARK H PARENT
REMARK Flexibility Score: inf
ROOT
ATOM      1  C   UNL     1      27.586  55.981  10.568  1.00  0.00     0.039 C 
ATOM      2  C   UNL     1      27.492  54.502  10.865  1.00  0.00    -0.070 C 
ATOM      3  C   UNL     1      26.282  53.891  11.031  1.00  0.00    -0.006 C 
ATOM      4  C   UNL     1      24.964  54.619  10.870  1.00  0.00     0.047 C 
ATOM      5  C   UNL     1      24.144  53.990   9.720  1.00  0.00     0.025 C 
ATOM      6  C   UNL     1      24.696  54.486   8.379  1.00  0.00    -0.073 C 
ATOM      7  C   UNL     1      24.428  55.743   7.984  1.00  0.00     0.008 C 
ATOM      8  C   UNL     1      25.550  53.630   7.472  1.00  0.00     0.031 C 
ATOM      9  C   UNL     1      25.758  52.213   7.993  1.00  0.00     0.005 C 
ATOM     10  C   UNL     1      24.457  51.658   8.562  1.00  0.00     0.008 C 
ATOM     11  C   UNL     1      23.992  52.406   9.849  1.00  0.00    -0.018 C 
ATOM     12  C   UNL     1      24.751  51.831  11.098  1.00  0.00     0.088 C 
ATOM     13  C   UNL     1      26.112  52.437  11.287  1.00  0.00     0.159 C 
ATOM     14  O   UNL     1      27.046  51.718  11.731  1.00  0.00    -0.295 OA
ATOM     15  C   UNL     1      22.495  52.062  10.047  1.00  0.00     0.012 C 
ATOM     16  C   UNL     1      28.788  53.729  10.932  1.00  0.00     0.039 C 
ENDROOT
TORSDOF 0
ENDMDL
MODEL 6
REMARK VINA RESULT:    -6.377      5.346      7.646
REMARK INTER + INTRA:          -6.377
REMARK INTER:                  -6.377
REMARK INTRA:                   0.000
REMARK UNBOUND:                 0.000
REMARK SMILES C=C1CCC[C@@]2(C)CC(=O)C(=C(C)C)C[C@@H]12
REMARK SMILES IDX 13 1 12 2 11 3 15 4 16 5 2 6 1 7 3 8 4 9 5 10 6 11 8 12 9 13
REMARK SMILES IDX 10 14 7 15 14 16
REMARK H PARENT
REMARK Flexibility Score: inf
ROOT
ATOM      1  C   UNL     1      29.215  47.653  15.246  1.00  0.00     0.039 C 
ATOM      2  C   UNL     1      29.403  49.043  15.810  1.00  0.00    -0.070 C 
ATOM      3  C   UNL     1      28.731  50.112  15.292  1.00  0.00    -0.006 C 
ATOM      4  C   UNL     1      27.716  49.982  14.176  1.00  0.00     0.047 C 
ATOM      5  C   UNL     1      26.325  50.452  14.662  1.00  0.00     0.025 C 
ATOM      6  C   UNL     1      25.687  49.344  15.505  1.00  0.00    -0.073 C 
ATOM      7  C   UNL     1      25.189  48.256  14.891  1.00  0.00     0.008 C 
ATOM      8  C   UNL     1      25.599  49.402  17.013  1.00  0.00     0.031 C 
ATOM      9  C   UNL     1      26.155  50.693  17.604  1.00  0.00     0.005 C 
ATOM     10  C   UNL     1      25.720  51.892  16.768  1.00  0.00     0.008 C 
ATOM     11  C   UNL     1      26.352  51.895  15.342  1.00  0.00    -0.018 C 
ATOM     12  C   UNL     1      27.799  52.501  15.407  1.00  0.00     0.088 C 
ATOM     13  C   UNL     1      28.837  51.497  15.819  1.00  0.00     0.159 C 
ATOM     14  O   UNL     1      29.806  51.874  16.531  1.00  0.00    -0.295 OA
ATOM     15  C   UNL     1      25.506  52.869  14.485  1.00  0.00     0.012 C 
ATOM     16  C   UNL     1      30.335  49.186  16.992  1.00  0.00     0.039 C 
ENDROOT
TORSDOF 0
ENDMDL
MODEL 7
REMARK VINA RESULT:    -6.355      1.914      3.636
REMARK INTER + INTRA:          -6.355
REMARK INTER:                  -6.355
REMARK INTRA:                   0.000
REMARK UNBOUND:                 0.000
REMARK SMILES C=C1CCC[C@@]2(C)CC(=O)C(=C(C)C)C[C@@H]12
REMARK SMILES IDX 13 1 12 2 11 3 15 4 16 5 2 6 1 7 3 8 4 9 5 10 6 11 8 12 9 13
REMARK SMILES IDX 10 14 7 15 14 16
REMARK H PARENT
REMARK Flexibility Score: inf
ROOT
ATOM      1  C   UNL     1      29.014  58.589  12.413  1.00  0.00     0.039 C 
ATOM      2  C   UNL     1      29.240  57.218  11.819  1.00  0.00    -0.070 C 
ATOM      3  C   UNL     1      28.605  56.119  12.320  1.00  0.00    -0.006 C 
ATOM      4  C   UNL     1      27.596  56.194  13.447  1.00  0.00     0.047 C 
ATOM      5  C   UNL     1      26.216  55.691  12.962  1.00  0.00     0.025 C 
ATOM      6  C   UNL     1      25.537  56.797  12.147  1.00  0.00    -0.073 C 
ATOM      7  C   UNL     1      25.011  57.856  12.788  1.00  0.00     0.008 C 
ATOM      8  C   UNL     1      25.438  56.768  10.639  1.00  0.00     0.031 C 
ATOM      9  C   UNL     1      26.028  55.507  10.017  1.00  0.00     0.005 C 
ATOM     10  C   UNL     1      25.636  54.278  10.831  1.00  0.00     0.008 C 
ATOM     11  C   UNL     1      26.281  54.264  12.251  1.00  0.00    -0.018 C 
ATOM     12  C   UNL     1      27.745  53.705  12.162  1.00  0.00     0.088 C 
ATOM     13  C   UNL     1      28.748  54.749  11.763  1.00  0.00     0.159 C 
ATOM     14  O   UNL     1      29.722  54.416  11.036  1.00  0.00    -0.295 OA
ATOM     15  C   UNL     1      25.472  53.247  13.095  1.00  0.00     0.012 C 
ATOM     16  C   UNL     1      30.165  57.128  10.627  1.00  0.00     0.039 C 
ENDROOT
TORSDOF 0
ENDMDL
MODEL 8
REMARK VINA RESULT:    -6.353      5.735      7.884
REMARK INTER + INTRA:          -6.353
REMARK INTER:                  -6.353
REMARK INTRA:                   0.000
REMARK UNBOUND:                 0.000
REMARK SMILES C=C1CCC[C@@]2(C)CC(=O)C(=C(C)C)C[C@@H]12
REMARK SMILES IDX 13 1 12 2 11 3 15 4 16 5 2 6 1 7 3 8 4 9 5 10 6 11 8 12 9 13
REMARK SMILES IDX 10 14 7 15 14 16
REMARK H PARENT
REMARK Flexibility Score: inf
ROOT
ATOM      1  C   UNL     1      27.606  49.995  17.044  1.00  0.00     0.039 C 
ATOM      2  C   UNL     1      27.543  51.482  16.777  1.00  0.00    -0.070 C 
ATOM      3  C   UNL     1      26.346  52.129  16.669  1.00  0.00    -0.006 C 
ATOM      4  C   UNL     1      25.015  51.435  16.869  1.00  0.00     0.047 C 
ATOM      5  C   UNL     1      24.259  52.065  18.062  1.00  0.00     0.025 C 
ATOM      6  C   UNL     1      24.847  51.529  19.370  1.00  0.00    -0.073 C 
ATOM      7  C   UNL     1      24.559  50.273  19.754  1.00  0.00     0.008 C 
ATOM      8  C   UNL     1      25.760  52.343  20.259  1.00  0.00     0.031 C 
ATOM      9  C   UNL     1      25.988  53.764  19.754  1.00  0.00     0.005 C 
ATOM     10  C   UNL     1      24.682  54.365  19.247  1.00  0.00     0.008 C 
ATOM     11  C   UNL     1      24.147  53.654  17.966  1.00  0.00    -0.018 C 
ATOM     12  C   UNL     1      24.873  54.231  16.699  1.00  0.00     0.088 C 
ATOM     13  C   UNL     1      26.208  53.591  16.446  1.00  0.00     0.159 C 
ATOM     14  O   UNL     1      27.144  54.292  15.978  1.00  0.00    -0.295 OA
ATOM     15  C   UNL     1      22.654  54.044  17.834  1.00  0.00     0.012 C 
ATOM     16  C   UNL     1      28.858  52.219  16.673  1.00  0.00     0.039 C 
ENDROOT
TORSDOF 0
ENDMDL
MODEL 9
REMARK VINA RESULT:    -6.271      3.140      6.118
REMARK INTER + INTRA:          -6.271
REMARK INTER:                  -6.271
REMARK INTRA:                   0.000
REMARK UNBOUND:                 0.000
REMARK SMILES C=C1CCC[C@@]2(C)CC(=O)C(=C(C)C)C[C@@H]12
REMARK SMILES IDX 13 1 12 2 11 3 15 4 16 5 2 6 1 7 3 8 4 9 5 10 6 11 8 12 9 13
REMARK SMILES IDX 10 14 7 15 14 16
REMARK H PARENT
REMARK Flexibility Score: inf
ROOT
ATOM      1  C   UNL     1      22.490  51.192   8.981  1.00  0.00     0.039 C 
ATOM      2  C   UNL     1      22.834  51.927  10.256  1.00  0.00    -0.070 C 
ATOM      3  C   UNL     1      24.129  52.207  10.583  1.00  0.00    -0.006 C 
ATOM      4  C   UNL     1      25.296  51.866   9.680  1.00  0.00     0.047 C 
ATOM      5  C   UNL     1      26.039  53.156   9.259  1.00  0.00     0.025 C 
ATOM      6  C   UNL     1      25.251  53.848   8.143  1.00  0.00    -0.073 C 
ATOM      7  C   UNL     1      25.281  53.334   6.901  1.00  0.00     0.008 C 
ATOM      8  C   UNL     1      24.416  55.088   8.371  1.00  0.00     0.031 C 
ATOM      9  C   UNL     1      24.482  55.610   9.802  1.00  0.00     0.005 C 
ATOM     10  C   UNL     1      25.913  55.548  10.325  1.00  0.00     0.008 C 
ATOM     11  C   UNL     1      26.431  54.087  10.495  1.00  0.00    -0.018 C 
ATOM     12  C   UNL     1      25.934  53.505  11.866  1.00  0.00     0.088 C 
ATOM     13  C   UNL     1      24.538  52.957  11.798  1.00  0.00     0.159 C 
ATOM     14  O   UNL     1      23.782  53.080  12.799  1.00  0.00    -0.295 OA
ATOM     15  C   UNL     1      27.976  54.172  10.587  1.00  0.00     0.012 C 
ATOM     16  C   UNL     1      21.681  52.368  11.128  1.00  0.00     0.039 C 
ENDROOT
TORSDOF 0
ENDMDL
