MODEL 1
REMARK VINA RESULT:    -5.903      0.000      0.000
REMARK INTER + INTRA:          -9.525
REMARK INTER:                  -8.319
REMARK INTRA:                  -1.206
REMARK UNBOUND:                -1.206
REMARK SMILES OCC1=C[C@@H](O)[C@H]2C=CO[C@@H](O[C@@H]3O[C@@H](CO)[C@@H](O)[C@@H](O)[C@@H]3O)[C@@H]12
REMARK SMILES IDX 12 1 11 2 8 3 9 4 7 5 10 6 24 7 5 8 3 9 4 10 6 11 2 13 1 14
REMARK SMILES IDX 13 16 22 17 14 18 20 19 15 20 18 21 23 22 21 24 16 26 17 27
REMARK SMILES IDX 19 29
REMARK H PARENT 6 12 1 15 23 23 21 25 17 28 19 30
REMARK Flexibility Score: inf
ROOT
ATOM      1  O   UNL     1     133.837   2.840  93.425  1.00  0.00    -0.310 OA
ENDROOT
BRANCH   1   2
ATOM      2  C   UNL     1     134.454   2.003  94.390  1.00  0.00     0.316 C 
ATOM      3  C   UNL     1     135.716  -0.241  95.543  1.00  0.00     0.018 C 
ATOM      4  C   UNL     1     136.356   0.488  94.628  1.00  0.00     0.186 C 
ATOM      5  C   UNL     1     134.202  -0.180  95.722  1.00  0.00     0.061 C 
ATOM      6  O   UNL     1     135.673   1.456  93.893  1.00  0.00    -0.472 OA
ATOM      7  C   UNL     1     133.506   0.849  94.784  1.00  0.00     0.096 C 
ATOM      8  C   UNL     1     133.545  -1.522  95.336  1.00  0.00     0.145 C 
ATOM      9  C   UNL     1     133.029  -0.004  93.635  1.00  0.00    -0.036 C 
ATOM     10  C   UNL     1     133.085  -1.298  93.937  1.00  0.00     0.007 C 
BRANCH   8  11
ATOM     11  O   UNL     1     134.435  -2.608  95.404  1.00  0.00    -0.388 OA
ATOM     12  H   UNL     1     133.945  -3.400  95.050  1.00  0.00     0.211 HD
ENDBRANCH   8  11
BRANCH   9  13
ATOM     13  C   UNL     1     132.454   0.532  92.347  1.00  0.00     0.187 C 
BRANCH  13  14
ATOM     14  O   UNL     1     131.355   1.368  92.591  1.00  0.00    -0.392 OA
ATOM     15  H   UNL     1     131.690   2.299  92.504  1.00  0.00     0.211 HD
ENDBRANCH  13  14
ENDBRANCH   9  13
ENDBRANCH   1   2
BRANCH   1  16
ATOM     16  C   UNL     1     133.798   4.213  93.802  1.00  0.00     0.286 C 
ATOM     17  C   UNL     1     132.483   4.930  93.354  1.00  0.00     0.202 C 
ATOM     18  O   UNL     1     134.103   4.369  95.186  1.00  0.00    -0.341 OA
ATOM     19  C   UNL     1     131.650   5.362  94.571  1.00  0.00     0.179 C 
ATOM     20  C   UNL     1     133.978   5.712  95.636  1.00  0.00     0.178 C 
ATOM     21  C   UNL     1     132.505   6.215  95.546  1.00  0.00     0.177 C 
BRANCH  17  22
ATOM     22  O   UNL     1     131.726   4.100  92.507  1.00  0.00    -0.385 OA
ATOM     23  H   UNL     1     130.769   4.316  92.666  1.00  0.00     0.211 HD
ENDBRANCH  17  22
BRANCH  19  24
ATOM     24  O   UNL     1     130.515   6.073  94.144  1.00  0.00    -0.387 OA
ATOM     25  H   UNL     1     129.737   5.683  94.626  1.00  0.00     0.211 HD
ENDBRANCH  19  24
BRANCH  20  26
ATOM     26  C   UNL     1     135.030   6.647  94.997  1.00  0.00     0.191 C 
BRANCH  26  27
ATOM     27  O   UNL     1     136.320   6.216  95.331  1.00  0.00    -0.394 OA
ATOM     28  H   UNL     1     136.589   6.748  96.124  1.00  0.00     0.210 HD
ENDBRANCH  26  27
ENDBRANCH  20  26
BRANCH  21  29
ATOM     29  O   UNL     1     132.436   7.593  95.259  1.00  0.00    -0.387 OA
ATOM     30  H   UNL     1     132.493   7.713  94.274  1.00  0.00     0.211 HD
ENDBRANCH  21  29
ENDBRANCH   1  16
TORSDOF 10
ENDMDL
MODEL 2
REMARK VINA RESULT:    -5.804      1.689      2.195
REMARK INTER + INTRA:          -9.385
REMARK INTER:                  -8.095
REMARK INTRA:                  -1.290
REMARK UNBOUND:                -1.206
REMARK SMILES OCC1=C[C@@H](O)[C@H]2C=CO[C@@H](O[C@@H]3O[C@@H](CO)[C@@H](O)[C@@H](O)[C@@H]3O)[C@@H]12
REMARK SMILES IDX 12 1 11 2 8 3 9 4 7 5 10 6 24 7 5 8 3 9 4 10 6 11 2 13 1 14
REMARK SMILES IDX 13 16 22 17 14 18 20 19 15 20 18 21 23 22 21 24 16 26 17 27
REMARK SMILES IDX 19 29
REMARK H PARENT 6 12 1 15 23 23 21 25 17 28 19 30
REMARK Flexibility Score: inf
ROOT
ATOM      1  O   UNL     1     132.606   3.648  94.281  1.00  0.00    -0.310 OA
ENDROOT
BRANCH   1   2
ATOM      2  C   UNL     1     133.773   3.251  94.985  1.00  0.00     0.316 C 
ATOM      3  C   UNL     1     136.255   2.032  95.541  1.00  0.00     0.018 C 
ATOM      4  C   UNL     1     136.185   3.031  94.660  1.00  0.00     0.186 C 
ATOM      5  C   UNL     1     135.026   1.239  95.975  1.00  0.00     0.061 C 
ATOM      6  O   UNL     1     134.946   3.490  94.212  1.00  0.00    -0.472 OA
ATOM      7  C   UNL     1     133.700   1.751  95.341  1.00  0.00     0.096 C 
ATOM      8  C   UNL     1     135.115  -0.225  95.494  1.00  0.00     0.145 C 
ATOM      9  C   UNL     1     133.503   0.826  94.167  1.00  0.00    -0.036 C 
ATOM     10  C   UNL     1     134.304  -0.233  94.245  1.00  0.00     0.007 C 
BRANCH   8  11
ATOM     11  O   UNL     1     136.433  -0.641  95.241  1.00  0.00    -0.388 OA
ATOM     12  H   UNL     1     136.693  -0.243  94.366  1.00  0.00     0.211 HD
ENDBRANCH   8  11
BRANCH   9  13
ATOM     13  C   UNL     1     132.459   1.008  93.093  1.00  0.00     0.187 C 
BRANCH  13  14
ATOM     14  O   UNL     1     132.928   1.839  92.064  1.00  0.00    -0.392 OA
ATOM     15  H   UNL     1     132.892   2.766  92.419  1.00  0.00     0.211 HD
ENDBRANCH  13  14
ENDBRANCH   9  13
ENDBRANCH   1   2
BRANCH   1  16
ATOM     16  C   UNL     1     132.418   5.059  94.237  1.00  0.00     0.286 C 
ATOM     17  C   UNL     1     131.703   5.537  92.932  1.00  0.00     0.202 C 
ATOM     18  O   UNL     1     131.810   5.529  95.439  1.00  0.00    -0.341 OA
ATOM     19  C   UNL     1     130.321   6.131  93.248  1.00  0.00     0.179 C 
ATOM     20  C   UNL     1     131.508   6.917  95.404  1.00  0.00     0.178 C 
ATOM     21  C   UNL     1     130.436   7.247  94.321  1.00  0.00     0.177 C 
BRANCH  17  22
ATOM     22  O   UNL     1     131.587   4.480  92.010  1.00  0.00    -0.385 OA
ATOM     23  H   UNL     1     131.992   3.678  92.434  1.00  0.00     0.211 HD
ENDBRANCH  17  22
BRANCH  19  24
ATOM     24  O   UNL     1     129.734   6.625  92.069  1.00  0.00    -0.387 OA
ATOM     25  H   UNL     1     130.410   7.215  91.641  1.00  0.00     0.211 HD
ENDBRANCH  19  24
BRANCH  20  26
ATOM     26  C   UNL     1     132.779   7.796  95.356  1.00  0.00     0.191 C 
BRANCH  26  27
ATOM     27  O   UNL     1     132.571   8.978  96.080  1.00  0.00    -0.394 OA
ATOM     28  H   UNL     1     133.271   9.611  95.773  1.00  0.00     0.210 HD
ENDBRANCH  26  27
ENDBRANCH  20  26
BRANCH  21  29
ATOM     29  O   UNL     1     130.634   8.521  93.754  1.00  0.00    -0.387 OA
ATOM     30  H   UNL     1     131.122   8.412  92.895  1.00  0.00     0.211 HD
ENDBRANCH  21  29
ENDBRANCH   1  16
TORSDOF 10
ENDMDL
MODEL 3
REMARK VINA RESULT:    -5.545      2.286      4.055
REMARK INTER + INTRA:          -9.021
REMARK INTER:                  -7.605
REMARK INTRA:                  -1.416
REMARK UNBOUND:                -1.206
REMARK SMILES OCC1=C[C@@H](O)[C@H]2C=CO[C@@H](O[C@@H]3O[C@@H](CO)[C@@H](O)[C@@H](O)[C@@H]3O)[C@@H]12
REMARK SMILES IDX 12 1 11 2 8 3 9 4 7 5 10 6 24 7 5 8 3 9 4 10 6 11 2 13 1 14
REMARK SMILES IDX 13 16 22 17 14 18 20 19 15 20 18 21 23 22 21 24 16 26 17 27
REMARK SMILES IDX 19 29
REMARK H PARENT 6 12 1 15 23 23 21 25 17 28 19 30
REMARK Flexibility Score: inf
ROOT
ATOM      1  O   UNL     1     132.302   1.442  93.611  1.00  0.00    -0.310 OA
ENDROOT
BRANCH   1   2
ATOM      2  C   UNL     1     132.393   0.475  92.575  1.00  0.00     0.316 C 
ATOM      3  C   UNL     1     131.833  -0.928  90.194  1.00  0.00     0.018 C 
ATOM      4  C   UNL     1     132.317   0.314  90.139  1.00  0.00     0.186 C 
ATOM      5  C   UNL     1     131.190  -1.498  91.455  1.00  0.00     0.061 C 
ATOM      6  O   UNL     1     132.387   1.094  91.292  1.00  0.00    -0.472 OA
ATOM      7  C   UNL     1     131.214  -0.518  92.663  1.00  0.00     0.096 C 
ATOM      8  C   UNL     1     129.685  -1.765  91.236  1.00  0.00     0.145 C 
ATOM      9  C   UNL     1     129.845   0.113  92.618  1.00  0.00    -0.036 C 
ATOM     10  C   UNL     1     129.029  -0.559  91.811  1.00  0.00     0.007 C 
BRANCH   8  11
ATOM     11  O   UNL     1     129.348  -1.923  89.880  1.00  0.00    -0.388 OA
ATOM     12  H   UNL     1     130.174  -2.227  89.416  1.00  0.00     0.211 HD
ENDBRANCH   8  11
BRANCH   9  13
ATOM     13  C   UNL     1     129.411   1.287  93.462  1.00  0.00     0.187 C 
BRANCH  13  14
ATOM     14  O   UNL     1     129.760   2.503  92.855  1.00  0.00    -0.392 OA
ATOM     15  H   UNL     1     130.252   2.267  92.025  1.00  0.00     0.211 HD
ENDBRANCH  13  14
ENDBRANCH   9  13
ENDBRANCH   1   2
BRANCH   1  16
ATOM     16  C   UNL     1     133.527   2.120  93.869  1.00  0.00     0.286 C 
ATOM     17  C   UNL     1     133.490   3.625  93.447  1.00  0.00     0.202 C 
ATOM     18  O   UNL     1     133.955   1.903  95.212  1.00  0.00    -0.341 OA
ATOM     19  C   UNL     1     133.607   4.543  94.674  1.00  0.00     0.179 C 
ATOM     20  C   UNL     1     135.121   2.642  95.551  1.00  0.00     0.178 C 
ATOM     21  C   UNL     1     134.861   4.179  95.513  1.00  0.00     0.177 C 
BRANCH  17  22
ATOM     22  O   UNL     1     132.316   3.912  92.726  1.00  0.00    -0.385 OA
ATOM     23  H   UNL     1     131.863   4.663  93.194  1.00  0.00     0.211 HD
ENDBRANCH  17  22
BRANCH  19  24
ATOM     24  O   UNL     1     133.652   5.887  94.261  1.00  0.00    -0.387 OA
ATOM     25  H   UNL     1     132.805   6.061  93.770  1.00  0.00     0.211 HD
ENDBRANCH  19  24
BRANCH  20  26
ATOM     26  C   UNL     1     136.366   2.169  94.766  1.00  0.00     0.191 C 
BRANCH  26  27
ATOM     27  O   UNL     1     137.532   2.583  95.424  1.00  0.00    -0.394 OA
ATOM     28  H   UNL     1     137.230   3.066  96.237  1.00  0.00     0.210 HD
ENDBRANCH  26  27
ENDBRANCH  20  26
BRANCH  21  29
ATOM     29  O   UNL     1     136.005   4.897  95.113  1.00  0.00    -0.387 OA
ATOM     30  H   UNL     1     136.021   4.936  94.120  1.00  0.00     0.211 HD
ENDBRANCH  21  29
ENDBRANCH   1  16
TORSDOF 10
ENDMDL
MODEL 4
REMARK VINA RESULT:    -5.499      2.018      4.487
REMARK INTER + INTRA:          -8.956
REMARK INTER:                  -7.584
REMARK INTRA:                  -1.371
REMARK UNBOUND:                -1.206
REMARK SMILES OCC1=C[C@@H](O)[C@H]2C=CO[C@@H](O[C@@H]3O[C@@H](CO)[C@@H](O)[C@@H](O)[C@@H]3O)[C@@H]12
REMARK SMILES IDX 12 1 11 2 8 3 9 4 7 5 10 6 24 7 5 8 3 9 4 10 6 11 2 13 1 14
REMARK SMILES IDX 13 16 22 17 14 18 20 19 15 20 18 21 23 22 21 24 16 26 17 27
REMARK SMILES IDX 19 29
REMARK H PARENT 6 12 1 15 23 23 21 25 17 28 19 30
REMARK Flexibility Score: inf
ROOT
ATOM      1  O   UNL     1     132.570   1.895  93.851  1.00  0.00    -0.310 OA
ENDROOT
BRANCH   1   2
ATOM      2  C   UNL     1     132.180   2.135  92.508  1.00  0.00     0.316 C 
ATOM      3  C   UNL     1     130.796   1.903  90.061  1.00  0.00     0.018 C 
ATOM      4  C   UNL     1     130.166   2.362  91.144  1.00  0.00     0.186 C 
ATOM      5  C   UNL     1     132.104   1.123  90.148  1.00  0.00     0.061 C 
ATOM      6  O   UNL     1     130.766   2.273  92.399  1.00  0.00    -0.472 OA
ATOM      7  C   UNL     1     132.646   0.976  91.599  1.00  0.00     0.096 C 
ATOM      8  C   UNL     1     131.909  -0.337  89.686  1.00  0.00     0.145 C 
ATOM      9  C   UNL     1     132.158  -0.390  92.010  1.00  0.00    -0.036 C 
ATOM     10  C   UNL     1     131.729  -1.086  90.961  1.00  0.00     0.007 C 
BRANCH   8  11
ATOM     11  O   UNL     1     130.795  -0.502  88.845  1.00  0.00    -0.388 OA
ATOM     12  H   UNL     1     131.133  -0.440  87.910  1.00  0.00     0.211 HD
ENDBRANCH   8  11
BRANCH   9  13
ATOM     13  C   UNL     1     132.245  -0.952  93.408  1.00  0.00     0.187 C 
BRANCH  13  14
ATOM     14  O   UNL     1     133.534  -0.792  93.939  1.00  0.00    -0.392 OA
ATOM     15  H   UNL     1     133.586  -1.397  94.725  1.00  0.00     0.211 HD
ENDBRANCH  13  14
ENDBRANCH   9  13
ENDBRANCH   1   2
BRANCH   1  16
ATOM     16  C   UNL     1     133.168   3.022  94.482  1.00  0.00     0.286 C 
ATOM     17  C   UNL     1     134.459   2.657  95.285  1.00  0.00     0.202 C 
ATOM     18  O   UNL     1     133.345   4.090  93.553  1.00  0.00    -0.341 OA
ATOM     19  C   UNL     1     135.701   3.309  94.657  1.00  0.00     0.179 C 
ATOM     20  C   UNL     1     134.032   5.204  94.108  1.00  0.00     0.178 C 
ATOM     21  C   UNL     1     135.496   4.840  94.502  1.00  0.00     0.177 C 
BRANCH  17  22
ATOM     22  O   UNL     1     134.620   1.261  95.362  1.00  0.00    -0.385 OA
ATOM     23  H   UNL     1     133.850   0.852  94.885  1.00  0.00     0.211 HD
ENDBRANCH  17  22
BRANCH  19  24
ATOM     24  O   UNL     1     136.834   3.030  95.443  1.00  0.00    -0.387 OA
ATOM     25  H   UNL     1     137.004   3.841  95.993  1.00  0.00     0.211 HD
ENDBRANCH  19  24
BRANCH  20  26
ATOM     26  C   UNL     1     133.214   5.909  95.214  1.00  0.00     0.191 C 
BRANCH  26  27
ATOM     27  O   UNL     1     133.528   7.275  95.244  1.00  0.00    -0.394 OA
ATOM     28  H   UNL     1     133.447   7.593  94.308  1.00  0.00     0.210 HD
ENDBRANCH  26  27
ENDBRANCH  20  26
BRANCH  21  29
ATOM     29  O   UNL     1     135.933   5.560  95.631  1.00  0.00    -0.387 OA
ATOM     30  H   UNL     1     135.661   5.061  96.447  1.00  0.00     0.211 HD
ENDBRANCH  21  29
ENDBRANCH   1  16
TORSDOF 10
ENDMDL
MODEL 5
REMARK VINA RESULT:    -5.371      2.206      6.091
REMARK INTER + INTRA:          -8.776
REMARK INTER:                  -7.338
REMARK INTRA:                  -1.438
REMARK UNBOUND:                -1.206
REMARK SMILES OCC1=C[C@@H](O)[C@H]2C=CO[C@@H](O[C@@H]3O[C@@H](CO)[C@@H](O)[C@@H](O)[C@@H]3O)[C@@H]12
REMARK SMILES IDX 12 1 11 2 8 3 9 4 7 5 10 6 24 7 5 8 3 9 4 10 6 11 2 13 1 14
REMARK SMILES IDX 13 16 22 17 14 18 20 19 15 20 18 21 23 22 21 24 16 26 17 27
REMARK SMILES IDX 19 29
REMARK H PARENT 6 12 1 15 23 23 21 25 17 28 19 30
REMARK Flexibility Score: inf
ROOT
ATOM      1  O   UNL     1     131.937   2.808  93.984  1.00  0.00    -0.310 OA
ENDROOT
BRANCH   1   2
ATOM      2  C   UNL     1     133.333   3.060  94.001  1.00  0.00     0.316 C 
ATOM      3  C   UNL     1     135.851   4.013  94.843  1.00  0.00     0.018 C 
ATOM      4  C   UNL     1     135.226   3.067  95.546  1.00  0.00     0.186 C 
ATOM      5  C   UNL     1     135.122   4.897  93.837  1.00  0.00     0.061 C 
ATOM      6  O   UNL     1     133.897   2.748  95.272  1.00  0.00    -0.472 OA
ATOM      7  C   UNL     1     133.615   4.543  93.674  1.00  0.00     0.096 C 
ATOM      8  C   UNL     1     135.099   6.367  94.306  1.00  0.00     0.145 C 
ATOM      9  C   UNL     1     132.931   5.536  94.580  1.00  0.00    -0.036 C 
ATOM     10  C   UNL     1     133.761   6.510  94.944  1.00  0.00     0.007 C 
BRANCH   8  11
ATOM     11  O   UNL     1     136.125   6.668  95.219  1.00  0.00    -0.388 OA
ATOM     12  H   UNL     1     135.890   6.211  96.071  1.00  0.00     0.211 HD
ENDBRANCH   8  11
BRANCH   9  13
ATOM     13  C   UNL     1     131.467   5.503  94.943  1.00  0.00     0.187 C 
BRANCH  13  14
ATOM     14  O   UNL     1     130.659   5.605  93.801  1.00  0.00    -0.392 OA
ATOM     15  H   UNL     1     130.430   4.674  93.540  1.00  0.00     0.211 HD
ENDBRANCH  13  14
ENDBRANCH   9  13
ENDBRANCH   1   2
BRANCH   1  16
ATOM     16  C   UNL     1     131.557   1.758  93.100  1.00  0.00     0.286 C 
ATOM     17  C   UNL     1     130.848   2.276  91.807  1.00  0.00     0.202 C 
ATOM     18  O   UNL     1     132.655   0.882  92.850  1.00  0.00    -0.341 OA
ATOM     19  C   UNL     1     131.698   1.987  90.560  1.00  0.00     0.179 C 
ATOM     20  C   UNL     1     132.357  -0.126  91.894  1.00  0.00     0.178 C 
ATOM     21  C   UNL     1     132.069   0.481  90.487  1.00  0.00     0.177 C 
BRANCH  17  22
ATOM     22  O   UNL     1     130.571   3.653  91.907  1.00  0.00    -0.385 OA
ATOM     23  H   UNL     1     131.296   4.131  91.425  1.00  0.00     0.211 HD
ENDBRANCH  17  22
BRANCH  19  24
ATOM     24  O   UNL     1     131.003   2.390  89.406  1.00  0.00    -0.387 OA
ATOM     25  H   UNL     1     130.156   2.809  89.716  1.00  0.00     0.211 HD
ENDBRANCH  19  24
BRANCH  20  26
ATOM     26  C   UNL     1     131.294  -1.126  92.404  1.00  0.00     0.191 C 
BRANCH  26  27
ATOM     27  O   UNL     1     131.381  -2.326  91.685  1.00  0.00    -0.394 OA
ATOM     28  H   UNL     1     130.701  -2.931  92.080  1.00  0.00     0.210 HD
ENDBRANCH  26  27
ENDBRANCH  20  26
BRANCH  21  29
ATOM     29  O   UNL     1     131.119  -0.274  89.771  1.00  0.00    -0.387 OA
ATOM     30  H   UNL     1     131.549  -0.619  88.944  1.00  0.00     0.211 HD
ENDBRANCH  21  29
ENDBRANCH   1  16
TORSDOF 10
ENDMDL
MODEL 6
REMARK VINA RESULT:    -5.109      2.251      5.709
REMARK INTER + INTRA:          -8.407
REMARK INTER:                  -7.130
REMARK INTRA:                  -1.277
REMARK UNBOUND:                -1.206
REMARK SMILES OCC1=C[C@@H](O)[C@H]2C=CO[C@@H](O[C@@H]3O[C@@H](CO)[C@@H](O)[C@@H](O)[C@@H]3O)[C@@H]12
REMARK SMILES IDX 12 1 11 2 8 3 9 4 7 5 10 6 24 7 5 8 3 9 4 10 6 11 2 13 1 14
REMARK SMILES IDX 13 16 22 17 14 18 20 19 15 20 18 21 23 22 21 24 16 26 17 27
REMARK SMILES IDX 19 29
REMARK H PARENT 6 12 1 15 23 23 21 25 17 28 19 30
REMARK Flexibility Score: inf
ROOT
ATOM      1  O   UNL     1     133.077   2.000  93.859  1.00  0.00    -0.310 OA
ENDROOT
BRANCH   1   2
ATOM      2  C   UNL     1     133.403   3.312  94.291  1.00  0.00     0.316 C 
ATOM      3  C   UNL     1     134.843   5.710  94.652  1.00  0.00     0.018 C 
ATOM      4  C   UNL     1     134.378   5.386  93.445  1.00  0.00     0.186 C 
ATOM      5  C   UNL     1     134.992   4.684  95.771  1.00  0.00     0.061 C 
ATOM      6  O   UNL     1     133.864   4.112  93.206  1.00  0.00    -0.472 OA
ATOM      7  C   UNL     1     134.495   3.262  95.382  1.00  0.00     0.096 C 
ATOM      8  C   UNL     1     136.479   4.463  96.125  1.00  0.00     0.145 C 
ATOM      9  C   UNL     1     135.764   2.554  94.980  1.00  0.00    -0.036 C 
ATOM     10  C   UNL     1     136.841   3.235  95.363  1.00  0.00     0.007 C 
BRANCH   8  11
ATOM     11  O   UNL     1     137.297   5.544  95.755  1.00  0.00    -0.388 OA
ATOM     12  H   UNL     1     136.953   5.875  94.882  1.00  0.00     0.211 HD
ENDBRANCH   8  11
BRANCH   9  13
ATOM     13  C   UNL     1     135.822   1.194  94.327  1.00  0.00     0.187 C 
BRANCH  13  14
ATOM     14  O   UNL     1     134.960   0.289  94.964  1.00  0.00    -0.392 OA
ATOM     15  H   UNL     1     135.415  -0.593  94.935  1.00  0.00     0.211 HD
ENDBRANCH  13  14
ENDBRANCH   9  13
ENDBRANCH   1   2
BRANCH   1  16
ATOM     16  C   UNL     1     132.110   1.967  92.815  1.00  0.00     0.286 C 
ATOM     17  C   UNL     1     131.895   0.533  92.230  1.00  0.00     0.202 C 
ATOM     18  O   UNL     1     130.905   2.617  93.216  1.00  0.00    -0.341 OA
ATOM     19  C   UNL     1     130.474   0.025  92.525  1.00  0.00     0.179 C 
ATOM     20  C   UNL     1     129.871   2.523  92.246  1.00  0.00     0.178 C 
ATOM     21  C   UNL     1     129.414   1.047  92.032  1.00  0.00     0.177 C 
BRANCH  17  22
ATOM     22  O   UNL     1     132.854  -0.362  92.738  1.00  0.00    -0.385 OA
ATOM     23  H   UNL     1     133.423  -0.645  91.973  1.00  0.00     0.211 HD
ENDBRANCH  17  22
BRANCH  19  24
ATOM     24  O   UNL     1     130.281  -1.229  91.921  1.00  0.00    -0.387 OA
ATOM     25  H   UNL     1     129.892  -1.055  91.022  1.00  0.00     0.211 HD
ENDBRANCH  19  24
BRANCH  20  26
ATOM     26  C   UNL     1     130.205   3.298  90.951  1.00  0.00     0.191 C 
BRANCH  26  27
ATOM     27  O   UNL     1     129.024   3.734  90.336  1.00  0.00    -0.394 OA
ATOM     28  H   UNL     1     128.524   4.235  91.032  1.00  0.00     0.210 HD
ENDBRANCH  26  27
ENDBRANCH  20  26
BRANCH  21  29
ATOM     29  O   UNL     1     129.010   0.807  90.705  1.00  0.00    -0.387 OA
ATOM     30  H   UNL     1     128.109   1.206  90.573  1.00  0.00     0.211 HD
ENDBRANCH  21  29
ENDBRANCH   1  16
TORSDOF 10
ENDMDL
MODEL 7
REMARK VINA RESULT:    -5.092      1.568      3.912
REMARK INTER + INTRA:          -8.382
REMARK INTER:                  -7.310
REMARK INTRA:                  -1.072
REMARK UNBOUND:                -1.206
REMARK SMILES OCC1=C[C@@H](O)[C@H]2C=CO[C@@H](O[C@@H]3O[C@@H](CO)[C@@H](O)[C@@H](O)[C@@H]3O)[C@@H]12
REMARK SMILES IDX 12 1 11 2 8 3 9 4 7 5 10 6 24 7 5 8 3 9 4 10 6 11 2 13 1 14
REMARK SMILES IDX 13 16 22 17 14 18 20 19 15 20 18 21 23 22 21 24 16 26 17 27
REMARK SMILES IDX 19 29
REMARK H PARENT 6 12 1 15 23 23 21 25 17 28 19 30
REMARK Flexibility Score: inf
ROOT
ATOM      1  O   UNL     1     133.405   2.934  93.345  1.00  0.00    -0.310 OA
ENDROOT
BRANCH   1   2
ATOM      2  C   UNL     1     132.333   2.469  92.539  1.00  0.00     0.316 C 
ATOM      3  C   UNL     1     130.043   1.034  91.734  1.00  0.00     0.018 C 
ATOM      4  C   UNL     1     129.949   1.961  92.688  1.00  0.00     0.186 C 
ATOM      5  C   UNL     1     131.377   0.417  91.325  1.00  0.00     0.061 C 
ATOM      6  O   UNL     1     131.099   2.515  93.249  1.00  0.00    -0.472 OA
ATOM      7  C   UNL     1     132.598   1.019  92.079  1.00  0.00     0.096 C 
ATOM      8  C   UNL     1     131.429  -1.082  91.690  1.00  0.00     0.145 C 
ATOM      9  C   UNL     1     132.832   0.030  93.193  1.00  0.00    -0.036 C 
ATOM     10  C   UNL     1     132.163  -1.101  92.985  1.00  0.00     0.007 C 
BRANCH   8  11
ATOM     11  O   UNL     1     130.154  -1.658  91.825  1.00  0.00    -0.388 OA
ATOM     12  H   UNL     1     129.887  -1.973  90.919  1.00  0.00     0.211 HD
ENDBRANCH   8  11
BRANCH   9  13
ATOM     13  C   UNL     1     133.786   0.239  94.344  1.00  0.00     0.187 C 
BRANCH  13  14
ATOM     14  O   UNL     1     134.988   0.816  93.907  1.00  0.00    -0.392 OA
ATOM     15  H   UNL     1     134.807   1.788  93.803  1.00  0.00     0.211 HD
ENDBRANCH  13  14
ENDBRANCH   9  13
ENDBRANCH   1   2
BRANCH   1  16
ATOM     16  C   UNL     1     133.074   4.072  94.134  1.00  0.00     0.286 C 
ATOM     17  C   UNL     1     134.289   4.619  94.952  1.00  0.00     0.202 C 
ATOM     18  O   UNL     1     132.410   5.060  93.349  1.00  0.00    -0.341 OA
ATOM     19  C   UNL     1     134.690   6.023  94.469  1.00  0.00     0.179 C 
ATOM     20  C   UNL     1     132.148   6.258  94.066  1.00  0.00     0.178 C 
ATOM     21  C   UNL     1     133.466   6.978  94.487  1.00  0.00     0.177 C 
BRANCH  17  22
ATOM     22  O   UNL     1     135.383   3.738  94.871  1.00  0.00    -0.385 OA
ATOM     23  H   UNL     1     135.013   2.825  94.744  1.00  0.00     0.211 HD
ENDBRANCH  17  22
BRANCH  19  24
ATOM     24  O   UNL     1     135.730   6.524  95.272  1.00  0.00    -0.387 OA
ATOM     25  H   UNL     1     136.238   5.735  95.604  1.00  0.00     0.211 HD
ENDBRANCH  19  24
BRANCH  20  26
ATOM     26  C   UNL     1     131.124   6.051  95.206  1.00  0.00     0.191 C 
BRANCH  26  27
ATOM     27  O   UNL     1     130.396   7.231  95.415  1.00  0.00    -0.394 OA
ATOM     28  H   UNL     1     129.764   7.300  94.654  1.00  0.00     0.210 HD
ENDBRANCH  26  27
ENDBRANCH  20  26
BRANCH  21  29
ATOM     29  O   UNL     1     133.328   7.656  95.714  1.00  0.00    -0.387 OA
ATOM     30  H   UNL     1     134.218   7.691  96.156  1.00  0.00     0.211 HD
ENDBRANCH  21  29
ENDBRANCH   1  16
TORSDOF 10
ENDMDL
MODEL 8
REMARK VINA RESULT:    -4.976      1.975      7.220
REMARK INTER + INTRA:          -8.218
REMARK INTER:                  -6.970
REMARK INTRA:                  -1.248
REMARK UNBOUND:                -1.206
REMARK SMILES OCC1=C[C@@H](O)[C@H]2C=CO[C@@H](O[C@@H]3O[C@@H](CO)[C@@H](O)[C@@H](O)[C@@H]3O)[C@@H]12
REMARK SMILES IDX 12 1 11 2 8 3 9 4 7 5 10 6 24 7 5 8 3 9 4 10 6 11 2 13 1 14
REMARK SMILES IDX 13 16 22 17 14 18 20 19 15 20 18 21 23 22 21 24 16 26 17 27
REMARK SMILES IDX 19 29
REMARK H PARENT 6 12 1 15 23 23 21 25 17 28 19 30
REMARK Flexibility Score: inf
ROOT
ATOM      1  O   UNL     1     132.265   4.031  94.248  1.00  0.00    -0.310 OA
ENDROOT
BRANCH   1   2
ATOM      2  C   UNL     1     131.323   5.076  94.067  1.00  0.00     0.316 C 
ATOM      3  C   UNL     1     130.251   7.608  93.438  1.00  0.00     0.018 C 
ATOM      4  C   UNL     1     130.740   6.831  92.470  1.00  0.00     0.186 C 
ATOM      5  C   UNL     1     130.590   7.389  94.909  1.00  0.00     0.061 C 
ATOM      6  O   UNL     1     131.469   5.685  92.787  1.00  0.00    -0.472 OA
ATOM      7  C   UNL     1     131.498   6.151  95.161  1.00  0.00     0.096 C 
ATOM      8  C   UNL     1     131.420   8.566  95.466  1.00  0.00     0.145 C 
ATOM      9  C   UNL     1     132.878   6.752  95.248  1.00  0.00    -0.036 C 
ATOM     10  C   UNL     1     132.823   8.074  95.383  1.00  0.00     0.007 C 
BRANCH   8  11
ATOM     11  O   UNL     1     131.257   9.750  94.726  1.00  0.00    -0.388 OA
ATOM     12  H   UNL     1     132.148  10.195  94.703  1.00  0.00     0.211 HD
ENDBRANCH   8  11
BRANCH   9  13
ATOM     13  C   UNL     1     134.161   5.959  95.293  1.00  0.00     0.187 C 
BRANCH  13  14
ATOM     14  O   UNL     1     134.034   4.836  96.125  1.00  0.00    -0.392 OA
ATOM     15  H   UNL     1     134.213   5.155  97.049  1.00  0.00     0.211 HD
ENDBRANCH  13  14
ENDBRANCH   9  13
ENDBRANCH   1   2
BRANCH   1  16
ATOM     16  C   UNL     1     132.234   3.049  93.217  1.00  0.00     0.286 C 
ATOM     17  C   UNL     1     133.346   1.962  93.377  1.00  0.00     0.202 C 
ATOM     18  O   UNL     1     130.919   2.516  93.062  1.00  0.00    -0.341 OA
ATOM     19  C   UNL     1     132.731   0.582  93.660  1.00  0.00     0.179 C 
ATOM     20  C   UNL     1     130.855   1.459  92.115  1.00  0.00     0.178 C 
ATOM     21  C   UNL     1     131.679   0.219  92.577  1.00  0.00     0.177 C 
BRANCH  17  22
ATOM     22  O   UNL     1     134.249   2.318  94.396  1.00  0.00    -0.385 OA
ATOM     23  H   UNL     1     135.101   1.841  94.211  1.00  0.00     0.211 HD
ENDBRANCH  17  22
BRANCH  19  24
ATOM     24  O   UNL     1     133.747  -0.389  93.720  1.00  0.00    -0.387 OA
ATOM     25  H   UNL     1     134.285  -0.289  92.889  1.00  0.00     0.211 HD
ENDBRANCH  19  24
BRANCH  20  26
ATOM     26  C   UNL     1     131.148   1.939  90.675  1.00  0.00     0.191 C 
BRANCH  26  27
ATOM     27  O   UNL     1     130.499   1.108  89.752  1.00  0.00    -0.394 OA
ATOM     28  H   UNL     1     129.568   1.446  89.689  1.00  0.00     0.210 HD
ENDBRANCH  26  27
ENDBRANCH  20  26
BRANCH  21  29
ATOM     29  O   UNL     1     132.243  -0.476  91.489  1.00  0.00    -0.387 OA
ATOM     30  H   UNL     1     131.883  -1.402  91.485  1.00  0.00     0.211 HD
ENDBRANCH  21  29
ENDBRANCH   1  16
TORSDOF 10
ENDMDL
MODEL 9
REMARK VINA RESULT:    -4.883     12.917     15.034
REMARK INTER + INTRA:          -8.087
REMARK INTER:                  -6.841
REMARK INTRA:                  -1.247
REMARK UNBOUND:                -1.206
REMARK SMILES OCC1=C[C@@H](O)[C@H]2C=CO[C@@H](O[C@@H]3O[C@@H](CO)[C@@H](O)[C@@H](O)[C@@H]3O)[C@@H]12
REMARK SMILES IDX 12 1 11 2 8 3 9 4 7 5 10 6 24 7 5 8 3 9 4 10 6 11 2 13 1 14
REMARK SMILES IDX 13 16 22 17 14 18 20 19 15 20 18 21 23 22 21 24 16 26 17 27
REMARK SMILES IDX 19 29
REMARK H PARENT 6 12 1 15 23 23 21 25 17 28 19 30
REMARK Flexibility Score: inf
ROOT
ATOM      1  O   UNL     1     134.138  -0.370  80.385  1.00  0.00    -0.310 OA
ENDROOT
BRANCH   1   2
ATOM      2  C   UNL     1     133.457  -1.259  79.513  1.00  0.00     0.316 C 
ATOM      3  C   UNL     1     131.393  -2.820  78.392  1.00  0.00     0.018 C 
ATOM      4  C   UNL     1     131.320  -1.489  78.351  1.00  0.00     0.186 C 
ATOM      5  C   UNL     1     132.321  -3.557  79.352  1.00  0.00     0.061 C 
ATOM      6  O   UNL     1     132.212  -0.711  79.090  1.00  0.00    -0.472 OA
ATOM      7  C   UNL     1     133.202  -2.610  80.217  1.00  0.00     0.096 C 
ATOM      8  C   UNL     1     131.514  -4.355  80.399  1.00  0.00     0.145 C 
ATOM      9  C   UNL     1     132.435  -2.518  81.512  1.00  0.00    -0.036 C 
ATOM     10  C   UNL     1     131.495  -3.456  81.586  1.00  0.00     0.007 C 
BRANCH   8  11
ATOM     11  O   UNL     1     130.207  -4.653  79.973  1.00  0.00    -0.388 OA
ATOM     12  H   UNL     1     130.242  -5.560  79.564  1.00  0.00     0.211 HD
ENDBRANCH   8  11
BRANCH   9  13
ATOM     13  C   UNL     1     132.756  -1.564  82.636  1.00  0.00     0.187 C 
BRANCH  13  14
ATOM     14  O   UNL     1     134.113  -1.628  82.984  1.00  0.00    -0.392 OA
ATOM     15  H   UNL     1     134.275  -2.557  83.296  1.00  0.00     0.211 HD
ENDBRANCH  13  14
ENDBRANCH   9  13
ENDBRANCH   1   2
BRANCH   1  16
ATOM     16  C   UNL     1     134.141   0.981  79.935  1.00  0.00     0.286 C 
ATOM     17  C   UNL     1     134.235   2.012  81.105  1.00  0.00     0.202 C 
ATOM     18  O   UNL     1     135.115   1.173  78.910  1.00  0.00    -0.341 OA
ATOM     19  C   UNL     1     135.559   2.792  81.047  1.00  0.00     0.179 C 
ATOM     20  C   UNL     1     135.229   2.529  78.498  1.00  0.00     0.178 C 
ATOM     21  C   UNL     1     135.751   3.441  79.649  1.00  0.00     0.177 C 
BRANCH  17  22
ATOM     22  O   UNL     1     134.096   1.370  82.350  1.00  0.00    -0.385 OA
ATOM     23  H   UNL     1     133.869   0.420  82.163  1.00  0.00     0.211 HD
ENDBRANCH  17  22
BRANCH  19  24
ATOM     24  O   UNL     1     135.583   3.766  82.061  1.00  0.00    -0.387 OA
ATOM     25  H   UNL     1     134.843   3.543  82.687  1.00  0.00     0.211 HD
ENDBRANCH  19  24
BRANCH  20  26
ATOM     26  C   UNL     1     133.953   3.037  77.788  1.00  0.00     0.191 C 
BRANCH  26  27
ATOM     27  O   UNL     1     134.289   4.009  76.837  1.00  0.00    -0.394 OA
ATOM     28  H   UNL     1     133.547   4.667  76.845  1.00  0.00     0.210 HD
ENDBRANCH  26  27
ENDBRANCH  20  26
BRANCH  21  29
ATOM     29  O   UNL     1     135.212   4.740  79.579  1.00  0.00    -0.387 OA
ATOM     30  H   UNL     1     134.729   4.927  80.428  1.00  0.00     0.211 HD
ENDBRANCH  21  29
ENDBRANCH   1  16
TORSDOF 10
ENDMDL
