MODEL 1
REMARK VINA RESULT:    -4.613      0.000      0.000
REMARK INTER + INTRA:         -10.764
REMARK INTER:                  -8.929
REMARK INTRA:                  -1.835
REMARK UNBOUND:                -1.835
REMARK SMILES CCCCCCCCCCCCCCCCCC(=O)[O-]
REMARK SMILES IDX 10 1 11 2 12 3 13 4 14 5 15 6 16 7 17 8 18 9 19 10 20 11
REMARK SMILES IDX 9 12 8 13 7 14 6 15 5 16 4 17 3 18 2 19 1 20
REMARK H PARENT
REMARK Flexibility Score: inf
ROOT
ATOM      1  C   UNL     1     -11.988  -2.984 -24.655  1.00  0.00     0.000 C 
ENDROOT
BRANCH   1   2
ATOM      2  C   UNL     1     -12.407  -2.934 -26.138  1.00  0.00     0.000 C 
BRANCH   2   3
ATOM      3  C   UNL     1     -11.961  -1.672 -26.903  1.00  0.00     0.000 C 
BRANCH   3   4
ATOM      4  C   UNL     1     -10.575  -1.126 -26.516  1.00  0.00     0.000 C 
BRANCH   4   5
ATOM      5  C   UNL     1     -10.636   0.289 -25.916  1.00  0.00     0.000 C 
BRANCH   5   6
ATOM      6  C   UNL     1     -10.093   0.356 -24.476  1.00  0.00     0.000 C 
BRANCH   6   7
ATOM      7  C   UNL     1      -9.083  -0.746 -24.104  1.00  0.00     0.006 C 
BRANCH   7   8
ATOM      8  C   UNL     1      -8.687  -0.719 -22.622  1.00  0.00     0.053 C 
BRANCH   8   9
ATOM      9  C   UNL     1      -7.226  -1.004 -22.466  1.00  0.00     0.041 C 
ATOM     10  O   UNL     1      -6.620  -1.693 -23.329  1.00  0.00    -0.550 OA
ATOM     11  O   UNL     1      -6.523  -0.468 -21.396  1.00  0.00    -0.550 OA
ENDBRANCH   8   9
ENDBRANCH   7   8
ENDBRANCH   6   7
ENDBRANCH   5   6
ENDBRANCH   4   5
ENDBRANCH   3   4
ENDBRANCH   2   3
ENDBRANCH   1   2
BRANCH   1  12
ATOM     12  C   UNL     1     -12.916  -2.226 -23.688  1.00  0.00     0.000 C 
BRANCH  12  13
ATOM     13  C   UNL     1     -12.243  -1.910 -22.341  1.00  0.00    -0.000 C 
BRANCH  13  14
ATOM     14  C   UNL     1     -12.468  -0.455 -21.898  1.00  0.00    -0.000 C 
BRANCH  14  15
ATOM     15  C   UNL     1     -12.506  -0.301 -20.367  1.00  0.00    -0.000 C 
BRANCH  15  16
ATOM     16  C   UNL     1     -11.133   0.052 -19.772  1.00  0.00    -0.000 C 
BRANCH  16  17
ATOM     17  C   UNL     1     -11.170   0.179 -18.240  1.00  0.00    -0.000 C 
BRANCH  17  18
ATOM     18  C   UNL     1      -9.766   0.301 -17.624  1.00  0.00    -0.000 C 
BRANCH  18  19
ATOM     19  C   UNL     1      -9.770   0.118 -16.099  1.00  0.00    -0.003 C 
ATOM     20  C   UNL     1      -9.260   1.372 -15.394  1.00  0.00     0.004 C 
ENDBRANCH  18  19
ENDBRANCH  17  18
ENDBRANCH  16  17
ENDBRANCH  15  16
ENDBRANCH  14  15
ENDBRANCH  13  14
ENDBRANCH  12  13
ENDBRANCH   1  12
TORSDOF 16
ENDMDL
MODEL 2
REMARK VINA RESULT:    -4.562     13.745     17.493
REMARK INTER + INTRA:         -10.664
REMARK INTER:                  -8.441
REMARK INTRA:                  -2.223
REMARK UNBOUND:                -1.835
REMARK SMILES CCCCCCCCCCCCCCCCCC(=O)[O-]
REMARK SMILES IDX 10 1 11 2 12 3 13 4 14 5 15 6 16 7 17 8 18 9 19 10 20 11
REMARK SMILES IDX 9 12 8 13 7 14 6 15 5 16 4 17 3 18 2 19 1 20
REMARK H PARENT
REMARK Flexibility Score: inf
ROOT
ATOM      1  C   UNL     1       6.808   6.058 -23.805  1.00  0.00     0.000 C 
ENDROOT
BRANCH   1   2
ATOM      2  C   UNL     1       6.828   5.693 -22.307  1.00  0.00     0.000 C 
BRANCH   2   3
ATOM      3  C   UNL     1       5.557   6.074 -21.522  1.00  0.00     0.000 C 
BRANCH   3   4
ATOM      4  C   UNL     1       5.592   5.746 -20.019  1.00  0.00     0.000 C 
BRANCH   4   5
ATOM      5  C   UNL     1       4.205   5.398 -19.451  1.00  0.00     0.000 C 
BRANCH   5   6
ATOM      6  C   UNL     1       3.109   5.340 -20.532  1.00  0.00     0.000 C 
BRANCH   6   7
ATOM      7  C   UNL     1       2.026   6.431 -20.428  1.00  0.00     0.006 C 
BRANCH   7   8
ATOM      8  C   UNL     1       1.225   6.357 -19.121  1.00  0.00     0.053 C 
BRANCH   8   9
ATOM      9  C   UNL     1      -0.243   6.332 -19.408  1.00  0.00     0.041 C 
ATOM     10  O   UNL     1      -0.715   5.492 -20.220  1.00  0.00    -0.550 OA
ATOM     11  O   UNL     1      -1.097   7.201 -18.744  1.00  0.00    -0.550 OA
ENDBRANCH   8   9
ENDBRANCH   7   8
ENDBRANCH   6   7
ENDBRANCH   5   6
ENDBRANCH   4   5
ENDBRANCH   3   4
ENDBRANCH   2   3
ENDBRANCH   1   2
BRANCH   1  12
ATOM     12  C   UNL     1       6.763   7.566 -24.109  1.00  0.00     0.000 C 
BRANCH  12  13
ATOM     13  C   UNL     1       5.911   7.900 -25.346  1.00  0.00    -0.000 C 
BRANCH  13  14
ATOM     14  C   UNL     1       6.517   7.344 -26.646  1.00  0.00    -0.000 C 
BRANCH  14  15
ATOM     15  C   UNL     1       5.615   6.291 -27.316  1.00  0.00    -0.000 C 
BRANCH  15  16
ATOM     16  C   UNL     1       6.244   4.888 -27.319  1.00  0.00    -0.000 C 
BRANCH  16  17
ATOM     17  C   UNL     1       5.410   3.867 -26.527  1.00  0.00    -0.000 C 
BRANCH  17  18
ATOM     18  C   UNL     1       4.008   4.392 -26.180  1.00  0.00    -0.000 C 
BRANCH  18  19
ATOM     19  C   UNL     1       3.730   4.389 -24.669  1.00  0.00    -0.003 C 
ATOM     20  C   UNL     1       3.057   5.687 -24.231  1.00  0.00     0.004 C 
ENDBRANCH  18  19
ENDBRANCH  17  18
ENDBRANCH  16  17
ENDBRANCH  15  16
ENDBRANCH  14  15
ENDBRANCH  13  14
ENDBRANCH  12  13
ENDBRANCH   1  12
TORSDOF 16
ENDMDL
MODEL 3
REMARK VINA RESULT:    -4.538     15.314     18.168
REMARK INTER + INTRA:         -10.618
REMARK INTER:                  -8.775
REMARK INTRA:                  -1.842
REMARK UNBOUND:                -1.835
REMARK SMILES CCCCCCCCCCCCCCCCCC(=O)[O-]
REMARK SMILES IDX 10 1 11 2 12 3 13 4 14 5 15 6 16 7 17 8 18 9 19 10 20 11
REMARK SMILES IDX 9 12 8 13 7 14 6 15 5 16 4 17 3 18 2 19 1 20
REMARK H PARENT
REMARK Flexibility Score: inf
ROOT
ATOM      1  C   UNL     1       6.845   6.035 -23.636  1.00  0.00     0.000 C 
ENDROOT
BRANCH   1   2
ATOM      2  C   UNL     1       6.813   5.807 -22.112  1.00  0.00     0.000 C 
BRANCH   2   3
ATOM      3  C   UNL     1       5.428   5.963 -21.454  1.00  0.00     0.000 C 
BRANCH   3   4
ATOM      4  C   UNL     1       5.404   5.779 -19.926  1.00  0.00     0.000 C 
BRANCH   4   5
ATOM      5  C   UNL     1       4.342   4.767 -19.462  1.00  0.00     0.000 C 
BRANCH   5   6
ATOM      6  C   UNL     1       3.351   5.359 -18.443  1.00  0.00     0.000 C 
BRANCH   6   7
ATOM      7  C   UNL     1       3.901   5.525 -17.014  1.00  0.00     0.006 C 
BRANCH   7   8
ATOM      8  C   UNL     1       4.830   4.379 -16.592  1.00  0.00     0.053 C 
BRANCH   8   9
ATOM      9  C   UNL     1       4.308   3.709 -15.361  1.00  0.00     0.041 C 
ATOM     10  O   UNL     1       3.627   4.361 -14.525  1.00  0.00    -0.550 OA
ATOM     11  O   UNL     1       4.531   2.353 -15.158  1.00  0.00    -0.550 OA
ENDBRANCH   8   9
ENDBRANCH   7   8
ENDBRANCH   6   7
ENDBRANCH   5   6
ENDBRANCH   4   5
ENDBRANCH   3   4
ENDBRANCH   2   3
ENDBRANCH   1   2
BRANCH   1  12
ATOM     12  C   UNL     1       6.883   7.510 -24.075  1.00  0.00     0.000 C 
BRANCH  12  13
ATOM     13  C   UNL     1       5.914   7.814 -25.231  1.00  0.00    -0.000 C 
BRANCH  13  14
ATOM     14  C   UNL     1       6.525   7.504 -26.608  1.00  0.00    -0.000 C 
BRANCH  14  15
ATOM     15  C   UNL     1       5.764   6.395 -27.357  1.00  0.00    -0.000 C 
BRANCH  15  16
ATOM     16  C   UNL     1       6.400   5.008 -27.168  1.00  0.00    -0.000 C 
BRANCH  16  17
ATOM     17  C   UNL     1       5.434   4.001 -26.520  1.00  0.00    -0.000 C 
BRANCH  17  18
ATOM     18  C   UNL     1       4.071   4.625 -26.181  1.00  0.00    -0.000 C 
BRANCH  18  19
ATOM     19  C   UNL     1       3.657   4.386 -24.721  1.00  0.00    -0.003 C 
ATOM     20  C   UNL     1       3.018   5.635 -24.119  1.00  0.00     0.004 C 
ENDBRANCH  18  19
ENDBRANCH  17  18
ENDBRANCH  16  17
ENDBRANCH  15  16
ENDBRANCH  14  15
ENDBRANCH  13  14
ENDBRANCH  12  13
ENDBRANCH   1  12
TORSDOF 16
ENDMDL
MODEL 4
REMARK VINA RESULT:    -4.536     10.996     13.738
REMARK INTER + INTRA:         -10.615
REMARK INTER:                  -9.471
REMARK INTRA:                  -1.144
REMARK UNBOUND:                -1.835
REMARK SMILES CCCCCCCCCCCCCCCCCC(=O)[O-]
REMARK SMILES IDX 10 1 11 2 12 3 13 4 14 5 15 6 16 7 17 8 18 9 19 10 20 11
REMARK SMILES IDX 9 12 8 13 7 14 6 15 5 16 4 17 3 18 2 19 1 20
REMARK H PARENT
REMARK Flexibility Score: inf
ROOT
ATOM      1  C   UNL     1      -9.467   1.743  -9.044  1.00  0.00     0.000 C 
ENDROOT
BRANCH   1   2
ATOM      2  C   UNL     1     -10.409   1.246  -7.930  1.00  0.00     0.000 C 
BRANCH   2   3
ATOM      3  C   UNL     1     -11.776   0.722  -8.412  1.00  0.00     0.000 C 
BRANCH   3   4
ATOM      4  C   UNL     1     -12.962   1.676  -8.183  1.00  0.00     0.000 C 
BRANCH   4   5
ATOM      5  C   UNL     1     -13.124   2.709  -9.311  1.00  0.00     0.000 C 
BRANCH   5   6
ATOM      6  C   UNL     1     -12.856   2.120 -10.709  1.00  0.00     0.000 C 
BRANCH   6   7
ATOM      7  C   UNL     1     -12.366   3.130 -11.763  1.00  0.00     0.006 C 
BRANCH   7   8
ATOM      8  C   UNL     1     -11.102   2.664 -12.498  1.00  0.00     0.053 C 
BRANCH   8   9
ATOM      9  C   UNL     1     -10.137   3.797 -12.647  1.00  0.00     0.041 C 
ATOM     10  O   UNL     1     -10.436   4.795 -13.356  1.00  0.00    -0.550 OA
ATOM     11  O   UNL     1      -8.927   3.777 -11.966  1.00  0.00    -0.550 OA
ENDBRANCH   8   9
ENDBRANCH   7   8
ENDBRANCH   6   7
ENDBRANCH   5   6
ENDBRANCH   4   5
ENDBRANCH   3   4
ENDBRANCH   2   3
ENDBRANCH   1   2
BRANCH   1  12
ATOM     12  C   UNL     1      -7.969   1.485  -8.797  1.00  0.00     0.000 C 
BRANCH  12  13
ATOM     13  C   UNL     1      -7.532   0.070  -9.210  1.00  0.00    -0.000 C 
BRANCH  13  14
ATOM     14  C   UNL     1      -6.160   0.056  -9.906  1.00  0.00    -0.000 C 
BRANCH  14  15
ATOM     15  C   UNL     1      -5.158  -0.889  -9.221  1.00  0.00    -0.000 C 
BRANCH  15  16
ATOM     16  C   UNL     1      -4.143  -1.493 -10.205  1.00  0.00    -0.000 C 
BRANCH  16  17
ATOM     17  C   UNL     1      -3.798  -0.533 -11.357  1.00  0.00    -0.000 C 
BRANCH  17  18
ATOM     18  C   UNL     1      -3.170  -1.257 -12.560  1.00  0.00    -0.000 C 
BRANCH  18  19
ATOM     19  C   UNL     1      -3.115  -2.781 -12.372  1.00  0.00    -0.003 C 
ATOM     20  C   UNL     1      -3.042  -3.498 -13.717  1.00  0.00     0.004 C 
ENDBRANCH  18  19
ENDBRANCH  17  18
ENDBRANCH  16  17
ENDBRANCH  15  16
ENDBRANCH  14  15
ENDBRANCH  13  14
ENDBRANCH  12  13
ENDBRANCH   1  12
TORSDOF 16
ENDMDL
MODEL 5
REMARK VINA RESULT:    -4.501     13.516     14.577
REMARK INTER + INTRA:         -10.546
REMARK INTER:                  -9.356
REMARK INTRA:                  -1.190
REMARK UNBOUND:                -1.835
REMARK SMILES CCCCCCCCCCCCCCCCCC(=O)[O-]
REMARK SMILES IDX 10 1 11 2 12 3 13 4 14 5 15 6 16 7 17 8 18 9 19 10 20 11
REMARK SMILES IDX 9 12 8 13 7 14 6 15 5 16 4 17 3 18 2 19 1 20
REMARK H PARENT
REMARK Flexibility Score: inf
ROOT
ATOM      1  C   UNL     1     -10.781   6.812 -10.906  1.00  0.00     0.000 C 
ENDROOT
BRANCH   1   2
ATOM      2  C   UNL     1      -9.979   7.814 -11.760  1.00  0.00     0.000 C 
BRANCH   2   3
ATOM      3  C   UNL     1      -8.979   8.689 -10.978  1.00  0.00     0.000 C 
BRANCH   3   4
ATOM      4  C   UNL     1      -8.781   8.299  -9.503  1.00  0.00     0.000 C 
BRANCH   4   5
ATOM      5  C   UNL     1      -7.367   7.767  -9.210  1.00  0.00     0.000 C 
BRANCH   5   6
ATOM      6  C   UNL     1      -6.294   8.371 -10.135  1.00  0.00     0.000 C 
BRANCH   6   7
ATOM      7  C   UNL     1      -5.218   7.383 -10.625  1.00  0.00     0.006 C 
BRANCH   7   8
ATOM      8  C   UNL     1      -4.470   7.880 -11.869  1.00  0.00     0.053 C 
BRANCH   8   9
ATOM      9  C   UNL     1      -3.022   7.515 -11.789  1.00  0.00     0.041 C 
ATOM     10  O   UNL     1      -2.665   6.471 -11.180  1.00  0.00    -0.550 OA
ATOM     11  O   UNL     1      -2.070   8.297 -12.429  1.00  0.00    -0.550 OA
ENDBRANCH   8   9
ENDBRANCH   7   8
ENDBRANCH   6   7
ENDBRANCH   5   6
ENDBRANCH   4   5
ENDBRANCH   3   4
ENDBRANCH   2   3
ENDBRANCH   1   2
BRANCH   1  12
ATOM     12  C   UNL     1     -12.185   6.475 -11.441  1.00  0.00     0.000 C 
BRANCH  12  13
ATOM     13  C   UNL     1     -13.125   5.933 -10.351  1.00  0.00    -0.000 C 
BRANCH  13  14
ATOM     14  C   UNL     1     -12.484   4.801  -9.531  1.00  0.00    -0.000 C 
BRANCH  14  15
ATOM     15  C   UNL     1     -12.847   3.404 -10.065  1.00  0.00    -0.000 C 
BRANCH  15  16
ATOM     16  C   UNL     1     -13.125   2.393  -8.941  1.00  0.00    -0.000 C 
BRANCH  16  17
ATOM     17  C   UNL     1     -11.942   2.255  -7.967  1.00  0.00    -0.000 C 
BRANCH  17  18
ATOM     18  C   UNL     1     -10.911   1.216  -8.435  1.00  0.00    -0.000 C 
BRANCH  18  19
ATOM     19  C   UNL     1      -9.463   1.655  -8.165  1.00  0.00    -0.003 C 
ATOM     20  C   UNL     1      -9.261   3.126  -8.519  1.00  0.00     0.004 C 
ENDBRANCH  18  19
ENDBRANCH  17  18
ENDBRANCH  16  17
ENDBRANCH  15  16
ENDBRANCH  14  15
ENDBRANCH  13  14
ENDBRANCH  12  13
ENDBRANCH   1  12
TORSDOF 16
ENDMDL
MODEL 6
REMARK VINA RESULT:    -4.483      8.889     12.980
REMARK INTER + INTRA:         -10.512
REMARK INTER:                  -8.407
REMARK INTRA:                  -2.105
REMARK UNBOUND:                -1.835
REMARK SMILES CCCCCCCCCCCCCCCCCC(=O)[O-]
REMARK SMILES IDX 10 1 11 2 12 3 13 4 14 5 15 6 16 7 17 8 18 9 19 10 20 11
REMARK SMILES IDX 9 12 8 13 7 14 6 15 5 16 4 17 3 18 2 19 1 20
REMARK H PARENT
REMARK Flexibility Score: inf
ROOT
ATOM      1  C   UNL     1     -11.503   0.864  -8.253  1.00  0.00     0.000 C 
ENDROOT
BRANCH   1   2
ATOM      2  C   UNL     1     -10.229   1.687  -7.977  1.00  0.00     0.000 C 
BRANCH   2   3
ATOM      3  C   UNL     1      -8.944   1.148  -8.637  1.00  0.00     0.000 C 
BRANCH   3   4
ATOM      4  C   UNL     1      -8.310   2.073  -9.690  1.00  0.00     0.000 C 
BRANCH   4   5
ATOM      5  C   UNL     1      -9.255   3.199 -10.142  1.00  0.00     0.000 C 
BRANCH   5   6
ATOM      6  C   UNL     1      -9.891   2.934 -11.520  1.00  0.00     0.000 C 
BRANCH   6   7
ATOM      7  C   UNL     1      -8.973   3.200 -12.728  1.00  0.00     0.006 C 
BRANCH   7   8
ATOM      8  C   UNL     1      -8.514   1.913 -13.427  1.00  0.00     0.053 C 
BRANCH   8   9
ATOM      9  C   UNL     1      -9.287   1.700 -14.690  1.00  0.00     0.041 C 
ATOM     10  O   UNL     1      -9.800   0.577 -14.936  1.00  0.00    -0.550 OA
ATOM     11  O   UNL     1      -9.483   2.754 -15.573  1.00  0.00    -0.550 OA
ENDBRANCH   8   9
ENDBRANCH   7   8
ENDBRANCH   6   7
ENDBRANCH   5   6
ENDBRANCH   4   5
ENDBRANCH   3   4
ENDBRANCH   2   3
ENDBRANCH   1   2
BRANCH   1  12
ATOM     12  C   UNL     1     -12.667   1.653  -8.881  1.00  0.00     0.000 C 
BRANCH  12  13
ATOM     13  C   UNL     1     -12.518   3.174  -8.708  1.00  0.00    -0.000 C 
BRANCH  13  14
ATOM     14  C   UNL     1     -13.004   3.957  -9.940  1.00  0.00    -0.000 C 
BRANCH  14  15
ATOM     15  C   UNL     1     -12.749   5.470  -9.818  1.00  0.00    -0.000 C 
BRANCH  15  16
ATOM     16  C   UNL     1     -12.837   6.197 -11.170  1.00  0.00    -0.000 C 
BRANCH  16  17
ATOM     17  C   UNL     1     -11.460   6.642 -11.690  1.00  0.00    -0.000 C 
BRANCH  17  18
ATOM     18  C   UNL     1     -10.420   6.779 -10.566  1.00  0.00    -0.000 C 
BRANCH  18  19
ATOM     19  C   UNL     1      -9.644   8.103 -10.634  1.00  0.00    -0.003 C 
ATOM     20  C   UNL     1      -9.247   8.433 -12.071  1.00  0.00     0.004 C 
ENDBRANCH  18  19
ENDBRANCH  17  18
ENDBRANCH  16  17
ENDBRANCH  15  16
ENDBRANCH  14  15
ENDBRANCH  13  14
ENDBRANCH  12  13
ENDBRANCH   1  12
TORSDOF 16
ENDMDL
MODEL 7
REMARK VINA RESULT:    -4.482     13.778     16.716
REMARK INTER + INTRA:         -10.509
REMARK INTER:                  -8.609
REMARK INTRA:                  -1.900
REMARK UNBOUND:                -1.835
REMARK SMILES CCCCCCCCCCCCCCCCCC(=O)[O-]
REMARK SMILES IDX 10 1 11 2 12 3 13 4 14 5 15 6 16 7 17 8 18 9 19 10 20 11
REMARK SMILES IDX 9 12 8 13 7 14 6 15 5 16 4 17 3 18 2 19 1 20
REMARK H PARENT
REMARK Flexibility Score: inf
ROOT
ATOM      1  C   UNL     1       6.014   6.793 -23.214  1.00  0.00     0.000 C 
ENDROOT
BRANCH   1   2
ATOM      2  C   UNL     1       6.849   7.570 -24.251  1.00  0.00     0.000 C 
BRANCH   2   3
ATOM      3  C   UNL     1       6.076   8.031 -25.503  1.00  0.00     0.000 C 
BRANCH   3   4
ATOM      4  C   UNL     1       6.523   7.381 -26.825  1.00  0.00     0.000 C 
BRANCH   4   5
ATOM      5  C   UNL     1       5.996   5.946 -26.992  1.00  0.00     0.000 C 
BRANCH   5   6
ATOM      6  C   UNL     1       4.956   5.814 -28.121  1.00  0.00     0.000 C 
BRANCH   6   7
ATOM      7  C   UNL     1       3.486   5.808 -27.662  1.00  0.00     0.006 C 
BRANCH   7   8
ATOM      8  C   UNL     1       3.332   5.622 -26.147  1.00  0.00     0.053 C 
BRANCH   8   9
ATOM      9  C   UNL     1       3.107   4.180 -25.817  1.00  0.00     0.041 C 
ATOM     10  O   UNL     1       2.085   3.584 -26.248  1.00  0.00    -0.550 OA
ATOM     11  O   UNL     1       4.050   3.481 -25.076  1.00  0.00    -0.550 OA
ENDBRANCH   8   9
ENDBRANCH   7   8
ENDBRANCH   6   7
ENDBRANCH   5   6
ENDBRANCH   4   5
ENDBRANCH   3   4
ENDBRANCH   2   3
ENDBRANCH   1   2
BRANCH   1  12
ATOM     12  C   UNL     1       6.397   5.312 -23.046  1.00  0.00     0.000 C 
BRANCH  12  13
ATOM     13  C   UNL     1       6.378   4.854 -21.577  1.00  0.00    -0.000 C 
BRANCH  13  14
ATOM     14  C   UNL     1       5.565   5.799 -20.676  1.00  0.00    -0.000 C 
BRANCH  14  15
ATOM     15  C   UNL     1       4.270   5.153 -20.155  1.00  0.00    -0.000 C 
BRANCH  15  16
ATOM     16  C   UNL     1       3.006   5.880 -20.642  1.00  0.00    -0.000 C 
BRANCH  16  17
ATOM     17  C   UNL     1       2.655   5.539 -22.100  1.00  0.00    -0.000 C 
BRANCH  17  18
ATOM     18  C   UNL     1       1.364   6.226 -22.573  1.00  0.00    -0.000 C 
BRANCH  18  19
ATOM     19  C   UNL     1       0.770   7.165 -21.511  1.00  0.00    -0.003 C 
ATOM     20  C   UNL     1      -0.447   7.909 -22.056  1.00  0.00     0.004 C 
ENDBRANCH  18  19
ENDBRANCH  17  18
ENDBRANCH  16  17
ENDBRANCH  15  16
ENDBRANCH  14  15
ENDBRANCH  13  14
ENDBRANCH  12  13
ENDBRANCH   1  12
TORSDOF 16
ENDMDL
MODEL 8
REMARK VINA RESULT:    -4.440     11.348     13.941
REMARK INTER + INTRA:         -10.429
REMARK INTER:                  -8.189
REMARK INTRA:                  -2.241
REMARK UNBOUND:                -1.835
REMARK SMILES CCCCCCCCCCCCCCCCCC(=O)[O-]
REMARK SMILES IDX 10 1 11 2 12 3 13 4 14 5 15 6 16 7 17 8 18 9 19 10 20 11
REMARK SMILES IDX 9 12 8 13 7 14 6 15 5 16 4 17 3 18 2 19 1 20
REMARK H PARENT
REMARK Flexibility Score: inf
ROOT
ATOM      1  C   UNL     1     -11.649   4.423 -12.547  1.00  0.00     0.000 C 
ENDROOT
BRANCH   1   2
ATOM      2  C   UNL     1     -11.655   2.888 -12.407  1.00  0.00     0.000 C 
BRANCH   2   3
ATOM      3  C   UNL     1     -12.649   2.327 -11.370  1.00  0.00     0.000 C 
BRANCH   3   4
ATOM      4  C   UNL     1     -13.102   3.326 -10.290  1.00  0.00     0.000 C 
BRANCH   4   5
ATOM      5  C   UNL     1     -12.611   2.947  -8.883  1.00  0.00     0.000 C 
BRANCH   5   6
ATOM      6  C   UNL     1     -12.447   1.428  -8.691  1.00  0.00     0.000 C 
BRANCH   6   7
ATOM      7  C   UNL     1     -11.025   0.962  -8.327  1.00  0.00     0.006 C 
BRANCH   7   8
ATOM      8  C   UNL     1     -10.012   2.113  -8.276  1.00  0.00     0.053 C 
BRANCH   8   9
ATOM      9  C   UNL     1      -8.724   1.705  -8.918  1.00  0.00     0.041 C 
ATOM     10  O   UNL     1      -7.826   1.144  -8.236  1.00  0.00    -0.550 OA
ATOM     11  O   UNL     1      -8.533   1.899 -10.280  1.00  0.00    -0.550 OA
ENDBRANCH   8   9
ENDBRANCH   7   8
ENDBRANCH   6   7
ENDBRANCH   5   6
ENDBRANCH   4   5
ENDBRANCH   3   4
ENDBRANCH   2   3
ENDBRANCH   1   2
BRANCH   1  12
ATOM     12  C   UNL     1     -10.280   5.094 -12.332  1.00  0.00     0.000 C 
BRANCH  12  13
ATOM     13  C   UNL     1      -9.823   5.058 -10.863  1.00  0.00    -0.000 C 
BRANCH  13  14
ATOM     14  C   UNL     1     -10.243   6.316 -10.085  1.00  0.00    -0.000 C 
BRANCH  14  15
ATOM     15  C   UNL     1     -10.093   7.603 -10.915  1.00  0.00    -0.000 C 
BRANCH  15  16
ATOM     16  C   UNL     1      -9.164   8.632 -10.250  1.00  0.00    -0.000 C 
BRANCH  16  17
ATOM     17  C   UNL     1      -8.161   7.983  -9.282  1.00  0.00    -0.000 C 
BRANCH  17  18
ATOM     18  C   UNL     1      -6.700   8.233  -9.691  1.00  0.00    -0.000 C 
BRANCH  18  19
ATOM     19  C   UNL     1      -6.426   7.877 -11.160  1.00  0.00    -0.003 C 
ATOM     20  C   UNL     1      -6.227   6.373 -11.332  1.00  0.00     0.004 C 
ENDBRANCH  18  19
ENDBRANCH  17  18
ENDBRANCH  16  17
ENDBRANCH  15  16
ENDBRANCH  14  15
ENDBRANCH  13  14
ENDBRANCH  12  13
ENDBRANCH   1  12
TORSDOF 16
ENDMDL
MODEL 9
REMARK VINA RESULT:    -4.434     13.535     17.197
REMARK INTER + INTRA:         -10.417
REMARK INTER:                  -8.101
REMARK INTRA:                  -2.317
REMARK UNBOUND:                -1.835
REMARK SMILES CCCCCCCCCCCCCCCCCC(=O)[O-]
REMARK SMILES IDX 10 1 11 2 12 3 13 4 14 5 15 6 16 7 17 8 18 9 19 10 20 11
REMARK SMILES IDX 9 12 8 13 7 14 6 15 5 16 4 17 3 18 2 19 1 20
REMARK H PARENT
REMARK Flexibility Score: inf
ROOT
ATOM      1  C   UNL     1       6.574   5.273 -22.391  1.00  0.00     0.000 C 
ENDROOT
BRANCH   1   2
ATOM      2  C   UNL     1       5.638   6.209 -21.602  1.00  0.00     0.000 C 
BRANCH   2   3
ATOM      3  C   UNL     1       5.230   5.702 -20.204  1.00  0.00     0.000 C 
BRANCH   3   4
ATOM      4  C   UNL     1       3.779   5.201 -20.087  1.00  0.00     0.000 C 
BRANCH   4   5
ATOM      5  C   UNL     1       2.791   6.029 -20.926  1.00  0.00     0.000 C 
BRANCH   5   6
ATOM      6  C   UNL     1       1.682   6.680 -20.080  1.00  0.00     0.000 C 
BRANCH   6   7
ATOM      7  C   UNL     1       0.408   7.069 -20.854  1.00  0.00     0.006 C 
BRANCH   7   8
ATOM      8  C   UNL     1       0.415   6.572 -22.306  1.00  0.00     0.053 C 
BRANCH   8   9
ATOM      9  C   UNL     1      -0.313   7.533 -23.192  1.00  0.00     0.041 C 
ATOM     10  O   UNL     1      -0.887   8.539 -22.696  1.00  0.00    -0.550 OA
ATOM     11  O   UNL     1      -0.316   7.348 -24.567  1.00  0.00    -0.550 OA
ENDBRANCH   8   9
ENDBRANCH   7   8
ENDBRANCH   6   7
ENDBRANCH   5   6
ENDBRANCH   4   5
ENDBRANCH   3   4
ENDBRANCH   2   3
ENDBRANCH   1   2
BRANCH   1  12
ATOM     12  C   UNL     1       6.868   5.711 -23.838  1.00  0.00     0.000 C 
BRANCH  12  13
ATOM     13  C   UNL     1       6.636   7.215 -24.064  1.00  0.00    -0.000 C 
BRANCH  13  14
ATOM     14  C   UNL     1       6.221   7.536 -25.510  1.00  0.00    -0.000 C 
BRANCH  14  15
ATOM     15  C   UNL     1       6.366   6.327 -26.450  1.00  0.00    -0.000 C 
BRANCH  15  16
ATOM     16  C   UNL     1       5.271   6.278 -27.528  1.00  0.00    -0.000 C 
BRANCH  16  17
ATOM     17  C   UNL     1       4.026   5.501 -27.068  1.00  0.00    -0.000 C 
BRANCH  17  18
ATOM     18  C   UNL     1       4.377   4.291 -26.186  1.00  0.00    -0.000 C 
BRANCH  18  19
ATOM     19  C   UNL     1       3.609   4.284 -24.856  1.00  0.00    -0.003 C 
ATOM     20  C   UNL     1       3.106   5.682 -24.505  1.00  0.00     0.004 C 
ENDBRANCH  18  19
ENDBRANCH  17  18
ENDBRANCH  16  17
ENDBRANCH  15  16
ENDBRANCH  14  15
ENDBRANCH  13  14
ENDBRANCH  12  13
ENDBRANCH   1  12
TORSDOF 16
ENDMDL
