MODEL 1
REMARK VINA RESULT:    -4.959      0.000      0.000
REMARK INTER + INTRA:          -6.294
REMARK INTER:                  -5.974
REMARK INTRA:                  -0.320
REMARK UNBOUND:                -0.320
REMARK SMILES O=c1c(O)c(-c2ccc(O)c(O)c2)oc2cc(O)cc(O)c12
REMARK SMILES IDX 5 1 3 2 2 3 1 4 22 5 20 6 19 7 17 8 16 9 15 10 14 11 6 12
REMARK SMILES IDX 7 13 8 14 9 15 13 16 11 17 10 18 12 20 4 22 21 24 18 26
REMARK H PARENT 10 19 12 21 4 23 21 25 18 27
REMARK Flexibility Score: inf
ROOT
ATOM      1  C   UNL     1       6.243   1.046 -12.183  1.00  0.00     0.180 A 
ATOM      2  C   UNL     1       6.563   2.408 -12.054  1.00  0.00     0.208 A 
ATOM      3  C   UNL     1       6.688   2.960 -10.769  1.00  0.00     0.238 A 
ATOM      4  O   UNL     1       6.920   4.192 -10.659  1.00  0.00    -0.285 OA
ATOM      5  C   UNL     1       6.510   2.138  -9.630  1.00  0.00     0.111 A 
ATOM      6  C   UNL     1       6.652   2.582  -8.281  1.00  0.00     0.134 A 
ATOM      7  C   UNL     1       6.324   1.715  -7.230  1.00  0.00     0.093 A 
ATOM      8  C   UNL     1       5.920   0.401  -7.480  1.00  0.00     0.123 A 
ATOM      9  C   UNL     1       5.835  -0.059  -8.792  1.00  0.00     0.094 A 
ATOM     10  C   UNL     1       6.122   0.793  -9.862  1.00  0.00     0.146 A 
ATOM     11  O   UNL     1       6.017   0.317 -11.096  1.00  0.00    -0.452 OA
ENDROOT
BRANCH   1  12
ATOM     12  C   UNL     1       6.118   0.387 -13.504  1.00  0.00     0.025 A 
ATOM     13  C   UNL     1       4.910   0.410 -14.222  1.00  0.00     0.016 A 
ATOM     14  C   UNL     1       4.822  -0.197 -15.477  1.00  0.00     0.051 A 
ATOM     15  C   UNL     1       5.942  -0.824 -16.038  1.00  0.00     0.157 A 
ATOM     16  C   UNL     1       7.243  -0.225 -14.080  1.00  0.00     0.062 A 
ATOM     17  C   UNL     1       7.158  -0.836 -15.337  1.00  0.00     0.158 A 
BRANCH  15  18
ATOM     18  O   UNL     1       5.850  -1.431 -17.290  1.00  0.00    -0.504 OA
ATOM     19  H   UNL     1       6.028  -0.914 -18.145  1.00  0.00     0.293 HD
ENDBRANCH  15  18
BRANCH  17  20
ATOM     20  O   UNL     1       8.292  -1.445 -15.872  1.00  0.00    -0.504 OA
ATOM     21  H   UNL     1       8.931  -1.988 -15.301  1.00  0.00     0.293 HD
ENDBRANCH  17  20
ENDBRANCH   1  12
BRANCH   2  22
ATOM     22  O   UNL     1       6.713   3.206 -13.192  1.00  0.00    -0.502 OA
ATOM     23  H   UNL     1       7.552   3.193 -13.758  1.00  0.00     0.293 HD
ENDBRANCH   2  22
BRANCH   6  24
ATOM     24  O   UNL     1       7.135   3.844  -7.921  1.00  0.00    -0.507 OA
ATOM     25  H   UNL     1       7.078   4.238  -6.994  1.00  0.00     0.293 HD
ENDBRANCH   6  24
BRANCH   8  26
ATOM     26  O   UNL     1       5.611  -0.459  -6.429  1.00  0.00    -0.508 OA
ATOM     27  H   UNL     1       4.665  -0.793  -6.278  1.00  0.00     0.293 HD
ENDBRANCH   8  26
TORSDOF 6
ENDMDL
MODEL 2
REMARK VINA RESULT:    -4.946      7.080      9.060
REMARK INTER + INTRA:          -6.278
REMARK INTER:                  -6.355
REMARK INTRA:                   0.078
REMARK UNBOUND:                -0.320
REMARK SMILES O=c1c(O)c(-c2ccc(O)c(O)c2)oc2cc(O)cc(O)c12
REMARK SMILES IDX 5 1 3 2 2 3 1 4 22 5 20 6 19 7 17 8 16 9 15 10 14 11 6 12
REMARK SMILES IDX 7 13 8 14 9 15 13 16 11 17 10 18 12 20 4 22 21 24 18 26
REMARK H PARENT 10 19 12 21 4 23 21 25 18 27
REMARK Flexibility Score: inf
ROOT
ATOM      1  C   UNL     1      -0.634   0.875  -8.268  1.00  0.00     0.180 A 
ATOM      2  C   UNL     1      -0.433   2.103  -8.923  1.00  0.00     0.208 A 
ATOM      3  C   UNL     1       0.850   2.423  -9.391  1.00  0.00     0.238 A 
ATOM      4  O   UNL     1       1.036   3.547  -9.927  1.00  0.00    -0.285 OA
ATOM      5  C   UNL     1       1.914   1.506  -9.214  1.00  0.00     0.111 A 
ATOM      6  C   UNL     1       3.247   1.710  -9.683  1.00  0.00     0.134 A 
ATOM      7  C   UNL     1       4.248   0.794  -9.338  1.00  0.00     0.093 A 
ATOM      8  C   UNL     1       3.952  -0.351  -8.594  1.00  0.00     0.123 A 
ATOM      9  C   UNL     1       2.643  -0.588  -8.181  1.00  0.00     0.094 A 
ATOM     10  C   UNL     1       1.629   0.325  -8.481  1.00  0.00     0.146 A 
ATOM     11  O   UNL     1       0.397   0.065  -8.059  1.00  0.00    -0.452 OA
ENDROOT
BRANCH   1  12
ATOM     12  C   UNL     1      -1.964   0.456  -7.769  1.00  0.00     0.025 A 
ATOM     13  C   UNL     1      -2.132  -0.041  -6.465  1.00  0.00     0.016 A 
ATOM     14  C   UNL     1      -3.401  -0.408  -6.007  1.00  0.00     0.051 A 
ATOM     15  C   UNL     1      -4.519  -0.272  -6.839  1.00  0.00     0.157 A 
ATOM     16  C   UNL     1      -3.091   0.610  -8.592  1.00  0.00     0.062 A 
ATOM     17  C   UNL     1      -4.363   0.242  -8.137  1.00  0.00     0.158 A 
BRANCH  15  18
ATOM     18  O   UNL     1      -5.783  -0.640  -6.380  1.00  0.00    -0.504 OA
ATOM     19  H   UNL     1      -6.108  -1.599  -6.432  1.00  0.00     0.293 HD
ENDBRANCH  15  18
BRANCH  17  20
ATOM     20  O   UNL     1      -5.457   0.397  -8.987  1.00  0.00    -0.504 OA
ATOM     21  H   UNL     1      -5.612   1.248  -9.516  1.00  0.00     0.293 HD
ENDBRANCH  17  20
ENDBRANCH   1  12
BRANCH   2  22
ATOM     22  O   UNL     1      -1.493   3.004  -9.067  1.00  0.00    -0.502 OA
ATOM     23  H   UNL     1      -1.349   3.982  -9.286  1.00  0.00     0.293 HD
ENDBRANCH   2  22
BRANCH   6  24
ATOM     24  O   UNL     1       3.630   2.771 -10.509  1.00  0.00    -0.507 OA
ATOM     25  H   UNL     1       4.434   3.359 -10.353  1.00  0.00     0.293 HD
ENDBRANCH   6  24
BRANCH   8  26
ATOM     26  O   UNL     1       4.951  -1.264  -8.268  1.00  0.00    -0.508 OA
ATOM     27  H   UNL     1       5.755  -0.995  -7.711  1.00  0.00     0.293 HD
ENDBRANCH   8  26
TORSDOF 6
ENDMDL
MODEL 3
REMARK VINA RESULT:    -4.932      6.449      8.979
REMARK INTER + INTRA:          -6.261
REMARK INTER:                  -6.344
REMARK INTRA:                   0.084
REMARK UNBOUND:                -0.320
REMARK SMILES O=c1c(O)c(-c2ccc(O)c(O)c2)oc2cc(O)cc(O)c12
REMARK SMILES IDX 5 1 3 2 2 3 1 4 22 5 20 6 19 7 17 8 16 9 15 10 14 11 6 12
REMARK SMILES IDX 7 13 8 14 9 15 13 16 11 17 10 18 12 20 4 22 21 24 18 26
REMARK H PARENT 10 19 12 21 4 23 21 25 18 27
REMARK Flexibility Score: inf
ROOT
ATOM      1  C   UNL     1       1.008  -0.890  -8.376  1.00  0.00     0.180 A 
ATOM      2  C   UNL     1       0.790  -2.109  -9.040  1.00  0.00     0.208 A 
ATOM      3  C   UNL     1      -0.505  -2.420  -9.486  1.00  0.00     0.238 A 
ATOM      4  O   UNL     1      -0.705  -3.537 -10.030  1.00  0.00    -0.285 OA
ATOM      5  C   UNL     1      -1.561  -1.501  -9.277  1.00  0.00     0.111 A 
ATOM      6  C   UNL     1      -2.903  -1.694  -9.721  1.00  0.00     0.134 A 
ATOM      7  C   UNL     1      -3.894  -0.778  -9.346  1.00  0.00     0.093 A 
ATOM      8  C   UNL     1      -3.578   0.357  -8.596  1.00  0.00     0.123 A 
ATOM      9  C   UNL     1      -2.260   0.585  -8.207  1.00  0.00     0.094 A 
ATOM     10  C   UNL     1      -1.256  -0.329  -8.537  1.00  0.00     0.146 A 
ATOM     11  O   UNL     1      -0.016  -0.078  -8.137  1.00  0.00    -0.452 OA
ENDROOT
BRANCH   1  12
ATOM     12  C   UNL     1       2.349  -0.482  -7.898  1.00  0.00     0.025 A 
ATOM     13  C   UNL     1       2.544   0.009  -6.596  1.00  0.00     0.016 A 
ATOM     14  C   UNL     1       3.823   0.366  -6.158  1.00  0.00     0.051 A 
ATOM     15  C   UNL     1       4.926   0.226  -7.011  1.00  0.00     0.157 A 
ATOM     16  C   UNL     1       3.461  -0.640  -8.742  1.00  0.00     0.062 A 
ATOM     17  C   UNL     1       4.743  -0.282  -8.308  1.00  0.00     0.158 A 
BRANCH  15  18
ATOM     18  O   UNL     1       6.200   0.584  -6.573  1.00  0.00    -0.504 OA
ATOM     19  H   UNL     1       6.959  -0.087  -6.545  1.00  0.00     0.293 HD
ENDBRANCH  15  18
BRANCH  17  20
ATOM     20  O   UNL     1       5.821  -0.440  -9.178  1.00  0.00    -0.504 OA
ATOM     21  H   UNL     1       6.725  -0.772  -8.861  1.00  0.00     0.293 HD
ENDBRANCH  17  20
ENDBRANCH   1  12
BRANCH   2  22
ATOM     22  O   UNL     1       1.843  -3.013  -9.215  1.00  0.00    -0.502 OA
ATOM     23  H   UNL     1       2.320  -3.125 -10.101  1.00  0.00     0.293 HD
ENDBRANCH   2  22
BRANCH   6  24
ATOM     24  O   UNL     1      -3.307  -2.745 -10.551  1.00  0.00    -0.507 OA
ATOM     25  H   UNL     1      -2.680  -3.388 -11.010  1.00  0.00     0.293 HD
ENDBRANCH   6  24
BRANCH   8  26
ATOM     26  O   UNL     1      -4.567   1.271  -8.239  1.00  0.00    -0.508 OA
ATOM     27  H   UNL     1      -4.336   2.209  -7.931  1.00  0.00     0.293 HD
ENDBRANCH   8  26
TORSDOF 6
ENDMDL
MODEL 4
REMARK VINA RESULT:    -4.918     11.712     12.958
REMARK INTER + INTRA:          -6.244
REMARK INTER:                  -5.935
REMARK INTRA:                  -0.309
REMARK UNBOUND:                -0.320
REMARK SMILES O=c1c(O)c(-c2ccc(O)c(O)c2)oc2cc(O)cc(O)c12
REMARK SMILES IDX 5 1 3 2 2 3 1 4 22 5 20 6 19 7 17 8 16 9 15 10 14 11 6 12
REMARK SMILES IDX 7 13 8 14 9 15 13 16 11 17 10 18 12 20 4 22 21 24 18 26
REMARK H PARENT 10 19 12 21 4 23 21 25 18 27
REMARK Flexibility Score: inf
ROOT
ATOM      1  C   UNL     1      -5.818  -1.108 -11.997  1.00  0.00     0.180 A 
ATOM      2  C   UNL     1      -6.129  -2.474 -11.886  1.00  0.00     0.208 A 
ATOM      3  C   UNL     1      -6.296  -3.034 -10.610  1.00  0.00     0.238 A 
ATOM      4  O   UNL     1      -6.519  -4.269 -10.515  1.00  0.00    -0.285 OA
ATOM      5  C   UNL     1      -6.167  -2.217  -9.461  1.00  0.00     0.111 A 
ATOM      6  C   UNL     1      -6.355  -2.668  -8.120  1.00  0.00     0.134 A 
ATOM      7  C   UNL     1      -6.075  -1.804  -7.054  1.00  0.00     0.093 A 
ATOM      8  C   UNL     1      -5.675  -0.485  -7.282  1.00  0.00     0.123 A 
ATOM      9  C   UNL     1      -5.546  -0.017  -8.588  1.00  0.00     0.094 A 
ATOM     10  C   UNL     1      -5.785  -0.866  -9.672  1.00  0.00     0.146 A 
ATOM     11  O   UNL     1      -5.639  -0.382 -10.899  1.00  0.00    -0.452 OA
ENDROOT
BRANCH   1  12
ATOM     12  C   UNL     1      -5.652  -0.442 -13.309  1.00  0.00     0.025 A 
ATOM     13  C   UNL     1      -4.382  -0.277 -13.890  1.00  0.00     0.016 A 
ATOM     14  C   UNL     1      -4.251   0.333 -15.141  1.00  0.00     0.051 A 
ATOM     15  C   UNL     1      -5.385   0.776 -15.833  1.00  0.00     0.157 A 
ATOM     16  C   UNL     1      -6.787  -0.015 -14.018  1.00  0.00     0.062 A 
ATOM     17  C   UNL     1      -6.659   0.598 -15.270  1.00  0.00     0.158 A 
BRANCH  15  18
ATOM     18  O   UNL     1      -5.251   1.386 -17.080  1.00  0.00    -0.504 OA
ATOM     19  H   UNL     1      -5.043   2.375 -17.167  1.00  0.00     0.293 HD
ENDBRANCH  15  18
BRANCH  17  20
ATOM     20  O   UNL     1      -7.808   1.021 -15.937  1.00  0.00    -0.504 OA
ATOM     21  H   UNL     1      -8.612   0.417 -16.059  1.00  0.00     0.293 HD
ENDBRANCH  17  20
ENDBRANCH   1  12
BRANCH   2  22
ATOM     22  O   UNL     1      -6.229  -3.268 -13.033  1.00  0.00    -0.502 OA
ATOM     23  H   UNL     1      -7.119  -3.575 -13.406  1.00  0.00     0.293 HD
ENDBRANCH   2  22
BRANCH   6  24
ATOM     24  O   UNL     1      -6.838  -3.937  -7.784  1.00  0.00    -0.507 OA
ATOM     25  H   UNL     1      -6.334  -4.617  -7.235  1.00  0.00     0.293 HD
ENDBRANCH   6  24
BRANCH   8  26
ATOM     26  O   UNL     1      -5.413   0.372  -6.217  1.00  0.00    -0.508 OA
ATOM     27  H   UNL     1      -5.793   1.312  -6.186  1.00  0.00     0.293 HD
ENDBRANCH   8  26
TORSDOF 6
ENDMDL
MODEL 5
REMARK VINA RESULT:    -4.868      6.100      8.425
REMARK INTER + INTRA:          -6.183
REMARK INTER:                  -5.890
REMARK INTRA:                  -0.293
REMARK UNBOUND:                -0.320
REMARK SMILES O=c1c(O)c(-c2ccc(O)c(O)c2)oc2cc(O)cc(O)c12
REMARK SMILES IDX 5 1 3 2 2 3 1 4 22 5 20 6 19 7 17 8 16 9 15 10 14 11 6 12
REMARK SMILES IDX 7 13 8 14 9 15 13 16 11 17 10 18 12 20 4 22 21 24 18 26
REMARK H PARENT 10 19 12 21 4 23 21 25 18 27
REMARK Flexibility Score: inf
ROOT
ATOM      1  C   UNL     1       1.381   0.308  -7.456  1.00  0.00     0.180 A 
ATOM      2  C   UNL     1       0.640   1.289  -8.137  1.00  0.00     0.208 A 
ATOM      3  C   UNL     1      -0.756   1.163  -8.205  1.00  0.00     0.238 A 
ATOM      4  O   UNL     1      -1.409   2.014  -8.863  1.00  0.00    -0.285 OA
ATOM      5  C   UNL     1      -1.396   0.067  -7.577  1.00  0.00     0.111 A 
ATOM      6  C   UNL     1      -2.808  -0.139  -7.548  1.00  0.00     0.134 A 
ATOM      7  C   UNL     1      -3.322  -1.326  -7.010  1.00  0.00     0.093 A 
ATOM      8  C   UNL     1      -2.478  -2.284  -6.442  1.00  0.00     0.123 A 
ATOM      9  C   UNL     1      -1.103  -2.064  -6.413  1.00  0.00     0.094 A 
ATOM     10  C   UNL     1      -0.558  -0.906  -6.973  1.00  0.00     0.146 A 
ATOM     11  O   UNL     1       0.759  -0.743  -6.933  1.00  0.00    -0.452 OA
ENDROOT
BRANCH   1  12
ATOM     12  C   UNL     1       2.854   0.385  -7.321  1.00  0.00     0.025 A 
ATOM     13  C   UNL     1       3.458   0.822  -6.128  1.00  0.00     0.016 A 
ATOM     14  C   UNL     1       4.850   0.863  -6.015  1.00  0.00     0.051 A 
ATOM     15  C   UNL     1       5.658   0.458  -7.085  1.00  0.00     0.157 A 
ATOM     16  C   UNL     1       3.669  -0.039  -8.383  1.00  0.00     0.062 A 
ATOM     17  C   UNL     1       5.064   0.002  -8.273  1.00  0.00     0.158 A 
BRANCH  15  18
ATOM     18  O   UNL     1       7.047   0.503  -6.970  1.00  0.00    -0.504 OA
ATOM     19  H   UNL     1       7.570  -0.262  -6.558  1.00  0.00     0.293 HD
ENDBRANCH  15  18
BRANCH  17  20
ATOM     20  O   UNL     1       5.841  -0.414  -9.353  1.00  0.00    -0.504 OA
ATOM     21  H   UNL     1       6.494   0.206  -9.818  1.00  0.00     0.293 HD
ENDBRANCH  17  20
ENDBRANCH   1  12
BRANCH   2  22
ATOM     22  O   UNL     1       1.294   2.351  -8.770  1.00  0.00    -0.502 OA
ATOM     23  H   UNL     1       2.281   2.326  -8.993  1.00  0.00     0.293 HD
ENDBRANCH   2  22
BRANCH   6  24
ATOM     24  O   UNL     1      -3.742   0.795  -8.005  1.00  0.00    -0.507 OA
ATOM     25  H   UNL     1      -4.609   1.016  -7.538  1.00  0.00     0.293 HD
ENDBRANCH   6  24
BRANCH   8  26
ATOM     26  O   UNL     1      -2.998  -3.454  -5.895  1.00  0.00    -0.508 OA
ATOM     27  H   UNL     1      -2.436  -4.293  -5.805  1.00  0.00     0.293 HD
ENDBRANCH   8  26
TORSDOF 6
ENDMDL
MODEL 6
REMARK VINA RESULT:    -4.859      8.805     11.115
REMARK INTER + INTRA:          -6.172
REMARK INTER:                  -5.862
REMARK INTRA:                  -0.310
REMARK UNBOUND:                -0.320
REMARK SMILES O=c1c(O)c(-c2ccc(O)c(O)c2)oc2cc(O)cc(O)c12
REMARK SMILES IDX 5 1 3 2 2 3 1 4 22 5 20 6 19 7 17 8 16 9 15 10 14 11 6 12
REMARK SMILES IDX 7 13 8 14 9 15 13 16 11 17 10 18 12 20 4 22 21 24 18 26
REMARK H PARENT 10 19 12 21 4 23 21 25 18 27
REMARK Flexibility Score: inf
ROOT
ATOM      1  C   UNL     1      -1.909  -3.194  -7.402  1.00  0.00     0.180 A 
ATOM      2  C   UNL     1      -0.932  -3.690  -8.282  1.00  0.00     0.208 A 
ATOM      3  C   UNL     1       0.235  -2.941  -8.496  1.00  0.00     0.238 A 
ATOM      4  O   UNL     1       1.081  -3.363  -9.327  1.00  0.00    -0.285 OA
ATOM      5  C   UNL     1       0.419  -1.714  -7.815  1.00  0.00     0.111 A 
ATOM      6  C   UNL     1       1.580  -0.892  -7.926  1.00  0.00     0.134 A 
ATOM      7  C   UNL     1       1.599   0.365  -7.307  1.00  0.00     0.093 A 
ATOM      8  C   UNL     1       0.523   0.801  -6.530  1.00  0.00     0.123 A 
ATOM      9  C   UNL     1      -0.591  -0.019  -6.368  1.00  0.00     0.094 A 
ATOM     10  C   UNL     1      -0.653  -1.263  -7.001  1.00  0.00     0.146 A 
ATOM     11  O   UNL     1      -1.738  -2.008  -6.829  1.00  0.00    -0.452 OA
ENDROOT
BRANCH   1  12
ATOM     12  C   UNL     1      -3.155  -3.939  -7.107  1.00  0.00     0.025 A 
ATOM     13  C   UNL     1      -3.171  -5.006  -6.192  1.00  0.00     0.016 A 
ATOM     14  C   UNL     1      -4.363  -5.679  -5.911  1.00  0.00     0.051 A 
ATOM     15  C   UNL     1      -5.558  -5.287  -6.528  1.00  0.00     0.157 A 
ATOM     16  C   UNL     1      -4.360  -3.537  -7.707  1.00  0.00     0.062 A 
ATOM     17  C   UNL     1      -5.556  -4.209  -7.428  1.00  0.00     0.158 A 
BRANCH  15  18
ATOM     18  O   UNL     1      -6.745  -5.961  -6.247  1.00  0.00    -0.504 OA
ATOM     19  H   UNL     1      -7.162  -6.602  -6.913  1.00  0.00     0.293 HD
ENDBRANCH  15  18
BRANCH  17  20
ATOM     20  O   UNL     1      -6.729  -3.790  -8.054  1.00  0.00    -0.504 OA
ATOM     21  H   UNL     1      -7.612  -4.270  -7.918  1.00  0.00     0.293 HD
ENDBRANCH  17  20
ENDBRANCH   1  12
BRANCH   2  22
ATOM     22  O   UNL     1      -1.144  -4.894  -8.962  1.00  0.00    -0.502 OA
ATOM     23  H   UNL     1      -0.434  -5.612  -9.029  1.00  0.00     0.293 HD
ENDBRANCH   2  22
BRANCH   6  24
ATOM     24  O   UNL     1       2.744  -1.271  -8.601  1.00  0.00    -0.507 OA
ATOM     25  H   UNL     1       3.336  -0.643  -9.123  1.00  0.00     0.293 HD
ENDBRANCH   6  24
BRANCH   8  26
ATOM     26  O   UNL     1       0.555   2.046  -5.906  1.00  0.00    -0.508 OA
ATOM     27  H   UNL     1       0.923   2.160  -4.968  1.00  0.00     0.293 HD
ENDBRANCH   8  26
TORSDOF 6
ENDMDL
MODEL 7
REMARK VINA RESULT:    -4.812      7.717      9.978
REMARK INTER + INTRA:          -6.116
REMARK INTER:                  -5.814
REMARK INTRA:                  -0.302
REMARK UNBOUND:                -0.320
REMARK SMILES O=c1c(O)c(-c2ccc(O)c(O)c2)oc2cc(O)cc(O)c12
REMARK SMILES IDX 5 1 3 2 2 3 1 4 22 5 20 6 19 7 17 8 16 9 15 10 14 11 6 12
REMARK SMILES IDX 7 13 8 14 9 15 13 16 11 17 10 18 12 20 4 22 21 24 18 26
REMARK H PARENT 10 19 12 21 4 23 21 25 18 27
REMARK Flexibility Score: inf
ROOT
ATOM      1  C   UNL     1      -1.337  -0.343  -7.469  1.00  0.00     0.180 A 
ATOM      2  C   UNL     1      -0.584  -1.316  -8.148  1.00  0.00     0.208 A 
ATOM      3  C   UNL     1       0.812  -1.177  -8.208  1.00  0.00     0.238 A 
ATOM      4  O   UNL     1       1.476  -2.021  -8.865  1.00  0.00    -0.285 OA
ATOM      5  C   UNL     1       1.438  -0.077  -7.574  1.00  0.00     0.111 A 
ATOM      6  C   UNL     1       2.848   0.142  -7.538  1.00  0.00     0.134 A 
ATOM      7  C   UNL     1       3.348   1.332  -6.994  1.00  0.00     0.093 A 
ATOM      8  C   UNL     1       2.493   2.281  -6.429  1.00  0.00     0.123 A 
ATOM      9  C   UNL     1       1.119   2.049  -6.408  1.00  0.00     0.094 A 
ATOM     10  C   UNL     1       0.588   0.888  -6.973  1.00  0.00     0.146 A 
ATOM     11  O   UNL     1      -0.727   0.712  -6.941  1.00  0.00    -0.452 OA
ENDROOT
BRANCH   1  12
ATOM     12  C   UNL     1      -2.810  -0.434  -7.341  1.00  0.00     0.025 A 
ATOM     13  C   UNL     1      -3.415  -0.915  -6.167  1.00  0.00     0.016 A 
ATOM     14  C   UNL     1      -4.807  -0.969  -6.060  1.00  0.00     0.051 A 
ATOM     15  C   UNL     1      -5.614  -0.533  -7.118  1.00  0.00     0.157 A 
ATOM     16  C   UNL     1      -3.624   0.021  -8.391  1.00  0.00     0.062 A 
ATOM     17  C   UNL     1      -5.019  -0.033  -8.288  1.00  0.00     0.158 A 
BRANCH  15  18
ATOM     18  O   UNL     1      -7.003  -0.590  -7.010  1.00  0.00    -0.504 OA
ATOM     19  H   UNL     1      -7.498  -0.108  -6.267  1.00  0.00     0.293 HD
ENDBRANCH  15  18
BRANCH  17  20
ATOM     20  O   UNL     1      -5.795   0.415  -9.357  1.00  0.00    -0.504 OA
ATOM     21  H   UNL     1      -5.401   0.581 -10.275  1.00  0.00     0.293 HD
ENDBRANCH  17  20
ENDBRANCH   1  12
BRANCH   2  22
ATOM     22  O   UNL     1      -1.224  -2.382  -8.786  1.00  0.00    -0.502 OA
ATOM     23  H   UNL     1      -1.568  -3.190  -8.282  1.00  0.00     0.293 HD
ENDBRANCH   2  22
BRANCH   6  24
ATOM     24  O   UNL     1       3.794  -0.782  -7.992  1.00  0.00    -0.507 OA
ATOM     25  H   UNL     1       4.408  -1.315  -7.395  1.00  0.00     0.293 HD
ENDBRANCH   6  24
BRANCH   8  26
ATOM     26  O   UNL     1       3.000   3.455  -5.877  1.00  0.00    -0.508 OA
ATOM     27  H   UNL     1       2.611   4.362  -6.111  1.00  0.00     0.293 HD
ENDBRANCH   8  26
TORSDOF 6
ENDMDL
MODEL 8
REMARK VINA RESULT:    -4.801      8.112     10.128
REMARK INTER + INTRA:          -6.103
REMARK INTER:                  -5.818
REMARK INTRA:                  -0.285
REMARK UNBOUND:                -0.320
REMARK SMILES O=c1c(O)c(-c2ccc(O)c(O)c2)oc2cc(O)cc(O)c12
REMARK SMILES IDX 5 1 3 2 2 3 1 4 22 5 20 6 19 7 17 8 16 9 15 10 14 11 6 12
REMARK SMILES IDX 7 13 8 14 9 15 13 16 11 17 10 18 12 20 4 22 21 24 18 26
REMARK H PARENT 10 19 12 21 4 23 21 25 18 27
REMARK Flexibility Score: inf
ROOT
ATOM      1  C   UNL     1      -1.734   0.329  -7.900  1.00  0.00     0.180 A 
ATOM      2  C   UNL     1      -0.724  -0.642  -7.791  1.00  0.00     0.208 A 
ATOM      3  C   UNL     1       0.618  -0.246  -7.910  1.00  0.00     0.238 A 
ATOM      4  O   UNL     1       1.515  -1.128  -7.866  1.00  0.00    -0.285 OA
ATOM      5  C   UNL     1       0.933   1.118  -8.121  1.00  0.00     0.111 A 
ATOM      6  C   UNL     1       2.259   1.637  -8.218  1.00  0.00     0.134 A 
ATOM      7  C   UNL     1       2.450   2.983  -8.558  1.00  0.00     0.093 A 
ATOM      8  C   UNL     1       1.364   3.841  -8.741  1.00  0.00     0.123 A 
ATOM      9  C   UNL     1       0.066   3.356  -8.591  1.00  0.00     0.094 A 
ATOM     10  C   UNL     1      -0.157   2.011  -8.287  1.00  0.00     0.146 A 
ATOM     11  O   UNL     1      -1.410   1.589  -8.164  1.00  0.00    -0.452 OA
ENDROOT
BRANCH   1  12
ATOM     12  C   UNL     1      -3.169  -0.008  -7.761  1.00  0.00     0.025 A 
ATOM     13  C   UNL     1      -3.742  -0.266  -6.503  1.00  0.00     0.016 A 
ATOM     14  C   UNL     1      -5.104  -0.558  -6.392  1.00  0.00     0.051 A 
ATOM     15  C   UNL     1      -5.915  -0.585  -7.534  1.00  0.00     0.157 A 
ATOM     16  C   UNL     1      -3.992  -0.016  -8.899  1.00  0.00     0.062 A 
ATOM     17  C   UNL     1      -5.357  -0.309  -8.792  1.00  0.00     0.158 A 
BRANCH  15  18
ATOM     18  O   UNL     1      -7.274  -0.878  -7.421  1.00  0.00    -0.504 OA
ATOM     19  H   UNL     1      -7.828  -1.143  -8.228  1.00  0.00     0.293 HD
ENDBRANCH  15  18
BRANCH  17  20
ATOM     20  O   UNL     1      -6.139  -0.321  -9.947  1.00  0.00    -0.504 OA
ATOM     21  H   UNL     1      -6.876  -1.002 -10.091  1.00  0.00     0.293 HD
ENDBRANCH  17  20
ENDBRANCH   1  12
BRANCH   2  22
ATOM     22  O   UNL     1      -1.058  -1.987  -7.604  1.00  0.00    -0.502 OA
ATOM     23  H   UNL     1      -1.920  -2.276  -7.158  1.00  0.00     0.293 HD
ENDBRANCH   2  22
BRANCH   6  24
ATOM     24  O   UNL     1       3.411   0.888  -7.964  1.00  0.00    -0.507 OA
ATOM     25  H   UNL     1       3.482   0.162  -7.267  1.00  0.00     0.293 HD
ENDBRANCH   6  24
BRANCH   8  26
ATOM     26  O   UNL     1       1.563   5.181  -9.064  1.00  0.00    -0.508 OA
ATOM     27  H   UNL     1       1.418   5.918  -8.383  1.00  0.00     0.293 HD
ENDBRANCH   8  26
TORSDOF 6
ENDMDL
MODEL 9
REMARK VINA RESULT:    -4.694      5.717      7.252
REMARK INTER + INTRA:          -5.974
REMARK INTER:                  -5.640
REMARK INTRA:                  -0.334
REMARK UNBOUND:                -0.320
REMARK SMILES O=c1c(O)c(-c2ccc(O)c(O)c2)oc2cc(O)cc(O)c12
REMARK SMILES IDX 5 1 3 2 2 3 1 4 22 5 20 6 19 7 17 8 16 9 15 10 14 11 6 12
REMARK SMILES IDX 7 13 8 14 9 15 13 16 11 17 10 18 12 20 4 22 21 24 18 26
REMARK H PARENT 10 19 12 21 4 23 21 25 18 27
REMARK Flexibility Score: inf
ROOT
ATOM      1  C   UNL     1       1.123  -0.657  -8.115  1.00  0.00     0.180 A 
ATOM      2  C   UNL     1       0.511   0.438  -7.482  1.00  0.00     0.208 A 
ATOM      3  C   UNL     1       1.319   1.415  -6.880  1.00  0.00     0.238 A 
ATOM      4  O   UNL     1       0.765   2.365  -6.267  1.00  0.00    -0.285 OA
ATOM      5  C   UNL     1       2.728   1.294  -6.932  1.00  0.00     0.111 A 
ATOM      6  C   UNL     1       3.644   2.245  -6.390  1.00  0.00     0.134 A 
ATOM      7  C   UNL     1       5.015   1.958  -6.385  1.00  0.00     0.093 A 
ATOM      8  C   UNL     1       5.507   0.783  -6.959  1.00  0.00     0.123 A 
ATOM      9  C   UNL     1       4.626  -0.124  -7.543  1.00  0.00     0.094 A 
ATOM     10  C   UNL     1       3.250   0.119  -7.533  1.00  0.00     0.146 A 
ATOM     11  O   UNL     1       2.445  -0.777  -8.091  1.00  0.00    -0.452 OA
ENDROOT
BRANCH   1  12
ATOM     12  C   UNL     1       0.338  -1.714  -8.794  1.00  0.00     0.025 A 
ATOM     13  C   UNL     1      -0.040  -1.594 -10.142  1.00  0.00     0.016 A 
ATOM     14  C   UNL     1      -0.759  -2.615 -10.769  1.00  0.00     0.051 A 
ATOM     15  C   UNL     1      -1.100  -3.775 -10.062  1.00  0.00     0.157 A 
ATOM     16  C   UNL     1       0.011  -2.889  -8.096  1.00  0.00     0.062 A 
ATOM     17  C   UNL     1      -0.710  -3.913  -8.720  1.00  0.00     0.158 A 
BRANCH  15  18
ATOM     18  O   UNL     1      -1.820  -4.792 -10.689  1.00  0.00    -0.504 OA
ATOM     19  H   UNL     1      -1.369  -5.644 -11.004  1.00  0.00     0.293 HD
ENDBRANCH  15  18
BRANCH  17  20
ATOM     20  O   UNL     1      -1.028  -5.058  -7.991  1.00  0.00    -0.504 OA
ATOM     21  H   UNL     1      -0.487  -5.351  -7.186  1.00  0.00     0.293 HD
ENDBRANCH  17  20
ENDBRANCH   1  12
BRANCH   2  22
ATOM     22  O   UNL     1      -0.884   0.527  -7.422  1.00  0.00    -0.502 OA
ATOM     23  H   UNL     1      -1.491  -0.179  -7.819  1.00  0.00     0.293 HD
ENDBRANCH   2  22
BRANCH   6  24
ATOM     24  O   UNL     1       3.265   3.488  -5.876  1.00  0.00    -0.507 OA
ATOM     25  H   UNL     1       2.377   3.934  -6.047  1.00  0.00     0.293 HD
ENDBRANCH   6  24
BRANCH   8  26
ATOM     26  O   UNL     1       6.874   0.512  -6.963  1.00  0.00    -0.508 OA
ATOM     27  H   UNL     1       7.376   0.307  -6.106  1.00  0.00     0.293 HD
ENDBRANCH   8  26
TORSDOF 6
ENDMDL
