MODEL 1
REMARK VINA RESULT:    -6.758      0.000      0.000
REMARK INTER + INTRA:         -10.213
REMARK INTER:                  -8.931
REMARK INTRA:                  -1.283
REMARK UNBOUND:                -1.283
REMARK SMILES CC[C@@H](C=C[C@H](C)[C@H]1CC[C@@H]2[C@@H]3CC[C@@H]4C[C@H](O)CC[C@@]4(C)[C@@H]3CC[C@]21C)C(C)C
REMARK SMILES IDX 6 1 7 2 5 3 4 4 3 5 2 6 1 7 28 8 29 9 30 10 8 11 9 12 26 13
REMARK SMILES IDX 10 14 11 15 25 16 27 17 12 18 24 19 23 20 13 21 21 22 14 23
REMARK SMILES IDX 15 24 20 25 22 26 16 27 19 28 17 29 18 30
REMARK H PARENT 18 31
REMARK Flexibility Score: inf
ROOT
ATOM      1  C   UNL     1     139.263 138.907 145.939  1.00  0.00     0.012 C 
ATOM      2  C   UNL     1     138.267 137.752 146.167  1.00  0.00     0.012 C 
ENDROOT
BRANCH   1   3
ATOM      3  C   UNL     1     139.639 139.584 147.251  1.00  0.00    -0.028 C 
ATOM      4  C   UNL     1     139.705 140.916 147.484  1.00  0.00    -0.027 C 
BRANCH   4   5
ATOM      5  C   UNL     1     139.460 142.076 146.514  1.00  0.00     0.014 C 
BRANCH   5   6
ATOM      6  C   UNL     1     140.211 143.377 146.902  1.00  0.00     0.004 C 
ATOM      7  C   UNL     1     140.668 143.397 148.366  1.00  0.00     0.004 C 
ENDBRANCH   5   6
BRANCH   5   8
ATOM      8  C   UNL     1     137.938 142.245 146.192  1.00  0.00    -0.011 C 
ATOM      9  C   UNL     1     137.746 143.010 144.870  1.00  0.00     0.008 C 
ATOM     10  C   UNL     1     137.147 142.950 147.309  1.00  0.00     0.008 C 
ENDBRANCH   5   8
ENDBRANCH   4   5
ENDBRANCH   1   3
BRANCH   1  11
ATOM     11  C   UNL     1     140.491 138.484 145.055  1.00  0.00     0.002 C 
ATOM     12  C   UNL     1     141.068 139.681 144.245  1.00  0.00     0.005 C 
ATOM     13  C   UNL     1     141.745 137.756 145.680  1.00  0.00    -0.026 C 
ATOM     14  C   UNL     1     142.588 139.665 144.423  1.00  0.00     0.005 C 
ATOM     15  C   UNL     1     142.787 138.880 145.706  1.00  0.00    -0.001 C 
ATOM     16  C   UNL     1     141.649 137.197 147.122  1.00  0.00     0.007 C 
ATOM     17  C   UNL     1     142.117 136.590 144.708  1.00  0.00     0.012 C 
ATOM     18  C   UNL     1     144.225 138.497 146.139  1.00  0.00    -0.004 C 
ATOM     19  C   UNL     1     143.006 136.671 147.634  1.00  0.00     0.005 C 
ATOM     20  C   UNL     1     144.226 137.637 147.457  1.00  0.00    -0.001 C 
ATOM     21  C   UNL     1     145.174 137.957 145.045  1.00  0.00     0.004 C 
ATOM     22  C   UNL     1     145.632 136.950 147.758  1.00  0.00    -0.026 C 
ATOM     23  C   UNL     1     146.633 137.842 145.547  1.00  0.00     0.004 C 
ATOM     24  C   UNL     1     146.766 137.808 147.091  1.00  0.00    -0.002 C 
ATOM     25  C   UNL     1     145.866 136.935 149.299  1.00  0.00     0.010 C 
ATOM     26  C   UNL     1     145.684 135.474 147.234  1.00  0.00     0.012 C 
ATOM     27  C   UNL     1     148.194 137.391 147.516  1.00  0.00     0.036 C 
ATOM     28  C   UNL     1     147.279 136.475 149.689  1.00  0.00     0.032 C 
ATOM     29  C   UNL     1     148.350 137.371 149.045  1.00  0.00     0.114 C 
BRANCH  29  30
ATOM     30  O   UNL     1     149.630 136.897 149.372  1.00  0.00    -0.393 OA
ATOM     31  H   UNL     1     149.510 136.183 150.056  1.00  0.00     0.210 HD
ENDBRANCH  29  30
ENDBRANCH   1  11
TORSDOF 6
ENDMDL
MODEL 2
REMARK VINA RESULT:    -6.525      5.579     10.075
REMARK INTER + INTRA:          -9.906
REMARK INTER:                  -8.348
REMARK INTRA:                  -1.558
REMARK UNBOUND:                -1.283
REMARK SMILES CC[C@@H](C=C[C@H](C)[C@H]1CC[C@@H]2[C@@H]3CC[C@@H]4C[C@H](O)CC[C@@]4(C)[C@@H]3CC[C@]21C)C(C)C
REMARK SMILES IDX 6 1 7 2 5 3 4 4 3 5 2 6 1 7 28 8 29 9 30 10 8 11 9 12 26 13
REMARK SMILES IDX 10 14 11 15 25 16 27 17 12 18 24 19 23 20 13 21 21 22 14 23
REMARK SMILES IDX 15 24 20 25 22 26 16 27 19 28 17 29 18 30
REMARK H PARENT 18 31
REMARK Flexibility Score: inf
ROOT
ATOM      1  C   UNL     1     149.837 139.864 139.501  1.00  0.00     0.012 C 
ATOM      2  C   UNL     1     149.344 140.036 138.050  1.00  0.00     0.012 C 
ENDROOT
BRANCH   1   3
ATOM      3  C   UNL     1     151.324 140.175 139.623  1.00  0.00    -0.028 C 
ATOM      4  C   UNL     1     152.327 139.280 139.785  1.00  0.00    -0.027 C 
BRANCH   4   5
ATOM      5  C   UNL     1     152.244 137.756 139.918  1.00  0.00     0.014 C 
BRANCH   5   6
ATOM      6  C   UNL     1     153.071 137.193 141.105  1.00  0.00     0.004 C 
ATOM      7  C   UNL     1     152.501 135.888 141.673  1.00  0.00     0.004 C 
ENDBRANCH   5   6
BRANCH   5   8
ATOM      8  C   UNL     1     152.467 137.045 138.542  1.00  0.00    -0.011 C 
ATOM      9  C   UNL     1     152.945 138.055 137.483  1.00  0.00     0.008 C 
ATOM     10  C   UNL     1     151.219 136.310 138.018  1.00  0.00     0.008 C 
ENDBRANCH   5   8
ENDBRANCH   4   5
ENDBRANCH   1   3
BRANCH   1  11
ATOM     11  C   UNL     1     148.932 140.615 140.543  1.00  0.00     0.002 C 
ATOM     12  C   UNL     1     147.459 140.738 140.057  1.00  0.00     0.005 C 
ATOM     13  C   UNL     1     148.841 140.142 142.048  1.00  0.00    -0.026 C 
ATOM     14  C   UNL     1     146.557 140.321 141.220  1.00  0.00     0.005 C 
ATOM     15  C   UNL     1     147.464 139.470 142.087  1.00  0.00    -0.001 C 
ATOM     16  C   UNL     1     149.865 139.106 142.574  1.00  0.00     0.007 C 
ATOM     17  C   UNL     1     148.926 141.432 142.928  1.00  0.00     0.012 C 
ATOM     18  C   UNL     1     146.954 138.993 143.471  1.00  0.00    -0.004 C 
ATOM     19  C   UNL     1     149.532 138.633 144.004  1.00  0.00     0.005 C 
ATOM     20  C   UNL     1     148.054 138.175 144.247  1.00  0.00    -0.001 C 
ATOM     21  C   UNL     1     146.217 140.029 144.350  1.00  0.00     0.004 C 
ATOM     22  C   UNL     1     147.700 137.949 145.785  1.00  0.00    -0.026 C 
ATOM     23  C   UNL     1     145.553 139.375 145.585  1.00  0.00     0.004 C 
ATOM     24  C   UNL     1     146.140 137.988 145.954  1.00  0.00    -0.002 C 
ATOM     25  C   UNL     1     148.208 136.539 146.216  1.00  0.00     0.010 C 
ATOM     26  C   UNL     1     148.378 139.023 146.702  1.00  0.00     0.012 C 
ATOM     27  C   UNL     1     145.654 137.535 147.352  1.00  0.00     0.036 C 
ATOM     28  C   UNL     1     147.744 136.138 147.624  1.00  0.00     0.032 C 
ATOM     29  C   UNL     1     146.210 136.152 147.727  1.00  0.00     0.114 C 
BRANCH  29  30
ATOM     30  O   UNL     1     145.816 135.836 149.036  1.00  0.00    -0.393 OA
ATOM     31  H   UNL     1     145.837 136.683 149.558  1.00  0.00     0.210 HD
ENDBRANCH  29  30
ENDBRANCH   1  11
TORSDOF 6
ENDMDL
MODEL 3
REMARK VINA RESULT:    -6.480      3.794      6.569
REMARK INTER + INTRA:          -9.846
REMARK INTER:                  -7.988
REMARK INTRA:                  -1.858
REMARK UNBOUND:                -1.283
REMARK SMILES CC[C@@H](C=C[C@H](C)[C@H]1CC[C@@H]2[C@@H]3CC[C@@H]4C[C@H](O)CC[C@@]4(C)[C@@H]3CC[C@]21C)C(C)C
REMARK SMILES IDX 6 1 7 2 5 3 4 4 3 5 2 6 1 7 28 8 29 9 30 10 8 11 9 12 26 13
REMARK SMILES IDX 10 14 11 15 25 16 27 17 12 18 24 19 23 20 13 21 21 22 14 23
REMARK SMILES IDX 15 24 20 25 22 26 16 27 19 28 17 29 18 30
REMARK H PARENT 18 31
REMARK Flexibility Score: inf
ROOT
ATOM      1  C   UNL     1     145.206 138.377 142.105  1.00  0.00     0.012 C 
ATOM      2  C   UNL     1     144.460 137.120 141.613  1.00  0.00     0.012 C 
ENDROOT
BRANCH   1   3
ATOM      3  C   UNL     1     145.258 139.450 141.025  1.00  0.00    -0.028 C 
ATOM      4  C   UNL     1     146.276 140.311 140.789  1.00  0.00    -0.027 C 
BRANCH   4   5
ATOM      5  C   UNL     1     147.602 140.462 141.540  1.00  0.00     0.014 C 
BRANCH   5   6
ATOM      6  C   UNL     1     147.508 141.387 142.783  1.00  0.00     0.004 C 
ATOM      7  C   UNL     1     148.551 141.062 143.859  1.00  0.00     0.004 C 
ENDBRANCH   5   6
BRANCH   5   8
ATOM      8  C   UNL     1     148.786 140.762 140.562  1.00  0.00    -0.011 C 
ATOM      9  C   UNL     1     148.260 141.357 139.243  1.00  0.00     0.008 C 
ATOM     10  C   UNL     1     149.659 139.531 140.254  1.00  0.00     0.008 C 
ENDBRANCH   5   8
ENDBRANCH   4   5
ENDBRANCH   1   3
BRANCH   1  11
ATOM     11  C   UNL     1     144.684 138.886 143.498  1.00  0.00     0.002 C 
ATOM     12  C   UNL     1     143.199 138.494 143.745  1.00  0.00     0.005 C 
ATOM     13  C   UNL     1     145.440 138.537 144.840  1.00  0.00    -0.026 C 
ATOM     14  C   UNL     1     143.108 137.911 145.156  1.00  0.00     0.005 C 
ATOM     15  C   UNL     1     144.528 137.468 145.450  1.00  0.00    -0.001 C 
ATOM     16  C   UNL     1     146.863 137.927 144.765  1.00  0.00     0.007 C 
ATOM     17  C   UNL     1     145.497 139.855 145.678  1.00  0.00     0.012 C 
ATOM     18  C   UNL     1     144.883 136.971 146.875  1.00  0.00    -0.004 C 
ATOM     19  C   UNL     1     147.384 137.494 146.150  1.00  0.00     0.005 C 
ATOM     20  C   UNL     1     146.410 136.613 147.003  1.00  0.00    -0.001 C 
ATOM     21  C   UNL     1     144.335 137.789 148.067  1.00  0.00     0.004 C 
ATOM     22  C   UNL     1     146.885 136.415 148.512  1.00  0.00    -0.026 C 
ATOM     23  C   UNL     1     144.551 137.063 149.417  1.00  0.00     0.004 C 
ATOM     24  C   UNL     1     145.650 135.971 149.375  1.00  0.00    -0.002 C 
ATOM     25  C   UNL     1     147.954 135.281 148.559  1.00  0.00     0.010 C 
ATOM     26  C   UNL     1     147.521 137.722 149.099  1.00  0.00     0.012 C 
ATOM     27  C   UNL     1     146.024 135.505 150.803  1.00  0.00     0.036 C 
ATOM     28  C   UNL     1     148.334 134.872 149.991  1.00  0.00     0.032 C 
ATOM     29  C   UNL     1     147.099 134.407 150.780  1.00  0.00     0.114 C 
BRANCH  29  30
ATOM     30  O   UNL     1     147.465 134.093 152.098  1.00  0.00    -0.393 OA
ATOM     31  H   UNL     1     147.525 134.953 152.596  1.00  0.00     0.210 HD
ENDBRANCH  29  30
ENDBRANCH   1  11
TORSDOF 6
ENDMDL
MODEL 4
REMARK VINA RESULT:    -6.461      1.554      2.591
REMARK INTER + INTRA:          -9.821
REMARK INTER:                  -8.389
REMARK INTRA:                  -1.432
REMARK UNBOUND:                -1.283
REMARK SMILES CC[C@@H](C=C[C@H](C)[C@H]1CC[C@@H]2[C@@H]3CC[C@@H]4C[C@H](O)CC[C@@]4(C)[C@@H]3CC[C@]21C)C(C)C
REMARK SMILES IDX 6 1 7 2 5 3 4 4 3 5 2 6 1 7 28 8 29 9 30 10 8 11 9 12 26 13
REMARK SMILES IDX 10 14 11 15 25 16 27 17 12 18 24 19 23 20 13 21 21 22 14 23
REMARK SMILES IDX 15 24 20 25 22 26 16 27 19 28 17 29 18 30
REMARK H PARENT 18 31
REMARK Flexibility Score: inf
ROOT
ATOM      1  C   UNL     1     140.338 138.234 145.102  1.00  0.00     0.012 C 
ATOM      2  C   UNL     1     140.251 138.207 143.562  1.00  0.00     0.012 C 
ENDROOT
BRANCH   1   3
ATOM      3  C   UNL     1     139.063 138.795 145.720  1.00  0.00    -0.028 C 
ATOM      4  C   UNL     1     138.945 139.942 146.430  1.00  0.00    -0.027 C 
BRANCH   4   5
ATOM      5  C   UNL     1     140.033 140.946 146.824  1.00  0.00     0.014 C 
BRANCH   5   6
ATOM      6  C   UNL     1     139.757 141.659 148.174  1.00  0.00     0.004 C 
ATOM      7  C   UNL     1     138.328 142.202 148.289  1.00  0.00     0.004 C 
ENDBRANCH   5   6
BRANCH   5   8
ATOM      8  C   UNL     1     140.409 141.883 145.628  1.00  0.00    -0.011 C 
ATOM      9  C   UNL     1     141.023 143.198 146.145  1.00  0.00     0.008 C 
ATOM     10  C   UNL     1     139.223 142.205 144.700  1.00  0.00     0.008 C 
ENDBRANCH   5   8
ENDBRANCH   4   5
ENDBRANCH   1   3
BRANCH   1  11
ATOM     11  C   UNL     1     140.800 136.860 145.709  1.00  0.00     0.002 C 
ATOM     12  C   UNL     1     141.121 135.812 144.604  1.00  0.00     0.005 C 
ATOM     13  C   UNL     1     141.999 136.773 146.733  1.00  0.00    -0.026 C 
ATOM     14  C   UNL     1     142.465 135.172 144.957  1.00  0.00     0.005 C 
ATOM     15  C   UNL     1     143.121 136.197 145.862  1.00  0.00    -0.001 C 
ATOM     16  C   UNL     1     142.544 138.078 147.366  1.00  0.00     0.007 C 
ATOM     17  C   UNL     1     141.544 135.808 147.875  1.00  0.00     0.012 C 
ATOM     18  C   UNL     1     144.449 135.834 146.575  1.00  0.00    -0.004 C 
ATOM     19  C   UNL     1     143.814 137.831 148.207  1.00  0.00     0.005 C 
ATOM     20  C   UNL     1     144.943 136.998 147.512  1.00  0.00    -0.001 C 
ATOM     21  C   UNL     1     144.545 134.433 147.220  1.00  0.00     0.004 C 
ATOM     22  C   UNL     1     146.109 136.553 148.505  1.00  0.00    -0.026 C 
ATOM     23  C   UNL     1     145.986 134.105 147.681  1.00  0.00     0.004 C 
ATOM     24  C   UNL     1     146.889 135.352 147.860  1.00  0.00    -0.002 C 
ATOM     25  C   UNL     1     147.098 137.744 148.686  1.00  0.00     0.010 C 
ATOM     26  C   UNL     1     145.553 136.150 149.913  1.00  0.00     0.012 C 
ATOM     27  C   UNL     1     148.197 134.989 148.603  1.00  0.00     0.036 C 
ATOM     28  C   UNL     1     148.366 137.360 149.464  1.00  0.00     0.032 C 
ATOM     29  C   UNL     1     149.114 136.210 148.771  1.00  0.00     0.114 C 
BRANCH  29  30
ATOM     30  O   UNL     1     150.236 135.843 149.531  1.00  0.00    -0.393 OA
ATOM     31  H   UNL     1     150.588 136.675 149.950  1.00  0.00     0.210 HD
ENDBRANCH  29  30
ENDBRANCH   1  11
TORSDOF 6
ENDMDL
MODEL 5
REMARK VINA RESULT:    -6.374      2.336      3.253
REMARK INTER + INTRA:          -9.706
REMARK INTER:                  -8.591
REMARK INTRA:                  -1.115
REMARK UNBOUND:                -1.283
REMARK SMILES CC[C@@H](C=C[C@H](C)[C@H]1CC[C@@H]2[C@@H]3CC[C@@H]4C[C@H](O)CC[C@@]4(C)[C@@H]3CC[C@]21C)C(C)C
REMARK SMILES IDX 6 1 7 2 5 3 4 4 3 5 2 6 1 7 28 8 29 9 30 10 8 11 9 12 26 13
REMARK SMILES IDX 10 14 11 15 25 16 27 17 12 18 24 19 23 20 13 21 21 22 14 23
REMARK SMILES IDX 15 24 20 25 22 26 16 27 19 28 17 29 18 30
REMARK H PARENT 18 31
REMARK Flexibility Score: inf
ROOT
ATOM      1  C   UNL     1     139.341 138.430 146.241  1.00  0.00     0.012 C 
ATOM      2  C   UNL     1     138.597 137.417 147.135  1.00  0.00     0.012 C 
ENDROOT
BRANCH   1   3
ATOM      3  C   UNL     1     140.077 139.471 147.075  1.00  0.00    -0.028 C 
ATOM      4  C   UNL     1     139.799 140.795 147.146  1.00  0.00    -0.027 C 
BRANCH   4   5
ATOM      5  C   UNL     1     138.721 141.592 146.405  1.00  0.00     0.014 C 
BRANCH   5   6
ATOM      6  C   UNL     1     138.950 141.666 144.872  1.00  0.00     0.004 C 
ATOM      7  C   UNL     1     140.416 141.897 144.490  1.00  0.00     0.004 C 
ENDBRANCH   5   6
BRANCH   5   8
ATOM      8  C   UNL     1     138.430 142.958 147.111  1.00  0.00    -0.011 C 
ATOM      9  C   UNL     1     139.710 143.513 147.763  1.00  0.00     0.008 C 
ATOM     10  C   UNL     1     137.312 142.880 148.168  1.00  0.00     0.008 C 
ENDBRANCH   5   8
ENDBRANCH   4   5
ENDBRANCH   1   3
BRANCH   1  11
ATOM     11  C   UNL     1     140.227 137.736 145.145  1.00  0.00     0.002 C 
ATOM     12  C   UNL     1     139.835 138.183 143.706  1.00  0.00     0.005 C 
ATOM     13  C   UNL     1     141.804 137.808 145.192  1.00  0.00    -0.026 C 
ATOM     14  C   UNL     1     141.127 138.531 142.966  1.00  0.00     0.005 C 
ATOM     15  C   UNL     1     142.110 138.822 144.084  1.00  0.00    -0.001 C 
ATOM     16  C   UNL     1     142.496 138.323 146.479  1.00  0.00     0.007 C 
ATOM     17  C   UNL     1     142.328 136.369 144.876  1.00  0.00     0.012 C 
ATOM     18  C   UNL     1     143.603 139.053 143.735  1.00  0.00    -0.004 C 
ATOM     19  C   UNL     1     144.019 138.486 146.297  1.00  0.00     0.005 C 
ATOM     20  C   UNL     1     144.474 139.280 145.025  1.00  0.00    -0.001 C 
ATOM     21  C   UNL     1     144.247 138.089 142.712  1.00  0.00     0.004 C 
ATOM     22  C   UNL     1     146.042 139.194 144.748  1.00  0.00    -0.026 C 
ATOM     23  C   UNL     1     145.652 138.567 142.271  1.00  0.00     0.004 C 
ATOM     24  C   UNL     1     146.310 139.574 143.248  1.00  0.00    -0.002 C 
ATOM     25  C   UNL     1     146.771 140.230 145.657  1.00  0.00     0.010 C 
ATOM     26  C   UNL     1     146.612 137.769 145.062  1.00  0.00     0.012 C 
ATOM     27  C   UNL     1     147.808 139.773 142.915  1.00  0.00     0.036 C 
ATOM     28  C   UNL     1     148.265 140.371 145.329  1.00  0.00     0.032 C 
ATOM     29  C   UNL     1     148.473 140.784 143.863  1.00  0.00     0.114 C 
BRANCH  29  30
ATOM     30  O   UNL     1     149.845 140.852 143.574  1.00  0.00    -0.393 OA
ATOM     31  H   UNL     1     149.928 141.081 142.609  1.00  0.00     0.210 HD
ENDBRANCH  29  30
ENDBRANCH   1  11
TORSDOF 6
ENDMDL
MODEL 6
REMARK VINA RESULT:    -6.339      5.994     10.148
REMARK INTER + INTRA:          -9.659
REMARK INTER:                  -8.185
REMARK INTRA:                  -1.474
REMARK UNBOUND:                -1.283
REMARK SMILES CC[C@@H](C=C[C@H](C)[C@H]1CC[C@@H]2[C@@H]3CC[C@@H]4C[C@H](O)CC[C@@]4(C)[C@@H]3CC[C@]21C)C(C)C
REMARK SMILES IDX 6 1 7 2 5 3 4 4 3 5 2 6 1 7 28 8 29 9 30 10 8 11 9 12 26 13
REMARK SMILES IDX 10 14 11 15 25 16 27 17 12 18 24 19 23 20 13 21 21 22 14 23
REMARK SMILES IDX 15 24 20 25 22 26 16 27 19 28 17 29 18 30
REMARK H PARENT 18 31
REMARK Flexibility Score: inf
ROOT
ATOM      1  C   UNL     1     139.152 139.886 145.913  1.00  0.00     0.012 C 
ATOM      2  C   UNL     1     138.538 138.492 146.150  1.00  0.00     0.012 C 
ENDROOT
BRANCH   1   3
ATOM      3  C   UNL     1     140.339 140.134 146.836  1.00  0.00    -0.028 C 
ATOM      4  C   UNL     1     140.454 141.118 147.759  1.00  0.00    -0.027 C 
BRANCH   4   5
ATOM      5  C   UNL     1     139.467 142.240 148.097  1.00  0.00     0.014 C 
BRANCH   5   6
ATOM      6  C   UNL     1     137.980 141.814 147.971  1.00  0.00     0.004 C 
ATOM      7  C   UNL     1     137.013 143.003 147.941  1.00  0.00     0.004 C 
ENDBRANCH   5   6
BRANCH   5   8
ATOM      8  C   UNL     1     139.850 143.578 147.382  1.00  0.00    -0.011 C 
ATOM      9  C   UNL     1     141.053 143.364 146.444  1.00  0.00     0.008 C 
ATOM     10  C   UNL     1     140.161 144.730 148.355  1.00  0.00     0.008 C 
ENDBRANCH   5   8
ENDBRANCH   4   5
ENDBRANCH   1   3
BRANCH   1  11
ATOM     11  C   UNL     1     139.444 140.171 144.395  1.00  0.00     0.002 C 
ATOM     12  C   UNL     1     139.141 138.936 143.499  1.00  0.00     0.005 C 
ATOM     13  C   UNL     1     138.794 141.402 143.648  1.00  0.00    -0.026 C 
ATOM     14  C   UNL     1     138.321 139.426 142.304  1.00  0.00     0.005 C 
ATOM     15  C   UNL     1     137.713 140.724 142.799  1.00  0.00    -0.001 C 
ATOM     16  C   UNL     1     138.089 142.502 144.481  1.00  0.00     0.007 C 
ATOM     17  C   UNL     1     139.929 142.060 142.798  1.00  0.00     0.012 C 
ATOM     18  C   UNL     1     136.938 141.622 141.800  1.00  0.00    -0.004 C 
ATOM     19  C   UNL     1     137.369 143.535 143.592  1.00  0.00     0.005 C 
ATOM     20  C   UNL     1     136.434 142.949 142.480  1.00  0.00    -0.001 C 
ATOM     21  C   UNL     1     137.570 141.840 140.406  1.00  0.00     0.004 C 
ATOM     22  C   UNL     1     135.927 144.038 141.433  1.00  0.00    -0.026 C 
ATOM     23  C   UNL     1     136.596 142.545 139.432  1.00  0.00     0.004 C 
ATOM     24  C   UNL     1     135.440 143.301 140.135  1.00  0.00    -0.002 C 
ATOM     25  C   UNL     1     134.716 144.803 142.050  1.00  0.00     0.010 C 
ATOM     26  C   UNL     1     137.046 145.078 141.086  1.00  0.00     0.012 C 
ATOM     27  C   UNL     1     134.693 144.222 139.140  1.00  0.00     0.036 C 
ATOM     28  C   UNL     1     134.024 145.740 141.048  1.00  0.00     0.032 C 
ATOM     29  C   UNL     1     133.530 144.965 139.815  1.00  0.00     0.114 C 
BRANCH  29  30
ATOM     30  O   UNL     1     132.952 145.851 138.893  1.00  0.00    -0.393 OA
ATOM     31  H   UNL     1     132.851 146.727 139.356  1.00  0.00     0.210 HD
ENDBRANCH  29  30
ENDBRANCH   1  11
TORSDOF 6
ENDMDL
MODEL 7
REMARK VINA RESULT:    -6.281      5.578      8.881
REMARK INTER + INTRA:          -9.584
REMARK INTER:                  -8.303
REMARK INTRA:                  -1.280
REMARK UNBOUND:                -1.283
REMARK SMILES CC[C@@H](C=C[C@H](C)[C@H]1CC[C@@H]2[C@@H]3CC[C@@H]4C[C@H](O)CC[C@@]4(C)[C@@H]3CC[C@]21C)C(C)C
REMARK SMILES IDX 6 1 7 2 5 3 4 4 3 5 2 6 1 7 28 8 29 9 30 10 8 11 9 12 26 13
REMARK SMILES IDX 10 14 11 15 25 16 27 17 12 18 24 19 23 20 13 21 21 22 14 23
REMARK SMILES IDX 15 24 20 25 22 26 16 27 19 28 17 29 18 30
REMARK H PARENT 18 31
REMARK Flexibility Score: inf
ROOT
ATOM      1  C   UNL     1     145.773 137.261 147.417  1.00  0.00     0.012 C 
ATOM      2  C   UNL     1     145.525 135.831 146.897  1.00  0.00     0.012 C 
ENDROOT
BRANCH   1   3
ATOM      3  C   UNL     1     145.464 137.372 148.905  1.00  0.00    -0.028 C 
ATOM      4  C   UNL     1     145.924 136.564 149.889  1.00  0.00    -0.027 C 
BRANCH   4   5
ATOM      5  C   UNL     1     146.828 135.332 149.779  1.00  0.00     0.014 C 
BRANCH   5   6
ATOM      6  C   UNL     1     146.108 134.003 150.126  1.00  0.00     0.004 C 
ATOM      7  C   UNL     1     144.766 134.211 150.839  1.00  0.00     0.004 C 
ENDBRANCH   5   6
BRANCH   5   8
ATOM      8  C   UNL     1     148.202 135.563 150.492  1.00  0.00    -0.011 C 
ATOM      9  C   UNL     1     149.331 134.837 149.737  1.00  0.00     0.008 C 
ATOM     10  C   UNL     1     148.212 135.123 151.968  1.00  0.00     0.008 C 
ENDBRANCH   5   8
ENDBRANCH   4   5
ENDBRANCH   1   3
BRANCH   1  11
ATOM     11  C   UNL     1     147.183 137.820 147.007  1.00  0.00     0.002 C 
ATOM     12  C   UNL     1     148.209 136.681 146.739  1.00  0.00     0.005 C 
ATOM     13  C   UNL     1     147.352 138.829 145.803  1.00  0.00    -0.026 C 
ATOM     14  C   UNL     1     148.915 137.000 145.420  1.00  0.00     0.005 C 
ATOM     15  C   UNL     1     147.946 137.929 144.714  1.00  0.00    -0.001 C 
ATOM     16  C   UNL     1     146.091 139.497 145.199  1.00  0.00     0.007 C 
ATOM     17  C   UNL     1     148.333 139.945 146.288  1.00  0.00     0.012 C 
ATOM     18  C   UNL     1     148.386 138.617 143.396  1.00  0.00    -0.004 C 
ATOM     19  C   UNL     1     146.416 140.317 143.933  1.00  0.00     0.005 C 
ATOM     20  C   UNL     1     147.273 139.585 142.845  1.00  0.00    -0.001 C 
ATOM     21  C   UNL     1     149.809 139.218 143.352  1.00  0.00     0.004 C 
ATOM     22  C   UNL     1     147.797 140.551 141.691  1.00  0.00    -0.026 C 
ATOM     23  C   UNL     1     150.210 139.654 141.922  1.00  0.00     0.004 C 
ATOM     24  C   UNL     1     149.008 139.861 140.967  1.00  0.00    -0.002 C 
ATOM     25  C   UNL     1     146.654 140.759 140.651  1.00  0.00     0.010 C 
ATOM     26  C   UNL     1     148.220 141.952 142.250  1.00  0.00     0.012 C 
ATOM     27  C   UNL     1     149.448 140.580 139.668  1.00  0.00     0.036 C 
ATOM     28  C   UNL     1     147.114 141.512 139.394  1.00  0.00     0.032 C 
ATOM     29  C   UNL     1     148.271 140.776 138.700  1.00  0.00     0.114 C 
BRANCH  29  30
ATOM     30  O   UNL     1     148.708 141.513 137.588  1.00  0.00    -0.393 OA
ATOM     31  H   UNL     1     148.322 142.427 137.675  1.00  0.00     0.210 HD
ENDBRANCH  29  30
ENDBRANCH   1  11
TORSDOF 6
ENDMDL
MODEL 8
REMARK VINA RESULT:    -6.185      4.571      7.011
REMARK INTER + INTRA:          -9.457
REMARK INTER:                  -7.810
REMARK INTRA:                  -1.646
REMARK UNBOUND:                -1.283
REMARK SMILES CC[C@@H](C=C[C@H](C)[C@H]1CC[C@@H]2[C@@H]3CC[C@@H]4C[C@H](O)CC[C@@]4(C)[C@@H]3CC[C@]21C)C(C)C
REMARK SMILES IDX 6 1 7 2 5 3 4 4 3 5 2 6 1 7 28 8 29 9 30 10 8 11 9 12 26 13
REMARK SMILES IDX 10 14 11 15 25 16 27 17 12 18 24 19 23 20 13 21 21 22 14 23
REMARK SMILES IDX 15 24 20 25 22 26 16 27 19 28 17 29 18 30
REMARK H PARENT 18 31
REMARK Flexibility Score: inf
ROOT
ATOM      1  C   UNL     1     135.528 134.753 147.998  1.00  0.00     0.012 C 
ATOM      2  C   UNL     1     134.288 135.668 148.051  1.00  0.00     0.012 C 
ENDROOT
BRANCH   1   3
ATOM      3  C   UNL     1     135.137 133.282 148.072  1.00  0.00    -0.028 C 
ATOM      4  C   UNL     1     135.167 132.491 149.170  1.00  0.00    -0.027 C 
BRANCH   4   5
ATOM      5  C   UNL     1     135.620 132.837 150.592  1.00  0.00     0.014 C 
BRANCH   5   6
ATOM      6  C   UNL     1     136.952 132.154 151.000  1.00  0.00     0.004 C 
ATOM      7  C   UNL     1     137.327 130.973 150.098  1.00  0.00     0.004 C 
ENDBRANCH   5   6
BRANCH   5   8
ATOM      8  C   UNL     1     134.447 132.698 151.619  1.00  0.00    -0.011 C 
ATOM      9  C   UNL     1     133.817 131.296 151.533  1.00  0.00     0.008 C 
ATOM     10  C   UNL     1     133.347 133.763 151.446  1.00  0.00     0.008 C 
ENDBRANCH   5   8
ENDBRANCH   4   5
ENDBRANCH   1   3
BRANCH   1  11
ATOM     11  C   UNL     1     136.493 135.105 146.808  1.00  0.00     0.002 C 
ATOM     12  C   UNL     1     136.270 136.554 146.284  1.00  0.00     0.005 C 
ATOM     13  C   UNL     1     138.058 134.942 146.940  1.00  0.00    -0.026 C 
ATOM     14  C   UNL     1     137.645 137.210 146.152  1.00  0.00     0.005 C 
ATOM     15  C   UNL     1     138.519 136.396 147.088  1.00  0.00    -0.001 C 
ATOM     16  C   UNL     1     138.635 134.161 148.148  1.00  0.00     0.007 C 
ATOM     17  C   UNL     1     138.551 134.268 145.619  1.00  0.00     0.012 C 
ATOM     18  C   UNL     1     140.048 136.652 147.104  1.00  0.00    -0.004 C 
ATOM     19  C   UNL     1     140.174 134.241 148.212  1.00  0.00     0.005 C 
ATOM     20  C   UNL     1     140.791 135.675 148.090  1.00  0.00    -0.001 C 
ATOM     21  C   UNL     1     140.754 136.810 145.738  1.00  0.00     0.004 C 
ATOM     22  C   UNL     1     142.373 135.674 147.900  1.00  0.00    -0.026 C 
ATOM     23  C   UNL     1     142.215 137.296 145.893  1.00  0.00     0.004 C 
ATOM     24  C   UNL     1     142.810 137.060 147.304  1.00  0.00    -0.002 C 
ATOM     25  C   UNL     1     143.048 135.502 149.295  1.00  0.00     0.010 C 
ATOM     26  C   UNL     1     142.848 134.505 146.971  1.00  0.00     0.012 C 
ATOM     27  C   UNL     1     144.342 137.283 147.304  1.00  0.00     0.036 C 
ATOM     28  C   UNL     1     144.573 135.687 149.252  1.00  0.00     0.032 C 
ATOM     29  C   UNL     1     144.947 137.072 148.702  1.00  0.00     0.114 C 
BRANCH  29  30
ATOM     30  O   UNL     1     146.343 137.194 148.622  1.00  0.00    -0.393 OA
ATOM     31  H   UNL     1     146.626 136.745 147.779  1.00  0.00     0.210 HD
ENDBRANCH  29  30
ENDBRANCH   1  11
TORSDOF 6
ENDMDL
