MODEL 1
REMARK VINA RESULT:    -3.508      0.000      0.000
REMARK INTER + INTRA:          -3.610
REMARK INTER:                  -3.610
REMARK INTRA:                   0.000
REMARK UNBOUND:                 0.000
REMARK SMILES CC1(C)[C@H]2CC[C@](C)(C2)[C@H]1O
REMARK SMILES IDX 1 1 2 2 4 3 5 4 6 5 7 6 9 7 10 8 8 9 3 10 11 11
REMARK H PARENT 11 12
REMARK Flexibility Score: inf
ROOT
ATOM      1  C   UNL     1     150.338 145.103 145.096  1.00  0.00     0.014 C 
ATOM      2  C   UNL     1     148.893 144.817 144.620  1.00  0.00    -0.006 C 
ATOM      3  C   UNL     1     147.908 144.844 145.839  1.00  0.00    -0.002 C 
ATOM      4  C   UNL     1     146.438 144.830 145.369  1.00  0.00     0.005 C 
ATOM      5  C   UNL     1     146.287 143.423 144.769  1.00  0.00     0.010 C 
ATOM      6  C   UNL     1     147.657 142.772 145.076  1.00  0.00    -0.006 C 
ATOM      7  C   UNL     1     148.019 143.431 146.389  1.00  0.00     0.013 C 
ATOM      8  C   UNL     1     148.749 143.336 144.131  1.00  0.00     0.126 C 
ATOM      9  C   UNL     1     147.616 141.242 145.137  1.00  0.00     0.014 C 
ATOM     10  C   UNL     1     148.550 145.866 143.530  1.00  0.00     0.014 C 
ENDROOT
BRANCH   8  11
ATOM     11  O   UNL     1     148.369 143.219 142.783  1.00  0.00    -0.392 OA
ATOM     12  H   UNL     1     148.868 142.442 142.417  1.00  0.00     0.211 HD
ENDBRANCH   8  11
TORSDOF 1
ENDMDL
MODEL 2
REMARK VINA RESULT:    -3.497      9.793     11.486
REMARK INTER + INTRA:          -3.599
REMARK INTER:                  -3.599
REMARK INTRA:                   0.000
REMARK UNBOUND:                 0.000
REMARK SMILES CC1(C)[C@H]2CC[C@](C)(C2)[C@H]1O
REMARK SMILES IDX 1 1 2 2 4 3 5 4 6 5 7 6 9 7 10 8 8 9 3 10 11 11
REMARK H PARENT 11 12
REMARK Flexibility Score: inf
ROOT
ATOM      1  C   UNL     1     136.415 150.316 145.074  1.00  0.00     0.014 C 
ATOM      2  C   UNL     1     136.710 148.877 144.587  1.00  0.00    -0.006 C 
ATOM      3  C   UNL     1     136.685 147.882 145.798  1.00  0.00    -0.002 C 
ATOM      4  C   UNL     1     136.709 146.417 145.317  1.00  0.00     0.005 C 
ATOM      5  C   UNL     1     138.118 146.278 144.720  1.00  0.00     0.010 C 
ATOM      6  C   UNL     1     138.760 147.649 145.040  1.00  0.00    -0.006 C 
ATOM      7  C   UNL     1     138.095 147.997 146.354  1.00  0.00     0.013 C 
ATOM      8  C   UNL     1     138.193 148.745 144.102  1.00  0.00     0.126 C 
ATOM      9  C   UNL     1     140.291 147.616 145.106  1.00  0.00     0.014 C 
ATOM     10  C   UNL     1     135.667 148.536 143.492  1.00  0.00     0.014 C 
ENDROOT
BRANCH   8  11
ATOM     11  O   UNL     1     138.317 148.376 142.752  1.00  0.00    -0.392 OA
ATOM     12  H   UNL     1     139.139 148.820 142.414  1.00  0.00     0.211 HD
ENDBRANCH   8  11
TORSDOF 1
ENDMDL
MODEL 3
REMARK VINA RESULT:    -3.495     14.322     15.851
REMARK INTER + INTRA:          -3.597
REMARK INTER:                  -3.597
REMARK INTRA:                   0.000
REMARK UNBOUND:                 0.000
REMARK SMILES CC1(C)[C@H]2CC[C@](C)(C2)[C@H]1O
REMARK SMILES IDX 1 1 2 2 4 3 5 4 6 5 7 6 9 7 10 8 8 9 3 10 11 11
REMARK H PARENT 11 12
REMARK Flexibility Score: inf
ROOT
ATOM      1  C   UNL     1     135.913 135.898 145.964  1.00  0.00     0.014 C 
ATOM      2  C   UNL     1     135.168 136.598 144.802  1.00  0.00    -0.006 C 
ATOM      3  C   UNL     1     134.573 137.965 145.288  1.00  0.00    -0.002 C 
ATOM      4  C   UNL     1     134.062 138.805 144.099  1.00  0.00     0.005 C 
ATOM      5  C   UNL     1     132.850 137.997 143.609  1.00  0.00     0.010 C 
ATOM      6  C   UNL     1     132.755 136.858 144.653  1.00  0.00    -0.006 C 
ATOM      7  C   UNL     1     133.247 137.550 145.904  1.00  0.00     0.013 C 
ATOM      8  C   UNL     1     133.872 135.811 144.414  1.00  0.00     0.126 C 
ATOM      9  C   UNL     1     131.352 136.254 144.784  1.00  0.00     0.014 C 
ATOM     10  C   UNL     1     136.176 136.750 143.633  1.00  0.00     0.014 C 
ENDROOT
BRANCH   8  11
ATOM     11  O   UNL     1     133.865 135.349 143.087  1.00  0.00    -0.392 OA
ATOM     12  H   UNL     1     133.813 134.359 143.134  1.00  0.00     0.211 HD
ENDBRANCH   8  11
TORSDOF 1
ENDMDL
MODEL 4
REMARK VINA RESULT:    -3.471      8.695     10.529
REMARK INTER + INTRA:          -3.572
REMARK INTER:                  -3.572
REMARK INTRA:                   0.000
REMARK UNBOUND:                 0.000
REMARK SMILES CC1(C)[C@H]2CC[C@](C)(C2)[C@H]1O
REMARK SMILES IDX 1 1 2 2 4 3 5 4 6 5 7 6 9 7 10 8 8 9 3 10 11 11
REMARK H PARENT 11 12
REMARK Flexibility Score: inf
ROOT
ATOM      1  C   UNL     1     145.732 135.896 146.015  1.00  0.00     0.014 C 
ATOM      2  C   UNL     1     145.021 135.161 144.852  1.00  0.00    -0.006 C 
ATOM      3  C   UNL     1     143.664 134.554 145.347  1.00  0.00    -0.002 C 
ATOM      4  C   UNL     1     142.812 134.052 144.163  1.00  0.00     0.005 C 
ATOM      5  C   UNL     1     143.620 132.850 143.648  1.00  0.00     0.010 C 
ATOM      6  C   UNL     1     144.772 132.748 144.677  1.00  0.00    -0.006 C 
ATOM      7  C   UNL     1     144.092 133.222 145.943  1.00  0.00     0.013 C 
ATOM      8  C   UNL     1     145.811 133.874 144.440  1.00  0.00     0.126 C 
ATOM      9  C   UNL     1     145.383 131.347 144.785  1.00  0.00     0.014 C 
ATOM     10  C   UNL     1     144.851 136.182 143.696  1.00  0.00     0.014 C 
ENDROOT
BRANCH   8  11
ATOM     11  O   UNL     1     146.257 133.885 143.107  1.00  0.00    -0.392 OA
ATOM     12  H   UNL     1     146.781 133.052 142.979  1.00  0.00     0.211 HD
ENDBRANCH   8  11
TORSDOF 1
ENDMDL
MODEL 5
REMARK VINA RESULT:    -3.467     10.462     12.216
REMARK INTER + INTRA:          -3.568
REMARK INTER:                  -3.568
REMARK INTRA:                   0.000
REMARK UNBOUND:                 0.000
REMARK SMILES CC1(C)[C@H]2CC[C@](C)(C2)[C@H]1O
REMARK SMILES IDX 1 1 2 2 4 3 5 4 6 5 7 6 9 7 10 8 8 9 3 10 11 11
REMARK H PARENT 11 12
REMARK Flexibility Score: inf
ROOT
ATOM      1  C   UNL     1     135.796 145.713 145.958  1.00  0.00     0.014 C 
ATOM      2  C   UNL     1     136.525 146.380 144.766  1.00  0.00    -0.006 C 
ATOM      3  C   UNL     1     137.940 146.886 145.214  1.00  0.00    -0.002 C 
ATOM      4  C   UNL     1     138.791 147.309 143.999  1.00  0.00     0.005 C 
ATOM      5  C   UNL     1     138.063 148.565 143.494  1.00  0.00     0.010 C 
ATOM      6  C   UNL     1     136.953 148.764 144.555  1.00  0.00    -0.006 C 
ATOM      7  C   UNL     1     137.632 148.252 145.805  1.00  0.00     0.013 C 
ATOM      8  C   UNL     1     135.825 147.720 144.361  1.00  0.00     0.126 C 
ATOM      9  C   UNL     1     136.453 150.209 144.663  1.00  0.00     0.014 C 
ATOM     10  C   UNL     1     136.582 145.338 143.619  1.00  0.00     0.014 C 
ENDROOT
BRANCH   8  11
ATOM     11  O   UNL     1     135.339 147.730 143.042  1.00  0.00    -0.392 OA
ATOM     12  H   UNL     1     135.500 148.644 142.690  1.00  0.00     0.211 HD
ENDBRANCH   8  11
TORSDOF 1
ENDMDL
MODEL 6
REMARK VINA RESULT:    -3.463     13.772     15.328
REMARK INTER + INTRA:          -3.565
REMARK INTER:                  -3.565
REMARK INTRA:                   0.000
REMARK UNBOUND:                 0.000
REMARK SMILES CC1(C)[C@H]2CC[C@](C)(C2)[C@H]1O
REMARK SMILES IDX 1 1 2 2 4 3 5 4 6 5 7 6 9 7 10 8 8 9 3 10 11 11
REMARK H PARENT 11 12
REMARK Flexibility Score: inf
ROOT
ATOM      1  C   UNL     1     136.327 139.031 144.982  1.00  0.00     0.014 C 
ATOM      2  C   UNL     1     134.790 138.850 144.994  1.00  0.00    -0.006 C 
ATOM      3  C   UNL     1     134.357 137.990 146.231  1.00  0.00    -0.002 C 
ATOM      4  C   UNL     1     132.827 138.017 146.421  1.00  0.00     0.005 C 
ATOM      5  C   UNL     1     132.319 137.236 145.199  1.00  0.00     0.010 C 
ATOM      6  C   UNL     1     133.632 136.764 144.527  1.00  0.00    -0.006 C 
ATOM      7  C   UNL     1     134.533 136.568 145.726  1.00  0.00     0.013 C 
ATOM      8  C   UNL     1     134.325 137.946 143.804  1.00  0.00     0.126 C 
ATOM      9  C   UNL     1     133.467 135.512 143.659  1.00  0.00     0.014 C 
ATOM     10  C   UNL     1     134.159 140.267 144.981  1.00  0.00     0.014 C 
ENDROOT
BRANCH   8  11
ATOM     11  O   UNL     1     133.446 138.588 142.914  1.00  0.00    -0.392 OA
ATOM     12  H   UNL     1     132.929 139.242 143.453  1.00  0.00     0.211 HD
ENDBRANCH   8  11
TORSDOF 1
ENDMDL
MODEL 7
REMARK VINA RESULT:    -3.451      1.359      3.075
REMARK INTER + INTRA:          -3.552
REMARK INTER:                  -3.552
REMARK INTRA:                   0.000
REMARK UNBOUND:                 0.000
REMARK SMILES CC1(C)[C@H]2CC[C@](C)(C2)[C@H]1O
REMARK SMILES IDX 1 1 2 2 4 3 5 4 6 5 7 6 9 7 10 8 8 9 3 10 11 11
REMARK H PARENT 11 12
REMARK Flexibility Score: inf
ROOT
ATOM      1  C   UNL     1     145.706 145.807 145.932  1.00  0.00     0.014 C 
ATOM      2  C   UNL     1     146.460 145.072 144.798  1.00  0.00    -0.006 C 
ATOM      3  C   UNL     1     147.054 143.723 145.331  1.00  0.00    -0.002 C 
ATOM      4  C   UNL     1     147.574 142.847 144.173  1.00  0.00     0.005 C 
ATOM      5  C   UNL     1     148.788 143.640 143.665  1.00  0.00     0.010 C 
ATOM      6  C   UNL     1     148.874 144.812 144.673  1.00  0.00    -0.006 C 
ATOM      7  C   UNL     1     148.375 144.159 145.942  1.00  0.00     0.013 C 
ATOM      8  C   UNL     1     147.757 145.850 144.394  1.00  0.00     0.126 C 
ATOM      9  C   UNL     1     150.275 145.423 144.795  1.00  0.00     0.014 C 
ATOM     10  C   UNL     1     145.460 144.882 143.627  1.00  0.00     0.014 C 
ENDROOT
BRANCH   8  11
ATOM     11  O   UNL     1     147.772 146.269 143.052  1.00  0.00    -0.392 OA
ATOM     12  H   UNL     1     148.458 145.718 142.593  1.00  0.00     0.211 HD
ENDBRANCH   8  11
TORSDOF 1
ENDMDL
MODEL 8
REMARK VINA RESULT:    -3.397     14.746     16.120
REMARK INTER + INTRA:          -3.496
REMARK INTER:                  -3.496
REMARK INTRA:                   0.000
REMARK UNBOUND:                 0.000
REMARK SMILES CC1(C)[C@H]2CC[C@](C)(C2)[C@H]1O
REMARK SMILES IDX 1 1 2 2 4 3 5 4 6 5 7 6 9 7 10 8 8 9 3 10 11 11
REMARK H PARENT 11 12
REMARK Flexibility Score: inf
ROOT
ATOM      1  C   UNL     1     132.132 136.412 146.491  1.00  0.00     0.014 C 
ATOM      2  C   UNL     1     132.844 136.865 145.193  1.00  0.00    -0.006 C 
ATOM      3  C   UNL     1     134.397 136.873 145.404  1.00  0.00    -0.002 C 
ATOM      4  C   UNL     1     135.141 137.058 144.066  1.00  0.00     0.005 C 
ATOM      5  C   UNL     1     134.787 138.502 143.677  1.00  0.00     0.010 C 
ATOM      6  C   UNL     1     133.978 138.996 144.901  1.00  0.00    -0.006 C 
ATOM      7  C   UNL     1     134.641 138.237 146.029  1.00  0.00     0.013 C 
ATOM      8  C   UNL     1     132.558 138.376 144.898  1.00  0.00     0.126 C 
ATOM      9  C   UNL     1     133.993 140.518 145.080  1.00  0.00     0.014 C 
ATOM     10  C   UNL     1     132.384 135.913 144.058  1.00  0.00     0.014 C 
ENDROOT
BRANCH   8  11
ATOM     11  O   UNL     1     131.904 138.601 143.675  1.00  0.00    -0.392 OA
ATOM     12  H   UNL     1     132.600 138.541 142.969  1.00  0.00     0.211 HD
ENDBRANCH   8  11
TORSDOF 1
ENDMDL
MODEL 9
REMARK VINA RESULT:    -3.363     10.040     11.511
REMARK INTER + INTRA:          -3.461
REMARK INTER:                  -3.461
REMARK INTRA:                   0.000
REMARK UNBOUND:                 0.000
REMARK SMILES CC1(C)[C@H]2CC[C@](C)(C2)[C@H]1O
REMARK SMILES IDX 1 1 2 2 4 3 5 4 6 5 7 6 9 7 10 8 8 9 3 10 11 11
REMARK H PARENT 11 12
REMARK Flexibility Score: inf
ROOT
ATOM      1  C   UNL     1     144.994 132.215 146.689  1.00  0.00     0.014 C 
ATOM      2  C   UNL     1     144.590 132.883 145.352  1.00  0.00    -0.006 C 
ATOM      3  C   UNL     1     144.616 134.443 145.500  1.00  0.00    -0.002 C 
ATOM      4  C   UNL     1     144.483 135.136 144.128  1.00  0.00     0.005 C 
ATOM      5  C   UNL     1     143.040 134.801 143.718  1.00  0.00     0.010 C 
ATOM      6  C   UNL     1     142.496 134.056 144.961  1.00  0.00    -0.006 C 
ATOM      7  C   UNL     1     143.244 134.746 146.080  1.00  0.00     0.013 C 
ATOM      8  C   UNL     1     143.081 132.622 145.031  1.00  0.00     0.126 C 
ATOM      9  C   UNL     1     140.971 134.116 145.101  1.00  0.00     0.014 C 
ATOM     10  C   UNL     1     145.557 132.354 144.261  1.00  0.00     0.014 C 
ENDROOT
BRANCH   8  11
ATOM     11  O   UNL     1     142.869 131.924 143.830  1.00  0.00    -0.392 OA
ATOM     12  H   UNL     1     143.688 131.388 143.668  1.00  0.00     0.211 HD
ENDBRANCH   8  11
TORSDOF 1
ENDMDL
