MODEL 1
REMARK VINA RESULT:    -5.792      0.000      0.000
REMARK INTER + INTRA:         -11.109
REMARK INTER:                  -9.856
REMARK INTRA:                  -1.253
REMARK UNBOUND:                -1.253
REMARK SMILES CCCCCCCCCCCCCC(=O)[O-]
REMARK SMILES IDX 8 1 9 2 10 3 11 4 12 5 13 6 14 7 15 8 16 9 7 10 6 11 5 12
REMARK SMILES IDX 4 13 3 14 2 15 1 16
REMARK H PARENT
REMARK Flexibility Score: inf
ROOT
ATOM      1  C   UNL     1       5.361  14.299   0.372  1.00  0.00     0.000 C 
ENDROOT
BRANCH   1   2
ATOM      2  C   UNL     1       4.996  12.961   1.032  1.00  0.00     0.000 C 
BRANCH   2   3
ATOM      3  C   UNL     1       3.834  13.138   2.022  1.00  0.00     0.000 C 
BRANCH   3   4
ATOM      4  C   UNL     1       2.846  14.235   1.597  1.00  0.00     0.000 C 
BRANCH   4   5
ATOM      5  C   UNL     1       1.356  13.879   1.763  1.00  0.00     0.006 C 
BRANCH   5   6
ATOM      6  C   UNL     1       0.589  14.816   2.716  1.00  0.00     0.053 C 
BRANCH   6   7
ATOM      7  C   UNL     1      -0.677  14.202   3.235  1.00  0.00     0.041 C 
ATOM      8  O   UNL     1      -1.630  13.952   2.451  1.00  0.00    -0.550 OA
ATOM      9  O   UNL     1      -0.819  13.941   4.593  1.00  0.00    -0.550 OA
ENDBRANCH   6   7
ENDBRANCH   5   6
ENDBRANCH   4   5
ENDBRANCH   3   4
ENDBRANCH   2   3
ENDBRANCH   1   2
BRANCH   1  10
ATOM     10  C   UNL     1       6.716  14.851   0.850  1.00  0.00     0.000 C 
BRANCH  10  11
ATOM     11  C   UNL     1       7.303  14.155   2.095  1.00  0.00    -0.000 C 
BRANCH  11  12
ATOM     12  C   UNL     1       7.817  15.101   3.196  1.00  0.00    -0.000 C 
BRANCH  12  13
ATOM     13  C   UNL     1       6.718  16.024   3.750  1.00  0.00    -0.000 C 
BRANCH  13  14
ATOM     14  C   UNL     1       5.430  15.261   4.102  1.00  0.00    -0.000 C 
BRANCH  14  15
ATOM     15  C   UNL     1       4.418  16.126   4.868  1.00  0.00    -0.003 C 
ATOM     16  C   UNL     1       3.182  15.318   5.247  1.00  0.00     0.004 C 
ENDBRANCH  14  15
ENDBRANCH  13  14
ENDBRANCH  12  13
ENDBRANCH  11  12
ENDBRANCH  10  11
ENDBRANCH   1  10
TORSDOF 12
ENDMDL
MODEL 2
REMARK VINA RESULT:    -5.788      1.247      2.114
REMARK INTER + INTRA:         -11.102
REMARK INTER:                  -9.519
REMARK INTRA:                  -1.583
REMARK UNBOUND:                -1.253
REMARK SMILES CCCCCCCCCCCCCC(=O)[O-]
REMARK SMILES IDX 8 1 9 2 10 3 11 4 12 5 13 6 14 7 15 8 16 9 7 10 6 11 5 12
REMARK SMILES IDX 4 13 3 14 2 15 1 16
REMARK H PARENT
REMARK Flexibility Score: inf
ROOT
ATOM      1  C   UNL     1       7.669  13.510   0.881  1.00  0.00     0.000 C 
ENDROOT
BRANCH   1   2
ATOM      2  C   UNL     1       6.899  14.687   0.263  1.00  0.00     0.000 C 
BRANCH   2   3
ATOM      3  C   UNL     1       5.389  14.403   0.243  1.00  0.00     0.000 C 
BRANCH   3   4
ATOM      4  C   UNL     1       5.009  13.121   1.001  1.00  0.00     0.000 C 
BRANCH   4   5
ATOM      5  C   UNL     1       3.724  13.213   1.846  1.00  0.00     0.006 C 
BRANCH   5   6
ATOM      6  C   UNL     1       2.659  14.164   1.267  1.00  0.00     0.053 C 
BRANCH   6   7
ATOM      7  C   UNL     1       1.400  14.187   2.083  1.00  0.00     0.041 C 
ATOM      8  O   UNL     1       0.396  13.520   1.719  1.00  0.00    -0.550 OA
ATOM      9  O   UNL     1       1.323  14.976   3.223  1.00  0.00    -0.550 OA
ENDBRANCH   6   7
ENDBRANCH   5   6
ENDBRANCH   4   5
ENDBRANCH   3   4
ENDBRANCH   2   3
ENDBRANCH   1   2
BRANCH   1  10
ATOM     10  C   UNL     1       9.073  13.906   1.369  1.00  0.00     0.000 C 
BRANCH  10  11
ATOM     11  C   UNL     1       9.120  15.134   2.301  1.00  0.00    -0.000 C 
BRANCH  11  12
ATOM     12  C   UNL     1       8.345  14.987   3.623  1.00  0.00    -0.000 C 
BRANCH  12  13
ATOM     13  C   UNL     1       7.176  15.979   3.743  1.00  0.00    -0.000 C 
BRANCH  13  14
ATOM     14  C   UNL     1       5.817  15.275   3.886  1.00  0.00    -0.000 C 
BRANCH  14  15
ATOM     15  C   UNL     1       4.653  16.261   4.062  1.00  0.00    -0.003 C 
ATOM     16  C   UNL     1       3.947  16.044   5.396  1.00  0.00     0.004 C 
ENDBRANCH  14  15
ENDBRANCH  13  14
ENDBRANCH  12  13
ENDBRANCH  11  12
ENDBRANCH  10  11
ENDBRANCH   1  10
TORSDOF 12
ENDMDL
MODEL 3
REMARK VINA RESULT:    -5.730      0.714      1.282
REMARK INTER + INTRA:         -11.002
REMARK INTER:                  -9.620
REMARK INTRA:                  -1.382
REMARK UNBOUND:                -1.253
REMARK SMILES CCCCCCCCCCCCCC(=O)[O-]
REMARK SMILES IDX 8 1 9 2 10 3 11 4 12 5 13 6 14 7 15 8 16 9 7 10 6 11 5 12
REMARK SMILES IDX 4 13 3 14 2 15 1 16
REMARK H PARENT
REMARK Flexibility Score: inf
ROOT
ATOM      1  C   UNL     1       5.321  13.359   0.572  1.00  0.00     0.000 C 
ENDROOT
BRANCH   1   2
ATOM      2  C   UNL     1       4.889  14.794   0.232  1.00  0.00     0.000 C 
BRANCH   2   3
ATOM      3  C   UNL     1       3.561  15.143   0.919  1.00  0.00     0.000 C 
BRANCH   3   4
ATOM      4  C   UNL     1       2.963  13.964   1.704  1.00  0.00     0.000 C 
BRANCH   4   5
ATOM      5  C   UNL     1       1.423  13.904   1.730  1.00  0.00     0.006 C 
BRANCH   5   6
ATOM      6  C   UNL     1       0.787  14.642   2.924  1.00  0.00     0.053 C 
BRANCH   6   7
ATOM      7  C   UNL     1      -0.618  14.195   3.197  1.00  0.00     0.041 C 
ATOM      8  O   UNL     1      -1.015  14.036   4.382  1.00  0.00    -0.550 OA
ATOM      9  O   UNL     1      -1.478  13.915   2.142  1.00  0.00    -0.550 OA
ENDBRANCH   6   7
ENDBRANCH   5   6
ENDBRANCH   4   5
ENDBRANCH   3   4
ENDBRANCH   2   3
ENDBRANCH   1   2
BRANCH   1  10
ATOM     10  C   UNL     1       6.795  13.267   1.004  1.00  0.00     0.000 C 
BRANCH  10  11
ATOM     11  C   UNL     1       7.470  14.616   1.322  1.00  0.00    -0.000 C 
BRANCH  11  12
ATOM     12  C   UNL     1       8.098  14.724   2.724  1.00  0.00    -0.000 C 
BRANCH  12  13
ATOM     13  C   UNL     1       7.281  15.613   3.676  1.00  0.00    -0.000 C 
BRANCH  13  14
ATOM     14  C   UNL     1       5.821  15.150   3.809  1.00  0.00    -0.000 C 
BRANCH  14  15
ATOM     15  C   UNL     1       4.942  16.164   4.555  1.00  0.00    -0.003 C 
ATOM     16  C   UNL     1       3.736  15.481   5.192  1.00  0.00     0.004 C 
ENDBRANCH  14  15
ENDBRANCH  13  14
ENDBRANCH  12  13
ENDBRANCH  11  12
ENDBRANCH  10  11
ENDBRANCH   1  10
TORSDOF 12
ENDMDL
MODEL 4
REMARK VINA RESULT:    -5.729      1.084      1.980
REMARK INTER + INTRA:         -11.001
REMARK INTER:                  -9.852
REMARK INTRA:                  -1.150
REMARK UNBOUND:                -1.253
REMARK SMILES CCCCCCCCCCCCCC(=O)[O-]
REMARK SMILES IDX 8 1 9 2 10 3 11 4 12 5 13 6 14 7 15 8 16 9 7 10 6 11 5 12
REMARK SMILES IDX 4 13 3 14 2 15 1 16
REMARK H PARENT
REMARK Flexibility Score: inf
ROOT
ATOM      1  C   UNL     1       5.217  13.013   1.253  1.00  0.00     0.000 C 
ENDROOT
BRANCH   1   2
ATOM      2  C   UNL     1       3.992  13.150   2.169  1.00  0.00     0.000 C 
BRANCH   2   3
ATOM      3  C   UNL     1       3.094  14.311   1.711  1.00  0.00     0.000 C 
BRANCH   3   4
ATOM      4  C   UNL     1       1.650  13.873   1.420  1.00  0.00     0.000 C 
BRANCH   4   5
ATOM      5  C   UNL     1       0.595  14.379   2.423  1.00  0.00     0.006 C 
BRANCH   5   6
ATOM      6  C   UNL     1      -0.744  13.619   2.362  1.00  0.00     0.053 C 
BRANCH   6   7
ATOM      7  C   UNL     1      -1.750  14.142   3.343  1.00  0.00     0.041 C 
ATOM      8  O   UNL     1      -2.923  14.407   2.970  1.00  0.00    -0.550 OA
ATOM      9  O   UNL     1      -1.381  14.374   4.662  1.00  0.00    -0.550 OA
ENDBRANCH   6   7
ENDBRANCH   5   6
ENDBRANCH   4   5
ENDBRANCH   3   4
ENDBRANCH   2   3
ENDBRANCH   1   2
BRANCH   1  10
ATOM     10  C   UNL     1       5.385  14.206   0.297  1.00  0.00     0.000 C 
BRANCH  10  11
ATOM     11  C   UNL     1       6.723  14.962   0.421  1.00  0.00    -0.000 C 
BRANCH  11  12
ATOM     12  C   UNL     1       7.925  14.102   0.854  1.00  0.00    -0.000 C 
BRANCH  12  13
ATOM     13  C   UNL     1       8.671  14.687   2.066  1.00  0.00    -0.000 C 
BRANCH  13  14
ATOM     14  C   UNL     1       7.829  14.647   3.351  1.00  0.00    -0.000 C 
BRANCH  14  15
ATOM     15  C   UNL     1       7.281  16.027   3.745  1.00  0.00    -0.003 C 
ATOM     16  C   UNL     1       5.807  15.943   4.129  1.00  0.00     0.004 C 
ENDBRANCH  14  15
ENDBRANCH  13  14
ENDBRANCH  12  13
ENDBRANCH  11  12
ENDBRANCH  10  11
ENDBRANCH   1  10
TORSDOF 12
ENDMDL
MODEL 5
REMARK VINA RESULT:    -5.703      4.850      7.098
REMARK INTER + INTRA:         -10.957
REMARK INTER:                  -9.732
REMARK INTRA:                  -1.224
REMARK UNBOUND:                -1.253
REMARK SMILES CCCCCCCCCCCCCC(=O)[O-]
REMARK SMILES IDX 8 1 9 2 10 3 11 4 12 5 13 6 14 7 15 8 16 9 7 10 6 11 5 12
REMARK SMILES IDX 4 13 3 14 2 15 1 16
REMARK H PARENT
REMARK Flexibility Score: inf
ROOT
ATOM      1  C   UNL     1       5.270  14.282   0.191  1.00  0.00     0.000 C 
ENDROOT
BRANCH   1   2
ATOM      2  C   UNL     1       6.581  14.963   0.612  1.00  0.00     0.000 C 
BRANCH   2   3
ATOM      3  C   UNL     1       7.515  13.965   1.313  1.00  0.00     0.000 C 
BRANCH   3   4
ATOM      4  C   UNL     1       8.879  13.829   0.618  1.00  0.00     0.000 C 
BRANCH   4   5
ATOM      5  C   UNL     1      10.087  13.679   1.563  1.00  0.00     0.006 C 
BRANCH   5   6
ATOM      6  C   UNL     1      11.338  14.459   1.112  1.00  0.00     0.053 C 
BRANCH   6   7
ATOM      7  C   UNL     1      11.062  15.916   0.893  1.00  0.00     0.041 C 
ATOM      8  O   UNL     1      10.554  16.612   1.811  1.00  0.00    -0.550 OA
ATOM      9  O   UNL     1      11.330  16.498  -0.340  1.00  0.00    -0.550 OA
ENDBRANCH   6   7
ENDBRANCH   5   6
ENDBRANCH   4   5
ENDBRANCH   3   4
ENDBRANCH   2   3
ENDBRANCH   1   2
BRANCH   1  10
ATOM     10  C   UNL     1       4.982  12.998   0.990  1.00  0.00     0.000 C 
BRANCH  10  11
ATOM     11  C   UNL     1       4.107  13.191   2.245  1.00  0.00    -0.000 C 
BRANCH  11  12
ATOM     12  C   UNL     1       2.991  14.244   2.114  1.00  0.00    -0.000 C 
BRANCH  12  13
ATOM     13  C   UNL     1       2.882  15.154   3.349  1.00  0.00    -0.000 C 
BRANCH  13  14
ATOM     14  C   UNL     1       3.974  14.867   4.391  1.00  0.00    -0.000 C 
BRANCH  14  15
ATOM     15  C   UNL     1       4.830  16.102   4.710  1.00  0.00    -0.003 C 
ATOM     16  C   UNL     1       6.197  16.011   4.040  1.00  0.00     0.004 C 
ENDBRANCH  14  15
ENDBRANCH  13  14
ENDBRANCH  12  13
ENDBRANCH  11  12
ENDBRANCH  10  11
ENDBRANCH   1  10
TORSDOF 12
ENDMDL
MODEL 6
REMARK VINA RESULT:    -5.625      5.150      7.633
REMARK INTER + INTRA:         -10.824
REMARK INTER:                  -9.281
REMARK INTRA:                  -1.543
REMARK UNBOUND:                -1.253
REMARK SMILES CCCCCCCCCCCCCC(=O)[O-]
REMARK SMILES IDX 8 1 9 2 10 3 11 4 12 5 13 6 14 7 15 8 16 9 7 10 6 11 5 12
REMARK SMILES IDX 4 13 3 14 2 15 1 16
REMARK H PARENT
REMARK Flexibility Score: inf
ROOT
ATOM      1  C   UNL     1       5.782  16.217   3.402  1.00  0.00     0.000 C 
ENDROOT
BRANCH   1   2
ATOM      2  C   UNL     1       7.225  15.937   3.849  1.00  0.00     0.000 C 
BRANCH   2   3
ATOM      3  C   UNL     1       7.780  14.685   3.154  1.00  0.00     0.000 C 
BRANCH   3   4
ATOM      4  C   UNL     1       8.989  14.985   2.252  1.00  0.00     0.000 C 
BRANCH   4   5
ATOM      5  C   UNL     1       9.288  13.921   1.178  1.00  0.00     0.006 C 
BRANCH   5   6
ATOM      6  C   UNL     1       9.837  14.498  -0.141  1.00  0.00     0.053 C 
BRANCH   6   7
ATOM      7  C   UNL     1      11.324  14.346  -0.264  1.00  0.00     0.041 C 
ATOM      8  O   UNL     1      11.937  14.865  -1.234  1.00  0.00    -0.550 OA
ATOM      9  O   UNL     1      12.027  13.597   0.670  1.00  0.00    -0.550 OA
ENDBRANCH   6   7
ENDBRANCH   5   6
ENDBRANCH   4   5
ENDBRANCH   3   4
ENDBRANCH   2   3
ENDBRANCH   1   2
BRANCH   1  10
ATOM     10  C   UNL     1       4.747  15.905   4.497  1.00  0.00     0.000 C 
BRANCH  10  11
ATOM     11  C   UNL     1       3.786  14.742   4.176  1.00  0.00    -0.000 C 
BRANCH  11  12
ATOM     12  C   UNL     1       2.834  14.984   2.990  1.00  0.00    -0.000 C 
BRANCH  12  13
ATOM     13  C   UNL     1       3.131  14.067   1.791  1.00  0.00    -0.000 C 
BRANCH  13  14
ATOM     14  C   UNL     1       4.279  13.083   2.072  1.00  0.00    -0.000 C 
BRANCH  14  15
ATOM     15  C   UNL     1       5.326  13.057   0.949  1.00  0.00    -0.003 C 
ATOM     16  C   UNL     1       5.443  14.420   0.275  1.00  0.00     0.004 C 
ENDBRANCH  14  15
ENDBRANCH  13  14
ENDBRANCH  12  13
ENDBRANCH  11  12
ENDBRANCH  10  11
ENDBRANCH   1  10
TORSDOF 12
ENDMDL
MODEL 7
REMARK VINA RESULT:    -5.624      4.892      6.985
REMARK INTER + INTRA:         -10.822
REMARK INTER:                  -9.422
REMARK INTRA:                  -1.401
REMARK UNBOUND:                -1.253
REMARK SMILES CCCCCCCCCCCCCC(=O)[O-]
REMARK SMILES IDX 8 1 9 2 10 3 11 4 12 5 13 6 14 7 15 8 16 9 7 10 6 11 5 12
REMARK SMILES IDX 4 13 3 14 2 15 1 16
REMARK H PARENT
REMARK Flexibility Score: inf
ROOT
ATOM      1  C   UNL     1       5.018  13.002   1.222  1.00  0.00     0.000 C 
ENDROOT
BRANCH   1   2
ATOM      2  C   UNL     1       5.213  14.227   0.316  1.00  0.00     0.000 C 
BRANCH   2   3
ATOM      3  C   UNL     1       6.627  14.807   0.477  1.00  0.00     0.000 C 
BRANCH   3   4
ATOM      4  C   UNL     1       7.671  13.746   0.860  1.00  0.00     0.000 C 
BRANCH   4   5
ATOM      5  C   UNL     1       9.135  14.130   0.571  1.00  0.00     0.006 C 
BRANCH   5   6
ATOM      6  C   UNL     1       9.714  15.174   1.545  1.00  0.00     0.053 C 
BRANCH   6   7
ATOM      7  C   UNL     1      11.011  15.754   1.067  1.00  0.00     0.041 C 
ATOM      8  O   UNL     1      11.912  15.003   0.609  1.00  0.00    -0.550 OA
ATOM      9  O   UNL     1      11.242  17.120   1.164  1.00  0.00    -0.550 OA
ENDBRANCH   6   7
ENDBRANCH   5   6
ENDBRANCH   4   5
ENDBRANCH   3   4
ENDBRANCH   2   3
ENDBRANCH   1   2
BRANCH   1  10
ATOM     10  C   UNL     1       3.749  13.098   2.088  1.00  0.00     0.000 C 
BRANCH  10  11
ATOM     11  C   UNL     1       2.953  14.410   1.940  1.00  0.00    -0.000 C 
BRANCH  11  12
ATOM     12  C   UNL     1       2.414  15.004   3.254  1.00  0.00    -0.000 C 
BRANCH  12  13
ATOM     13  C   UNL     1       3.488  15.098   4.351  1.00  0.00    -0.000 C 
BRANCH  13  14
ATOM     14  C   UNL     1       4.211  16.455   4.351  1.00  0.00    -0.000 C 
BRANCH  14  15
ATOM     15  C   UNL     1       5.390  16.500   3.368  1.00  0.00    -0.003 C 
ATOM     16  C   UNL     1       6.594  15.743   3.920  1.00  0.00     0.004 C 
ENDBRANCH  14  15
ENDBRANCH  13  14
ENDBRANCH  12  13
ENDBRANCH  11  12
ENDBRANCH  10  11
ENDBRANCH   1  10
TORSDOF 12
ENDMDL
MODEL 8
REMARK VINA RESULT:    -5.604      1.958      4.543
REMARK INTER + INTRA:         -10.789
REMARK INTER:                  -9.112
REMARK INTRA:                  -1.677
REMARK UNBOUND:                -1.253
REMARK SMILES CCCCCCCCCCCCCC(=O)[O-]
REMARK SMILES IDX 8 1 9 2 10 3 11 4 12 5 13 6 14 7 15 8 16 9 7 10 6 11 5 12
REMARK SMILES IDX 4 13 3 14 2 15 1 16
REMARK H PARENT
REMARK Flexibility Score: inf
ROOT
ATOM      1  C   UNL     1       9.153  13.794   1.292  1.00  0.00     0.000 C 
ENDROOT
BRANCH   1   2
ATOM      2  C   UNL     1       9.173  15.185   1.942  1.00  0.00     0.000 C 
BRANCH   2   3
ATOM      3  C   UNL     1       8.695  15.114   3.401  1.00  0.00     0.000 C 
BRANCH   3   4
ATOM      4  C   UNL     1       7.497  16.034   3.685  1.00  0.00     0.000 C 
BRANCH   4   5
ATOM      5  C   UNL     1       6.170  15.312   3.989  1.00  0.00     0.006 C 
BRANCH   5   6
ATOM      6  C   UNL     1       4.914  16.151   3.686  1.00  0.00     0.053 C 
BRANCH   6   7
ATOM      7  C   UNL     1       3.867  16.031   4.753  1.00  0.00     0.041 C 
ATOM      8  O   UNL     1       4.138  16.329   5.946  1.00  0.00    -0.550 OA
ATOM      9  O   UNL     1       2.602  15.550   4.437  1.00  0.00    -0.550 OA
ENDBRANCH   6   7
ENDBRANCH   5   6
ENDBRANCH   4   5
ENDBRANCH   3   4
ENDBRANCH   2   3
ENDBRANCH   1   2
BRANCH   1  10
ATOM     10  C   UNL     1       7.810  13.473   0.612  1.00  0.00     0.000 C 
BRANCH  10  11
ATOM     11  C   UNL     1       6.929  14.698   0.294  1.00  0.00    -0.000 C 
BRANCH  11  12
ATOM     12  C   UNL     1       5.412  14.469   0.427  1.00  0.00    -0.000 C 
BRANCH  12  13
ATOM     13  C   UNL     1       5.068  13.155   1.149  1.00  0.00    -0.000 C 
BRANCH  13  14
ATOM     14  C   UNL     1       3.715  13.218   1.876  1.00  0.00    -0.000 C 
BRANCH  14  15
ATOM     15  C   UNL     1       2.677  14.064   1.125  1.00  0.00    -0.003 C 
ATOM     16  C   UNL     1       1.292  13.914   1.747  1.00  0.00     0.004 C 
ENDBRANCH  14  15
ENDBRANCH  13  14
ENDBRANCH  12  13
ENDBRANCH  11  12
ENDBRANCH  10  11
ENDBRANCH   1  10
TORSDOF 12
ENDMDL
MODEL 9
REMARK VINA RESULT:    -5.414      3.444      5.280
REMARK INTER + INTRA:         -10.466
REMARK INTER:                  -9.495
REMARK INTRA:                  -0.971
REMARK UNBOUND:                -1.253
REMARK SMILES CCCCCCCCCCCCCC(=O)[O-]
REMARK SMILES IDX 8 1 9 2 10 3 11 4 12 5 13 6 14 7 15 8 16 9 7 10 6 11 5 12
REMARK SMILES IDX 4 13 3 14 2 15 1 16
REMARK H PARENT
REMARK Flexibility Score: inf
ROOT
ATOM      1  C   UNL     1       6.112  14.568   0.826  1.00  0.00     0.000 C 
ENDROOT
BRANCH   1   2
ATOM      2  C   UNL     1       5.324  13.258   0.673  1.00  0.00     0.000 C 
BRANCH   2   3
ATOM      3  C   UNL     1       4.253  13.133   1.768  1.00  0.00     0.000 C 
BRANCH   3   4
ATOM      4  C   UNL     1       3.244  14.293   1.756  1.00  0.00     0.000 C 
BRANCH   4   5
ATOM      5  C   UNL     1       3.058  15.017   3.104  1.00  0.00     0.006 C 
BRANCH   5   6
ATOM      6  C   UNL     1       4.109  14.645   4.167  1.00  0.00     0.053 C 
BRANCH   6   7
ATOM      7  C   UNL     1       4.795  15.846   4.747  1.00  0.00     0.041 C 
ATOM      8  O   UNL     1       4.224  16.539   5.630  1.00  0.00    -0.550 OA
ATOM      9  O   UNL     1       6.049  16.224   4.283  1.00  0.00    -0.550 OA
ENDBRANCH   6   7
ENDBRANCH   5   6
ENDBRANCH   4   5
ENDBRANCH   3   4
ENDBRANCH   2   3
ENDBRANCH   1   2
BRANCH   1  10
ATOM     10  C   UNL     1       7.390  14.400   1.667  1.00  0.00     0.000 C 
BRANCH  10  11
ATOM     11  C   UNL     1       8.615  13.866   0.897  1.00  0.00    -0.000 C 
BRANCH  11  12
ATOM     12  C   UNL     1       9.890  13.677   1.739  1.00  0.00    -0.000 C 
BRANCH  12  13
ATOM     13  C   UNL     1      11.176  13.955   0.944  1.00  0.00    -0.000 C 
BRANCH  13  14
ATOM     14  C   UNL     1      11.376  15.450   0.649  1.00  0.00    -0.000 C 
BRANCH  14  15
ATOM     15  C   UNL     1      11.281  15.778  -0.848  1.00  0.00    -0.003 C 
ATOM     16  C   UNL     1      11.217  14.505  -1.686  1.00  0.00     0.004 C 
ENDBRANCH  14  15
ENDBRANCH  13  14
ENDBRANCH  12  13
ENDBRANCH  11  12
ENDBRANCH  10  11
ENDBRANCH   1  10
TORSDOF 12
ENDMDL
