MODEL 1
REMARK VINA RESULT:    -2.065      0.000      0.000
REMARK INTER + INTRA:          -2.065
REMARK INTER:                  -2.065
REMARK INTRA:                   0.000
REMARK UNBOUND:                 0.000
REMARK SMILES CC(=O)[O-]
REMARK SMILES IDX 1 1 2 2 3 3 4 4
REMARK H PARENT
REMARK Flexibility Score: inf
ROOT
ATOM      1  C   UNL     1      25.191  -3.583  53.014  1.00  0.00     0.063 C 
ATOM      2  C   UNL     1      26.074  -3.971  51.877  1.00  0.00     0.038 C 
ATOM      3  O   UNL     1      26.569  -3.086  51.131  1.00  0.00    -0.550 OA
ATOM      4  O   UNL     1      26.398  -5.306  51.671  1.00  0.00    -0.550 OA
ENDROOT
TORSDOF 0
ENDMDL
MODEL 2
REMARK VINA RESULT:    -2.047      0.228      1.626
REMARK INTER + INTRA:          -2.047
REMARK INTER:                  -2.047
REMARK INTRA:                   0.000
REMARK UNBOUND:                 0.000
REMARK SMILES CC(=O)[O-]
REMARK SMILES IDX 1 1 2 2 3 3 4 4
REMARK H PARENT
REMARK Flexibility Score: inf
ROOT
ATOM      1  C   UNL     1      25.314  -3.572  53.015  1.00  0.00     0.063 C 
ATOM      2  C   UNL     1      26.126  -3.909  51.812  1.00  0.00     0.038 C 
ATOM      3  O   UNL     1      26.238  -5.107  51.439  1.00  0.00    -0.550 OA
ATOM      4  O   UNL     1      26.718  -2.898  51.065  1.00  0.00    -0.550 OA
ENDROOT
TORSDOF 0
ENDMDL
MODEL 3
REMARK VINA RESULT:    -1.989      1.900      2.069
REMARK INTER + INTRA:          -1.989
REMARK INTER:                  -1.989
REMARK INTRA:                   0.000
REMARK UNBOUND:                 0.000
REMARK SMILES CC(=O)[O-]
REMARK SMILES IDX 1 1 2 2 3 3 4 4
REMARK H PARENT
REMARK Flexibility Score: inf
ROOT
ATOM      1  C   UNL     1      25.763  -4.422  51.337  1.00  0.00     0.063 C 
ATOM      2  C   UNL     1      26.785  -5.094  52.188  1.00  0.00     0.038 C 
ATOM      3  O   UNL     1      27.861  -5.505  51.678  1.00  0.00    -0.550 OA
ATOM      4  O   UNL     1      26.579  -5.220  53.556  1.00  0.00    -0.550 OA
ENDROOT
TORSDOF 0
ENDMDL
MODEL 4
REMARK VINA RESULT:    -1.974      1.594      1.894
REMARK INTER + INTRA:          -1.974
REMARK INTER:                  -1.974
REMARK INTRA:                   0.000
REMARK UNBOUND:                 0.000
REMARK SMILES CC(=O)[O-]
REMARK SMILES IDX 1 1 2 2 3 3 4 4
REMARK H PARENT
REMARK Flexibility Score: inf
ROOT
ATOM      1  C   UNL     1      26.494  -5.021  53.521  1.00  0.00     0.063 C 
ATOM      2  C   UNL     1      26.744  -5.075  52.053  1.00  0.00     0.038 C 
ATOM      3  O   UNL     1      27.855  -5.475  51.615  1.00  0.00    -0.550 OA
ATOM      4  O   UNL     1      25.735  -4.737  51.161  1.00  0.00    -0.550 OA
ENDROOT
TORSDOF 0
ENDMDL
MODEL 5
REMARK VINA RESULT:    -1.930      1.731      2.511
REMARK INTER + INTRA:          -1.930
REMARK INTER:                  -1.930
REMARK INTRA:                   0.000
REMARK UNBOUND:                 0.000
REMARK SMILES CC(=O)[O-]
REMARK SMILES IDX 1 1 2 2 3 3 4 4
REMARK H PARENT
REMARK Flexibility Score: inf
ROOT
ATOM      1  C   UNL     1      28.142  -5.415  51.792  1.00  0.00     0.063 C 
ATOM      2  C   UNL     1      26.719  -5.138  52.138  1.00  0.00     0.038 C 
ATOM      3  O   UNL     1      26.359  -5.095  53.344  1.00  0.00    -0.550 OA
ATOM      4  O   UNL     1      25.797  -4.871  51.135  1.00  0.00    -0.550 OA
ENDROOT
TORSDOF 0
ENDMDL
MODEL 6
REMARK VINA RESULT:    -1.921      1.422      1.759
REMARK INTER + INTRA:          -1.921
REMARK INTER:                  -1.921
REMARK INTRA:                   0.000
REMARK UNBOUND:                 0.000
REMARK SMILES CC(=O)[O-]
REMARK SMILES IDX 1 1 2 2 3 3 4 4
REMARK H PARENT
REMARK Flexibility Score: inf
ROOT
ATOM      1  C   UNL     1      26.603  -5.233  51.760  1.00  0.00     0.063 C 
ATOM      2  C   UNL     1      26.070  -3.850  51.914  1.00  0.00     0.038 C 
ATOM      3  O   UNL     1      26.566  -2.904  51.249  1.00  0.00    -0.550 OA
ATOM      4  O   UNL     1      24.987  -3.610  52.750  1.00  0.00    -0.550 OA
ENDROOT
TORSDOF 0
ENDMDL
MODEL 7
REMARK VINA RESULT:    -1.841     17.536     18.030
REMARK INTER + INTRA:          -1.841
REMARK INTER:                  -1.841
REMARK INTRA:                   0.000
REMARK UNBOUND:                 0.000
REMARK SMILES CC(=O)[O-]
REMARK SMILES IDX 1 1 2 2 3 3 4 4
REMARK H PARENT
REMARK Flexibility Score: inf
ROOT
ATOM      1  C   UNL     1      17.397   5.985  66.082  1.00  0.00     0.063 C 
ATOM      2  C   UNL     1      17.873   5.707  64.697  1.00  0.00     0.038 C 
ATOM      3  O   UNL     1      18.279   6.650  63.968  1.00  0.00    -0.550 OA
ATOM      4  O   UNL     1      17.923   4.402  64.227  1.00  0.00    -0.550 OA
ENDROOT
TORSDOF 0
ENDMDL
MODEL 8
REMARK VINA RESULT:    -1.753     10.286     10.695
REMARK INTER + INTRA:          -1.753
REMARK INTER:                  -1.753
REMARK INTRA:                   0.000
REMARK UNBOUND:                 0.000
REMARK SMILES CC(=O)[O-]
REMARK SMILES IDX 1 1 2 2 3 3 4 4
REMARK H PARENT
REMARK Flexibility Score: inf
ROOT
ATOM      1  C   UNL     1      15.883  -0.068  57.051  1.00  0.00     0.063 C 
ATOM      2  C   UNL     1      17.029  -0.497  56.200  1.00  0.00     0.038 C 
ATOM      3  O   UNL     1      18.174  -0.637  56.705  1.00  0.00    -0.550 OA
ATOM      4  O   UNL     1      16.825  -0.798  54.860  1.00  0.00    -0.550 OA
ENDROOT
TORSDOF 0
ENDMDL
MODEL 9
REMARK VINA RESULT:    -1.742      2.967      3.193
REMARK INTER + INTRA:          -1.742
REMARK INTER:                  -1.742
REMARK INTRA:                   0.000
REMARK UNBOUND:                 0.000
REMARK SMILES CC(=O)[O-]
REMARK SMILES IDX 1 1 2 2 3 3 4 4
REMARK H PARENT
REMARK Flexibility Score: inf
ROOT
ATOM      1  C   UNL     1      27.851  -4.206  51.791  1.00  0.00     0.063 C 
ATOM      2  C   UNL     1      28.630  -5.469  51.931  1.00  0.00     0.038 C 
ATOM      3  O   UNL     1      29.424  -5.826  51.021  1.00  0.00    -0.550 OA
ATOM      4  O   UNL     1      28.524  -6.229  53.089  1.00  0.00    -0.550 OA
ENDROOT
TORSDOF 0
ENDMDL
