MODEL 1
REMARK VINA RESULT:    -4.533      0.000      0.000
REMARK INTER + INTRA:          -6.208
REMARK INTER:                  -6.122
REMARK INTRA:                  -0.086
REMARK UNBOUND:                -0.086
REMARK SMILES [NH3+]CCCC[C@H]([NH3+])C(=O)[O-]
REMARK SMILES IDX 4 1 3 2 2 3 1 4 5 8 6 9 7 10 8 14 9 15 10 16
REMARK H PARENT 1 5 1 6 1 7 7 11 7 12 7 13
REMARK Flexibility Score: inf
ROOT
ATOM      1  C   UNL     1      20.706  19.596  21.792  1.00  0.00     0.012 C 
ENDROOT
BRANCH   1   2
ATOM      2  C   UNL     1      20.623  18.160  22.329  1.00  0.00     0.061 C 
BRANCH   2   3
ATOM      3  C   UNL     1      19.234  17.558  22.082  1.00  0.00     0.258 C 
BRANCH   3   4
ATOM      4  N   UNL     1      18.900  17.580  20.658  1.00  0.00    -0.358 N 
ATOM      5  H   UNL     1      17.980  18.053  20.511  1.00  0.00     0.344 HD
ATOM      6  H   UNL     1      18.836  16.597  20.307  1.00  0.00     0.344 HD
ATOM      7  H   UNL     1      19.646  18.081  20.122  1.00  0.00     0.344 HD
ENDBRANCH   3   4
ENDBRANCH   2   3
ENDBRANCH   1   2
BRANCH   1   8
ATOM      8  C   UNL     1      21.634  20.498  22.625  1.00  0.00     0.072 C 
BRANCH   8   9
ATOM      9  C   UNL     1      22.296  21.655  21.839  1.00  0.00     0.227 C 
BRANCH   9  10
ATOM     10  N   UNL     1      23.660  21.317  21.413  1.00  0.00    -0.350 N 
ATOM     11  H   UNL     1      24.189  22.178  21.140  1.00  0.00     0.345 HD
ATOM     12  H   UNL     1      23.627  20.664  20.596  1.00  0.00     0.345 HD
ATOM     13  H   UNL     1      24.167  20.826  22.184  1.00  0.00     0.345 HD
ENDBRANCH   9  10
BRANCH   9  14
ATOM     14  C   UNL     1      22.314  22.892  22.698  1.00  0.00     0.099 C 
ATOM     15  O   UNL     1      21.275  23.252  23.311  1.00  0.00    -0.544 OA
ATOM     16  O   UNL     1      23.485  23.625  22.845  1.00  0.00    -0.544 OA
ENDBRANCH   9  14
ENDBRANCH   8   9
ENDBRANCH   1   8
TORSDOF 7
ENDMDL
MODEL 2
REMARK VINA RESULT:    -4.442      3.423      5.700
REMARK INTER + INTRA:          -6.085
REMARK INTER:                  -6.016
REMARK INTRA:                  -0.069
REMARK UNBOUND:                -0.086
REMARK SMILES [NH3+]CCCC[C@H]([NH3+])C(=O)[O-]
REMARK SMILES IDX 4 1 3 2 2 3 1 4 5 8 6 9 7 10 8 14 9 15 10 16
REMARK H PARENT 1 5 1 6 1 7 7 11 7 12 7 13
REMARK Flexibility Score: inf
ROOT
ATOM      1  C   UNL     1      20.916  19.652  21.784  1.00  0.00     0.012 C 
ENDROOT
BRANCH   1   2
ATOM      2  C   UNL     1      21.763  20.771  22.409  1.00  0.00     0.061 C 
BRANCH   2   3
ATOM      3  C   UNL     1      23.000  21.070  21.553  1.00  0.00     0.258 C 
BRANCH   3   4
ATOM      4  N   UNL     1      23.819  22.116  22.164  1.00  0.00    -0.358 N 
ATOM      5  H   UNL     1      23.207  22.832  22.618  1.00  0.00     0.344 HD
ATOM      6  H   UNL     1      24.391  22.580  21.422  1.00  0.00     0.344 HD
ATOM      7  H   UNL     1      24.463  21.699  22.875  1.00  0.00     0.344 HD
ENDBRANCH   3   4
ENDBRANCH   2   3
ENDBRANCH   1   2
BRANCH   1   8
ATOM      8  C   UNL     1      20.082  18.878  22.820  1.00  0.00     0.072 C 
BRANCH   8   9
ATOM      9  C   UNL     1      19.979  17.355  22.567  1.00  0.00     0.227 C 
BRANCH   9  10
ATOM     10  N   UNL     1      18.872  17.025  21.659  1.00  0.00    -0.350 N 
ATOM     11  H   UNL     1      18.910  17.615  20.796  1.00  0.00     0.345 HD
ATOM     12  H   UNL     1      17.956  17.184  22.140  1.00  0.00     0.345 HD
ATOM     13  H   UNL     1      18.914  16.015  21.394  1.00  0.00     0.345 HD
ENDBRANCH   9  10
BRANCH   9  14
ATOM     14  C   UNL     1      19.799  16.645  23.882  1.00  0.00     0.099 C 
ATOM     15  O   UNL     1      19.553  17.301  24.928  1.00  0.00    -0.544 OA
ATOM     16  O   UNL     1      19.872  15.258  23.945  1.00  0.00    -0.544 OA
ENDBRANCH   9  14
ENDBRANCH   8   9
ENDBRANCH   1   8
TORSDOF 7
ENDMDL
MODEL 3
REMARK VINA RESULT:    -4.296      3.469      5.649
REMARK INTER + INTRA:          -5.888
REMARK INTER:                  -5.816
REMARK INTRA:                  -0.072
REMARK UNBOUND:                -0.086
REMARK SMILES [NH3+]CCCC[C@H]([NH3+])C(=O)[O-]
REMARK SMILES IDX 4 1 3 2 2 3 1 4 5 8 6 9 7 10 8 14 9 15 10 16
REMARK H PARENT 1 5 1 6 1 7 7 11 7 12 7 13
REMARK Flexibility Score: inf
ROOT
ATOM      1  C   UNL     1      21.243  20.461  22.711  1.00  0.00     0.012 C 
ENDROOT
BRANCH   1   2
ATOM      2  C   UNL     1      22.083  21.502  21.957  1.00  0.00     0.061 C 
BRANCH   2   3
ATOM      3  C   UNL     1      21.994  22.876  22.633  1.00  0.00     0.258 C 
BRANCH   3   4
ATOM      4  N   UNL     1      23.314  23.497  22.734  1.00  0.00    -0.358 N 
ATOM      5  H   UNL     1      23.987  22.839  23.190  1.00  0.00     0.344 HD
ATOM      6  H   UNL     1      23.241  24.363  23.314  1.00  0.00     0.344 HD
ATOM      7  H   UNL     1      23.663  23.756  21.782  1.00  0.00     0.344 HD
ENDBRANCH   3   4
ENDBRANCH   2   3
ENDBRANCH   1   2
BRANCH   1   8
ATOM      8  C   UNL     1      20.797  19.287  21.820  1.00  0.00     0.072 C 
BRANCH   8   9
ATOM      9  C   UNL     1      20.202  18.080  22.582  1.00  0.00     0.227 C 
BRANCH   9  10
ATOM     10  N   UNL     1      21.233  17.097  22.941  1.00  0.00    -0.350 N 
ATOM     11  H   UNL     1      22.040  17.562  23.418  1.00  0.00     0.345 HD
ATOM     12  H   UNL     1      21.579  16.612  22.081  1.00  0.00     0.345 HD
ATOM     13  H   UNL     1      20.829  16.366  23.570  1.00  0.00     0.345 HD
ENDBRANCH   9  10
BRANCH   9  14
ATOM     14  C   UNL     1      19.141  17.431  21.732  1.00  0.00     0.099 C 
ATOM     15  O   UNL     1      18.946  17.825  20.552  1.00  0.00    -0.544 OA
ATOM     16  O   UNL     1      18.394  16.372  22.233  1.00  0.00    -0.544 OA
ENDBRANCH   9  14
ENDBRANCH   8   9
ENDBRANCH   1   8
TORSDOF 7
ENDMDL
MODEL 4
REMARK VINA RESULT:    -4.237      2.041      2.408
REMARK INTER + INTRA:          -5.809
REMARK INTER:                  -5.599
REMARK INTRA:                  -0.210
REMARK UNBOUND:                -0.086
REMARK SMILES [NH3+]CCCC[C@H]([NH3+])C(=O)[O-]
REMARK SMILES IDX 4 1 3 2 2 3 1 4 5 8 6 9 7 10 8 14 9 15 10 16
REMARK H PARENT 1 5 1 6 1 7 7 11 7 12 7 13
REMARK Flexibility Score: inf
ROOT
ATOM      1  C   UNL     1      20.388  18.431  21.442  1.00  0.00     0.012 C 
ENDROOT
BRANCH   1   2
ATOM      2  C   UNL     1      19.296  17.559  22.079  1.00  0.00     0.061 C 
BRANCH   2   3
ATOM      3  C   UNL     1      19.762  16.989  23.424  1.00  0.00     0.258 C 
BRANCH   3   4
ATOM      4  N   UNL     1      21.163  16.574  23.360  1.00  0.00    -0.358 N 
ATOM      5  H   UNL     1      21.230  15.578  23.047  1.00  0.00     0.344 HD
ATOM      6  H   UNL     1      21.589  16.660  24.310  1.00  0.00     0.344 HD
ATOM      7  H   UNL     1      21.689  17.189  22.697  1.00  0.00     0.344 HD
ENDBRANCH   3   4
ENDBRANCH   2   3
ENDBRANCH   1   2
BRANCH   1   8
ATOM      8  C   UNL     1      20.368  19.885  21.945  1.00  0.00     0.072 C 
BRANCH   8   9
ATOM      9  C   UNL     1      21.581  20.290  22.815  1.00  0.00     0.227 C 
BRANCH   9  10
ATOM     10  N   UNL     1      21.171  20.729  24.156  1.00  0.00    -0.350 N 
ATOM     11  H   UNL     1      21.926  21.296  24.608  1.00  0.00     0.345 HD
ATOM     12  H   UNL     1      20.964  19.897  24.756  1.00  0.00     0.345 HD
ATOM     13  H   UNL     1      20.296  21.297  24.096  1.00  0.00     0.345 HD
ENDBRANCH   9  10
BRANCH   9  14
ATOM     14  C   UNL     1      22.344  21.388  22.122  1.00  0.00     0.099 C 
ATOM     15  O   UNL     1      23.303  21.108  21.356  1.00  0.00    -0.544 OA
ATOM     16  O   UNL     1      21.974  22.716  22.299  1.00  0.00    -0.544 OA
ENDBRANCH   9  14
ENDBRANCH   8   9
ENDBRANCH   1   8
TORSDOF 7
ENDMDL
MODEL 5
REMARK VINA RESULT:    -4.128      8.675      9.611
REMARK INTER + INTRA:          -5.661
REMARK INTER:                  -5.568
REMARK INTRA:                  -0.093
REMARK UNBOUND:                -0.086
REMARK SMILES [NH3+]CCCC[C@H]([NH3+])C(=O)[O-]
REMARK SMILES IDX 4 1 3 2 2 3 1 4 5 8 6 9 7 10 8 14 9 15 10 16
REMARK H PARENT 1 5 1 6 1 7 7 11 7 12 7 13
REMARK Flexibility Score: inf
ROOT
ATOM      1  C   UNL     1      26.056  26.476  22.948  1.00  0.00     0.012 C 
ENDROOT
BRANCH   1   2
ATOM      2  C   UNL     1      26.249  27.854  23.598  1.00  0.00     0.061 C 
BRANCH   2   3
ATOM      3  C   UNL     1      24.899  28.538  23.850  1.00  0.00     0.258 C 
BRANCH   3   4
ATOM      4  N   UNL     1      24.701  29.660  22.932  1.00  0.00    -0.358 N 
ATOM      5  H   UNL     1      25.152  30.522  23.315  1.00  0.00     0.344 HD
ATOM      6  H   UNL     1      23.677  29.834  22.822  1.00  0.00     0.344 HD
ATOM      7  H   UNL     1      25.108  29.434  21.996  1.00  0.00     0.344 HD
ENDBRANCH   3   4
ENDBRANCH   2   3
ENDBRANCH   1   2
BRANCH   1   8
ATOM      8  C   UNL     1      27.385  25.799  22.567  1.00  0.00     0.072 C 
BRANCH   8   9
ATOM      9  C   UNL     1      28.230  26.564  21.521  1.00  0.00     0.227 C 
BRANCH   9  10
ATOM     10  N   UNL     1      27.836  26.227  20.147  1.00  0.00    -0.350 N 
ATOM     11  H   UNL     1      28.551  26.565  19.461  1.00  0.00     0.345 HD
ATOM     12  H   UNL     1      26.914  26.668  19.922  1.00  0.00     0.345 HD
ATOM     13  H   UNL     1      27.719  25.193  20.049  1.00  0.00     0.345 HD
ENDBRANCH   9  10
BRANCH   9  14
ATOM     14  C   UNL     1      29.687  26.247  21.734  1.00  0.00     0.099 C 
ATOM     15  O   UNL     1      30.088  25.055  21.698  1.00  0.00    -0.544 OA
ATOM     16  O   UNL     1      30.603  27.272  21.940  1.00  0.00    -0.544 OA
ENDBRANCH   9  14
ENDBRANCH   8   9
ENDBRANCH   1   8
TORSDOF 7
ENDMDL
MODEL 6
REMARK VINA RESULT:    -4.046      6.292      8.098
REMARK INTER + INTRA:          -5.551
REMARK INTER:                  -5.464
REMARK INTRA:                  -0.087
REMARK UNBOUND:                -0.086
REMARK SMILES [NH3+]CCCC[C@H]([NH3+])C(=O)[O-]
REMARK SMILES IDX 4 1 3 2 2 3 1 4 5 8 6 9 7 10 8 14 9 15 10 16
REMARK H PARENT 1 5 1 6 1 7 7 11 7 12 7 13
REMARK Flexibility Score: inf
ROOT
ATOM      1  C   UNL     1      26.057  25.857  22.807  1.00  0.00     0.012 C 
ENDROOT
BRANCH   1   2
ATOM      2  C   UNL     1      25.435  24.800  23.730  1.00  0.00     0.061 C 
BRANCH   2   3
ATOM      3  C   UNL     1      24.196  24.166  23.085  1.00  0.00     0.258 C 
BRANCH   3   4
ATOM      4  N   UNL     1      24.542  22.921  22.400  1.00  0.00    -0.358 N 
ATOM      5  H   UNL     1      23.885  22.159  22.684  1.00  0.00     0.344 HD
ATOM      6  H   UNL     1      25.515  22.645  22.663  1.00  0.00     0.344 HD
ATOM      7  H   UNL     1      24.499  23.057  21.363  1.00  0.00     0.344 HD
ENDBRANCH   3   4
ENDBRANCH   2   3
ENDBRANCH   1   2
BRANCH   1   8
ATOM      8  C   UNL     1      27.533  25.572  22.475  1.00  0.00     0.072 C 
BRANCH   8   9
ATOM      9  C   UNL     1      28.176  26.554  21.467  1.00  0.00     0.227 C 
BRANCH   9  10
ATOM     10  N   UNL     1      27.814  26.230  20.080  1.00  0.00    -0.350 N 
ATOM     11  H   UNL     1      26.777  26.121  19.982  1.00  0.00     0.345 HD
ATOM     12  H   UNL     1      28.280  25.340  19.788  1.00  0.00     0.345 HD
ATOM     13  H   UNL     1      28.147  26.983  19.436  1.00  0.00     0.345 HD
ENDBRANCH   9  10
BRANCH   9  14
ATOM     14  C   UNL     1      29.672  26.524  21.631  1.00  0.00     0.099 C 
ATOM     15  O   UNL     1      30.261  25.440  21.878  1.00  0.00    -0.544 OA
ATOM     16  O   UNL     1      30.416  27.689  21.479  1.00  0.00    -0.544 OA
ENDBRANCH   9  14
ENDBRANCH   8   9
ENDBRANCH   1   8
TORSDOF 7
ENDMDL
MODEL 7
REMARK VINA RESULT:    -3.698      8.965     10.772
REMARK INTER + INTRA:          -5.081
REMARK INTER:                  -4.687
REMARK INTRA:                  -0.393
REMARK UNBOUND:                -0.086
REMARK SMILES [NH3+]CCCC[C@H]([NH3+])C(=O)[O-]
REMARK SMILES IDX 4 1 3 2 2 3 1 4 5 8 6 9 7 10 8 14 9 15 10 16
REMARK H PARENT 1 5 1 6 1 7 7 11 7 12 7 13
REMARK Flexibility Score: inf
ROOT
ATOM      1  C   UNL     1      30.859  25.248  22.026  1.00  0.00     0.012 C 
ENDROOT
BRANCH   1   2
ATOM      2  C   UNL     1      31.825  25.659  23.148  1.00  0.00     0.061 C 
BRANCH   2   3
ATOM      3  C   UNL     1      31.724  27.162  23.437  1.00  0.00     0.258 C 
BRANCH   3   4
ATOM      4  N   UNL     1      31.092  27.405  24.733  1.00  0.00    -0.358 N 
ATOM      5  H   UNL     1      31.807  27.718  25.429  1.00  0.00     0.344 HD
ATOM      6  H   UNL     1      30.655  26.518  25.072  1.00  0.00     0.344 HD
ATOM      7  H   UNL     1      30.347  28.134  24.639  1.00  0.00     0.344 HD
ENDBRANCH   3   4
ENDBRANCH   2   3
ENDBRANCH   1   2
BRANCH   1   8
ATOM      8  C   UNL     1      29.918  26.387  21.594  1.00  0.00     0.072 C 
BRANCH   8   9
ATOM      9  C   UNL     1      28.426  25.995  21.490  1.00  0.00     0.227 C 
BRANCH   9  10
ATOM     10  N   UNL     1      27.873  26.293  20.162  1.00  0.00    -0.350 N 
ATOM     11  H   UNL     1      28.575  26.799  19.572  1.00  0.00     0.345 HD
ATOM     12  H   UNL     1      27.016  26.887  20.256  1.00  0.00     0.345 HD
ATOM     13  H   UNL     1      27.589  25.408  19.683  1.00  0.00     0.345 HD
ENDBRANCH   9  10
BRANCH   9  14
ATOM     14  C   UNL     1      27.645  26.725  22.551  1.00  0.00     0.099 C 
ATOM     15  O   UNL     1      28.234  27.501  23.349  1.00  0.00    -0.544 OA
ATOM     16  O   UNL     1      26.266  26.572  22.636  1.00  0.00    -0.544 OA
ENDBRANCH   9  14
ENDBRANCH   8   9
ENDBRANCH   1   8
TORSDOF 7
ENDMDL
MODEL 8
REMARK VINA RESULT:    -3.608      8.741     11.083
REMARK INTER + INTRA:          -4.960
REMARK INTER:                  -4.629
REMARK INTRA:                  -0.331
REMARK UNBOUND:                -0.086
REMARK SMILES [NH3+]CCCC[C@H]([NH3+])C(=O)[O-]
REMARK SMILES IDX 4 1 3 2 2 3 1 4 5 8 6 9 7 10 8 14 9 15 10 16
REMARK H PARENT 1 5 1 6 1 7 7 11 7 12 7 13
REMARK Flexibility Score: inf
ROOT
ATOM      1  C   UNL     1      30.198  27.553  21.346  1.00  0.00     0.012 C 
ENDROOT
BRANCH   1   2
ATOM      2  C   UNL     1      31.334  28.210  22.143  1.00  0.00     0.061 C 
BRANCH   2   3
ATOM      3  C   UNL     1      30.994  29.665  22.490  1.00  0.00     0.258 C 
BRANCH   3   4
ATOM      4  N   UNL     1      29.766  29.742  23.280  1.00  0.00    -0.358 N 
ATOM      5  H   UNL     1      29.280  30.651  23.103  1.00  0.00     0.344 HD
ATOM      6  H   UNL     1      30.007  29.679  24.295  1.00  0.00     0.344 HD
ATOM      7  H   UNL     1      29.131  28.947  23.034  1.00  0.00     0.344 HD
ENDBRANCH   3   4
ENDBRANCH   2   3
ENDBRANCH   1   2
BRANCH   1   8
ATOM      8  C   UNL     1      29.655  26.276  22.013  1.00  0.00     0.072 C 
BRANCH   8   9
ATOM      9  C   UNL     1      28.184  25.939  21.674  1.00  0.00     0.227 C 
BRANCH   9  10
ATOM     10  N   UNL     1      27.838  26.322  20.298  1.00  0.00    -0.350 N 
ATOM     11  H   UNL     1      27.176  27.133  20.294  1.00  0.00     0.345 HD
ATOM     12  H   UNL     1      27.391  25.515  19.805  1.00  0.00     0.345 HD
ATOM     13  H   UNL     1      28.702  26.573  19.767  1.00  0.00     0.345 HD
ENDBRANCH   9  10
BRANCH   9  14
ATOM     14  C   UNL     1      27.277  26.640  22.650  1.00  0.00     0.099 C 
ATOM     15  O   UNL     1      26.032  26.461  22.599  1.00  0.00    -0.544 OA
ATOM     16  O   UNL     1      27.811  27.464  23.634  1.00  0.00    -0.544 OA
ENDBRANCH   9  14
ENDBRANCH   8   9
ENDBRANCH   1   8
TORSDOF 7
ENDMDL
MODEL 9
REMARK VINA RESULT:    -3.571      7.117      8.790
REMARK INTER + INTRA:          -4.909
REMARK INTER:                  -4.815
REMARK INTRA:                  -0.094
REMARK UNBOUND:                -0.086
REMARK SMILES [NH3+]CCCC[C@H]([NH3+])C(=O)[O-]
REMARK SMILES IDX 4 1 3 2 2 3 1 4 5 8 6 9 7 10 8 14 9 15 10 16
REMARK H PARENT 1 5 1 6 1 7 7 11 7 12 7 13
REMARK Flexibility Score: inf
ROOT
ATOM      1  C   UNL     1      28.414  27.039  22.569  1.00  0.00     0.012 C 
ENDROOT
BRANCH   1   2
ATOM      2  C   UNL     1      29.387  26.009  21.976  1.00  0.00     0.061 C 
BRANCH   2   3
ATOM      3  C   UNL     1      29.247  25.934  20.451  1.00  0.00     0.258 C 
BRANCH   3   4
ATOM      4  N   UNL     1      27.910  26.347  20.027  1.00  0.00    -0.358 N 
ATOM      5  H   UNL     1      27.224  25.577  20.199  1.00  0.00     0.344 HD
ATOM      6  H   UNL     1      27.927  26.564  19.004  1.00  0.00     0.344 HD
ATOM      7  H   UNL     1      27.617  27.206  20.549  1.00  0.00     0.344 HD
ENDBRANCH   3   4
ENDBRANCH   2   3
ENDBRANCH   1   2
BRANCH   1   8
ATOM      8  C   UNL     1      27.386  26.413  23.529  1.00  0.00     0.072 C 
BRANCH   8   9
ATOM      9  C   UNL     1      25.945  26.329  22.974  1.00  0.00     0.227 C 
BRANCH   9  10
ATOM     10  N   UNL     1      25.219  27.595  23.142  1.00  0.00    -0.350 N 
ATOM     11  H   UNL     1      24.339  27.597  22.575  1.00  0.00     0.345 HD
ATOM     12  H   UNL     1      25.821  28.395  22.840  1.00  0.00     0.345 HD
ATOM     13  H   UNL     1      24.984  27.744  24.150  1.00  0.00     0.345 HD
ENDBRANCH   9  10
BRANCH   9  14
ATOM     14  C   UNL     1      25.210  25.214  23.671  1.00  0.00     0.099 C 
ATOM     15  O   UNL     1      24.959  25.294  24.902  1.00  0.00    -0.544 OA
ATOM     16  O   UNL     1      24.775  24.106  22.953  1.00  0.00    -0.544 OA
ENDBRANCH   9  14
ENDBRANCH   8   9
ENDBRANCH   1   8
TORSDOF 7
ENDMDL
