MODEL 1
REMARK VINA RESULT:    -3.941      0.000      0.000
REMARK INTER + INTRA:          -4.839
REMARK INTER:                  -4.632
REMARK INTRA:                  -0.207
REMARK UNBOUND:                -0.207
REMARK SMILES [NH3+][C@H](CO)C(=O)[O-]
REMARK SMILES IDX 3 1 2 2 1 3 5 7 6 8 7 9 4 10
REMARK H PARENT 1 4 1 5 1 6 4 11
REMARK Flexibility Score: inf
ROOT
ATOM      1  C   UNL     1     165.456 173.564 214.969  1.00  0.00     0.227 C 
ENDROOT
BRANCH   1   2
ATOM      2  C   UNL     1     166.454 174.055 213.907  1.00  0.00     0.253 C 
BRANCH   2   3
ATOM      3  N   UNL     1     167.423 173.008 213.563  1.00  0.00    -0.348 N 
ATOM      4  H   UNL     1     167.506 172.330 214.356  1.00  0.00     0.345 HD
ATOM      5  H   UNL     1     167.094 172.486 212.719  1.00  0.00     0.345 HD
ATOM      6  H   UNL     1     168.365 173.418 213.365  1.00  0.00     0.345 HD
ENDBRANCH   2   3
BRANCH   2   7
ATOM      7  C   UNL     1     165.728 174.540 212.680  1.00  0.00     0.102 C 
ATOM      8  O   UNL     1     165.150 173.716 211.923  1.00  0.00    -0.544 OA
ATOM      9  O   UNL     1     165.727 175.890 212.349  1.00  0.00    -0.544 OA
ENDBRANCH   2   7
ENDBRANCH   1   2
BRANCH   1  10
ATOM     10  O   UNL     1     164.500 172.713 214.396  1.00  0.00    -0.390 OA
ATOM     11  H   UNL     1     164.773 171.790 214.639  1.00  0.00     0.210 HD
ENDBRANCH   1  10
TORSDOF 4
ENDMDL
MODEL 2
REMARK VINA RESULT:    -3.895      8.681      9.195
REMARK INTER + INTRA:          -4.785
REMARK INTER:                  -4.560
REMARK INTRA:                  -0.225
REMARK UNBOUND:                -0.207
REMARK SMILES [NH3+][C@H](CO)C(=O)[O-]
REMARK SMILES IDX 3 1 2 2 1 3 5 7 6 8 7 9 4 10
REMARK H PARENT 1 4 1 5 1 6 4 11
REMARK Flexibility Score: inf
ROOT
ATOM      1  C   UNL     1     170.744 166.309 214.715  1.00  0.00     0.227 C 
ENDROOT
BRANCH   1   2
ATOM      2  C   UNL     1     169.282 165.883 214.500  1.00  0.00     0.253 C 
BRANCH   2   3
ATOM      3  N   UNL     1     168.353 166.864 215.073  1.00  0.00    -0.348 N 
ATOM      4  H   UNL     1     168.826 167.794 215.152  1.00  0.00     0.345 HD
ATOM      5  H   UNL     1     167.522 166.971 214.447  1.00  0.00     0.345 HD
ATOM      6  H   UNL     1     168.029 166.565 216.022  1.00  0.00     0.345 HD
ENDBRANCH   2   3
BRANCH   2   7
ATOM      7  C   UNL     1     169.001 165.669 213.036  1.00  0.00     0.102 C 
ATOM      8  O   UNL     1     169.953 165.548 212.221  1.00  0.00    -0.544 OA
ATOM      9  O   UNL     1     167.693 165.647 212.565  1.00  0.00    -0.544 OA
ENDBRANCH   2   7
ENDBRANCH   1   2
BRANCH   1  10
ATOM     10  O   UNL     1     171.596 165.197 214.675  1.00  0.00    -0.390 OA
ATOM     11  H   UNL     1     172.433 165.507 214.240  1.00  0.00     0.210 HD
ENDBRANCH   1  10
TORSDOF 4
ENDMDL
MODEL 3
REMARK VINA RESULT:    -3.835      8.376      8.835
REMARK INTER + INTRA:          -4.715
REMARK INTER:                  -4.687
REMARK INTRA:                  -0.028
REMARK UNBOUND:                -0.207
REMARK SMILES [NH3+][C@H](CO)C(=O)[O-]
REMARK SMILES IDX 3 1 2 2 1 3 5 7 6 8 7 9 4 10
REMARK H PARENT 1 4 1 5 1 6 4 11
REMARK Flexibility Score: inf
ROOT
ATOM      1  C   UNL     1     173.659 170.681 208.391  1.00  0.00     0.227 C 
ENDROOT
BRANCH   1   2
ATOM      2  C   UNL     1     172.523 171.257 209.253  1.00  0.00     0.253 C 
BRANCH   2   3
ATOM      3  N   UNL     1     172.814 171.111 210.684  1.00  0.00    -0.348 N 
ATOM      4  H   UNL     1     171.957 171.332 211.242  1.00  0.00     0.345 HD
ATOM      5  H   UNL     1     173.093 170.125 210.889  1.00  0.00     0.345 HD
ATOM      6  H   UNL     1     173.587 171.753 210.977  1.00  0.00     0.345 HD
ENDBRANCH   2   3
BRANCH   2   7
ATOM      7  C   UNL     1     172.267 172.698 208.901  1.00  0.00     0.102 C 
ATOM      8  O   UNL     1     173.232 173.496 208.769  1.00  0.00    -0.544 OA
ATOM      9  O   UNL     1     170.966 173.170 208.761  1.00  0.00    -0.544 OA
ENDBRANCH   2   7
ENDBRANCH   1   2
BRANCH   1  10
ATOM     10  O   UNL     1     174.652 170.107 209.198  1.00  0.00    -0.390 OA
ATOM     11  H   UNL     1     175.501 170.194 208.692  1.00  0.00     0.210 HD
ENDBRANCH   1  10
TORSDOF 4
ENDMDL
MODEL 4
REMARK VINA RESULT:    -3.720      6.488      7.151
REMARK INTER + INTRA:          -4.580
REMARK INTER:                  -4.553
REMARK INTRA:                  -0.027
REMARK UNBOUND:                -0.207
REMARK SMILES [NH3+][C@H](CO)C(=O)[O-]
REMARK SMILES IDX 3 1 2 2 1 3 5 7 6 8 7 9 4 10
REMARK H PARENT 1 4 1 5 1 6 4 11
REMARK Flexibility Score: inf
ROOT
ATOM      1  C   UNL     1     169.739 173.033 208.512  1.00  0.00     0.227 C 
ENDROOT
BRANCH   1   2
ATOM      2  C   UNL     1     170.913 172.452 209.315  1.00  0.00     0.253 C 
BRANCH   2   3
ATOM      3  N   UNL     1     170.670 172.549 210.759  1.00  0.00    -0.348 N 
ATOM      4  H   UNL     1     170.870 171.627 211.213  1.00  0.00     0.345 HD
ATOM      5  H   UNL     1     171.306 173.265 211.178  1.00  0.00     0.345 HD
ATOM      6  H   UNL     1     169.678 172.817 210.956  1.00  0.00     0.345 HD
ENDBRANCH   2   3
BRANCH   2   7
ATOM      7  C   UNL     1     171.180 171.026 208.910  1.00  0.00     0.102 C 
ATOM      8  O   UNL     1     170.224 170.216 208.788  1.00  0.00    -0.544 OA
ATOM      9  O   UNL     1     172.482 170.582 208.711  1.00  0.00    -0.544 OA
ENDBRANCH   2   7
ENDBRANCH   1   2
BRANCH   1  10
ATOM     10  O   UNL     1     168.779 173.592 209.367  1.00  0.00    -0.390 OA
ATOM     11  H   UNL     1     169.161 174.450 209.687  1.00  0.00     0.210 HD
ENDBRANCH   1  10
TORSDOF 4
ENDMDL
MODEL 5
REMARK VINA RESULT:    -3.669      7.728      8.294
REMARK INTER + INTRA:          -4.520
REMARK INTER:                  -4.146
REMARK INTRA:                  -0.374
REMARK UNBOUND:                -0.207
REMARK SMILES [NH3+][C@H](CO)C(=O)[O-]
REMARK SMILES IDX 3 1 2 2 1 3 5 7 6 8 7 9 4 10
REMARK H PARENT 1 4 1 5 1 6 4 11
REMARK Flexibility Score: inf
ROOT
ATOM      1  C   UNL     1     172.917 170.853 208.980  1.00  0.00     0.227 C 
ENDROOT
BRANCH   1   2
ATOM      2  C   UNL     1     171.443 170.851 208.543  1.00  0.00     0.253 C 
BRANCH   2   3
ATOM      3  N   UNL     1     170.561 170.457 209.647  1.00  0.00    -0.348 N 
ATOM      4  H   UNL     1     170.176 171.312 210.113  1.00  0.00     0.345 HD
ATOM      5  H   UNL     1     169.760 169.897 209.278  1.00  0.00     0.345 HD
ATOM      6  H   UNL     1     171.078 169.887 210.357  1.00  0.00     0.345 HD
ENDBRANCH   2   3
BRANCH   2   7
ATOM      7  C   UNL     1     171.049 172.197 207.995  1.00  0.00     0.102 C 
ATOM      8  O   UNL     1     170.655 173.104 208.773  1.00  0.00    -0.544 OA
ATOM      9  O   UNL     1     171.076 172.436 206.625  1.00  0.00    -0.544 OA
ENDBRANCH   2   7
ENDBRANCH   1   2
BRANCH   1  10
ATOM     10  O   UNL     1     173.573 172.001 208.513  1.00  0.00    -0.390 OA
ATOM     11  H   UNL     1     174.078 171.721 207.707  1.00  0.00     0.210 HD
ENDBRANCH   1  10
TORSDOF 4
ENDMDL
MODEL 6
REMARK VINA RESULT:    -3.621      8.501      9.116
REMARK INTER + INTRA:          -4.463
REMARK INTER:                  -4.075
REMARK INTRA:                  -0.389
REMARK UNBOUND:                -0.207
REMARK SMILES [NH3+][C@H](CO)C(=O)[O-]
REMARK SMILES IDX 3 1 2 2 1 3 5 7 6 8 7 9 4 10
REMARK H PARENT 1 4 1 5 1 6 4 11
REMARK Flexibility Score: inf
ROOT
ATOM      1  C   UNL     1     172.403 171.552 206.530  1.00  0.00     0.227 C 
ENDROOT
BRANCH   1   2
ATOM      2  C   UNL     1     172.615 171.505 208.052  1.00  0.00     0.253 C 
BRANCH   2   3
ATOM      3  N   UNL     1     173.959 171.021 208.387  1.00  0.00    -0.348 N 
ATOM      4  H   UNL     1     174.494 170.828 207.508  1.00  0.00     0.345 HD
ATOM      5  H   UNL     1     174.473 171.752 208.930  1.00  0.00     0.345 HD
ATOM      6  H   UNL     1     173.912 170.143 208.956  1.00  0.00     0.345 HD
ENDBRANCH   2   3
BRANCH   2   7
ATOM      7  C   UNL     1     172.363 172.857 208.666  1.00  0.00     0.102 C 
ATOM      8  O   UNL     1     171.216 173.152 209.093  1.00  0.00    -0.544 OA
ATOM      9  O   UNL     1     173.380 173.803 208.727  1.00  0.00    -0.544 OA
ENDBRANCH   2   7
ENDBRANCH   1   2
BRANCH   1  10
ATOM     10  O   UNL     1     171.836 172.775 206.144  1.00  0.00    -0.390 OA
ATOM     11  H   UNL     1     172.345 173.478 206.626  1.00  0.00     0.210 HD
ENDBRANCH   1  10
TORSDOF 4
ENDMDL
MODEL 7
REMARK VINA RESULT:    -3.596      7.763      8.353
REMARK INTER + INTRA:          -4.433
REMARK INTER:                  -4.207
REMARK INTRA:                  -0.226
REMARK UNBOUND:                -0.207
REMARK SMILES [NH3+][C@H](CO)C(=O)[O-]
REMARK SMILES IDX 3 1 2 2 1 3 5 7 6 8 7 9 4 10
REMARK H PARENT 1 4 1 5 1 6 4 11
REMARK Flexibility Score: inf
ROOT
ATOM      1  C   UNL     1     172.378 173.161 208.702  1.00  0.00     0.227 C 
ENDROOT
BRANCH   1   2
ATOM      2  C   UNL     1     171.095 172.354 208.443  1.00  0.00     0.253 C 
BRANCH   2   3
ATOM      3  N   UNL     1     170.527 172.667 207.126  1.00  0.00    -0.348 N 
ATOM      4  H   UNL     1     171.300 172.822 206.437  1.00  0.00     0.345 HD
ATOM      5  H   UNL     1     169.946 171.865 206.792  1.00  0.00     0.345 HD
ATOM      6  H   UNL     1     169.931 173.526 207.168  1.00  0.00     0.345 HD
ENDBRANCH   2   3
BRANCH   2   7
ATOM      7  C   UNL     1     171.359 170.878 208.577  1.00  0.00     0.102 C 
ATOM      8  O   UNL     1     172.542 170.449 208.614  1.00  0.00    -0.544 OA
ATOM      9  O   UNL     1     170.303 169.974 208.617  1.00  0.00    -0.544 OA
ENDBRANCH   2   7
ENDBRANCH   1   2
BRANCH   1  10
ATOM     10  O   UNL     1     172.770 173.053 210.044  1.00  0.00    -0.390 OA
ATOM     11  H   UNL     1     172.274 172.279 210.415  1.00  0.00     0.210 HD
ENDBRANCH   1  10
TORSDOF 4
ENDMDL
MODEL 8
REMARK VINA RESULT:    -3.589      7.902      8.473
REMARK INTER + INTRA:          -4.425
REMARK INTER:                  -4.025
REMARK INTRA:                  -0.401
REMARK UNBOUND:                -0.207
REMARK SMILES [NH3+][C@H](CO)C(=O)[O-]
REMARK SMILES IDX 3 1 2 2 1 3 5 7 6 8 7 9 4 10
REMARK H PARENT 1 4 1 5 1 6 4 11
REMARK Flexibility Score: inf
ROOT
ATOM      1  C   UNL     1     170.580 172.820 208.685  1.00  0.00     0.227 C 
ENDROOT
BRANCH   1   2
ATOM      2  C   UNL     1     172.102 172.818 208.466  1.00  0.00     0.253 C 
BRANCH   2   3
ATOM      3  N   UNL     1     172.818 173.133 209.708  1.00  0.00    -0.348 N 
ATOM      4  H   UNL     1     172.707 174.149 209.931  1.00  0.00     0.345 HD
ATOM      5  H   UNL     1     172.417 172.578 210.498  1.00  0.00     0.345 HD
ATOM      6  H   UNL     1     173.838 172.913 209.620  1.00  0.00     0.345 HD
ENDBRANCH   2   3
BRANCH   2   7
ATOM      7  C   UNL     1     172.557 171.497 207.904  1.00  0.00     0.102 C 
ATOM      8  O   UNL     1     172.541 171.302 206.661  1.00  0.00    -0.544 OA
ATOM      9  O   UNL     1     172.955 170.470 208.753  1.00  0.00    -0.544 OA
ENDBRANCH   2   7
ENDBRANCH   1   2
BRANCH   1  10
ATOM     10  O   UNL     1     170.036 171.559 208.403  1.00  0.00    -0.390 OA
ATOM     11  H   UNL     1     170.059 171.052 209.255  1.00  0.00     0.210 HD
ENDBRANCH   1  10
TORSDOF 4
ENDMDL
MODEL 9
REMARK VINA RESULT:    -3.588      7.568      8.096
REMARK INTER + INTRA:          -4.425
REMARK INTER:                  -4.056
REMARK INTRA:                  -0.368
REMARK UNBOUND:                -0.207
REMARK SMILES [NH3+][C@H](CO)C(=O)[O-]
REMARK SMILES IDX 3 1 2 2 1 3 5 7 6 8 7 9 4 10
REMARK H PARENT 1 4 1 5 1 6 4 11
REMARK Flexibility Score: inf
ROOT
ATOM      1  C   UNL     1     172.643 171.081 208.717  1.00  0.00     0.227 C 
ENDROOT
BRANCH   1   2
ATOM      2  C   UNL     1     172.181 172.545 208.799  1.00  0.00     0.253 C 
BRANCH   2   3
ATOM      3  N   UNL     1     173.148 173.444 208.157  1.00  0.00    -0.348 N 
ATOM      4  H   UNL     1     173.891 172.881 207.682  1.00  0.00     0.345 HD
ATOM      5  H   UNL     1     172.664 174.025 207.434  1.00  0.00     0.345 HD
ATOM      6  H   UNL     1     173.596 174.077 208.859  1.00  0.00     0.345 HD
ENDBRANCH   2   3
BRANCH   2   7
ATOM      7  C   UNL     1     170.813 172.705 208.192  1.00  0.00     0.102 C 
ATOM      8  O   UNL     1     169.813 172.902 208.931  1.00  0.00    -0.544 OA
ATOM      9  O   UNL     1     170.635 172.596 206.817  1.00  0.00    -0.544 OA
ENDBRANCH   2   7
ENDBRANCH   1   2
BRANCH   1  10
ATOM     10  O   UNL     1     171.573 170.240 208.382  1.00  0.00    -0.390 OA
ATOM     11  H   UNL     1     171.978 169.396 208.052  1.00  0.00     0.210 HD
ENDBRANCH   1  10
TORSDOF 4
ENDMDL
