MODEL 1
REMARK VINA RESULT:    -5.018      0.000      0.000
REMARK INTER + INTRA:          -5.582
REMARK INTER:                  -5.311
REMARK INTRA:                  -0.271
REMARK UNBOUND:                -0.271
REMARK SMILES CC(C)[C@H]1CC[C@@H](C)[C@H]2C=C[C@@H](C)C[C@H]21
REMARK SMILES IDX 8 1 7 2 6 3 5 4 4 5 15 6 9 7 10 8 11 9 12 10 14 11 13 12
REMARK SMILES IDX 2 13 1 14 3 15
REMARK H PARENT
REMARK Flexibility Score: inf
ROOT
ATOM      1  C   UNL     1      22.883  64.420  19.358  1.00  0.00     0.008 C 
ATOM      2  C   UNL     1      22.402  64.241  17.907  1.00  0.00    -0.007 C 
ATOM      3  C   UNL     1      21.033  63.530  17.848  1.00  0.00     0.004 C 
ATOM      4  C   UNL     1      20.621  63.107  16.417  1.00  0.00     0.004 C 
ATOM      5  C   UNL     1      21.428  63.847  15.319  1.00  0.00    -0.005 C 
ATOM      6  C   UNL     1      22.957  63.510  15.483  1.00  0.00    -0.000 C 
ATOM      7  C   UNL     1      23.432  63.532  16.993  1.00  0.00     0.018 C 
ATOM      8  C   UNL     1      23.813  62.153  17.517  1.00  0.00    -0.027 C 
ATOM      9  C   UNL     1      24.466  61.286  16.736  1.00  0.00    -0.028 C 
ATOM     10  C   UNL     1      24.685  61.621  15.287  1.00  0.00     0.008 C 
ATOM     11  C   UNL     1      23.374  62.201  14.738  1.00  0.00     0.012 C 
ATOM     12  C   UNL     1      25.114  60.380  14.498  1.00  0.00     0.012 C 
ENDROOT
BRANCH   5  13
ATOM     13  C   UNL     1      20.869  63.632  13.866  1.00  0.00    -0.014 C 
ATOM     14  C   UNL     1      20.673  64.980  13.144  1.00  0.00     0.007 C 
ATOM     15  C   UNL     1      19.524  62.880  13.854  1.00  0.00     0.007 C 
ENDBRANCH   5  13
TORSDOF 1
ENDMDL
MODEL 2
REMARK VINA RESULT:    -4.807      1.621      4.103
REMARK INTER + INTRA:          -5.359
REMARK INTER:                  -5.090
REMARK INTRA:                  -0.269
REMARK UNBOUND:                -0.271
REMARK SMILES CC(C)[C@H]1CC[C@@H](C)[C@H]2C=C[C@@H](C)C[C@H]21
REMARK SMILES IDX 8 1 7 2 6 3 5 4 4 5 15 6 9 7 10 8 11 9 12 10 14 11 13 12
REMARK SMILES IDX 2 13 1 14 3 15
REMARK H PARENT
REMARK Flexibility Score: inf
ROOT
ATOM      1  C   UNL     1      17.710  64.743  15.062  1.00  0.00     0.008 C 
ATOM      2  C   UNL     1      19.206  64.462  14.836  1.00  0.00    -0.007 C 
ATOM      3  C   UNL     1      19.428  63.112  14.122  1.00  0.00     0.004 C 
ATOM      4  C   UNL     1      20.910  62.668  14.091  1.00  0.00     0.004 C 
ATOM      5  C   UNL     1      21.890  63.835  14.380  1.00  0.00    -0.005 C 
ATOM      6  C   UNL     1      21.604  64.407  15.819  1.00  0.00    -0.000 C 
ATOM      7  C   UNL     1      20.058  64.550  16.127  1.00  0.00     0.018 C 
ATOM      8  C   UNL     1      19.574  63.585  17.202  1.00  0.00    -0.027 C 
ATOM      9  C   UNL     1      20.336  63.318  18.268  1.00  0.00    -0.028 C 
ATOM     10  C   UNL     1      21.739  63.854  18.323  1.00  0.00     0.008 C 
ATOM     11  C   UNL     1      22.375  63.641  16.941  1.00  0.00     0.012 C 
ATOM     12  C   UNL     1      22.549  63.155  19.418  1.00  0.00     0.012 C 
ENDROOT
BRANCH   5  13
ATOM     13  C   UNL     1      23.397  63.481  14.111  1.00  0.00    -0.014 C 
ATOM     14  C   UNL     1      23.980  64.362  12.989  1.00  0.00     0.007 C 
ATOM     15  C   UNL     1      23.597  62.005  13.716  1.00  0.00     0.007 C 
ENDBRANCH   5  13
TORSDOF 1
ENDMDL
MODEL 3
REMARK VINA RESULT:    -4.518      1.343      3.971
REMARK INTER + INTRA:          -5.054
REMARK INTER:                  -4.795
REMARK INTRA:                  -0.259
REMARK UNBOUND:                -0.271
REMARK SMILES CC(C)[C@H]1CC[C@@H](C)[C@H]2C=C[C@@H](C)C[C@H]21
REMARK SMILES IDX 8 1 7 2 6 3 5 4 4 5 15 6 9 7 10 8 11 9 12 10 14 11 13 12
REMARK SMILES IDX 2 13 1 14 3 15
REMARK H PARENT
REMARK Flexibility Score: inf
ROOT
ATOM      1  C   UNL     1      24.930  61.655  17.370  1.00  0.00     0.008 C 
ATOM      2  C   UNL     1      23.605  62.189  16.798  1.00  0.00    -0.007 C 
ATOM      3  C   UNL     1      23.847  63.240  15.695  1.00  0.00     0.004 C 
ATOM      4  C   UNL     1      22.562  63.984  15.261  1.00  0.00     0.004 C 
ATOM      5  C   UNL     1      21.268  63.243  15.688  1.00  0.00    -0.005 C 
ATOM      6  C   UNL     1      21.232  63.126  17.258  1.00  0.00    -0.000 C 
ATOM      7  C   UNL     1      22.636  62.733  17.877  1.00  0.00     0.018 C 
ATOM      8  C   UNL     1      23.259  63.856  18.697  1.00  0.00    -0.027 C 
ATOM      9  C   UNL     1      22.498  64.631  19.477  1.00  0.00    -0.028 C 
ATOM     10  C   UNL     1      21.003  64.488  19.423  1.00  0.00     0.008 C 
ATOM     11  C   UNL     1      20.598  64.377  17.945  1.00  0.00     0.012 C 
ATOM     12  C   UNL     1      20.315  65.678  20.097  1.00  0.00     0.012 C 
ENDROOT
BRANCH   5  13
ATOM     13  C   UNL     1      19.958  63.832  15.052  1.00  0.00    -0.014 C 
ATOM     14  C   UNL     1      19.357  62.856  14.021  1.00  0.00     0.007 C 
ATOM     15  C   UNL     1      20.196  65.184  14.352  1.00  0.00     0.007 C 
ENDBRANCH   5  13
TORSDOF 1
ENDMDL
MODEL 4
REMARK VINA RESULT:    -4.406      1.508      4.962
REMARK INTER + INTRA:          -4.935
REMARK INTER:                  -4.686
REMARK INTRA:                  -0.249
REMARK UNBOUND:                -0.271
REMARK SMILES CC(C)[C@H]1CC[C@@H](C)[C@H]2C=C[C@@H](C)C[C@H]21
REMARK SMILES IDX 8 1 7 2 6 3 5 4 4 5 15 6 9 7 10 8 11 9 12 10 14 11 13 12
REMARK SMILES IDX 2 13 1 14 3 15
REMARK H PARENT
REMARK Flexibility Score: inf
ROOT
ATOM      1  C   UNL     1      23.825  62.490  13.828  1.00  0.00     0.008 C 
ATOM      2  C   UNL     1      23.241  63.258  15.026  1.00  0.00    -0.007 C 
ATOM      3  C   UNL     1      23.162  62.368  16.285  1.00  0.00     0.004 C 
ATOM      4  C   UNL     1      22.360  63.010  17.443  1.00  0.00     0.004 C 
ATOM      5  C   UNL     1      22.183  64.541  17.271  1.00  0.00    -0.005 C 
ATOM      6  C   UNL     1      21.389  64.825  15.941  1.00  0.00    -0.000 C 
ATOM      7  C   UNL     1      21.873  63.922  14.733  1.00  0.00     0.018 C 
ATOM      8  C   UNL     1      20.824  62.909  14.291  1.00  0.00    -0.027 C 
ATOM      9  C   UNL     1      19.529  63.241  14.260  1.00  0.00    -0.028 C 
ATOM     10  C   UNL     1      19.096  64.570  14.813  1.00  0.00     0.008 C 
ATOM     11  C   UNL     1      19.840  64.789  16.139  1.00  0.00     0.012 C 
ATOM     12  C   UNL     1      17.579  64.610  15.017  1.00  0.00     0.012 C 
ENDROOT
BRANCH   5  13
ATOM     13  C   UNL     1      21.598  65.260  18.540  1.00  0.00    -0.014 C 
ATOM     14  C   UNL     1      22.681  66.099  19.247  1.00  0.00     0.007 C 
ATOM     15  C   UNL     1      21.013  64.269  19.565  1.00  0.00     0.007 C 
ENDBRANCH   5  13
TORSDOF 1
ENDMDL
MODEL 5
REMARK VINA RESULT:    -4.338      1.688      4.551
REMARK INTER + INTRA:          -4.863
REMARK INTER:                  -4.594
REMARK INTRA:                  -0.269
REMARK UNBOUND:                -0.271
REMARK SMILES CC(C)[C@H]1CC[C@@H](C)[C@H]2C=C[C@@H](C)C[C@H]21
REMARK SMILES IDX 8 1 7 2 6 3 5 4 4 5 15 6 9 7 10 8 11 9 12 10 14 11 13 12
REMARK SMILES IDX 2 13 1 14 3 15
REMARK H PARENT
REMARK Flexibility Score: inf
ROOT
ATOM      1  C   UNL     1      19.097  62.876  13.887  1.00  0.00     0.008 C 
ATOM      2  C   UNL     1      20.432  62.783  14.647  1.00  0.00    -0.007 C 
ATOM      3  C   UNL     1      20.369  63.527  15.997  1.00  0.00     0.004 C 
ATOM      4  C   UNL     1      21.748  63.674  16.685  1.00  0.00     0.004 C 
ATOM      5  C   UNL     1      22.807  62.694  16.116  1.00  0.00    -0.005 C 
ATOM      6  C   UNL     1      23.015  62.989  14.583  1.00  0.00    -0.000 C 
ATOM      7  C   UNL     1      21.654  63.248  13.817  1.00  0.00     0.018 C 
ATOM      8  C   UNL     1      21.508  64.685  13.334  1.00  0.00    -0.027 C 
ATOM      9  C   UNL     1      22.562  65.349  12.847  1.00  0.00    -0.028 C 
ATOM     10  C   UNL     1      23.926  64.722  12.922  1.00  0.00     0.008 C 
ATOM     11  C   UNL     1      24.079  64.102  14.319  1.00  0.00     0.012 C 
ATOM     12  C   UNL     1      25.020  65.759  12.654  1.00  0.00     0.012 C 
ENDROOT
BRANCH   5  13
ATOM     13  C   UNL     1      24.136  62.639  16.952  1.00  0.00    -0.014 C 
ATOM     14  C   UNL     1      24.704  61.207  16.994  1.00  0.00     0.007 C 
ATOM     15  C   UNL     1      23.943  63.122  18.403  1.00  0.00     0.007 C 
ENDBRANCH   5  13
TORSDOF 1
ENDMDL
MODEL 6
REMARK VINA RESULT:    -4.298      1.998      4.616
REMARK INTER + INTRA:          -4.821
REMARK INTER:                  -4.632
REMARK INTRA:                  -0.189
REMARK UNBOUND:                -0.271
REMARK SMILES CC(C)[C@H]1CC[C@@H](C)[C@H]2C=C[C@@H](C)C[C@H]21
REMARK SMILES IDX 8 1 7 2 6 3 5 4 4 5 15 6 9 7 10 8 11 9 12 10 14 11 13 12
REMARK SMILES IDX 2 13 1 14 3 15
REMARK H PARENT
REMARK Flexibility Score: inf
ROOT
ATOM      1  C   UNL     1      21.118  64.250  19.922  1.00  0.00     0.008 C 
ATOM      2  C   UNL     1      21.283  63.976  18.418  1.00  0.00    -0.007 C 
ATOM      3  C   UNL     1      22.288  64.952  17.771  1.00  0.00     0.004 C 
ATOM      4  C   UNL     1      22.308  64.882  16.225  1.00  0.00     0.004 C 
ATOM      5  C   UNL     1      21.659  63.584  15.677  1.00  0.00    -0.005 C 
ATOM      6  C   UNL     1      20.152  63.527  16.129  1.00  0.00    -0.000 C 
ATOM      7  C   UNL     1      19.945  63.963  17.637  1.00  0.00     0.018 C 
ATOM      8  C   UNL     1      19.186  65.277  17.776  1.00  0.00    -0.027 C 
ATOM      9  C   UNL     1      18.161  65.558  16.965  1.00  0.00    -0.028 C 
ATOM     10  C   UNL     1      17.860  64.641  15.813  1.00  0.00     0.008 C 
ATOM     11  C   UNL     1      19.195  64.275  15.146  1.00  0.00     0.012 C 
ATOM     12  C   UNL     1      16.909  65.309  14.815  1.00  0.00     0.012 C 
ENDROOT
BRANCH   5  13
ATOM     13  C   UNL     1      21.884  63.362  14.138  1.00  0.00    -0.014 C 
ATOM     14  C   UNL     1      23.032  62.366  13.885  1.00  0.00     0.007 C 
ATOM     15  C   UNL     1      22.210  64.671  13.393  1.00  0.00     0.007 C 
ENDBRANCH   5  13
TORSDOF 1
ENDMDL
MODEL 7
REMARK VINA RESULT:    -4.275      1.448      4.474
REMARK INTER + INTRA:          -4.796
REMARK INTER:                  -4.531
REMARK INTRA:                  -0.265
REMARK UNBOUND:                -0.271
REMARK SMILES CC(C)[C@H]1CC[C@@H](C)[C@H]2C=C[C@@H](C)C[C@H]21
REMARK SMILES IDX 8 1 7 2 6 3 5 4 4 5 15 6 9 7 10 8 11 9 12 10 14 11 13 12
REMARK SMILES IDX 2 13 1 14 3 15
REMARK H PARENT
REMARK Flexibility Score: inf
ROOT
ATOM      1  C   UNL     1      21.103  64.732  20.999  1.00  0.00     0.008 C 
ATOM      2  C   UNL     1      21.771  64.046  19.794  1.00  0.00    -0.007 C 
ATOM      3  C   UNL     1      23.044  64.796  19.350  1.00  0.00     0.004 C 
ATOM      4  C   UNL     1      23.614  64.296  18.001  1.00  0.00     0.004 C 
ATOM      5  C   UNL     1      23.068  62.900  17.602  1.00  0.00    -0.005 C 
ATOM      6  C   UNL     1      21.503  62.980  17.446  1.00  0.00    -0.000 C 
ATOM      7  C   UNL     1      20.814  63.823  18.596  1.00  0.00     0.018 C 
ATOM      8  C   UNL     1      20.207  65.128  18.095  1.00  0.00    -0.027 C 
ATOM      9  C   UNL     1      19.584  65.177  16.912  1.00  0.00    -0.028 C 
ATOM     10  C   UNL     1      19.622  63.976  16.010  1.00  0.00     0.008 C 
ATOM     11  C   UNL     1      21.058  63.429  16.018  1.00  0.00     0.012 C 
ATOM     12  C   UNL     1      19.178  64.343  14.591  1.00  0.00     0.012 C 
ENDROOT
BRANCH   5  13
ATOM     13  C   UNL     1      23.809  62.254  16.376  1.00  0.00    -0.014 C 
ATOM     14  C   UNL     1      24.609  61.009  16.807  1.00  0.00     0.007 C 
ATOM     15  C   UNL     1      24.779  63.234  15.687  1.00  0.00     0.007 C 
ENDBRANCH   5  13
TORSDOF 1
ENDMDL
MODEL 8
REMARK VINA RESULT:    -4.198      1.838      4.581
REMARK INTER + INTRA:          -4.714
REMARK INTER:                  -4.465
REMARK INTRA:                  -0.250
REMARK UNBOUND:                -0.271
REMARK SMILES CC(C)[C@H]1CC[C@@H](C)[C@H]2C=C[C@@H](C)C[C@H]21
REMARK SMILES IDX 8 1 7 2 6 3 5 4 4 5 15 6 9 7 10 8 11 9 12 10 14 11 13 12
REMARK SMILES IDX 2 13 1 14 3 15
REMARK H PARENT
REMARK Flexibility Score: inf
ROOT
ATOM      1  C   UNL     1      17.284  64.898  15.001  1.00  0.00     0.008 C 
ATOM      2  C   UNL     1      18.474  64.714  15.959  1.00  0.00    -0.007 C 
ATOM      3  C   UNL     1      19.062  66.072  16.398  1.00  0.00     0.004 C 
ATOM      4  C   UNL     1      20.404  65.944  17.160  1.00  0.00     0.004 C 
ATOM      5  C   UNL     1      20.653  64.510  17.695  1.00  0.00    -0.005 C 
ATOM      6  C   UNL     1      20.707  63.506  16.483  1.00  0.00    -0.000 C 
ATOM      7  C   UNL     1      19.582  63.786  15.404  1.00  0.00     0.018 C 
ATOM      8  C   UNL     1      20.142  64.287  14.078  1.00  0.00    -0.027 C 
ATOM      9  C   UNL     1      21.279  63.783  13.587  1.00  0.00    -0.028 C 
ATOM     10  C   UNL     1      22.084  62.830  14.424  1.00  0.00     0.008 C 
ATOM     11  C   UNL     1      22.132  63.389  15.854  1.00  0.00     0.012 C 
ATOM     12  C   UNL     1      23.494  62.655  13.851  1.00  0.00     0.012 C 
ENDROOT
BRANCH   5  13
ATOM     13  C   UNL     1      21.873  64.402  18.680  1.00  0.00    -0.014 C 
ATOM     14  C   UNL     1      21.395  64.172  20.127  1.00  0.00     0.007 C 
ATOM     15  C   UNL     1      22.762  65.661  18.661  1.00  0.00     0.007 C 
ENDBRANCH   5  13
TORSDOF 1
ENDMDL
MODEL 9
REMARK VINA RESULT:    -4.085      1.485      4.349
REMARK INTER + INTRA:          -4.595
REMARK INTER:                  -4.368
REMARK INTRA:                  -0.227
REMARK UNBOUND:                -0.271
REMARK SMILES CC(C)[C@H]1CC[C@@H](C)[C@H]2C=C[C@@H](C)C[C@H]21
REMARK SMILES IDX 8 1 7 2 6 3 5 4 4 5 15 6 9 7 10 8 11 9 12 10 14 11 13 12
REMARK SMILES IDX 2 13 1 14 3 15
REMARK H PARENT
REMARK Flexibility Score: inf
ROOT
ATOM      1  C   UNL     1      19.441  64.062  14.611  1.00  0.00     0.008 C 
ATOM      2  C   UNL     1      20.014  64.228  16.029  1.00  0.00    -0.007 C 
ATOM      3  C   UNL     1      20.530  65.663  16.267  1.00  0.00     0.004 C 
ATOM      4  C   UNL     1      21.335  65.818  17.581  1.00  0.00     0.004 C 
ATOM      5  C   UNL     1      21.091  64.650  18.572  1.00  0.00    -0.005 C 
ATOM      6  C   UNL     1      21.545  63.298  17.903  1.00  0.00    -0.000 C 
ATOM      7  C   UNL     1      21.100  63.183  16.388  1.00  0.00     0.018 C 
ATOM      8  C   UNL     1      22.275  63.219  15.419  1.00  0.00    -0.027 C 
ATOM      9  C   UNL     1      23.420  62.596  15.717  1.00  0.00    -0.028 C 
ATOM     10  C   UNL     1      23.596  61.991  17.081  1.00  0.00     0.008 C 
ATOM     11  C   UNL     1      23.064  62.999  18.111  1.00  0.00     0.012 C 
ATOM     12  C   UNL     1      25.067  61.655  17.345  1.00  0.00     0.012 C 
ENDROOT
BRANCH   5  13
ATOM     13  C   UNL     1      21.688  64.897  20.004  1.00  0.00    -0.014 C 
ATOM     14  C   UNL     1      20.578  65.255  21.012  1.00  0.00     0.007 C 
ATOM     15  C   UNL     1      22.736  66.027  20.022  1.00  0.00     0.007 C 
ENDBRANCH   5  13
TORSDOF 1
ENDMDL
