MODEL 1
REMARK VINA RESULT:    -2.802      0.000      0.000
REMARK INTER + INTRA:          -2.802
REMARK INTER:                  -2.802
REMARK INTRA:                   0.000
REMARK UNBOUND:                 0.000
REMARK SMILES CC(=O)[O-]
REMARK SMILES IDX 1 1 2 2 3 3 4 4
REMARK H PARENT
REMARK Flexibility Score: inf
ROOT
ATOM      1  C   UNL     1      30.254  32.062  81.905  1.00  0.00     0.063 C 
ATOM      2  C   UNL     1      30.419  30.921  80.961  1.00  0.00     0.038 C 
ATOM      3  O   UNL     1      29.445  30.163  80.708  1.00  0.00    -0.550 OA
ATOM      4  O   UNL     1      31.632  30.721  80.315  1.00  0.00    -0.550 OA
ENDROOT
TORSDOF 0
ENDMDL
MODEL 2
REMARK VINA RESULT:    -2.679      1.416      2.251
REMARK INTER + INTRA:          -2.679
REMARK INTER:                  -2.679
REMARK INTRA:                   0.000
REMARK UNBOUND:                 0.000
REMARK SMILES CC(=O)[O-]
REMARK SMILES IDX 1 1 2 2 3 3 4 4
REMARK H PARENT
REMARK Flexibility Score: inf
ROOT
ATOM      1  C   UNL     1      29.901  30.325  79.946  1.00  0.00     0.063 C 
ATOM      2  C   UNL     1      30.811  31.083  80.852  1.00  0.00     0.038 C 
ATOM      3  O   UNL     1      32.059  31.012  80.699  1.00  0.00    -0.550 OA
ATOM      4  O   UNL     1      30.284  31.913  81.833  1.00  0.00    -0.550 OA
ENDROOT
TORSDOF 0
ENDMDL
MODEL 3
REMARK VINA RESULT:    -2.395     24.120     24.654
REMARK INTER + INTRA:          -2.395
REMARK INTER:                  -2.395
REMARK INTRA:                   0.000
REMARK UNBOUND:                 0.000
REMARK SMILES CC(=O)[O-]
REMARK SMILES IDX 1 1 2 2 3 3 4 4
REMARK H PARENT
REMARK Flexibility Score: inf
ROOT
ATOM      1  C   UNL     1      14.978  49.930  81.803  1.00  0.00     0.063 C 
ATOM      2  C   UNL     1      13.794  49.026  81.748  1.00  0.00     0.038 C 
ATOM      3  O   UNL     1      13.894  47.828  82.125  1.00  0.00    -0.550 OA
ATOM      4  O   UNL     1      12.563  49.516  81.331  1.00  0.00    -0.550 OA
ENDROOT
TORSDOF 0
ENDMDL
MODEL 4
REMARK VINA RESULT:    -2.259     11.703     11.948
REMARK INTER + INTRA:          -2.259
REMARK INTER:                  -2.259
REMARK INTRA:                   0.000
REMARK UNBOUND:                 0.000
REMARK SMILES CC(=O)[O-]
REMARK SMILES IDX 1 1 2 2 3 3 4 4
REMARK H PARENT
REMARK Flexibility Score: inf
ROOT
ATOM      1  C   UNL     1      27.627  41.491  81.761  1.00  0.00     0.063 C 
ATOM      2  C   UNL     1      26.519  42.179  81.041  1.00  0.00     0.038 C 
ATOM      3  O   UNL     1      25.345  42.132  81.494  1.00  0.00    -0.550 OA
ATOM      4  O   UNL     1      26.786  42.920  79.896  1.00  0.00    -0.550 OA
ENDROOT
TORSDOF 0
ENDMDL
MODEL 5
REMARK VINA RESULT:    -2.246     14.795     15.243
REMARK INTER + INTRA:          -2.246
REMARK INTER:                  -2.246
REMARK INTRA:                   0.000
REMARK UNBOUND:                 0.000
REMARK SMILES CC(=O)[O-]
REMARK SMILES IDX 1 1 2 2 3 3 4 4
REMARK H PARENT
REMARK Flexibility Score: inf
ROOT
ATOM      1  C   UNL     1      16.250  39.535  81.525  1.00  0.00     0.063 C 
ATOM      2  C   UNL     1      17.435  38.664  81.282  1.00  0.00     0.038 C 
ATOM      3  O   UNL     1      18.568  39.002  81.718  1.00  0.00    -0.550 OA
ATOM      4  O   UNL     1      17.285  37.452  80.621  1.00  0.00    -0.550 OA
ENDROOT
TORSDOF 0
ENDMDL
MODEL 6
REMARK VINA RESULT:    -2.244     11.636     12.026
REMARK INTER + INTRA:          -2.244
REMARK INTER:                  -2.244
REMARK INTRA:                   0.000
REMARK UNBOUND:                 0.000
REMARK SMILES CC(=O)[O-]
REMARK SMILES IDX 1 1 2 2 3 3 4 4
REMARK H PARENT
REMARK Flexibility Score: inf
ROOT
ATOM      1  C   UNL     1      26.883  42.698  79.985  1.00  0.00     0.063 C 
ATOM      2  C   UNL     1      26.424  42.067  81.254  1.00  0.00     0.038 C 
ATOM      3  O   UNL     1      27.265  41.673  82.106  1.00  0.00    -0.550 OA
ATOM      4  O   UNL     1      25.066  41.958  81.527  1.00  0.00    -0.550 OA
ENDROOT
TORSDOF 0
ENDMDL
MODEL 7
REMARK VINA RESULT:    -2.226     14.710     15.133
REMARK INTER + INTRA:          -2.226
REMARK INTER:                  -2.226
REMARK INTRA:                   0.000
REMARK UNBOUND:                 0.000
REMARK SMILES CC(=O)[O-]
REMARK SMILES IDX 1 1 2 2 3 3 4 4
REMARK H PARENT
REMARK Flexibility Score: inf
ROOT
ATOM      1  C   UNL     1      16.298  39.528  81.477  1.00  0.00     0.063 C 
ATOM      2  C   UNL     1      17.462  38.612  81.317  1.00  0.00     0.038 C 
ATOM      3  O   UNL     1      17.316  37.496  80.750  1.00  0.00    -0.550 OA
ATOM      4  O   UNL     1      18.723  39.006  81.744  1.00  0.00    -0.550 OA
ENDROOT
TORSDOF 0
ENDMDL
MODEL 8
REMARK VINA RESULT:    -2.223     11.446     11.730
REMARK INTER + INTRA:          -2.223
REMARK INTER:                  -2.223
REMARK INTRA:                   0.000
REMARK UNBOUND:                 0.000
REMARK SMILES CC(=O)[O-]
REMARK SMILES IDX 1 1 2 2 3 3 4 4
REMARK H PARENT
REMARK Flexibility Score: inf
ROOT
ATOM      1  C   UNL     1      26.866  42.714  80.045  1.00  0.00     0.063 C 
ATOM      2  C   UNL     1      26.621  41.971  81.313  1.00  0.00     0.038 C 
ATOM      3  O   UNL     1      25.445  41.816  81.738  1.00  0.00    -0.550 OA
ATOM      4  O   UNL     1      27.683  41.401  82.003  1.00  0.00    -0.550 OA
ENDROOT
TORSDOF 0
ENDMDL
