MODEL 1
REMARK VINA RESULT:    -5.088      0.000      0.000
REMARK INTER + INTRA:          -9.069
REMARK INTER:                  -7.765
REMARK INTRA:                  -1.304
REMARK UNBOUND:                -1.304
REMARK SMILES CC(=O)CCC=C(C)CCC=C(C)CCC=C(C)C
REMARK SMILES IDX 10 1 11 2 12 3 13 4 14 5 15 6 16 7 18 8 17 9 19 10 9 11 7 12
REMARK SMILES IDX 6 13 8 14 5 15 4 16 2 17 3 18 1 19
REMARK H PARENT
REMARK Flexibility Score: inf
ROOT
ATOM      1  C   UNL     1      10.170  26.519  13.914  1.00  0.00     0.032 C 
ENDROOT
BRANCH   1   2
ATOM      2  C   UNL     1      10.472  25.436  14.924  1.00  0.00    -0.028 C 
ATOM      3  C   UNL     1      11.704  25.020  15.302  1.00  0.00    -0.077 C 
ATOM      4  C   UNL     1      11.792  23.868  16.270  1.00  0.00     0.039 C 
BRANCH   3   5
ATOM      5  C   UNL     1      13.000  25.645  14.809  1.00  0.00     0.034 C 
BRANCH   5   6
ATOM      6  C   UNL     1      13.859  26.186  15.962  1.00  0.00     0.032 C 
BRANCH   6   7
ATOM      7  C   UNL     1      15.184  25.471  16.086  1.00  0.00    -0.028 C 
ATOM      8  C   UNL     1      16.427  27.422  15.146  1.00  0.00     0.039 C 
ATOM      9  C   UNL     1      16.357  26.026  15.718  1.00  0.00    -0.080 C 
ATOM     10  C   UNL     1      17.622  25.223  15.884  1.00  0.00     0.039 C 
ENDBRANCH   6   7
ENDBRANCH   5   6
ENDBRANCH   3   5
ENDBRANCH   1   2
BRANCH   1  11
ATOM     11  C   UNL     1       9.295  27.630  14.514  1.00  0.00     0.034 C 
BRANCH  11  12
ATOM     12  C   UNL     1      10.083  28.886  14.839  1.00  0.00    -0.077 C 
ATOM     13  C   UNL     1       9.506  30.007  15.329  1.00  0.00    -0.028 C 
ATOM     14  C   UNL     1      11.572  28.893  14.602  1.00  0.00     0.039 C 
BRANCH  13  15
ATOM     15  C   UNL     1       8.023  30.149  15.580  1.00  0.00     0.035 C 
BRANCH  15  16
ATOM     16  C   UNL     1       7.672  30.021  17.069  1.00  0.00     0.079 C 
BRANCH  16  17
ATOM     17  C   UNL     1       6.490  29.114  17.291  1.00  0.00     0.130 C 
ATOM     18  O   UNL     1       5.447  29.576  17.727  1.00  0.00    -0.300 OA
ATOM     19  C   UNL     1       6.564  27.654  16.959  1.00  0.00     0.087 C 
ENDBRANCH  16  17
ENDBRANCH  15  16
ENDBRANCH  13  15
ENDBRANCH  11  12
ENDBRANCH   1  11
TORSDOF 9
ENDMDL
MODEL 2
REMARK VINA RESULT:    -4.977     10.116     14.122
REMARK INTER + INTRA:          -8.899
REMARK INTER:                  -7.487
REMARK INTRA:                  -1.412
REMARK UNBOUND:                -1.304
REMARK SMILES CC(=O)CCC=C(C)CCC=C(C)CCC=C(C)C
REMARK SMILES IDX 10 1 11 2 12 3 13 4 14 5 15 6 16 7 18 8 17 9 19 10 9 11 7 12
REMARK SMILES IDX 6 13 8 14 5 15 4 16 2 17 3 18 1 19
REMARK H PARENT
REMARK Flexibility Score: inf
ROOT
ATOM      1  C   UNL     1      10.617  16.858  13.101  1.00  0.00     0.032 C 
ENDROOT
BRANCH   1   2
ATOM      2  C   UNL     1      10.438  17.787  14.279  1.00  0.00    -0.028 C 
ATOM      3  C   UNL     1       9.256  18.223  14.778  1.00  0.00    -0.077 C 
ATOM      4  C   UNL     1       9.294  19.212  15.915  1.00  0.00     0.039 C 
BRANCH   3   5
ATOM      5  C   UNL     1       7.899  17.772  14.262  1.00  0.00     0.034 C 
BRANCH   5   6
ATOM      6  C   UNL     1       7.216  16.779  15.215  1.00  0.00     0.032 C 
BRANCH   6   7
ATOM      7  C   UNL     1       6.212  15.894  14.514  1.00  0.00    -0.028 C 
ATOM      8  C   UNL     1       4.296  17.287  15.303  1.00  0.00     0.039 C 
ATOM      9  C   UNL     1       4.882  16.117  14.548  1.00  0.00    -0.080 C 
ATOM     10  C   UNL     1       3.970  15.169  13.813  1.00  0.00     0.039 C 
ENDBRANCH   6   7
ENDBRANCH   5   6
ENDBRANCH   3   5
ENDBRANCH   1   2
BRANCH   1  11
ATOM     11  C   UNL     1      11.570  15.699  13.430  1.00  0.00     0.034 C 
BRANCH  11  12
ATOM     12  C   UNL     1      10.843  14.383  13.642  1.00  0.00    -0.077 C 
ATOM     13  C   UNL     1      11.477  13.244  13.998  1.00  0.00    -0.028 C 
ATOM     14  C   UNL     1       9.348  14.338  13.444  1.00  0.00     0.039 C 
BRANCH  13  15
ATOM     15  C   UNL     1      12.972  13.139  14.194  1.00  0.00     0.035 C 
BRANCH  15  16
ATOM     16  C   UNL     1      13.356  13.042  15.677  1.00  0.00     0.079 C 
BRANCH  16  17
ATOM     17  C   UNL     1      14.562  13.885  16.001  1.00  0.00     0.130 C 
ATOM     18  O   UNL     1      15.601  13.347  16.349  1.00  0.00    -0.300 OA
ATOM     19  C   UNL     1      14.515  15.378  15.877  1.00  0.00     0.087 C 
ENDBRANCH  16  17
ENDBRANCH  15  16
ENDBRANCH  13  15
ENDBRANCH  11  12
ENDBRANCH   1  11
TORSDOF 9
ENDMDL
MODEL 3
REMARK VINA RESULT:    -4.856      9.962     12.714
REMARK INTER + INTRA:          -8.714
REMARK INTER:                  -6.826
REMARK INTRA:                  -1.888
REMARK UNBOUND:                -1.304
REMARK SMILES CC(=O)CCC=C(C)CCC=C(C)CCC=C(C)C
REMARK SMILES IDX 10 1 11 2 12 3 13 4 14 5 15 6 16 7 18 8 17 9 19 10 9 11 7 12
REMARK SMILES IDX 6 13 8 14 5 15 4 16 2 17 3 18 1 19
REMARK H PARENT
REMARK Flexibility Score: inf
ROOT
ATOM      1  C   UNL     1      12.695  16.196  14.163  1.00  0.00     0.032 C 
ENDROOT
BRANCH   1   2
ATOM      2  C   UNL     1      14.196  16.355  14.086  1.00  0.00    -0.028 C 
ATOM      3  C   UNL     1      15.091  15.919  15.005  1.00  0.00    -0.077 C 
ATOM      4  C   UNL     1      16.545  16.246  14.781  1.00  0.00     0.039 C 
BRANCH   3   5
ATOM      5  C   UNL     1      14.716  15.120  16.243  1.00  0.00     0.034 C 
BRANCH   5   6
ATOM      6  C   UNL     1      14.310  13.678  15.903  1.00  0.00     0.032 C 
BRANCH   6   7
ATOM      7  C   UNL     1      15.500  12.765  15.721  1.00  0.00    -0.028 C 
ATOM      8  C   UNL     1      15.171  12.683  13.247  1.00  0.00     0.039 C 
ATOM      9  C   UNL     1      15.899  12.307  14.516  1.00  0.00    -0.080 C 
ATOM     10  C   UNL     1      17.100  11.399  14.448  1.00  0.00     0.039 C 
ENDBRANCH   6   7
ENDBRANCH   5   6
ENDBRANCH   3   5
ENDBRANCH   1   2
BRANCH   1  11
ATOM     11  C   UNL     1      12.169  15.232  13.088  1.00  0.00     0.034 C 
BRANCH  11  12
ATOM     12  C   UNL     1      11.093  14.299  13.613  1.00  0.00    -0.077 C 
ATOM     13  C   UNL     1       9.788  14.646  13.676  1.00  0.00    -0.028 C 
ATOM     14  C   UNL     1      11.491  12.925  14.091  1.00  0.00     0.039 C 
BRANCH  13  15
ATOM     15  C   UNL     1       9.257  16.000  13.266  1.00  0.00     0.035 C 
BRANCH  15  16
ATOM     16  C   UNL     1       8.722  16.800  14.461  1.00  0.00     0.079 C 
BRANCH  16  17
ATOM     17  C   UNL     1       9.433  18.119  14.617  1.00  0.00     0.130 C 
ATOM     18  O   UNL     1      10.164  18.521  13.726  1.00  0.00    -0.300 OA
ATOM     19  C   UNL     1       9.236  18.961  15.842  1.00  0.00     0.087 C 
ENDBRANCH  16  17
ENDBRANCH  15  16
ENDBRANCH  13  15
ENDBRANCH  11  12
ENDBRANCH   1  11
TORSDOF 9
ENDMDL
MODEL 4
REMARK VINA RESULT:    -4.850      2.852      6.644
REMARK INTER + INTRA:          -8.705
REMARK INTER:                  -6.482
REMARK INTRA:                  -2.224
REMARK UNBOUND:                -1.304
REMARK SMILES CC(=O)CCC=C(C)CCC=C(C)CCC=C(C)C
REMARK SMILES IDX 10 1 11 2 12 3 13 4 14 5 15 6 16 7 18 8 17 9 19 10 9 11 7 12
REMARK SMILES IDX 6 13 8 14 5 15 4 16 2 17 3 18 1 19
REMARK H PARENT
REMARK Flexibility Score: inf
ROOT
ATOM      1  C   UNL     1       8.226  29.955  16.974  1.00  0.00     0.032 C 
ENDROOT
BRANCH   1   2
ATOM      2  C   UNL     1       6.716  29.934  17.008  1.00  0.00    -0.028 C 
ATOM      3  C   UNL     1       5.934  28.827  17.034  1.00  0.00    -0.077 C 
ATOM      4  C   UNL     1       4.440  29.019  16.986  1.00  0.00     0.039 C 
BRANCH   3   5
ATOM      5  C   UNL     1       6.475  27.408  17.110  1.00  0.00     0.034 C 
BRANCH   5   6
ATOM      6  C   UNL     1       6.587  26.754  15.725  1.00  0.00     0.032 C 
BRANCH   6   7
ATOM      7  C   UNL     1       7.945  26.139  15.479  1.00  0.00    -0.028 C 
ATOM      8  C   UNL     1       7.365  25.581  13.115  1.00  0.00     0.039 C 
ATOM      9  C   UNL     1       8.308  25.604  14.295  1.00  0.00    -0.080 C 
ATOM     10  C   UNL     1       9.689  25.015  14.159  1.00  0.00     0.039 C 
ENDBRANCH   6   7
ENDBRANCH   5   6
ENDBRANCH   3   5
ENDBRANCH   1   2
BRANCH   1  11
ATOM     11  C   UNL     1       8.758  30.671  15.723  1.00  0.00     0.034 C 
BRANCH  11  12
ATOM     12  C   UNL     1       8.732  29.790  14.487  1.00  0.00    -0.077 C 
ATOM     13  C   UNL     1       9.742  28.952  14.163  1.00  0.00    -0.028 C 
ATOM     14  C   UNL     1       7.533  29.851  13.574  1.00  0.00     0.039 C 
BRANCH  13  15
ATOM     15  C   UNL     1      11.015  28.817  14.968  1.00  0.00     0.035 C 
BRANCH  15  16
ATOM     16  C   UNL     1      12.000  27.827  14.331  1.00  0.00     0.079 C 
BRANCH  16  17
ATOM     17  C   UNL     1      13.274  27.714  15.127  1.00  0.00     0.130 C 
ATOM     18  O   UNL     1      14.143  28.563  15.003  1.00  0.00    -0.300 OA
ATOM     19  C   UNL     1      13.483  26.586  16.092  1.00  0.00     0.087 C 
ENDBRANCH  16  17
ENDBRANCH  15  16
ENDBRANCH  13  15
ENDBRANCH  11  12
ENDBRANCH   1  11
TORSDOF 9
ENDMDL
MODEL 5
REMARK VINA RESULT:    -4.846      2.857      7.575
REMARK INTER + INTRA:          -8.700
REMARK INTER:                  -7.026
REMARK INTRA:                  -1.674
REMARK UNBOUND:                -1.304
REMARK SMILES CC(=O)CCC=C(C)CCC=C(C)CCC=C(C)C
REMARK SMILES IDX 10 1 11 2 12 3 13 4 14 5 15 6 16 7 18 8 17 9 19 10 9 11 7 12
REMARK SMILES IDX 6 13 8 14 5 15 4 16 2 17 3 18 1 19
REMARK H PARENT
REMARK Flexibility Score: inf
ROOT
ATOM      1  C   UNL     1      10.857  28.525  14.568  1.00  0.00     0.032 C 
ENDROOT
BRANCH   1   2
ATOM      2  C   UNL     1       9.845  29.441  13.920  1.00  0.00    -0.028 C 
ATOM      3  C   UNL     1       9.080  30.361  14.556  1.00  0.00    -0.077 C 
ATOM      4  C   UNL     1       8.071  31.125  13.738  1.00  0.00     0.039 C 
BRANCH   3   5
ATOM      5  C   UNL     1       9.182  30.669  16.042  1.00  0.00     0.034 C 
BRANCH   5   6
ATOM      6  C   UNL     1       7.878  30.355  16.790  1.00  0.00     0.032 C 
BRANCH   6   7
ATOM      7  C   UNL     1       7.561  28.878  16.815  1.00  0.00    -0.028 C 
ATOM      8  C   UNL     1       5.135  29.313  17.217  1.00  0.00     0.039 C 
ATOM      9  C   UNL     1       6.316  28.394  17.008  1.00  0.00    -0.080 C 
ATOM     10  C   UNL     1       6.112  26.901  17.015  1.00  0.00     0.039 C 
ENDBRANCH   6   7
ENDBRANCH   5   6
ENDBRANCH   3   5
ENDBRANCH   1   2
BRANCH   1  11
ATOM     11  C   UNL     1      10.948  27.174  13.843  1.00  0.00     0.034 C 
BRANCH  11  12
ATOM     12  C   UNL     1      10.409  26.024  14.675  1.00  0.00    -0.077 C 
ATOM     13  C   UNL     1      11.210  25.117  15.277  1.00  0.00    -0.028 C 
ATOM     14  C   UNL     1       8.917  25.879  14.837  1.00  0.00     0.039 C 
BRANCH  13  15
ATOM     15  C   UNL     1      12.717  25.121  15.169  1.00  0.00     0.035 C 
BRANCH  15  16
ATOM     16  C   UNL     1      13.370  26.034  16.216  1.00  0.00     0.079 C 
BRANCH  16  17
ATOM     17  C   UNL     1      14.611  26.703  15.683  1.00  0.00     0.130 C 
ATOM     18  O   UNL     1      15.692  26.148  15.795  1.00  0.00    -0.300 OA
ATOM     19  C   UNL     1      14.535  28.030  14.990  1.00  0.00     0.087 C 
ENDBRANCH  16  17
ENDBRANCH  15  16
ENDBRANCH  13  15
ENDBRANCH  11  12
ENDBRANCH   1  11
TORSDOF 9
ENDMDL
MODEL 6
REMARK VINA RESULT:    -4.799      2.940      7.420
REMARK INTER + INTRA:          -8.628
REMARK INTER:                  -6.529
REMARK INTRA:                  -2.100
REMARK UNBOUND:                -1.304
REMARK SMILES CC(=O)CCC=C(C)CCC=C(C)CCC=C(C)C
REMARK SMILES IDX 10 1 11 2 12 3 13 4 14 5 15 6 16 7 18 8 17 9 19 10 9 11 7 12
REMARK SMILES IDX 6 13 8 14 5 15 4 16 2 17 3 18 1 19
REMARK H PARENT
REMARK Flexibility Score: inf
ROOT
ATOM      1  C   UNL     1       6.751  29.517  14.116  1.00  0.00     0.032 C 
ENDROOT
BRANCH   1   2
ATOM      2  C   UNL     1       7.218  28.098  13.889  1.00  0.00    -0.028 C 
ATOM      3  C   UNL     1       7.461  27.176  14.851  1.00  0.00    -0.077 C 
ATOM      4  C   UNL     1       7.999  25.835  14.421  1.00  0.00     0.039 C 
BRANCH   3   5
ATOM      5  C   UNL     1       7.222  27.412  16.334  1.00  0.00     0.034 C 
BRANCH   5   6
ATOM      6  C   UNL     1       5.990  26.655  16.852  1.00  0.00     0.032 C 
BRANCH   6   7
ATOM      7  C   UNL     1       4.696  27.188  16.282  1.00  0.00    -0.028 C 
ATOM      8  C   UNL     1       5.013  29.400  17.396  1.00  0.00     0.039 C 
ATOM      9  C   UNL     1       4.244  28.435  16.524  1.00  0.00    -0.080 C 
ATOM     10  C   UNL     1       2.939  28.865  15.906  1.00  0.00     0.039 C 
ENDBRANCH   6   7
ENDBRANCH   5   6
ENDBRANCH   3   5
ENDBRANCH   1   2
BRANCH   1  11
ATOM     11  C   UNL     1       7.919  30.514  14.083  1.00  0.00     0.034 C 
BRANCH  11  12
ATOM     12  C   UNL     1       8.707  30.538  15.380  1.00  0.00    -0.077 C 
ATOM     13  C   UNL     1       9.965  30.054  15.483  1.00  0.00    -0.028 C 
ATOM     14  C   UNL     1       8.063  31.123  16.612  1.00  0.00     0.039 C 
BRANCH  13  15
ATOM     15  C   UNL     1      10.715  29.410  14.340  1.00  0.00     0.035 C 
BRANCH  15  16
ATOM     16  C   UNL     1      11.069  27.946  14.631  1.00  0.00     0.079 C 
BRANCH  16  17
ATOM     17  C   UNL     1      12.511  27.788  15.042  1.00  0.00     0.130 C 
ATOM     18  O   UNL     1      13.325  28.643  14.730  1.00  0.00    -0.300 OA
ATOM     19  C   UNL     1      12.958  26.608  15.851  1.00  0.00     0.087 C 
ENDBRANCH  16  17
ENDBRANCH  15  16
ENDBRANCH  13  15
ENDBRANCH  11  12
ENDBRANCH   1  11
TORSDOF 9
ENDMDL
MODEL 7
REMARK VINA RESULT:    -4.767      2.856      7.577
REMARK INTER + INTRA:          -8.579
REMARK INTER:                  -7.066
REMARK INTRA:                  -1.513
REMARK UNBOUND:                -1.304
REMARK SMILES CC(=O)CCC=C(C)CCC=C(C)CCC=C(C)C
REMARK SMILES IDX 10 1 11 2 12 3 13 4 14 5 15 6 16 7 18 8 17 9 19 10 9 11 7 12
REMARK SMILES IDX 6 13 8 14 5 15 4 16 2 17 3 18 1 19
REMARK H PARENT
REMARK Flexibility Score: inf
ROOT
ATOM      1  C   UNL     1      10.367  28.457  15.125  1.00  0.00     0.032 C 
ENDROOT
BRANCH   1   2
ATOM      2  C   UNL     1       9.251  29.016  14.274  1.00  0.00    -0.028 C 
ATOM      3  C   UNL     1       8.417  30.027  14.615  1.00  0.00    -0.077 C 
ATOM      4  C   UNL     1       7.314  30.386  13.653  1.00  0.00     0.039 C 
BRANCH   3   5
ATOM      5  C   UNL     1       8.531  30.821  15.907  1.00  0.00     0.034 C 
BRANCH   5   6
ATOM      6  C   UNL     1       7.972  30.050  17.113  1.00  0.00     0.032 C 
BRANCH   6   7
ATOM      7  C   UNL     1       6.469  29.905  17.067  1.00  0.00    -0.028 C 
ATOM      8  C   UNL     1       6.625  27.421  16.864  1.00  0.00     0.039 C 
ATOM      9  C   UNL     1       5.847  28.713  16.954  1.00  0.00    -0.080 C 
ATOM     10  C   UNL     1       4.341  28.683  16.915  1.00  0.00     0.039 C 
ENDBRANCH   6   7
ENDBRANCH   5   6
ENDBRANCH   3   5
ENDBRANCH   1   2
BRANCH   1  11
ATOM     11  C   UNL     1      11.333  27.592  14.302  1.00  0.00     0.034 C 
BRANCH  11  12
ATOM     12  C   UNL     1      12.751  28.134  14.301  1.00  0.00    -0.077 C 
ATOM     13  C   UNL     1      13.703  27.697  15.156  1.00  0.00    -0.028 C 
ATOM     14  C   UNL     1      13.119  29.209  13.310  1.00  0.00     0.039 C 
BRANCH  13  15
ATOM     15  C   UNL     1      13.463  26.653  16.221  1.00  0.00     0.035 C 
BRANCH  15  16
ATOM     16  C   UNL     1      14.080  25.297  15.852  1.00  0.00     0.079 C 
BRANCH  16  17
ATOM     17  C   UNL     1      13.026  24.245  15.622  1.00  0.00     0.130 C 
ATOM     18  O   UNL     1      13.274  23.286  14.908  1.00  0.00    -0.300 OA
ATOM     19  C   UNL     1      11.681  24.343  16.278  1.00  0.00     0.087 C 
ENDBRANCH  16  17
ENDBRANCH  15  16
ENDBRANCH  13  15
ENDBRANCH  11  12
ENDBRANCH   1  11
TORSDOF 9
ENDMDL
MODEL 8
REMARK VINA RESULT:    -4.766      1.810      4.230
REMARK INTER + INTRA:          -8.577
REMARK INTER:                  -7.165
REMARK INTRA:                  -1.412
REMARK UNBOUND:                -1.304
REMARK SMILES CC(=O)CCC=C(C)CCC=C(C)CCC=C(C)C
REMARK SMILES IDX 10 1 11 2 12 3 13 4 14 5 15 6 16 7 18 8 17 9 19 10 9 11 7 12
REMARK SMILES IDX 6 13 8 14 5 15 4 16 2 17 3 18 1 19
REMARK H PARENT
REMARK Flexibility Score: inf
ROOT
ATOM      1  C   UNL     1      13.318  26.989  15.694  1.00  0.00     0.032 C 
ENDROOT
BRANCH   1   2
ATOM      2  C   UNL     1      14.481  27.733  15.081  1.00  0.00    -0.028 C 
ATOM      3  C   UNL     1      15.789  27.396  15.189  1.00  0.00    -0.077 C 
ATOM      4  C   UNL     1      16.807  28.316  14.566  1.00  0.00     0.039 C 
BRANCH   3   5
ATOM      5  C   UNL     1      16.288  26.146  15.898  1.00  0.00     0.034 C 
BRANCH   5   6
ATOM      6  C   UNL     1      17.074  25.220  14.958  1.00  0.00     0.032 C 
BRANCH   6   7
ATOM      7  C   UNL     1      18.345  24.696  15.584  1.00  0.00    -0.028 C 
ATOM      8  C   UNL     1      19.768  26.066  14.057  1.00  0.00     0.039 C 
ATOM      9  C   UNL     1      19.575  25.075  15.181  1.00  0.00    -0.080 C 
ATOM     10  C   UNL     1      20.777  24.489  15.875  1.00  0.00     0.039 C 
ENDBRANCH   6   7
ENDBRANCH   5   6
ENDBRANCH   3   5
ENDBRANCH   1   2
BRANCH   1  11
ATOM     11  C   UNL     1      12.645  26.049  14.682  1.00  0.00     0.034 C 
BRANCH  11  12
ATOM     12  C   UNL     1      11.464  25.300  15.271  1.00  0.00    -0.077 C 
ATOM     13  C   UNL     1      10.181  25.600  14.968  1.00  0.00    -0.028 C 
ATOM     14  C   UNL     1      11.725  24.175  16.241  1.00  0.00     0.039 C 
BRANCH  13  15
ATOM     15  C   UNL     1       9.775  26.723  14.042  1.00  0.00     0.035 C 
BRANCH  15  16
ATOM     16  C   UNL     1       8.867  27.747  14.736  1.00  0.00     0.079 C 
BRANCH  16  17
ATOM     17  C   UNL     1       9.600  29.026  15.048  1.00  0.00     0.130 C 
ATOM     18  O   UNL     1       9.252  29.706  16.000  1.00  0.00    -0.300 OA
ATOM     19  C   UNL     1      10.770  29.467  14.221  1.00  0.00     0.087 C 
ENDBRANCH  16  17
ENDBRANCH  15  16
ENDBRANCH  13  15
ENDBRANCH  11  12
ENDBRANCH   1  11
TORSDOF 9
ENDMDL
MODEL 9
REMARK VINA RESULT:    -4.738      3.053      6.887
REMARK INTER + INTRA:          -8.535
REMARK INTER:                  -6.229
REMARK INTRA:                  -2.305
REMARK UNBOUND:                -1.304
REMARK SMILES CC(=O)CCC=C(C)CCC=C(C)CCC=C(C)C
REMARK SMILES IDX 10 1 11 2 12 3 13 4 14 5 15 6 16 7 18 8 17 9 19 10 9 11 7 12
REMARK SMILES IDX 6 13 8 14 5 15 4 16 2 17 3 18 1 19
REMARK H PARENT
REMARK Flexibility Score: inf
ROOT
ATOM      1  C   UNL     1       7.628  28.699  13.662  1.00  0.00     0.032 C 
ENDROOT
BRANCH   1   2
ATOM      2  C   UNL     1       6.947  27.382  13.373  1.00  0.00    -0.028 C 
ATOM      3  C   UNL     1       6.943  26.293  14.178  1.00  0.00    -0.077 C 
ATOM      4  C   UNL     1       6.269  25.044  13.671  1.00  0.00     0.039 C 
BRANCH   3   5
ATOM      5  C   UNL     1       7.576  26.257  15.560  1.00  0.00     0.034 C 
BRANCH   5   6
ATOM      6  C   UNL     1       6.609  26.734  16.654  1.00  0.00     0.032 C 
BRANCH   6   7
ATOM      7  C   UNL     1       6.973  28.094  17.202  1.00  0.00    -0.028 C 
ATOM      8  C   UNL     1       4.842  29.099  16.374  1.00  0.00     0.039 C 
ATOM      9  C   UNL     1       6.176  29.175  17.080  1.00  0.00    -0.080 C 
ATOM     10  C   UNL     1       6.638  30.486  17.663  1.00  0.00     0.039 C 
ENDBRANCH   6   7
ENDBRANCH   5   6
ENDBRANCH   3   5
ENDBRANCH   1   2
BRANCH   1  11
ATOM     11  C   UNL     1       9.136  28.637  13.373  1.00  0.00     0.034 C 
BRANCH  11  12
ATOM     12  C   UNL     1       9.980  28.957  14.593  1.00  0.00    -0.077 C 
ATOM     13  C   UNL     1      11.072  28.238  14.938  1.00  0.00    -0.028 C 
ATOM     14  C   UNL     1       9.588  30.124  15.465  1.00  0.00     0.039 C 
BRANCH  13  15
ATOM     15  C   UNL     1      11.557  27.026  14.176  1.00  0.00     0.035 C 
BRANCH  15  16
ATOM     16  C   UNL     1      11.043  25.715  14.786  1.00  0.00     0.079 C 
BRANCH  16  17
ATOM     17  C   UNL     1      12.053  25.094  15.715  1.00  0.00     0.130 C 
ATOM     18  O   UNL     1      13.010  25.751  16.094  1.00  0.00    -0.300 OA
ATOM     19  C   UNL     1      11.889  23.687  16.205  1.00  0.00     0.087 C 
ENDBRANCH  16  17
ENDBRANCH  15  16
ENDBRANCH  13  15
ENDBRANCH  11  12
ENDBRANCH   1  11
TORSDOF 9
ENDMDL
