MODEL 1
REMARK VINA RESULT:    -4.868      0.000      0.000
REMARK INTER + INTRA:          -5.368
REMARK INTER:                  -6.007
REMARK INTRA:                   0.639
REMARK UNBOUND:                 0.639
REMARK SMILES C=C1[C@@H]2CC[C@H]3[C@@H]2C(C)(C)CCC[C@@]13C
REMARK SMILES IDX 14 1 6 2 7 3 3 4 2 5 1 6 4 7 5 8 15 9 8 10 9 11 10 12 11 13
REMARK SMILES IDX 13 15 12 16
REMARK H PARENT
REMARK Flexibility Score: 80.00
ROOT
ATOM      1  C   UNL     1       9.206  31.930  21.824  1.00  0.00    -0.008 C 
ATOM      2  C   UNL     1      10.515  31.652  22.664  1.00  0.00     0.003 C 
ATOM      3  C   UNL     1      10.660  32.886  23.580  1.00  0.00     0.006 C 
ATOM      4  C   UNL     1      10.549  33.880  22.423  1.00  0.00     0.019 C 
ATOM      5  C   UNL     1       9.284  33.434  21.745  1.00  0.00    -0.068 C 
ATOM      6  C   UNL     1       8.430  34.241  21.104  1.00  0.00     0.009 C 
ATOM      7  C   UNL     1      11.719  33.416  21.524  1.00  0.00     0.008 C 
ATOM      8  C   UNL     1      11.764  31.887  21.770  1.00  0.00     0.005 C 
ATOM      9  C   UNL     1       9.237  31.305  20.403  1.00  0.00     0.016 C 
ENDROOT
BRANCH   3  10
ATOM     10  C   UNL     1       9.720  33.043  24.852  1.00  0.00    -0.032 C 
ATOM     11  C   UNL     1       9.221  34.501  25.012  1.00  0.00     0.011 C 
ATOM     12  C   UNL     1      10.573  32.737  26.115  1.00  0.00     0.011 C 
BRANCH  10  13
ATOM     13  C   UNL     1       8.527  32.047  24.913  1.00  0.00     0.007 CG0
ATOM     14  G   UNL     1       7.508  32.159  23.781  1.00  0.00     0.000 G0
ENDBRANCH  10  13
ENDBRANCH   3  10
BRANCH   1  15
ATOM     15  C   UNL     1       7.921  31.418  22.528  1.00  0.00     0.011 C 
BRANCH  15  16
ATOM     16  C   UNL     1       7.506  32.170  23.789  1.00  0.00     0.001 CG0
ATOM     17  G   UNL     1       8.535  32.042  24.909  1.00  0.00     0.000 G0
ENDBRANCH  15  16
ENDBRANCH   1  15
TORSDOF 0
ENDMDL
MODEL 2
REMARK VINA RESULT:    -4.635      1.554      4.154
REMARK INTER + INTRA:          -5.081
REMARK INTER:                  -5.711
REMARK INTRA:                   0.630
REMARK UNBOUND:                 0.639
REMARK SMILES C=C1[C@@H]2CC[C@H]3[C@@H]2C(C)(C)CCC[C@@]13C
REMARK SMILES IDX 14 1 6 2 7 3 3 4 2 5 1 6 4 7 5 8 15 9 8 10 9 11 10 12 11 13
REMARK SMILES IDX 13 15 12 16
REMARK H PARENT
REMARK Flexibility Score: 80.00
ROOT
ATOM      1  C   UNL     1       9.945  32.701  24.602  1.00  0.00    -0.008 C 
ATOM      2  C   UNL     1       8.833  31.661  24.182  1.00  0.00     0.003 C 
ATOM      3  C   UNL     1       7.998  32.393  23.110  1.00  0.00     0.006 C 
ATOM      4  C   UNL     1       7.769  33.623  23.989  1.00  0.00     0.019 C 
ATOM      5  C   UNL     1       9.169  33.978  24.406  1.00  0.00    -0.068 C 
ATOM      6  C   UNL     1       9.608  35.219  24.648  1.00  0.00     0.009 C 
ATOM      7  C   UNL     1       7.091  32.980  25.222  1.00  0.00     0.008 C 
ATOM      8  C   UNL     1       7.752  31.580  25.295  1.00  0.00     0.005 C 
ATOM      9  C   UNL     1      10.402  32.558  26.079  1.00  0.00     0.016 C 
ENDROOT
BRANCH   3  10
ATOM     10  C   UNL     1       8.575  32.569  21.639  1.00  0.00    -0.032 C 
ATOM     11  C   UNL     1       8.284  33.984  21.080  1.00  0.00     0.011 C 
ATOM     12  C   UNL     1       7.822  31.575  20.711  1.00  0.00     0.011 C 
BRANCH  10  13
ATOM     13  C   UNL     1      10.081  32.216  21.479  1.00  0.00     0.007 CG0
ATOM     14  G   UNL     1      11.056  33.085  22.271  1.00  0.00     0.000 G0
ENDBRANCH  10  13
ENDBRANCH   3  10
BRANCH   1  15
ATOM     15  C   UNL     1      11.215  32.613  23.714  1.00  0.00     0.011 C 
BRANCH  15  16
ATOM     16  C   UNL     1      11.058  33.090  22.274  1.00  0.00     0.001 CG0
ATOM     17  G   UNL     1      10.085  32.224  21.476  1.00  0.00     0.000 G0
ENDBRANCH  15  16
ENDBRANCH   1  15
TORSDOF 0
ENDMDL
MODEL 3
REMARK VINA RESULT:    -4.612      1.615      3.240
REMARK INTER + INTRA:          -5.052
REMARK INTER:                  -5.690
REMARK INTRA:                   0.638
REMARK UNBOUND:                 0.639
REMARK SMILES C=C1[C@@H]2CC[C@H]3[C@@H]2C(C)(C)CCC[C@@]13C
REMARK SMILES IDX 14 1 6 2 7 3 3 4 2 5 1 6 4 7 5 8 15 9 8 10 9 11 10 12 11 13
REMARK SMILES IDX 13 15 12 16
REMARK H PARENT
REMARK Flexibility Score: 80.00
ROOT
ATOM      1  C   UNL     1      10.678  32.632  21.976  1.00  0.00    -0.008 C 
ATOM      2  C   UNL     1      10.114  32.338  23.422  1.00  0.00     0.003 C 
ATOM      3  C   UNL     1       8.583  32.476  23.279  1.00  0.00     0.006 C 
ATOM      4  C   UNL     1       8.670  33.858  22.629  1.00  0.00     0.019 C 
ATOM      5  C   UNL     1       9.639  33.618  21.506  1.00  0.00    -0.068 C 
ATOM      6  C   UNL     1       9.621  34.250  20.326  1.00  0.00     0.009 C 
ATOM      7  C   UNL     1       9.441  34.644  23.715  1.00  0.00     0.008 C 
ATOM      8  C   UNL     1      10.367  33.568  24.337  1.00  0.00     0.005 C 
ATOM      9  C   UNL     1      12.089  33.282  21.981  1.00  0.00     0.016 C 
ENDROOT
BRANCH   3  10
ATOM     10  C   UNL     1       7.746  31.322  22.575  1.00  0.00    -0.032 C 
ATOM     11  C   UNL     1       6.656  31.902  21.639  1.00  0.00     0.011 C 
ATOM     12  C   UNL     1       6.990  30.539  23.684  1.00  0.00     0.011 C 
BRANCH  10  13
ATOM     13  C   UNL     1       8.597  30.256  21.829  1.00  0.00     0.007 CG0
ATOM     14  G   UNL     1       9.415  30.768  20.645  1.00  0.00     0.000 G0
ENDBRANCH  10  13
ENDBRANCH   3  10
BRANCH   1  15
ATOM     15  C   UNL     1      10.759  31.358  21.093  1.00  0.00     0.011 C 
BRANCH  15  16
ATOM     16  C   UNL     1       9.425  30.768  20.648  1.00  0.00     0.001 CG0
ATOM     17  G   UNL     1       8.592  30.257  21.821  1.00  0.00     0.000 G0
ENDBRANCH  15  16
ENDBRANCH   1  15
TORSDOF 0
ENDMDL
MODEL 4
REMARK VINA RESULT:    -4.573      4.461      6.823
REMARK INTER + INTRA:          -5.003
REMARK INTER:                  -5.642
REMARK INTRA:                   0.638
REMARK UNBOUND:                 0.639
REMARK SMILES C=C1[C@@H]2CC[C@H]3[C@@H]2C(C)(C)CCC[C@@]13C
REMARK SMILES IDX 14 1 6 2 7 3 3 4 2 5 1 6 4 7 5 8 15 9 8 10 9 11 10 12 11 13
REMARK SMILES IDX 13 15 12 16
REMARK H PARENT
REMARK Flexibility Score: 80.00
ROOT
ATOM      1  C   UNL     1      13.760  31.105  20.557  1.00  0.00    -0.008 C 
ATOM      2  C   UNL     1      12.675  32.141  20.063  1.00  0.00     0.003 C 
ATOM      3  C   UNL     1      13.374  33.514  20.162  1.00  0.00     0.006 C 
ATOM      4  C   UNL     1      13.796  33.304  21.617  1.00  0.00     0.019 C 
ATOM      5  C   UNL     1      14.485  31.970  21.556  1.00  0.00    -0.068 C 
ATOM      6  C   UNL     1      15.511  31.599  22.331  1.00  0.00     0.009 C 
ATOM      7  C   UNL     1      12.424  33.061  22.288  1.00  0.00     0.008 C 
ATOM      8  C   UNL     1      11.612  32.349  21.177  1.00  0.00     0.005 C 
ATOM      9  C   UNL     1      13.152  29.856  21.253  1.00  0.00     0.016 C 
ENDROOT
BRANCH   3  10
ATOM     10  C   UNL     1      14.457  33.931  19.076  1.00  0.00    -0.032 C 
ATOM     11  C   UNL     1      15.677  34.630  19.730  1.00  0.00     0.011 C 
ATOM     12  C   UNL     1      13.808  34.986  18.137  1.00  0.00     0.011 C 
BRANCH  10  13
ATOM     13  C   UNL     1      14.923  32.781  18.139  1.00  0.00     0.007 CG0
ATOM     14  G   UNL     1      15.640  31.617  18.820  1.00  0.00     0.000 G0
ENDBRANCH  10  13
ENDBRANCH   3  10
BRANCH   1  15
ATOM     15  C   UNL     1      14.671  30.597  19.408  1.00  0.00     0.011 C 
BRANCH  15  16
ATOM     16  C   UNL     1      15.641  31.619  18.823  1.00  0.00     0.001 CG0
ATOM     17  G   UNL     1      14.921  32.780  18.140  1.00  0.00     0.000 G0
ENDBRANCH  15  16
ENDBRANCH   1  15
TORSDOF 0
ENDMDL
MODEL 5
REMARK VINA RESULT:    -4.519      2.028      3.948
REMARK INTER + INTRA:          -4.937
REMARK INTER:                  -5.572
REMARK INTRA:                   0.635
REMARK UNBOUND:                 0.639
REMARK SMILES C=C1[C@@H]2CC[C@H]3[C@@H]2C(C)(C)CCC[C@@]13C
REMARK SMILES IDX 14 1 6 2 7 3 3 4 2 5 1 6 4 7 5 8 15 9 8 10 9 11 10 12 11 13
REMARK SMILES IDX 13 15 12 16
REMARK H PARENT
REMARK Flexibility Score: 80.00
ROOT
ATOM      1  C   UNL     1       8.487  33.071  21.788  1.00  0.00    -0.008 C 
ATOM      2  C   UNL     1       9.579  34.100  22.282  1.00  0.00     0.003 C 
ATOM      3  C   UNL     1      10.820  33.235  22.590  1.00  0.00     0.006 C 
ATOM      4  C   UNL     1      10.045  32.271  23.490  1.00  0.00     0.019 C 
ATOM      5  C   UNL     1       8.894  31.874  22.609  1.00  0.00    -0.068 C 
ATOM      6  C   UNL     1       8.286  30.682  22.629  1.00  0.00     0.009 C 
ATOM      7  C   UNL     1       9.476  33.248  24.545  1.00  0.00     0.008 C 
ATOM      8  C   UNL     1       9.251  34.548  23.734  1.00  0.00     0.005 C 
ATOM      9  C   UNL     1       7.033  33.500  22.128  1.00  0.00     0.016 C 
ENDROOT
BRANCH   3  10
ATOM     10  C   UNL     1      11.705  32.667  21.399  1.00  0.00    -0.032 C 
ATOM     11  C   UNL     1      12.136  31.201  21.660  1.00  0.00     0.011 C 
ATOM     12  C   UNL     1      13.017  33.499  21.342  1.00  0.00     0.011 C 
BRANCH  10  13
ATOM     13  C   UNL     1      11.070  32.807  19.986  1.00  0.00     0.007 CG0
ATOM     14  G   UNL     1       9.766  32.044  19.764  1.00  0.00     0.000 G0
ENDBRANCH  10  13
ENDBRANCH   3  10
BRANCH   1  15
ATOM     15  C   UNL     1       8.550  32.818  20.259  1.00  0.00     0.011 C 
BRANCH  15  16
ATOM     16  C   UNL     1       9.767  32.045  19.759  1.00  0.00     0.001 CG0
ATOM     17  G   UNL     1      11.072  32.803  19.987  1.00  0.00     0.000 G0
ENDBRANCH  15  16
ENDBRANCH   1  15
TORSDOF 0
ENDMDL
MODEL 6
REMARK VINA RESULT:    -4.506      1.403      1.818
REMARK INTER + INTRA:          -4.921
REMARK INTER:                  -5.547
REMARK INTRA:                   0.626
REMARK UNBOUND:                 0.639
REMARK SMILES C=C1[C@@H]2CC[C@H]3[C@@H]2C(C)(C)CCC[C@@]13C
REMARK SMILES IDX 14 1 6 2 7 3 3 4 2 5 1 6 4 7 5 8 15 9 8 10 9 11 10 12 11 13
REMARK SMILES IDX 13 15 12 16
REMARK H PARENT
REMARK Flexibility Score: 80.00
ROOT
ATOM      1  C   UNL     1      10.845  31.203  21.222  1.00  0.00    -0.008 C 
ATOM      2  C   UNL     1      11.725  31.609  22.469  1.00  0.00     0.003 C 
ATOM      3  C   UNL     1      11.330  33.071  22.767  1.00  0.00     0.006 C 
ATOM      4  C   UNL     1      11.573  33.532  21.328  1.00  0.00     0.019 C 
ATOM      5  C   UNL     1      10.758  32.545  20.540  1.00  0.00    -0.068 C 
ATOM      6  C   UNL     1      10.142  32.808  19.381  1.00  0.00     0.009 C 
ATOM      7  C   UNL     1      13.055  33.131  21.138  1.00  0.00     0.008 C 
ATOM      8  C   UNL     1      13.189  31.859  22.011  1.00  0.00     0.005 C 
ATOM      9  C   UNL     1      11.527  30.160  20.294  1.00  0.00     0.016 C 
ENDROOT
BRANCH   3  10
ATOM     10  C   UNL     1       9.944  33.388  23.476  1.00  0.00    -0.032 C 
ATOM     11  C   UNL     1       9.253  34.624  22.845  1.00  0.00     0.011 C 
ATOM     12  C   UNL     1      10.242  33.768  24.954  1.00  0.00     0.011 C 
BRANCH  10  13
ATOM     13  C   UNL     1       8.957  32.189  23.553  1.00  0.00     0.007 CG0
ATOM     14  G   UNL     1       8.480  31.633  22.214  1.00  0.00     0.000 G0
ENDBRANCH  10  13
ENDBRANCH   3  10
BRANCH   1  15
ATOM     15  C   UNL     1       9.461  30.629  21.625  1.00  0.00     0.011 C 
BRANCH  15  16
ATOM     16  C   UNL     1       8.472  31.626  22.223  1.00  0.00     0.001 CG0
ATOM     17  G   UNL     1       8.951  32.193  23.557  1.00  0.00     0.000 G0
ENDBRANCH  15  16
ENDBRANCH   1  15
TORSDOF 0
ENDMDL
MODEL 7
REMARK VINA RESULT:    -4.400      2.013      4.105
REMARK INTER + INTRA:          -4.790
REMARK INTER:                  -5.415
REMARK INTRA:                   0.624
REMARK UNBOUND:                 0.639
REMARK SMILES C=C1[C@@H]2CC[C@H]3[C@@H]2C(C)(C)CCC[C@@]13C
REMARK SMILES IDX 14 1 6 2 7 3 3 4 2 5 1 6 4 7 5 8 15 9 8 10 9 11 10 12 11 13
REMARK SMILES IDX 13 15 12 16
REMARK H PARENT
REMARK Flexibility Score: 80.00
ROOT
ATOM      1  C   UNL     1       8.001  33.106  22.750  1.00  0.00    -0.008 C 
ATOM      2  C   UNL     1       9.254  34.038  22.509  1.00  0.00     0.003 C 
ATOM      3  C   UNL     1      10.056  33.335  21.394  1.00  0.00     0.006 C 
ATOM      4  C   UNL     1      10.083  31.992  22.126  1.00  0.00     0.019 C 
ATOM      5  C   UNL     1       8.628  31.772  22.434  1.00  0.00    -0.068 C 
ATOM      6  C   UNL     1       8.029  30.577  22.503  1.00  0.00     0.009 C 
ATOM      7  C   UNL     1      10.759  32.397  23.457  1.00  0.00     0.008 C 
ATOM      8  C   UNL     1      10.269  33.852  23.670  1.00  0.00     0.005 C 
ATOM      9  C   UNL     1       7.479  33.134  24.212  1.00  0.00     0.016 C 
ENDROOT
BRANCH   3  10
ATOM     10  C   UNL     1       9.550  33.405  19.889  1.00  0.00    -0.032 C 
ATOM     11  C   UNL     1       9.711  32.042  19.171  1.00  0.00     0.011 C 
ATOM     12  C   UNL     1      10.463  34.406  19.126  1.00  0.00     0.011 C 
BRANCH  10  13
ATOM     13  C   UNL     1       8.105  33.951  19.708  1.00  0.00     0.007 CG0
ATOM     14  G   UNL     1       6.995  33.119  20.345  1.00  0.00     0.000 G0
ENDBRANCH  10  13
ENDBRANCH   3  10
BRANCH   1  15
ATOM     15  C   UNL     1       6.806  33.456  21.824  1.00  0.00     0.011 C 
BRANCH  15  16
ATOM     16  C   UNL     1       6.986  33.125  20.346  1.00  0.00     0.001 CG0
ATOM     17  G   UNL     1       8.095  33.947  19.695  1.00  0.00     0.000 G0
ENDBRANCH  15  16
ENDBRANCH   1  15
TORSDOF 0
ENDMDL
MODEL 8
REMARK VINA RESULT:    -4.224      3.688      5.722
REMARK INTER + INTRA:          -4.573
REMARK INTER:                  -5.197
REMARK INTRA:                   0.624
REMARK UNBOUND:                 0.639
REMARK SMILES C=C1[C@@H]2CC[C@H]3[C@@H]2C(C)(C)CCC[C@@]13C
REMARK SMILES IDX 14 1 6 2 7 3 3 4 2 5 1 6 4 7 5 8 15 9 8 10 9 11 10 12 11 13
REMARK SMILES IDX 13 15 12 16
REMARK H PARENT
REMARK Flexibility Score: 80.00
ROOT
ATOM      1  C   UNL     1      12.605  33.098  20.112  1.00  0.00    -0.008 C 
ATOM      2  C   UNL     1      12.749  33.102  21.685  1.00  0.00     0.003 C 
ATOM      3  C   UNL     1      12.975  31.623  22.061  1.00  0.00     0.006 C 
ATOM      4  C   UNL     1      11.748  31.137  21.288  1.00  0.00     0.019 C 
ATOM      5  C   UNL     1      11.970  31.743  19.931  1.00  0.00    -0.068 C 
ATOM      6  C   UNL     1      11.580  31.198  18.772  1.00  0.00     0.009 C 
ATOM      7  C   UNL     1      10.630  31.967  21.963  1.00  0.00     0.008 C 
ATOM      8  C   UNL     1      11.349  33.288  22.333  1.00  0.00     0.005 C 
ATOM      9  C   UNL     1      11.673  34.217  19.572  1.00  0.00     0.016 C 
ENDROOT
BRANCH   3  10
ATOM     10  C   UNL     1      14.390  30.947  21.802  1.00  0.00    -0.032 C 
ATOM     11  C   UNL     1      14.240  29.507  21.249  1.00  0.00     0.011 C 
ATOM     12  C   UNL     1      15.110  30.810  23.173  1.00  0.00     0.011 C 
BRANCH  10  13
ATOM     13  C   UNL     1      15.360  31.776  20.913  1.00  0.00     0.007 CG0
ATOM     14  G   UNL     1      14.895  32.032  19.481  1.00  0.00     0.000 G0
ENDBRANCH  10  13
ENDBRANCH   3  10
BRANCH   1  15
ATOM     15  C   UNL     1      13.969  33.239  19.384  1.00  0.00     0.011 C 
BRANCH  15  16
ATOM     16  C   UNL     1      14.907  32.040  19.486  1.00  0.00     0.001 CG0
ATOM     17  G   UNL     1      15.360  31.775  20.920  1.00  0.00     0.000 G0
ENDBRANCH  15  16
ENDBRANCH   1  15
TORSDOF 0
ENDMDL
MODEL 9
REMARK VINA RESULT:    -4.202      2.734      4.267
REMARK INTER + INTRA:          -4.547
REMARK INTER:                  -5.184
REMARK INTRA:                   0.638
REMARK UNBOUND:                 0.639
REMARK SMILES C=C1[C@@H]2CC[C@H]3[C@@H]2C(C)(C)CCC[C@@]13C
REMARK SMILES IDX 14 1 6 2 7 3 3 4 2 5 1 6 4 7 5 8 15 9 8 10 9 11 10 12 11 13
REMARK SMILES IDX 13 15 12 16
REMARK H PARENT
REMARK Flexibility Score: 80.00
ROOT
ATOM      1  C   UNL     1      13.585  31.076  20.416  1.00  0.00    -0.008 C 
ATOM      2  C   UNL     1      13.811  31.916  21.735  1.00  0.00     0.003 C 
ATOM      3  C   UNL     1      12.810  33.086  21.629  1.00  0.00     0.006 C 
ATOM      4  C   UNL     1      13.282  33.492  20.232  1.00  0.00     0.019 C 
ATOM      5  C   UNL     1      13.198  32.193  19.481  1.00  0.00    -0.068 C 
ATOM      6  C   UNL     1      12.915  32.075  18.178  1.00  0.00     0.009 C 
ATOM      7  C   UNL     1      14.784  33.752  20.495  1.00  0.00     0.008 C 
ATOM      8  C   UNL     1      15.127  32.733  21.610  1.00  0.00     0.005 C 
ATOM      9  C   UNL     1      14.866  30.357  19.912  1.00  0.00     0.016 C 
ENDROOT
BRANCH   3  10
ATOM     10  C   UNL     1      11.264  32.833  21.899  1.00  0.00    -0.032 C 
ATOM     11  C   UNL     1      10.378  33.591  20.877  1.00  0.00     0.011 C 
ATOM     12  C   UNL     1      10.921  33.427  23.293  1.00  0.00     0.011 C 
BRANCH  10  13
ATOM     13  C   UNL     1      10.848  31.336  21.979  1.00  0.00     0.007 CG0
ATOM     14  G   UNL     1      11.050  30.521  20.704  1.00  0.00     0.000 G0
ENDBRANCH  10  13
ENDBRANCH   3  10
BRANCH   1  15
ATOM     15  C   UNL     1      12.480  29.997  20.574  1.00  0.00     0.011 C 
BRANCH  15  16
ATOM     16  C   UNL     1      11.052  30.517  20.704  1.00  0.00     0.001 CG0
ATOM     17  G   UNL     1      10.847  31.347  21.970  1.00  0.00     0.000 G0
ENDBRANCH  15  16
ENDBRANCH   1  15
TORSDOF 0
ENDMDL
