MODEL 1
REMARK VINA RESULT:    -5.706      0.000      0.000
REMARK INTER + INTRA:          -5.706
REMARK INTER:                  -5.706
REMARK INTRA:                   0.000
REMARK UNBOUND:                 0.000
REMARK SMILES CC1=CC[C@H]2[C@@H](C1)C2(C)C
REMARK SMILES IDX 1 1 2 2 3 3 4 4 5 5 6 6 7 7 8 8 9 9 10 10
REMARK H PARENT
REMARK Flexibility Score: inf
ROOT
ATOM      1  C   UNL     1      17.472  31.197  23.898  1.00  0.00     0.039 C 
ATOM      2  C   UNL     1      17.861  30.341  25.074  1.00  0.00    -0.077 C 
ATOM      3  C   UNL     1      17.677  29.011  25.012  1.00  0.00    -0.028 C 
ATOM      4  C   UNL     1      18.044  28.113  26.159  1.00  0.00     0.031 C 
ATOM      5  C   UNL     1      19.342  28.571  26.857  1.00  0.00     0.003 C 
ATOM      6  C   UNL     1      19.559  30.099  26.938  1.00  0.00     0.003 C 
ATOM      7  C   UNL     1      18.450  30.974  26.312  1.00  0.00     0.034 C 
ATOM      8  C   UNL     1      19.285  29.289  28.216  1.00  0.00    -0.029 C 
ATOM      9  C   UNL     1      17.944  29.440  28.960  1.00  0.00     0.012 C 
ATOM     10  C   UNL     1      20.512  29.067  29.106  1.00  0.00     0.012 C 
ENDROOT
TORSDOF 0
ENDMDL
MODEL 2
REMARK VINA RESULT:    -5.346      0.988      3.956
REMARK INTER + INTRA:          -5.346
REMARK INTER:                  -5.346
REMARK INTRA:                   0.000
REMARK UNBOUND:                 0.000
REMARK SMILES CC1=CC[C@H]2[C@@H](C1)C2(C)C
REMARK SMILES IDX 1 1 2 2 3 3 4 4 5 5 6 6 7 7 8 8 9 9 10 10
REMARK H PARENT
REMARK Flexibility Score: inf
ROOT
ATOM      1  C   UNL     1      20.179  29.099  28.878  1.00  0.00     0.039 C 
ATOM      2  C   UNL     1      19.567  29.225  27.509  1.00  0.00    -0.077 C 
ATOM      3  C   UNL     1      19.492  28.141  26.716  1.00  0.00    -0.028 C 
ATOM      4  C   UNL     1      18.896  28.214  25.340  1.00  0.00     0.031 C 
ATOM      5  C   UNL     1      17.675  29.156  25.290  1.00  0.00     0.003 C 
ATOM      6  C   UNL     1      17.755  30.408  26.194  1.00  0.00     0.003 C 
ATOM      7  C   UNL     1      19.045  30.559  27.030  1.00  0.00     0.034 C 
ATOM      8  C   UNL     1      17.796  30.556  24.663  1.00  0.00    -0.029 C 
ATOM      9  C   UNL     1      19.097  30.982  23.957  1.00  0.00     0.012 C 
ATOM     10  C   UNL     1      16.501  31.088  24.039  1.00  0.00     0.012 C 
ENDROOT
TORSDOF 0
ENDMDL
MODEL 3
REMARK VINA RESULT:    -5.304      9.600     11.408
REMARK INTER + INTRA:          -5.304
REMARK INTER:                  -5.304
REMARK INTRA:                   0.000
REMARK UNBOUND:                 0.000
REMARK SMILES CC1=CC[C@H]2[C@@H](C1)C2(C)C
REMARK SMILES IDX 1 1 2 2 3 3 4 4 5 5 6 6 7 7 8 8 9 9 10 10
REMARK H PARENT
REMARK Flexibility Score: inf
ROOT
ATOM      1  C   UNL     1       6.061  29.420  24.523  1.00  0.00     0.039 C 
ATOM      2  C   UNL     1       7.049  30.508  24.197  1.00  0.00    -0.077 C 
ATOM      3  C   UNL     1       7.426  30.696  22.921  1.00  0.00    -0.028 C 
ATOM      4  C   UNL     1       8.413  31.764  22.542  1.00  0.00     0.031 C 
ATOM      5  C   UNL     1       8.215  33.050  23.371  1.00  0.00     0.003 C 
ATOM      6  C   UNL     1       7.787  32.843  24.843  1.00  0.00     0.003 C 
ATOM      7  C   UNL     1       7.612  31.377  25.297  1.00  0.00     0.034 C 
ATOM      8  C   UNL     1       9.185  33.397  24.515  1.00  0.00    -0.029 C 
ATOM      9  C   UNL     1      10.439  32.536  24.759  1.00  0.00     0.012 C 
ATOM     10  C   UNL     1       9.353  34.897  24.775  1.00  0.00     0.012 C 
ENDROOT
TORSDOF 0
ENDMDL
MODEL 4
REMARK VINA RESULT:    -5.139      9.817     11.071
REMARK INTER + INTRA:          -5.139
REMARK INTER:                  -5.139
REMARK INTRA:                   0.000
REMARK UNBOUND:                 0.000
REMARK SMILES CC1=CC[C@H]2[C@@H](C1)C2(C)C
REMARK SMILES IDX 1 1 2 2 3 3 4 4 5 5 6 6 7 7 8 8 9 9 10 10
REMARK H PARENT
REMARK Flexibility Score: inf
ROOT
ATOM      1  C   UNL     1       7.312  31.028  25.332  1.00  0.00     0.039 C 
ATOM      2  C   UNL     1       8.142  32.023  24.568  1.00  0.00    -0.077 C 
ATOM      3  C   UNL     1       8.565  33.141  25.183  1.00  0.00    -0.028 C 
ATOM      4  C   UNL     1       9.392  34.169  24.465  1.00  0.00     0.031 C 
ATOM      5  C   UNL     1      10.406  33.520  23.500  1.00  0.00     0.003 C 
ATOM      6  C   UNL     1       9.926  32.237  22.782  1.00  0.00     0.003 C 
ATOM      7  C   UNL     1       8.494  31.768  23.121  1.00  0.00     0.034 C 
ATOM      8  C   UNL     1      10.154  33.531  21.981  1.00  0.00    -0.029 C 
ATOM      9  C   UNL     1       8.957  34.305  21.398  1.00  0.00     0.012 C 
ATOM     10  C   UNL     1      11.424  33.535  21.125  1.00  0.00     0.012 C 
ENDROOT
TORSDOF 0
ENDMDL
MODEL 5
REMARK VINA RESULT:    -5.136      8.998     10.531
REMARK INTER + INTRA:          -5.136
REMARK INTER:                  -5.136
REMARK INTRA:                   0.000
REMARK UNBOUND:                 0.000
REMARK SMILES CC1=CC[C@H]2[C@@H](C1)C2(C)C
REMARK SMILES IDX 1 1 2 2 3 3 4 4 5 5 6 6 7 7 8 8 9 9 10 10
REMARK H PARENT
REMARK Flexibility Score: inf
ROOT
ATOM      1  C   UNL     1      12.586  33.040  21.052  1.00  0.00     0.039 C 
ATOM      2  C   UNL     1      11.311  33.322  21.800  1.00  0.00    -0.077 C 
ATOM      3  C   UNL     1      10.283  33.904  21.159  1.00  0.00    -0.028 C 
ATOM      4  C   UNL     1       8.991  34.212  21.860  1.00  0.00     0.031 C 
ATOM      5  C   UNL     1       8.603  33.105  22.864  1.00  0.00     0.003 C 
ATOM      6  C   UNL     1       9.778  32.433  23.611  1.00  0.00     0.003 C 
ATOM      7  C   UNL     1      11.190  32.953  23.261  1.00  0.00     0.034 C 
ATOM      8  C   UNL     1       8.785  33.325  24.376  1.00  0.00    -0.029 C 
ATOM      9  C   UNL     1       9.228  34.699  24.914  1.00  0.00     0.012 C 
ATOM     10  C   UNL     1       7.789  32.562  25.255  1.00  0.00     0.012 C 
ENDROOT
TORSDOF 0
ENDMDL
MODEL 6
REMARK VINA RESULT:    -5.033      9.096     11.056
REMARK INTER + INTRA:          -5.033
REMARK INTER:                  -5.033
REMARK INTRA:                   0.000
REMARK UNBOUND:                 0.000
REMARK SMILES CC1=CC[C@H]2[C@@H](C1)C2(C)C
REMARK SMILES IDX 1 1 2 2 3 3 4 4 5 5 6 6 7 7 8 8 9 9 10 10
REMARK H PARENT
REMARK Flexibility Score: inf
ROOT
ATOM      1  C   UNL     1       8.298  34.161  19.777  1.00  0.00     0.039 C 
ATOM      2  C   UNL     1       8.399  33.837  21.244  1.00  0.00    -0.077 C 
ATOM      3  C   UNL     1       7.362  33.248  21.863  1.00  0.00    -0.028 C 
ATOM      4  C   UNL     1       7.410  32.908  23.326  1.00  0.00     0.031 C 
ATOM      5  C   UNL     1       8.807  32.415  23.757  1.00  0.00     0.003 C 
ATOM      6  C   UNL     1      10.006  33.092  23.054  1.00  0.00     0.003 C 
ATOM      7  C   UNL     1       9.656  34.176  22.011  1.00  0.00     0.034 C 
ATOM      8  C   UNL     1       9.749  33.337  24.551  1.00  0.00    -0.029 C 
ATOM      9  C   UNL     1       9.259  34.712  25.041  1.00  0.00     0.012 C 
ATOM     10  C   UNL     1      10.713  32.605  25.491  1.00  0.00     0.012 C 
ENDROOT
TORSDOF 0
ENDMDL
MODEL 7
REMARK VINA RESULT:    -4.986      8.978     10.982
REMARK INTER + INTRA:          -4.986
REMARK INTER:                  -4.986
REMARK INTRA:                   0.000
REMARK UNBOUND:                 0.000
REMARK SMILES CC1=CC[C@H]2[C@@H](C1)C2(C)C
REMARK SMILES IDX 1 1 2 2 3 3 4 4 5 5 6 6 7 7 8 8 9 9 10 10
REMARK H PARENT
REMARK Flexibility Score: inf
ROOT
ATOM      1  C   UNL     1       6.553  32.504  20.998  1.00  0.00     0.039 C 
ATOM      2  C   UNL     1       7.681  32.873  21.924  1.00  0.00    -0.077 C 
ATOM      3  C   UNL     1       8.169  34.125  21.904  1.00  0.00    -0.028 C 
ATOM      4  C   UNL     1       9.297  34.544  22.803  1.00  0.00     0.031 C 
ATOM      5  C   UNL     1       9.190  33.898  24.200  1.00  0.00     0.003 C 
ATOM      6  C   UNL     1       8.635  32.455  24.233  1.00  0.00     0.003 C 
ATOM      7  C   UNL     1       8.259  31.843  22.865  1.00  0.00     0.034 C 
ATOM      8  C   UNL     1      10.107  32.724  24.589  1.00  0.00    -0.029 C 
ATOM      9  C   UNL     1      11.232  32.271  23.640  1.00  0.00     0.012 C 
ATOM     10  C   UNL     1      10.427  32.636  26.084  1.00  0.00     0.012 C 
ENDROOT
TORSDOF 0
ENDMDL
MODEL 8
REMARK VINA RESULT:    -4.916      9.062     11.419
REMARK INTER + INTRA:          -4.916
REMARK INTER:                  -4.916
REMARK INTRA:                   0.000
REMARK UNBOUND:                 0.000
REMARK SMILES CC1=CC[C@H]2[C@@H](C1)C2(C)C
REMARK SMILES IDX 1 1 2 2 3 3 4 4 5 5 6 6 7 7 8 8 9 9 10 10
REMARK H PARENT
REMARK Flexibility Score: inf
ROOT
ATOM      1  C   UNL     1      10.384  32.750  26.131  1.00  0.00     0.039 C 
ATOM      2  C   UNL     1       9.722  32.778  24.780  1.00  0.00    -0.077 C 
ATOM      3  C   UNL     1       8.509  32.221  24.626  1.00  0.00    -0.028 C 
ATOM      4  C   UNL     1       7.808  32.217  23.298  1.00  0.00     0.031 C 
ATOM      5  C   UNL     1       8.036  33.531  22.523  1.00  0.00     0.003 C 
ATOM      6  C   UNL     1       9.431  34.176  22.688  1.00  0.00     0.003 C 
ATOM      7  C   UNL     1      10.420  33.424  23.606  1.00  0.00     0.034 C 
ATOM      8  C   UNL     1       9.013  33.576  21.335  1.00  0.00    -0.029 C 
ATOM      9  C   UNL     1       9.671  32.281  20.821  1.00  0.00     0.012 C 
ATOM     10  C   UNL     1       8.662  34.610  20.260  1.00  0.00     0.012 C 
ENDROOT
TORSDOF 0
ENDMDL
MODEL 9
REMARK VINA RESULT:    -4.883      8.650     10.423
REMARK INTER + INTRA:          -4.883
REMARK INTER:                  -4.883
REMARK INTRA:                   0.000
REMARK UNBOUND:                 0.000
REMARK SMILES CC1=CC[C@H]2[C@@H](C1)C2(C)C
REMARK SMILES IDX 1 1 2 2 3 3 4 4 5 5 6 6 7 7 8 8 9 9 10 10
REMARK H PARENT
REMARK Flexibility Score: inf
ROOT
ATOM      1  C   UNL     1      12.606  34.008  19.653  1.00  0.00     0.039 C 
ATOM      2  C   UNL     1      11.771  33.528  20.809  1.00  0.00    -0.077 C 
ATOM      3  C   UNL     1      12.378  33.061  21.914  1.00  0.00    -0.028 C 
ATOM      4  C   UNL     1      11.591  32.565  23.093  1.00  0.00     0.031 C 
ATOM      5  C   UNL     1      10.327  33.415  23.341  1.00  0.00     0.003 C 
ATOM      6  C   UNL     1       9.618  33.951  22.076  1.00  0.00     0.003 C 
ATOM      7  C   UNL     1      10.263  33.568  20.725  1.00  0.00     0.034 C 
ATOM      8  C   UNL     1       8.938  32.881  22.947  1.00  0.00    -0.029 C 
ATOM      9  C   UNL     1       8.779  31.440  22.426  1.00  0.00     0.012 C 
ATOM     10  C   UNL     1       7.786  33.401  23.813  1.00  0.00     0.012 C 
ENDROOT
TORSDOF 0
ENDMDL
