MODEL 1
REMARK VINA RESULT:    -5.742      0.000      0.000
REMARK INTER + INTRA:          -6.520
REMARK INTER:                  -6.246
REMARK INTRA:                  -0.275
REMARK UNBOUND:                -0.275
REMARK SMILES CC1=C[C@@H]2[C@H](C(C)C)CC[C@@](C)(O)[C@H]2CC1
REMARK SMILES IDX 1 1 2 2 3 3 4 4 5 5 9 6 10 7 11 8 14 9 15 10 16 11 12 12
REMARK SMILES IDX 6 13 7 14 8 15 13 16
REMARK H PARENT 13 17
REMARK Flexibility Score: inf
ROOT
ATOM      1  C   UNL     1     110.875 120.414 123.875  1.00  0.00     0.039 C 
ATOM      2  C   UNL     1     111.344 118.995 124.049  1.00  0.00    -0.077 C 
ATOM      3  C   UNL     1     111.722 118.535 125.259  1.00  0.00    -0.024 C 
ATOM      4  C   UNL     1     112.213 117.106 125.384  1.00  0.00     0.021 C 
ATOM      5  C   UNL     1     112.827 116.674 126.767  1.00  0.00    -0.001 C 
ATOM      6  C   UNL     1     114.371 116.644 126.723  1.00  0.00     0.007 C 
ATOM      7  C   UNL     1     114.906 115.673 125.647  1.00  0.00     0.035 C 
ATOM      8  C   UNL     1     113.998 115.542 124.384  1.00  0.00     0.065 C 
ATOM      9  C   UNL     1     113.190 116.865 124.199  1.00  0.00     0.028 C 
ATOM     10  C   UNL     1     112.435 117.001 122.845  1.00  0.00     0.011 C 
ATOM     11  C   UNL     1     111.290 118.047 122.867  1.00  0.00     0.031 C 
ATOM     12  C   UNL     1     114.898 115.247 123.161  1.00  0.00     0.042 C 
ENDROOT
BRANCH   5  13
ATOM     13  C   UNL     1     112.244 117.401 128.029  1.00  0.00    -0.014 C 
ATOM     14  C   UNL     1     111.625 116.396 129.015  1.00  0.00     0.007 C 
ATOM     15  C   UNL     1     113.272 118.274 128.779  1.00  0.00     0.007 C 
ENDBRANCH   5  13
BRANCH   8  16
ATOM     16  O   UNL     1     113.121 114.457 124.598  1.00  0.00    -0.390 OA
ATOM     17  H   UNL     1     113.399 113.702 124.017  1.00  0.00     0.211 HD
ENDBRANCH   8  16
TORSDOF 2
ENDMDL
MODEL 2
REMARK VINA RESULT:    -5.487      2.254      5.381
REMARK INTER + INTRA:          -6.243
REMARK INTER:                  -5.970
REMARK INTRA:                  -0.272
REMARK UNBOUND:                -0.275
REMARK SMILES CC1=C[C@@H]2[C@H](C(C)C)CC[C@@](C)(O)[C@H]2CC1
REMARK SMILES IDX 1 1 2 2 3 3 4 4 5 5 9 6 10 7 11 8 14 9 15 10 16 11 12 12
REMARK SMILES IDX 6 13 7 14 8 15 13 16
REMARK H PARENT 13 17
REMARK Flexibility Score: inf
ROOT
ATOM      1  C   UNL     1     116.810 119.794 127.008  1.00  0.00     0.039 C 
ATOM      2  C   UNL     1     116.004 118.691 127.637  1.00  0.00    -0.077 C 
ATOM      3  C   UNL     1     115.052 118.044 126.934  1.00  0.00    -0.024 C 
ATOM      4  C   UNL     1     114.245 116.955 127.615  1.00  0.00     0.021 C 
ATOM      5  C   UNL     1     113.019 116.365 126.824  1.00  0.00    -0.001 C 
ATOM      6  C   UNL     1     111.680 116.944 127.330  1.00  0.00     0.007 C 
ATOM      7  C   UNL     1     111.451 116.661 128.832  1.00  0.00     0.035 C 
ATOM      8  C   UNL     1     112.756 116.612 129.687  1.00  0.00     0.065 C 
ATOM      9  C   UNL     1     113.842 117.507 129.012  1.00  0.00     0.028 C 
ATOM     10  C   UNL     1     115.111 117.777 129.870  1.00  0.00     0.011 C 
ATOM     11  C   UNL     1     116.341 118.236 129.044  1.00  0.00     0.031 C 
ATOM     12  C   UNL     1     112.423 117.100 131.117  1.00  0.00     0.042 C 
ENDROOT
BRANCH   5  13
ATOM     13  C   UNL     1     113.156 116.360 125.261  1.00  0.00    -0.014 C 
ATOM     14  C   UNL     1     113.183 114.925 124.709  1.00  0.00     0.007 C 
ATOM     15  C   UNL     1     112.052 117.157 124.533  1.00  0.00     0.007 C 
ENDBRANCH   5  13
BRANCH   8  16
ATOM     16  O   UNL     1     113.186 115.268 129.735  1.00  0.00    -0.390 OA
ATOM     17  H   UNL     1     112.392 114.681 129.823  1.00  0.00     0.211 HD
ENDBRANCH   8  16
TORSDOF 2
ENDMDL
MODEL 3
REMARK VINA RESULT:    -5.468      3.633      5.284
REMARK INTER + INTRA:          -6.222
REMARK INTER:                  -5.947
REMARK INTRA:                  -0.275
REMARK UNBOUND:                -0.275
REMARK SMILES CC1=C[C@@H]2[C@H](C(C)C)CC[C@@](C)(O)[C@H]2CC1
REMARK SMILES IDX 1 1 2 2 3 3 4 4 5 5 9 6 10 7 11 8 14 9 15 10 16 11 12 12
REMARK SMILES IDX 6 13 7 14 8 15 13 16
REMARK H PARENT 13 17
REMARK Flexibility Score: inf
ROOT
ATOM      1  C   UNL     1     111.303 118.818 122.554  1.00  0.00     0.039 C 
ATOM      2  C   UNL     1     111.763 119.420 123.854  1.00  0.00    -0.077 C 
ATOM      3  C   UNL     1     112.903 120.136 123.919  1.00  0.00    -0.024 C 
ATOM      4  C   UNL     1     113.343 120.702 125.255  1.00  0.00     0.021 C 
ATOM      5  C   UNL     1     114.771 121.360 125.324  1.00  0.00    -0.001 C 
ATOM      6  C   UNL     1     115.804 120.417 125.979  1.00  0.00     0.007 C 
ATOM      7  C   UNL     1     115.401 120.016 127.416  1.00  0.00     0.035 C 
ATOM      8  C   UNL     1     113.860 119.918 127.652  1.00  0.00     0.065 C 
ATOM      9  C   UNL     1     113.160 119.568 126.302  1.00  0.00     0.028 C 
ATOM     10  C   UNL     1     111.658 119.177 126.413  1.00  0.00     0.011 C 
ATOM     11  C   UNL     1     110.876 119.303 125.079  1.00  0.00     0.031 C 
ATOM     12  C   UNL     1     113.598 118.838 128.729  1.00  0.00     0.042 C 
ENDROOT
BRANCH   5  13
ATOM     13  C   UNL     1     115.278 122.030 123.999  1.00  0.00    -0.014 C 
ATOM     14  C   UNL     1     115.549 123.530 124.202  1.00  0.00     0.007 C 
ATOM     15  C   UNL     1     116.538 121.367 123.404  1.00  0.00     0.007 C 
ENDBRANCH   5  13
BRANCH   8  16
ATOM     16  O   UNL     1     113.419 121.173 128.125  1.00  0.00    -0.390 OA
ATOM     17  H   UNL     1     113.843 121.886 127.581  1.00  0.00     0.211 HD
ENDBRANCH   8  16
TORSDOF 2
ENDMDL
MODEL 4
REMARK VINA RESULT:    -5.425      8.223      9.922
REMARK INTER + INTRA:          -6.176
REMARK INTER:                  -5.926
REMARK INTRA:                  -0.249
REMARK UNBOUND:                -0.275
REMARK SMILES CC1=C[C@@H]2[C@H](C(C)C)CC[C@@](C)(O)[C@H]2CC1
REMARK SMILES IDX 1 1 2 2 3 3 4 4 5 5 9 6 10 7 11 8 14 9 15 10 16 11 12 12
REMARK SMILES IDX 6 13 7 14 8 15 13 16
REMARK H PARENT 13 17
REMARK Flexibility Score: inf
ROOT
ATOM      1  C   UNL     1     119.115 128.016 125.122  1.00  0.00     0.039 C 
ATOM      2  C   UNL     1     118.455 126.948 125.951  1.00  0.00    -0.077 C 
ATOM      3  C   UNL     1     117.940 125.844 125.373  1.00  0.00    -0.024 C 
ATOM      4  C   UNL     1     117.259 124.806 126.244  1.00  0.00     0.021 C 
ATOM      5  C   UNL     1     116.502 123.636 125.512  1.00  0.00    -0.001 C 
ATOM      6  C   UNL     1     114.975 123.862 125.499  1.00  0.00     0.007 C 
ATOM      7  C   UNL     1     114.390 123.981 126.925  1.00  0.00     0.035 C 
ATOM      8  C   UNL     1     115.356 124.624 127.969  1.00  0.00     0.065 C 
ATOM      9  C   UNL     1     116.340 125.583 127.228  1.00  0.00     0.028 C 
ATOM     10  C   UNL     1     117.195 126.501 128.149  1.00  0.00     0.011 C 
ATOM     11  C   UNL     1     118.463 127.073 127.463  1.00  0.00     0.031 C 
ATOM     12  C   UNL     1     114.508 125.378 129.021  1.00  0.00     0.042 C 
ENDROOT
BRANCH   5  13
ATOM     13  C   UNL     1     117.090 123.209 124.121  1.00  0.00    -0.014 C 
ATOM     14  C   UNL     1     118.368 122.371 124.289  1.00  0.00     0.007 C 
ATOM     15  C   UNL     1     116.094 122.436 123.231  1.00  0.00     0.007 C 
ENDBRANCH   5  13
BRANCH   8  16
ATOM     16  O   UNL     1     116.067 123.578 128.596  1.00  0.00    -0.390 OA
ATOM     17  H   UNL     1     115.954 123.659 129.578  1.00  0.00     0.211 HD
ENDBRANCH   8  16
TORSDOF 2
ENDMDL
MODEL 5
REMARK VINA RESULT:    -5.334      2.480      5.097
REMARK INTER + INTRA:          -6.077
REMARK INTER:                  -5.802
REMARK INTRA:                  -0.274
REMARK UNBOUND:                -0.275
REMARK SMILES CC1=C[C@@H]2[C@H](C(C)C)CC[C@@](C)(O)[C@H]2CC1
REMARK SMILES IDX 1 1 2 2 3 3 4 4 5 5 9 6 10 7 11 8 14 9 15 10 16 11 12 12
REMARK SMILES IDX 6 13 7 14 8 15 13 16
REMARK H PARENT 13 17
REMARK Flexibility Score: inf
ROOT
ATOM      1  C   UNL     1     112.189 116.005 128.909  1.00  0.00     0.039 C 
ATOM      2  C   UNL     1     112.106 117.191 127.988  1.00  0.00    -0.077 C 
ATOM      3  C   UNL     1     112.299 117.051 126.661  1.00  0.00    -0.024 C 
ATOM      4  C   UNL     1     112.232 118.278 125.773  1.00  0.00     0.021 C 
ATOM      5  C   UNL     1     112.657 118.102 124.268  1.00  0.00    -0.001 C 
ATOM      6  C   UNL     1     114.081 118.640 124.008  1.00  0.00     0.007 C 
ATOM      7  C   UNL     1     114.213 120.138 124.362  1.00  0.00     0.035 C 
ATOM      8  C   UNL     1     113.309 120.606 125.545  1.00  0.00     0.065 C 
ATOM      9  C   UNL     1     113.042 119.394 126.492  1.00  0.00     0.028 C 
ATOM     10  C   UNL     1     112.377 119.746 127.854  1.00  0.00     0.011 C 
ATOM     11  C   UNL     1     111.697 118.539 128.551  1.00  0.00     0.031 C 
ATOM     12  C   UNL     1     114.027 121.760 126.284  1.00  0.00     0.042 C 
ENDROOT
BRANCH   5  13
ATOM     13  C   UNL     1     112.393 116.685 123.646  1.00  0.00    -0.014 C 
ATOM     14  C   UNL     1     111.554 116.788 122.362  1.00  0.00     0.007 C 
ATOM     15  C   UNL     1     113.677 115.885 123.345  1.00  0.00     0.007 C 
ENDBRANCH   5  13
BRANCH   8  16
ATOM     16  O   UNL     1     112.096 121.078 124.997  1.00  0.00    -0.390 OA
ATOM     17  H   UNL     1     112.158 121.043 124.008  1.00  0.00     0.211 HD
ENDBRANCH   8  16
TORSDOF 2
ENDMDL
MODEL 6
REMARK VINA RESULT:    -5.263      1.871      3.914
REMARK INTER + INTRA:          -5.999
REMARK INTER:                  -5.770
REMARK INTRA:                  -0.229
REMARK UNBOUND:                -0.275
REMARK SMILES CC1=C[C@@H]2[C@H](C(C)C)CC[C@@](C)(O)[C@H]2CC1
REMARK SMILES IDX 1 1 2 2 3 3 4 4 5 5 9 6 10 7 11 8 14 9 15 10 16 11 12 12
REMARK SMILES IDX 6 13 7 14 8 15 13 16
REMARK H PARENT 13 17
REMARK Flexibility Score: inf
ROOT
ATOM      1  C   UNL     1     113.502 113.769 124.268  1.00  0.00     0.039 C 
ATOM      2  C   UNL     1     113.417 115.230 124.614  1.00  0.00    -0.077 C 
ATOM      3  C   UNL     1     113.240 115.629 125.890  1.00  0.00    -0.024 C 
ATOM      4  C   UNL     1     113.133 117.112 126.191  1.00  0.00     0.021 C 
ATOM      5  C   UNL     1     112.732 117.523 127.656  1.00  0.00    -0.001 C 
ATOM      6  C   UNL     1     111.246 117.934 127.748  1.00  0.00     0.007 C 
ATOM      7  C   UNL     1     110.909 119.120 126.818  1.00  0.00     0.035 C 
ATOM      8  C   UNL     1     111.744 119.166 125.499  1.00  0.00     0.065 C 
ATOM      9  C   UNL     1     112.179 117.716 125.121  1.00  0.00     0.028 C 
ATOM     10  C   UNL     1     112.793 117.553 123.701  1.00  0.00     0.011 C 
ATOM     11  C   UNL     1     113.637 116.263 123.526  1.00  0.00     0.031 C 
ATOM     12  C   UNL     1     110.875 119.808 124.392  1.00  0.00     0.042 C 
ENDROOT
BRANCH   5  13
ATOM     13  C   UNL     1     113.188 116.538 128.789  1.00  0.00    -0.014 C 
ATOM     14  C   UNL     1     114.704 116.627 129.028  1.00  0.00     0.007 C 
ATOM     15  C   UNL     1     112.454 116.746 130.131  1.00  0.00     0.007 C 
ENDBRANCH   5  13
BRANCH   8  16
ATOM     16  O   UNL     1     112.877 119.974 125.738  1.00  0.00    -0.390 OA
ATOM     17  H   UNL     1     112.611 120.927 125.667  1.00  0.00     0.211 HD
ENDBRANCH   8  16
TORSDOF 2
ENDMDL
MODEL 7
REMARK VINA RESULT:    -5.176      2.235      4.619
REMARK INTER + INTRA:          -5.905
REMARK INTER:                  -5.630
REMARK INTRA:                  -0.275
REMARK UNBOUND:                -0.275
REMARK SMILES CC1=C[C@@H]2[C@H](C(C)C)CC[C@@](C)(O)[C@H]2CC1
REMARK SMILES IDX 1 1 2 2 3 3 4 4 5 5 9 6 10 7 11 8 14 9 15 10 16 11 12 12
REMARK SMILES IDX 6 13 7 14 8 15 13 16
REMARK H PARENT 13 17
REMARK Flexibility Score: inf
ROOT
ATOM      1  C   UNL     1     112.350 117.459 131.017  1.00  0.00     0.039 C 
ATOM      2  C   UNL     1     112.847 117.329 129.604  1.00  0.00    -0.077 C 
ATOM      3  C   UNL     1     113.407 118.378 128.968  1.00  0.00    -0.024 C 
ATOM      4  C   UNL     1     113.870 118.210 127.534  1.00  0.00     0.021 C 
ATOM      5  C   UNL     1     114.333 119.505 126.770  1.00  0.00    -0.001 C 
ATOM      6  C   UNL     1     113.244 120.019 125.802  1.00  0.00     0.007 C 
ATOM      7  C   UNL     1     112.857 118.961 124.744  1.00  0.00     0.035 C 
ATOM      8  C   UNL     1     112.954 117.484 125.240  1.00  0.00     0.065 C 
ATOM      9  C   UNL     1     112.738 117.451 126.786  1.00  0.00     0.028 C 
ATOM     10  C   UNL     1     112.545 116.035 127.401  1.00  0.00     0.011 C 
ATOM     11  C   UNL     1     112.811 115.972 128.928  1.00  0.00     0.031 C 
ATOM     12  C   UNL     1     111.886 116.647 124.497  1.00  0.00     0.042 C 
ENDROOT
BRANCH   5  13
ATOM     13  C   UNL     1     114.971 120.630 127.659  1.00  0.00    -0.014 C 
ATOM     14  C   UNL     1     116.400 120.961 127.199  1.00  0.00     0.007 C 
ATOM     15  C   UNL     1     114.145 121.933 127.707  1.00  0.00     0.007 C 
ENDBRANCH   5  13
BRANCH   8  16
ATOM     16  O   UNL     1     114.241 117.006 124.912  1.00  0.00    -0.390 OA
ATOM     17  H   UNL     1     114.846 117.781 124.781  1.00  0.00     0.211 HD
ENDBRANCH   8  16
TORSDOF 2
ENDMDL
MODEL 8
REMARK VINA RESULT:    -5.056      1.952      5.298
REMARK INTER + INTRA:          -5.774
REMARK INTER:                  -5.503
REMARK INTRA:                  -0.271
REMARK UNBOUND:                -0.275
REMARK SMILES CC1=C[C@@H]2[C@H](C(C)C)CC[C@@](C)(O)[C@H]2CC1
REMARK SMILES IDX 1 1 2 2 3 3 4 4 5 5 9 6 10 7 11 8 14 9 15 10 16 11 12 12
REMARK SMILES IDX 6 13 7 14 8 15 13 16
REMARK H PARENT 13 17
REMARK Flexibility Score: inf
ROOT
ATOM      1  C   UNL     1     117.512 117.313 126.532  1.00  0.00     0.039 C 
ATOM      2  C   UNL     1     116.172 116.855 127.040  1.00  0.00    -0.077 C 
ATOM      3  C   UNL     1     115.043 117.130 126.356  1.00  0.00    -0.024 C 
ATOM      4  C   UNL     1     113.711 116.672 126.919  1.00  0.00     0.021 C 
ATOM      5  C   UNL     1     112.410 117.182 126.195  1.00  0.00    -0.001 C 
ATOM      6  C   UNL     1     111.741 118.340 126.968  1.00  0.00     0.007 C 
ATOM      7  C   UNL     1     111.351 117.933 128.407  1.00  0.00     0.035 C 
ATOM      8  C   UNL     1     112.302 116.883 129.064  1.00  0.00     0.065 C 
ATOM      9  C   UNL     1     113.724 117.021 128.434  1.00  0.00     0.028 C 
ATOM     10  C   UNL     1     114.852 116.230 129.157  1.00  0.00     0.011 C 
ATOM     11  C   UNL     1     116.109 115.986 128.281  1.00  0.00     0.031 C 
ATOM     12  C   UNL     1     112.327 117.132 130.590  1.00  0.00     0.042 C 
ENDROOT
BRANCH   5  13
ATOM     13  C   UNL     1     112.546 117.446 124.654  1.00  0.00    -0.014 C 
ATOM     14  C   UNL     1     112.152 116.203 123.839  1.00  0.00     0.007 C 
ATOM     15  C   UNL     1     111.730 118.655 124.152  1.00  0.00     0.007 C 
ENDBRANCH   5  13
BRANCH   8  16
ATOM     16  O   UNL     1     111.770 115.601 128.802  1.00  0.00    -0.390 OA
ATOM     17  H   UNL     1     111.424 115.220 129.650  1.00  0.00     0.211 HD
ENDBRANCH   8  16
TORSDOF 2
ENDMDL
MODEL 9
REMARK VINA RESULT:    -4.987      2.804      4.848
REMARK INTER + INTRA:          -5.699
REMARK INTER:                  -5.432
REMARK INTRA:                  -0.266
REMARK UNBOUND:                -0.275
REMARK SMILES CC1=C[C@@H]2[C@H](C(C)C)CC[C@@](C)(O)[C@H]2CC1
REMARK SMILES IDX 1 1 2 2 3 3 4 4 5 5 9 6 10 7 11 8 14 9 15 10 16 11 12 12
REMARK SMILES IDX 6 13 7 14 8 15 13 16
REMARK H PARENT 13 17
REMARK Flexibility Score: inf
ROOT
ATOM      1  C   UNL     1     115.789 122.232 123.628  1.00  0.00     0.039 C 
ATOM      2  C   UNL     1     115.397 120.996 124.390  1.00  0.00    -0.077 C 
ATOM      3  C   UNL     1     114.301 120.290 124.046  1.00  0.00    -0.024 C 
ATOM      4  C   UNL     1     113.927 119.065 124.859  1.00  0.00     0.021 C 
ATOM      5  C   UNL     1     112.541 118.388 124.546  1.00  0.00    -0.001 C 
ATOM      6  C   UNL     1     111.472 118.762 125.597  1.00  0.00     0.007 C 
ATOM      7  C   UNL     1     111.887 118.347 127.026  1.00  0.00     0.035 C 
ATOM      8  C   UNL     1     113.425 118.396 127.294  1.00  0.00     0.065 C 
ATOM      9  C   UNL     1     114.071 119.463 126.355  1.00  0.00     0.028 C 
ATOM     10  C   UNL     1     115.550 119.823 126.675  1.00  0.00     0.011 C 
ATOM     11  C   UNL     1     116.305 120.486 125.493  1.00  0.00     0.031 C 
ATOM     12  C   UNL     1     113.651 118.737 128.786  1.00  0.00     0.042 C 
ENDROOT
BRANCH   5  13
ATOM     13  C   UNL     1     112.042 118.511 123.064  1.00  0.00    -0.014 C 
ATOM     14  C   UNL     1     111.629 117.141 122.500  1.00  0.00     0.007 C 
ATOM     15  C   UNL     1     110.875 119.504 122.877  1.00  0.00     0.007 C 
ENDBRANCH   5  13
BRANCH   8  16
ATOM     16  O   UNL     1     113.949 117.115 127.017  1.00  0.00    -0.390 OA
ATOM     17  H   UNL     1     114.913 117.204 126.803  1.00  0.00     0.211 HD
ENDBRANCH   8  16
TORSDOF 2
ENDMDL
