MODEL 1
REMARK VINA RESULT:    -2.848      0.000      0.000
REMARK INTER + INTRA:          -4.762
REMARK INTER:                  -3.930
REMARK INTRA:                  -0.832
REMARK UNBOUND:                -0.832
REMARK SMILES O=C([O-])[C@H]1O[C@H](Oc2cc3oc(-c4ccccc4)cc(=O)c3c(O)c2O)[C@@H](O)[C@H](O)[C@@H]1O
REMARK SMILES IDX 7 1 6 2 4 3 31 4 5 5 29 6 27 7 2 8 1 9 3 10 32 11 30 13
REMARK SMILES IDX 28 15 8 17 25 18 9 19 23 20 10 21 22 22 11 23 20 24 12 25
REMARK SMILES IDX 19 26 21 27 26 28 24 30 13 32 14 33 18 34 15 35 17 36 16 37
REMARK H PARENT 32 12 30 14 28 16 26 29 24 31
REMARK Flexibility Score: inf
ROOT
ATOM      1  O   UNL     1     -35.060  -7.467   0.431  1.00  0.00    -0.458 OA
ENDROOT
BRANCH   1   2
ATOM      2  C   UNL     1     -36.135  -7.982  -0.369  1.00  0.00     0.339 C 
ATOM      3  C   UNL     1     -35.200  -7.130  -2.349  1.00  0.00     0.199 C 
ATOM      4  C   UNL     1     -34.918  -8.538  -2.927  1.00  0.00     0.180 C 
ATOM      5  O   UNL     1     -36.339  -7.154  -1.504  1.00  0.00    -0.328 OA
ATOM      6  C   UNL     1     -34.728  -9.558  -1.788  1.00  0.00     0.181 C 
ATOM      7  C   UNL     1     -35.898  -9.453  -0.792  1.00  0.00     0.214 C 
BRANCH   3   8
ATOM      8  C   UNL     1     -35.462  -6.164  -3.468  1.00  0.00     0.073 C 
ATOM      9  O   UNL     1     -35.085  -4.967  -3.373  1.00  0.00    -0.547 OA
ATOM     10  O   UNL     1     -36.088  -6.597  -4.631  1.00  0.00    -0.547 OA
ENDBRANCH   3   8
BRANCH   4  11
ATOM     11  O   UNL     1     -33.810  -8.538  -3.795  1.00  0.00    -0.387 OA
ATOM     12  H   UNL     1     -34.144  -8.417  -4.721  1.00  0.00     0.211 HD
ENDBRANCH   4  11
BRANCH   6  13
ATOM     13  O   UNL     1     -33.518  -9.327  -1.109  1.00  0.00    -0.387 OA
ATOM     14  H   UNL     1     -33.049 -10.198  -1.042  1.00  0.00     0.211 HD
ENDBRANCH   6  13
BRANCH   7  15
ATOM     15  O   UNL     1     -37.075  -9.949  -1.379  1.00  0.00    -0.384 OA
ATOM     16  H   UNL     1     -37.021  -9.745  -2.350  1.00  0.00     0.211 HD
ENDBRANCH   7  15
ENDBRANCH   1   2
BRANCH   1  17
ATOM     17  C   UNL     1     -34.820  -7.690   1.799  1.00  0.00     0.172 A 
ATOM     18  C   UNL     1     -34.282  -8.889   2.328  1.00  0.00     0.201 A 
ATOM     19  C   UNL     1     -35.167  -6.654   2.665  1.00  0.00     0.098 A 
ATOM     20  C   UNL     1     -34.024  -8.991   3.721  1.00  0.00     0.176 A 
ATOM     21  C   UNL     1     -34.958  -6.758   4.038  1.00  0.00     0.146 A 
ATOM     22  C   UNL     1     -34.380  -7.925   4.582  1.00  0.00     0.111 A 
ATOM     23  O   UNL     1     -35.305  -5.741   4.820  1.00  0.00    -0.456 OA
ATOM     24  C   UNL     1     -34.178  -7.957   5.979  1.00  0.00     0.197 A 
ATOM     25  C   UNL     1     -35.141  -5.745   6.141  1.00  0.00     0.138 A 
ATOM     26  C   UNL     1     -34.560  -6.863   6.758  1.00  0.00     0.100 A 
ATOM     27  O   UNL     1     -33.657  -8.955   6.547  1.00  0.00    -0.289 OA
BRANCH  18  28
ATOM     28  O   UNL     1     -34.048  -9.967   1.472  1.00  0.00    -0.502 OA
ATOM     29  H   UNL     1     -33.134 -10.331   1.246  1.00  0.00     0.293 HD
ENDBRANCH  18  28
BRANCH  20  30
ATOM     30  O   UNL     1     -33.409 -10.125   4.265  1.00  0.00    -0.504 OA
ATOM     31  H   UNL     1     -32.572 -10.106   4.828  1.00  0.00     0.293 HD
ENDBRANCH  20  30
BRANCH  25  32
ATOM     32  C   UNL     1     -35.565  -4.552   6.917  1.00  0.00     0.017 A 
ATOM     33  C   UNL     1     -36.747  -4.549   7.685  1.00  0.00     0.012 A 
ATOM     34  C   UNL     1     -34.788  -3.381   6.863  1.00  0.00     0.012 A 
ATOM     35  C   UNL     1     -37.125  -3.405   8.397  1.00  0.00     0.001 A 
ATOM     36  C   UNL     1     -35.171  -2.240   7.578  1.00  0.00     0.001 A 
ATOM     37  C   UNL     1     -36.337  -2.254   8.346  1.00  0.00     0.000 A 
ENDBRANCH  25  32
ENDBRANCH   1  17
TORSDOF 9
ENDMDL
MODEL 2
REMARK VINA RESULT:    -0.554      1.772      2.968
REMARK INTER + INTRA:          -1.597
REMARK INTER:                  -0.944
REMARK INTRA:                  -0.653
REMARK UNBOUND:                -0.832
REMARK SMILES O=C([O-])[C@H]1O[C@H](Oc2cc3oc(-c4ccccc4)cc(=O)c3c(O)c2O)[C@@H](O)[C@H](O)[C@@H]1O
REMARK SMILES IDX 7 1 6 2 4 3 31 4 5 5 29 6 27 7 2 8 1 9 3 10 32 11 30 13
REMARK SMILES IDX 28 15 8 17 25 18 9 19 23 20 10 21 22 22 11 23 20 24 12 25
REMARK SMILES IDX 19 26 21 27 26 28 24 30 13 32 14 33 18 34 15 35 17 36 16 37
REMARK H PARENT 32 12 30 14 28 16 26 29 24 31
REMARK Flexibility Score: inf
ROOT
ATOM      1  O   UNL     1     -34.182  -7.819   2.325  1.00  0.00    -0.458 OA
ENDROOT
BRANCH   1   2
ATOM      2  C   UNL     1     -33.750  -8.946   1.549  1.00  0.00     0.339 C 
ATOM      3  C   UNL     1     -35.341  -8.525  -0.128  1.00  0.00     0.199 C 
ATOM      4  C   UNL     1     -34.265  -8.170  -1.183  1.00  0.00     0.180 C 
ATOM      5  O   UNL     1     -34.837  -9.470   0.801  1.00  0.00    -0.328 OA
ATOM      6  C   UNL     1     -32.995  -7.633  -0.496  1.00  0.00     0.181 C 
ATOM      7  C   UNL     1     -32.559  -8.598   0.622  1.00  0.00     0.214 C 
BRANCH   3   8
ATOM      8  C   UNL     1     -36.541  -9.121  -0.805  1.00  0.00     0.073 C 
ATOM      9  O   UNL     1     -37.115 -10.125  -0.307  1.00  0.00    -0.547 OA
ATOM     10  O   UNL     1     -37.046  -8.544  -1.964  1.00  0.00    -0.547 OA
ENDBRANCH   3   8
BRANCH   4  11
ATOM     11  O   UNL     1     -34.747  -7.256  -2.139  1.00  0.00    -0.387 OA
ATOM     12  H   UNL     1     -34.732  -7.701  -3.025  1.00  0.00     0.211 HD
ENDBRANCH   4  11
BRANCH   6  13
ATOM     13  O   UNL     1     -33.226  -6.359   0.053  1.00  0.00    -0.387 OA
ATOM     14  H   UNL     1     -33.773  -5.853  -0.601  1.00  0.00     0.211 HD
ENDBRANCH   6  13
BRANCH   7  15
ATOM     15  O   UNL     1     -32.058  -9.786   0.064  1.00  0.00    -0.384 OA
ATOM     16  H   UNL     1     -31.300 -10.078   0.636  1.00  0.00     0.211 HD
ENDBRANCH   7  15
ENDBRANCH   1   2
BRANCH   1  17
ATOM     17  C   UNL     1     -34.810  -7.829   3.584  1.00  0.00     0.172 A 
ATOM     18  C   UNL     1     -35.456  -8.960   4.142  1.00  0.00     0.201 A 
ATOM     19  C   UNL     1     -34.799  -6.627   4.291  1.00  0.00     0.098 A 
ATOM     20  C   UNL     1     -36.009  -8.882   5.448  1.00  0.00     0.176 A 
ATOM     21  C   UNL     1     -35.376  -6.526   5.554  1.00  0.00     0.146 A 
ATOM     22  C   UNL     1     -35.984  -7.652   6.150  1.00  0.00     0.111 A 
ATOM     23  O   UNL     1     -35.338  -5.358   6.187  1.00  0.00    -0.456 OA
ATOM     24  C   UNL     1     -36.533  -7.486   7.440  1.00  0.00     0.197 A 
ATOM     25  C   UNL     1     -35.858  -5.165   7.397  1.00  0.00     0.138 A 
ATOM     26  C   UNL     1     -36.468  -6.238   8.063  1.00  0.00     0.100 A 
ATOM     27  O   UNL     1     -37.084  -8.441   8.051  1.00  0.00    -0.289 OA
BRANCH  18  28
ATOM     28  O   UNL     1     -35.568 -10.125   3.382  1.00  0.00    -0.502 OA
ATOM     29  H   UNL     1     -35.607 -11.058   3.765  1.00  0.00     0.293 HD
ENDBRANCH  18  28
BRANCH  20  30
ATOM     30  O   UNL     1     -36.574 -10.003   6.066  1.00  0.00    -0.504 OA
ATOM     31  H   UNL     1     -36.755 -10.881   5.602  1.00  0.00     0.293 HD
ENDBRANCH  20  30
BRANCH  25  32
ATOM     32  C   UNL     1     -35.757  -3.816   8.010  1.00  0.00     0.017 A 
ATOM     33  C   UNL     1     -34.515  -3.174   8.191  1.00  0.00     0.012 A 
ATOM     34  C   UNL     1     -36.925  -3.168   8.452  1.00  0.00     0.012 A 
ATOM     35  C   UNL     1     -34.452  -1.908   8.782  1.00  0.00     0.001 A 
ATOM     36  C   UNL     1     -36.856  -1.901   9.041  1.00  0.00     0.001 A 
ATOM     37  C   UNL     1     -35.621  -1.271   9.203  1.00  0.00     0.000 A 
ENDBRANCH  25  32
ENDBRANCH   1  17
TORSDOF 9
ENDMDL
