MODEL 1
REMARK VINA RESULT:    -3.365      0.000      0.000
REMARK INTER + INTRA:          -4.187
REMARK INTER:                  -3.857
REMARK INTRA:                  -0.331
REMARK UNBOUND:                -0.331
REMARK SMILES COc1ccc(C(C)=O)c(O)c1
REMARK SMILES IDX 6 1 10 2 12 3 3 4 4 5 5 6 7 7 8 8 9 9 11 10 2 12 1 13
REMARK H PARENT 11 11
REMARK Flexibility Score: inf
ROOT
ATOM      1  C   UNL     1      12.857   3.939  -2.176  1.00  0.00     0.059 A 
ATOM      2  C   UNL     1      11.574   3.478  -2.562  1.00  0.00     0.130 A 
ATOM      3  C   UNL     1      10.460   4.314  -2.416  1.00  0.00     0.093 A 
ATOM      4  C   UNL     1      10.602   5.622  -1.919  1.00  0.00     0.122 A 
ATOM      5  C   UNL     1      11.873   6.082  -1.567  1.00  0.00     0.047 A 
ATOM      6  C   UNL     1      12.989   5.252  -1.692  1.00  0.00     0.019 A 
ENDROOT
BRANCH   1   7
ATOM      7  C   UNL     1      14.054   3.067  -2.229  1.00  0.00     0.163 C 
ATOM      8  C   UNL     1      15.116   3.146  -1.176  1.00  0.00     0.093 C 
ATOM      9  O   UNL     1      14.152   2.187  -3.125  1.00  0.00    -0.294 OA
ENDBRANCH   1   7
BRANCH   2  10
ATOM     10  O   UNL     1      11.371   2.214  -3.123  1.00  0.00    -0.507 OA
ATOM     11  H   UNL     1      10.867   1.473  -2.655  1.00  0.00     0.293 HD
ENDBRANCH   2  10
BRANCH   4  12
ATOM     12  O   UNL     1       9.512   6.492  -1.763  1.00  0.00    -0.497 OA
ATOM     13  C   UNL     1       9.624   7.906  -1.642  1.00  0.00     0.278 C 
ENDBRANCH   4  12
TORSDOF 3
ENDMDL
MODEL 2
REMARK VINA RESULT:    -3.227      2.161      5.507
REMARK INTER + INTRA:          -4.030
REMARK INTER:                  -3.876
REMARK INTRA:                  -0.154
REMARK UNBOUND:                -0.331
REMARK SMILES COc1ccc(C(C)=O)c(O)c1
REMARK SMILES IDX 6 1 10 2 12 3 3 4 4 5 5 6 7 7 8 8 9 9 11 10 2 12 1 13
REMARK H PARENT 11 11
REMARK Flexibility Score: inf
ROOT
ATOM      1  C   UNL     1      13.978   3.570  -1.607  1.00  0.00     0.059 A 
ATOM      2  C   UNL     1      13.604   2.596  -2.566  1.00  0.00     0.130 A 
ATOM      3  C   UNL     1      14.523   1.616  -2.959  1.00  0.00     0.093 A 
ATOM      4  C   UNL     1      15.807   1.563  -2.389  1.00  0.00     0.122 A 
ATOM      5  C   UNL     1      16.162   2.506  -1.422  1.00  0.00     0.047 A 
ATOM      6  C   UNL     1      15.261   3.500  -1.034  1.00  0.00     0.019 A 
ENDROOT
BRANCH   1   7
ATOM      7  C   UNL     1      13.076   4.679  -1.219  1.00  0.00     0.163 C 
ATOM      8  C   UNL     1      12.825   5.831  -2.143  1.00  0.00     0.093 C 
ATOM      9  O   UNL     1      12.444   4.625  -0.131  1.00  0.00    -0.294 OA
ENDBRANCH   1   7
BRANCH   2  10
ATOM     10  O   UNL     1      12.324   2.552  -3.125  1.00  0.00    -0.507 OA
ATOM     11  H   UNL     1      12.154   2.495  -4.120  1.00  0.00     0.293 HD
ENDBRANCH   2  10
BRANCH   4  12
ATOM     12  O   UNL     1      16.754   0.592  -2.751  1.00  0.00    -0.497 OA
ATOM     13  C   UNL     1      18.161   0.807  -2.762  1.00  0.00     0.278 C 
ENDBRANCH   4  12
TORSDOF 3
ENDMDL
MODEL 3
REMARK VINA RESULT:    -3.125      1.032      4.520
REMARK INTER + INTRA:          -3.912
REMARK INTER:                  -3.619
REMARK INTRA:                  -0.294
REMARK UNBOUND:                -0.331
REMARK SMILES COc1ccc(C(C)=O)c(O)c1
REMARK SMILES IDX 6 1 10 2 12 3 3 4 4 5 5 6 7 7 8 8 9 9 11 10 2 12 1 13
REMARK H PARENT 11 11
REMARK Flexibility Score: inf
ROOT
ATOM      1  C   UNL     1      10.647   5.321  -2.161  1.00  0.00     0.059 A 
ATOM      2  C   UNL     1      10.760   4.011  -2.689  1.00  0.00     0.130 A 
ATOM      3  C   UNL     1      12.015   3.393  -2.757  1.00  0.00     0.093 A 
ATOM      4  C   UNL     1      13.165   4.044  -2.276  1.00  0.00     0.122 A 
ATOM      5  C   UNL     1      13.044   5.323  -1.729  1.00  0.00     0.047 A 
ATOM      6  C   UNL     1      11.802   5.958  -1.671  1.00  0.00     0.019 A 
ENDROOT
BRANCH   1   7
ATOM      7  C   UNL     1       9.360   6.054  -2.145  1.00  0.00     0.163 C 
ATOM      8  C   UNL     1       9.199   7.317  -1.357  1.00  0.00     0.093 C 
ATOM      9  O   UNL     1       8.403   5.661  -2.865  1.00  0.00    -0.294 OA
ENDBRANCH   1   7
BRANCH   2  10
ATOM     10  O   UNL     1       9.650   3.283  -3.125  1.00  0.00    -0.507 OA
ATOM     11  H   UNL     1       8.829   3.711  -3.530  1.00  0.00     0.293 HD
ENDBRANCH   2  10
BRANCH   4  12
ATOM     12  O   UNL     1      14.438   3.456  -2.320  1.00  0.00    -0.497 OA
ATOM     13  C   UNL     1      15.194   3.089  -1.170  1.00  0.00     0.278 C 
ENDBRANCH   4  12
TORSDOF 3
ENDMDL
MODEL 4
REMARK VINA RESULT:    -3.063      2.226      3.501
REMARK INTER + INTRA:          -3.841
REMARK INTER:                  -3.509
REMARK INTRA:                  -0.332
REMARK UNBOUND:                -0.331
REMARK SMILES COc1ccc(C(C)=O)c(O)c1
REMARK SMILES IDX 6 1 10 2 12 3 3 4 4 5 5 6 7 7 8 8 9 9 11 10 2 12 1 13
REMARK H PARENT 11 11
REMARK Flexibility Score: inf
ROOT
ATOM      1  C   UNL     1      15.106   2.428  -2.328  1.00  0.00     0.059 A 
ATOM      2  C   UNL     1      15.012   3.432  -1.333  1.00  0.00     0.130 A 
ATOM      3  C   UNL     1      13.825   4.161  -1.189  1.00  0.00     0.093 A 
ATOM      4  C   UNL     1      12.709   3.888  -2.000  1.00  0.00     0.122 A 
ATOM      5  C   UNL     1      12.797   2.877  -2.960  1.00  0.00     0.047 A 
ATOM      6  C   UNL     1      13.981   2.155  -3.125  1.00  0.00     0.019 A 
ENDROOT
BRANCH   1   7
ATOM      7  C   UNL     1      16.364   1.687  -2.580  1.00  0.00     0.163 C 
ATOM      8  C   UNL     1      16.344   0.287  -3.113  1.00  0.00     0.093 C 
ATOM      9  O   UNL     1      17.475   2.261  -2.423  1.00  0.00    -0.294 OA
ENDBRANCH   1   7
BRANCH   2  10
ATOM     10  O   UNL     1      16.059   3.711  -0.451  1.00  0.00    -0.507 OA
ATOM     11  H   UNL     1      16.070   3.410   0.513  1.00  0.00     0.293 HD
ENDBRANCH   2  10
BRANCH   4  12
ATOM     12  O   UNL     1      11.501   4.591  -1.882  1.00  0.00    -0.497 OA
ATOM     13  C   UNL     1      11.181   5.464  -0.804  1.00  0.00     0.278 C 
ENDBRANCH   4  12
TORSDOF 3
ENDMDL
MODEL 5
REMARK VINA RESULT:    -2.995      1.840      2.698
REMARK INTER + INTRA:          -3.763
REMARK INTER:                  -3.467
REMARK INTRA:                  -0.296
REMARK UNBOUND:                -0.331
REMARK SMILES COc1ccc(C(C)=O)c(O)c1
REMARK SMILES IDX 6 1 10 2 12 3 3 4 4 5 5 6 7 7 8 8 9 9 11 10 2 12 1 13
REMARK H PARENT 11 11
REMARK Flexibility Score: inf
ROOT
ATOM      1  C   UNL     1      11.995   5.172  -1.776  1.00  0.00     0.059 A 
ATOM      2  C   UNL     1      12.335   6.469  -2.236  1.00  0.00     0.130 A 
ATOM      3  C   UNL     1      11.397   7.505  -2.156  1.00  0.00     0.093 A 
ATOM      4  C   UNL     1      10.127   7.285  -1.593  1.00  0.00     0.122 A 
ATOM      5  C   UNL     1       9.806   6.013  -1.115  1.00  0.00     0.047 A 
ATOM      6  C   UNL     1      10.727   4.966  -1.204  1.00  0.00     0.019 A 
ENDROOT
BRANCH   1   7
ATOM      7  C   UNL     1      12.917   4.021  -1.915  1.00  0.00     0.163 C 
ATOM      8  C   UNL     1      12.672   2.953  -2.936  1.00  0.00     0.093 C 
ATOM      9  O   UNL     1      13.970   3.971  -1.225  1.00  0.00    -0.294 OA
ENDBRANCH   1   7
BRANCH   2  10
ATOM     10  O   UNL     1      13.600   6.772  -2.746  1.00  0.00    -0.507 OA
ATOM     11  H   UNL     1      14.462   6.489  -2.301  1.00  0.00     0.293 HD
ENDBRANCH   2  10
BRANCH   4  12
ATOM     12  O   UNL     1       9.162   8.299  -1.489  1.00  0.00    -0.497 OA
ATOM     13  C   UNL     1       7.777   8.068  -1.256  1.00  0.00     0.278 C 
ENDBRANCH   4  12
TORSDOF 3
ENDMDL
MODEL 6
REMARK VINA RESULT:    -2.977      1.664      4.999
REMARK INTER + INTRA:          -3.743
REMARK INTER:                  -3.394
REMARK INTRA:                  -0.348
REMARK UNBOUND:                -0.331
REMARK SMILES COc1ccc(C(C)=O)c(O)c1
REMARK SMILES IDX 6 1 10 2 12 3 3 4 4 5 5 6 7 7 8 8 9 9 11 10 2 12 1 13
REMARK H PARENT 11 11
REMARK Flexibility Score: inf
ROOT
ATOM      1  C   UNL     1      10.204   5.247  -2.377  1.00  0.00     0.059 A 
ATOM      2  C   UNL     1      10.845   5.788  -1.234  1.00  0.00     0.130 A 
ATOM      3  C   UNL     1      12.100   5.304  -0.845  1.00  0.00     0.093 A 
ATOM      4  C   UNL     1      12.751   4.308  -1.593  1.00  0.00     0.122 A 
ATOM      5  C   UNL     1      12.130   3.799  -2.735  1.00  0.00     0.047 A 
ATOM      6  C   UNL     1      10.871   4.260  -3.125  1.00  0.00     0.019 A 
ENDROOT
BRANCH   1   7
ATOM      7  C   UNL     1       8.841   5.661  -2.784  1.00  0.00     0.163 C 
ATOM      8  C   UNL     1       7.794   4.646  -3.124  1.00  0.00     0.093 C 
ATOM      9  O   UNL     1       8.523   6.880  -2.770  1.00  0.00    -0.294 OA
ENDBRANCH   1   7
BRANCH   2  10
ATOM     10  O   UNL     1      10.283   6.823  -0.483  1.00  0.00    -0.507 OA
ATOM     11  H   UNL     1       9.858   7.642  -0.895  1.00  0.00     0.293 HD
ENDBRANCH   2  10
BRANCH   4  12
ATOM     12  O   UNL     1      14.012   3.802  -1.240  1.00  0.00    -0.497 OA
ATOM     13  C   UNL     1      14.747   2.861  -2.016  1.00  0.00     0.278 C 
ENDBRANCH   4  12
TORSDOF 3
ENDMDL
MODEL 7
REMARK VINA RESULT:    -2.863      1.763      2.412
REMARK INTER + INTRA:          -3.612
REMARK INTER:                  -3.263
REMARK INTRA:                  -0.348
REMARK UNBOUND:                -0.331
REMARK SMILES COc1ccc(C(C)=O)c(O)c1
REMARK SMILES IDX 6 1 10 2 12 3 3 4 4 5 5 6 7 7 8 8 9 9 11 10 2 12 1 13
REMARK H PARENT 11 11
REMARK Flexibility Score: inf
ROOT
ATOM      1  C   UNL     1      12.076   5.280  -2.187  1.00  0.00     0.059 A 
ATOM      2  C   UNL     1      10.818   5.555  -1.595  1.00  0.00     0.130 A 
ATOM      3  C   UNL     1      10.415   6.882  -1.401  1.00  0.00     0.093 A 
ATOM      4  C   UNL     1      11.229   7.950  -1.818  1.00  0.00     0.122 A 
ATOM      5  C   UNL     1      12.455   7.674  -2.427  1.00  0.00     0.047 A 
ATOM      6  C   UNL     1      12.877   6.355  -2.610  1.00  0.00     0.019 A 
ENDROOT
BRANCH   1   7
ATOM      7  C   UNL     1      12.589   3.898  -2.336  1.00  0.00     0.163 C 
ATOM      8  C   UNL     1      13.962   3.527  -1.867  1.00  0.00     0.093 C 
ATOM      9  O   UNL     1      11.838   2.994  -2.790  1.00  0.00    -0.294 OA
ENDBRANCH   1   7
BRANCH   2  10
ATOM     10  O   UNL     1       9.933   4.543  -1.217  1.00  0.00    -0.507 OA
ATOM     11  H   UNL     1       9.042   4.721  -0.774  1.00  0.00     0.293 HD
ENDBRANCH   2  10
BRANCH   4  12
ATOM     12  O   UNL     1      10.858   9.293  -1.648  1.00  0.00    -0.497 OA
ATOM     13  C   UNL     1      11.778  10.367  -1.491  1.00  0.00     0.278 C 
ENDBRANCH   4  12
TORSDOF 3
ENDMDL
