MODEL 1
REMARK VINA RESULT:    -2.893      0.000      0.000
REMARK INTER + INTRA:          -3.207
REMARK INTER:                  -3.316
REMARK INTRA:                   0.109
REMARK UNBOUND:                 0.109
REMARK SMILES C=C(C)[C@@H]1CC[C@]2(C(=O)[O-])CC[C@@]3(C)[C@H](CC[C@H]4[C@@]5(C)CC[C@@H](O)C(C)(C)[C@H]5CC[C@]43C)[C@@H]12
REMARK SMILES IDX 7 1 6 2 33 3 11 4 5 5 15 6 4 7 12 8 16 9 13 10 17 11 31 12
REMARK SMILES IDX 14 13 18 14 30 15 32 16 19 17 29 18 21 19 20 20 28 21 22 22
REMARK SMILES IDX 25 23 23 24 26 25 27 26 8 27 9 28 10 29 2 30 3 31 1 32 24 33
REMARK H PARENT 24 34
REMARK Flexibility Score: inf
ROOT
ATOM      1  C   UNL     1      22.757  31.173  32.165  1.00  0.00     0.014 C 
ATOM      2  C   UNL     1      23.229  29.912  32.894  1.00  0.00     0.014 C 
ATOM      3  C   UNL     1      21.807  30.589  31.109  1.00  0.00     0.012 C 
ATOM      4  C   UNL     1      21.926  32.138  33.027  1.00  0.00     0.014 C 
ATOM      5  C   UNL     1      23.404  28.864  31.783  1.00  0.00     0.009 C 
ATOM      6  C   UNL     1      21.335  31.692  30.122  1.00  0.00     0.000 C 
ATOM      7  C   UNL     1      22.521  29.319  30.593  1.00  0.00     0.018 C 
ATOM      8  C   UNL     1      21.357  33.299  32.166  1.00  0.00     0.008 C 
ATOM      9  C   UNL     1      20.533  31.167  28.942  1.00  0.00     0.005 C 
ATOM     10  C   UNL     1      20.589  32.908  30.827  1.00  0.00    -0.024 C 
ATOM     11  C   UNL     1      19.138  30.747  29.350  1.00  0.00     0.005 C 
ATOM     12  C   UNL     1      18.973  32.696  31.067  1.00  0.00    -0.024 C 
ATOM     13  C   UNL     1      20.804  34.125  29.855  1.00  0.00     0.012 C 
ATOM     14  C   UNL     1      18.266  31.930  29.858  1.00  0.00     0.002 C 
ATOM     15  C   UNL     1      18.666  31.894  32.363  1.00  0.00     0.008 C 
ATOM     16  C   UNL     1      18.341  34.125  31.246  1.00  0.00     0.012 C 
ATOM     17  C   UNL     1      16.707  31.527  30.067  1.00  0.00    -0.026 C 
ATOM     18  C   UNL     1      17.182  31.664  32.674  1.00  0.00     0.005 C 
ATOM     19  C   UNL     1      16.250  30.439  29.025  1.00  0.00     0.010 C 
ATOM     20  C   UNL     1      15.844  32.791  29.723  1.00  0.00     0.012 C 
ATOM     21  C   UNL     1      16.322  31.036  31.538  1.00  0.00     0.003 C 
ATOM     22  C   UNL     1      14.895  29.811  29.337  1.00  0.00     0.033 C 
ATOM     23  C   UNL     1      15.977  29.492  31.728  1.00  0.00    -0.006 C 
ATOM     24  C   UNL     1      14.898  29.033  30.669  1.00  0.00     0.120 C 
ATOM     25  C   UNL     1      15.329  29.242  33.124  1.00  0.00     0.014 C 
ATOM     26  C   UNL     1      17.244  28.596  31.674  1.00  0.00     0.014 C 
ENDROOT
BRANCH   1  27
ATOM     27  C   UNL     1      23.995  31.889  31.612  1.00  0.00     0.048 C 
ATOM     28  O   UNL     1      24.825  32.445  32.378  1.00  0.00    -0.550 OA
ATOM     29  O   UNL     1      24.160  32.041  30.240  1.00  0.00    -0.550 OA
ENDBRANCH   1  27
BRANCH   7  30
ATOM     30  C   UNL     1      21.576  28.204  30.134  1.00  0.00    -0.077 C 
ATOM     31  C   UNL     1      22.052  27.170  29.149  1.00  0.00     0.039 C 
ATOM     32  C   UNL     1      20.323  28.100  30.617  1.00  0.00     0.008 C 
ENDBRANCH   7  30
BRANCH  24  33
ATOM     33  O   UNL     1      15.017  27.651  30.413  1.00  0.00    -0.393 OA
ATOM     34  H   UNL     1      14.148  27.230  30.650  1.00  0.00     0.210 HD
ENDBRANCH  24  33
TORSDOF 3
ENDMDL
MODEL 2
REMARK VINA RESULT:    -1.404      3.291      8.239
REMARK INTER + INTRA:          -1.500
REMARK INTER:                  -2.544
REMARK INTRA:                   1.044
REMARK UNBOUND:                 0.109
REMARK SMILES C=C(C)[C@@H]1CC[C@]2(C(=O)[O-])CC[C@@]3(C)[C@H](CC[C@H]4[C@@]5(C)CC[C@@H](O)C(C)(C)[C@H]5CC[C@]43C)[C@@H]12
REMARK SMILES IDX 7 1 6 2 33 3 11 4 5 5 15 6 4 7 12 8 16 9 13 10 17 11 31 12
REMARK SMILES IDX 14 13 18 14 30 15 32 16 19 17 29 18 21 19 20 20 28 21 22 22
REMARK SMILES IDX 25 23 23 24 26 25 27 26 8 27 9 28 10 29 2 30 3 31 1 32 24 33
REMARK H PARENT 24 34
REMARK Flexibility Score: inf
ROOT
ATOM      1  C   UNL     1      21.225  31.102  29.465  1.00  0.00     0.014 C 
ATOM      2  C   UNL     1      20.990  30.401  28.124  1.00  0.00     0.014 C 
ATOM      3  C   UNL     1      22.427  30.322  30.020  1.00  0.00     0.012 C 
ATOM      4  C   UNL     1      21.661  32.572  29.351  1.00  0.00     0.014 C 
ATOM      5  C   UNL     1      21.236  28.911  28.416  1.00  0.00     0.009 C 
ATOM      6  C   UNL     1      22.737  30.755  31.480  1.00  0.00     0.000 C 
ATOM      7  C   UNL     1      22.131  28.844  29.679  1.00  0.00     0.018 C 
ATOM      8  C   UNL     1      22.034  33.148  30.744  1.00  0.00     0.008 C 
ATOM      9  C   UNL     1      23.798  29.910  32.165  1.00  0.00     0.005 C 
ATOM     10  C   UNL     1      23.050  32.307  31.635  1.00  0.00    -0.024 C 
ATOM     11  C   UNL     1      25.185  30.210  31.639  1.00  0.00     0.005 C 
ATOM     12  C   UNL     1      24.619  32.736  31.375  1.00  0.00    -0.024 C 
ATOM     13  C   UNL     1      22.672  32.642  33.125  1.00  0.00     0.012 C 
ATOM     14  C   UNL     1      25.655  31.660  31.941  1.00  0.00     0.002 C 
ATOM     15  C   UNL     1      24.938  32.932  29.866  1.00  0.00     0.008 C 
ATOM     16  C   UNL     1      24.843  34.125  32.079  1.00  0.00     0.012 C 
ATOM     17  C   UNL     1      27.221  31.908  31.593  1.00  0.00    -0.026 C 
ATOM     18  C   UNL     1      26.375  33.349  29.532  1.00  0.00     0.005 C 
ATOM     19  C   UNL     1      28.074  30.606  31.828  1.00  0.00     0.010 C 
ATOM     20  C   UNL     1      27.778  32.939  32.636  1.00  0.00     0.012 C 
ATOM     21  C   UNL     1      27.512  32.466  30.124  1.00  0.00     0.003 C 
ATOM     22  C   UNL     1      29.487  30.679  31.258  1.00  0.00     0.033 C 
ATOM     23  C   UNL     1      28.204  31.473  29.087  1.00  0.00    -0.006 C 
ATOM     24  C   UNL     1      29.498  30.825  29.722  1.00  0.00     0.120 C 
ATOM     25  C   UNL     1      28.697  32.250  27.828  1.00  0.00     0.014 C 
ATOM     26  C   UNL     1      27.222  30.389  28.567  1.00  0.00     0.014 C 
ENDROOT
BRANCH   1  27
ATOM     27  C   UNL     1      19.934  30.994  30.286  1.00  0.00     0.048 C 
ATOM     28  O   UNL     1      18.851  31.479  29.867  1.00  0.00    -0.550 OA
ATOM     29  O   UNL     1      19.966  30.462  31.570  1.00  0.00    -0.550 OA
ENDBRANCH   1  27
BRANCH   7  30
ATOM     30  C   UNL     1      23.379  27.988  29.441  1.00  0.00    -0.077 C 
ATOM     31  C   UNL     1      23.239  26.537  29.065  1.00  0.00     0.039 C 
ATOM     32  C   UNL     1      24.618  28.510  29.527  1.00  0.00     0.008 C 
ENDBRANCH   7  30
BRANCH  24  33
ATOM     33  O   UNL     1      29.766  29.576  29.126  1.00  0.00    -0.393 OA
ATOM     34  H   UNL     1      29.816  28.904  29.857  1.00  0.00     0.210 HD
ENDBRANCH  24  33
TORSDOF 3
ENDMDL
MODEL 3
REMARK VINA RESULT:    -0.955      2.909      7.814
REMARK INTER + INTRA:          -0.986
REMARK INTER:                  -1.523
REMARK INTRA:                   0.537
REMARK UNBOUND:                 0.109
REMARK SMILES C=C(C)[C@@H]1CC[C@]2(C(=O)[O-])CC[C@@]3(C)[C@H](CC[C@H]4[C@@]5(C)CC[C@@H](O)C(C)(C)[C@H]5CC[C@]43C)[C@@H]12
REMARK SMILES IDX 7 1 6 2 33 3 11 4 5 5 15 6 4 7 12 8 16 9 13 10 17 11 31 12
REMARK SMILES IDX 14 13 18 14 30 15 32 16 19 17 29 18 21 19 20 20 28 21 22 22
REMARK SMILES IDX 25 23 23 24 26 25 27 26 8 27 9 28 10 29 2 30 3 31 1 32 24 33
REMARK H PARENT 24 34
REMARK Flexibility Score: inf
ROOT
ATOM      1  C   UNL     1      20.603  31.038  29.305  1.00  0.00     0.014 C 
ATOM      2  C   UNL     1      20.523  30.371  27.929  1.00  0.00     0.014 C 
ATOM      3  C   UNL     1      21.780  30.291  29.948  1.00  0.00     0.012 C 
ATOM      4  C   UNL     1      20.984  32.528  29.273  1.00  0.00     0.014 C 
ATOM      5  C   UNL     1      20.805  28.884  28.202  1.00  0.00     0.009 C 
ATOM      6  C   UNL     1      21.935  30.690  31.442  1.00  0.00     0.000 C 
ATOM      7  C   UNL     1      21.581  28.813  29.541  1.00  0.00     0.018 C 
ATOM      8  C   UNL     1      21.201  33.075  30.710  1.00  0.00     0.008 C 
ATOM      9  C   UNL     1      22.964  29.867  32.201  1.00  0.00     0.005 C 
ATOM     10  C   UNL     1      22.166  32.248  31.669  1.00  0.00    -0.024 C 
ATOM     11  C   UNL     1      24.379  30.239  31.816  1.00  0.00     0.005 C 
ATOM     12  C   UNL     1      23.733  32.747  31.568  1.00  0.00    -0.024 C 
ATOM     13  C   UNL     1      21.637  32.521  33.125  1.00  0.00     0.012 C 
ATOM     14  C   UNL     1      24.756  31.697  32.200  1.00  0.00     0.002 C 
ATOM     15  C   UNL     1      24.181  33.003  30.102  1.00  0.00     0.008 C 
ATOM     16  C   UNL     1      23.830  34.121  32.328  1.00  0.00     0.012 C 
ATOM     17  C   UNL     1      26.336  32.018  32.007  1.00  0.00    -0.026 C 
ATOM     18  C   UNL     1      25.623  33.488  29.916  1.00  0.00     0.005 C 
ATOM     19  C   UNL     1      27.219  30.745  32.285  1.00  0.00     0.010 C 
ATOM     20  C   UNL     1      26.750  33.037  33.125  1.00  0.00     0.012 C 
ATOM     21  C   UNL     1      26.738  32.632  30.587  1.00  0.00     0.003 C 
ATOM     22  C   UNL     1      28.674  30.892  31.852  1.00  0.00     0.033 C 
ATOM     23  C   UNL     1      27.565  31.701  29.593  1.00  0.00    -0.006 C 
ATOM     24  C   UNL     1      28.821  31.086  30.329  1.00  0.00     0.120 C 
ATOM     25  C   UNL     1      28.138  32.536  28.407  1.00  0.00     0.014 C 
ATOM     26  C   UNL     1      26.682  30.595  28.954  1.00  0.00     0.014 C 
ENDROOT
BRANCH   1  27
ATOM     27  C   UNL     1      19.248  30.854  29.998  1.00  0.00     0.048 C 
ATOM     28  O   UNL     1      19.160  30.311  31.130  1.00  0.00    -0.550 OA
ATOM     29  O   UNL     1      18.072  31.175  29.329  1.00  0.00    -0.550 OA
ENDBRANCH   1  27
BRANCH   7  30
ATOM     30  C   UNL     1      22.881  28.016  29.398  1.00  0.00    -0.077 C 
ATOM     31  C   UNL     1      22.837  26.516  29.271  1.00  0.00     0.039 C 
ATOM     32  C   UNL     1      24.080  28.627  29.349  1.00  0.00     0.008 C 
ENDBRANCH   7  30
BRANCH  24  33
ATOM     33  O   UNL     1      29.196  29.867  29.727  1.00  0.00    -0.393 OA
ATOM     34  H   UNL     1      29.226  30.019  28.745  1.00  0.00     0.210 HD
ENDBRANCH  24  33
TORSDOF 3
ENDMDL
MODEL 4
REMARK VINA RESULT:    -0.540      1.018      1.232
REMARK INTER + INTRA:          -0.510
REMARK INTER:                  -2.251
REMARK INTRA:                   1.741
REMARK UNBOUND:                 0.109
REMARK SMILES C=C(C)[C@@H]1CC[C@]2(C(=O)[O-])CC[C@@]3(C)[C@H](CC[C@H]4[C@@]5(C)CC[C@@H](O)C(C)(C)[C@H]5CC[C@]43C)[C@@H]12
REMARK SMILES IDX 7 1 6 2 33 3 11 4 5 5 15 6 4 7 12 8 16 9 13 10 17 11 31 12
REMARK SMILES IDX 14 13 18 14 30 15 32 16 19 17 29 18 21 19 20 20 28 21 22 22
REMARK SMILES IDX 25 23 23 24 26 25 27 26 8 27 9 28 10 29 2 30 3 31 1 32 24 33
REMARK H PARENT 24 34
REMARK Flexibility Score: inf
ROOT
ATOM      1  C   UNL     1      23.598  30.485  31.705  1.00  0.00     0.014 C 
ATOM      2  C   UNL     1      24.000  29.033  31.980  1.00  0.00     0.014 C 
ATOM      3  C   UNL     1      22.477  30.310  30.670  1.00  0.00     0.012 C 
ATOM      4  C   UNL     1      22.983  31.218  32.908  1.00  0.00     0.014 C 
ATOM      5  C   UNL     1      23.932  28.344  30.607  1.00  0.00     0.009 C 
ATOM      6  C   UNL     1      22.030  31.687  30.105  1.00  0.00     0.000 C 
ATOM      7  C   UNL     1      22.981  29.194  29.726  1.00  0.00     0.018 C 
ATOM      8  C   UNL     1      22.459  32.620  32.494  1.00  0.00     0.008 C 
ATOM      9  C   UNL     1      21.048  31.593  28.948  1.00  0.00     0.005 C 
ATOM     10  C   UNL     1      21.509  32.697  31.218  1.00  0.00    -0.024 C 
ATOM     11  C   UNL     1      19.667  31.182  29.411  1.00  0.00     0.005 C 
ATOM     12  C   UNL     1      19.916  32.551  31.610  1.00  0.00    -0.024 C 
ATOM     13  C   UNL     1      21.754  34.125  30.605  1.00  0.00     0.012 C 
ATOM     14  C   UNL     1      18.997  32.229  30.344  1.00  0.00     0.002 C 
ATOM     15  C   UNL     1      19.663  31.433  32.660  1.00  0.00     0.008 C 
ATOM     16  C   UNL     1      19.474  33.911  32.267  1.00  0.00     0.012 C 
ATOM     17  C   UNL     1      17.435  31.906  30.646  1.00  0.00    -0.026 C 
ATOM     18  C   UNL     1      18.206  31.238  33.095  1.00  0.00     0.005 C 
ATOM     19  C   UNL     1      16.745  31.208  29.415  1.00  0.00     0.010 C 
ATOM     20  C   UNL     1      16.689  33.278  30.791  1.00  0.00     0.012 C 
ATOM     21  C   UNL     1      17.160  31.038  31.959  1.00  0.00     0.003 C 
ATOM     22  C   UNL     1      15.370  30.624  29.723  1.00  0.00     0.033 C 
ATOM     23  C   UNL     1      16.664  29.537  31.756  1.00  0.00    -0.006 C 
ATOM     24  C   UNL     1      15.429  29.493  30.770  1.00  0.00     0.120 C 
ATOM     25  C   UNL     1      16.149  28.942  33.102  1.00  0.00     0.014 C 
ATOM     26  C   UNL     1      17.806  28.601  31.279  1.00  0.00     0.014 C 
ENDROOT
BRANCH   1  27
ATOM     27  C   UNL     1      24.842  31.232  31.209  1.00  0.00     0.048 C 
ATOM     28  O   UNL     1      25.083  31.357  29.980  1.00  0.00    -0.550 OA
ATOM     29  O   UNL     1      25.794  31.682  32.116  1.00  0.00    -0.550 OA
ENDBRANCH   1  27
BRANCH   7  30
ATOM     30  C   UNL     1      21.870  28.339  29.108  1.00  0.00    -0.077 C 
ATOM     31  C   UNL     1      22.170  26.945  28.626  1.00  0.00     0.039 C 
ATOM     32  C   UNL     1      20.605  28.791  29.012  1.00  0.00     0.008 C 
ENDBRANCH   7  30
BRANCH  24  33
ATOM     33  O   UNL     1      15.361  28.242  30.124  1.00  0.00    -0.393 OA
ATOM     34  H   UNL     1      15.867  27.593  30.682  1.00  0.00     0.210 HD
ENDBRANCH  24  33
TORSDOF 3
ENDMDL
MODEL 5
REMARK VINA RESULT:    -0.022      2.067      4.653
REMARK INTER + INTRA:           0.084
REMARK INTER:                   0.483
REMARK INTRA:                  -0.400
REMARK UNBOUND:                 0.109
REMARK SMILES C=C(C)[C@@H]1CC[C@]2(C(=O)[O-])CC[C@@]3(C)[C@H](CC[C@H]4[C@@]5(C)CC[C@@H](O)C(C)(C)[C@H]5CC[C@]43C)[C@@H]12
REMARK SMILES IDX 7 1 6 2 33 3 11 4 5 5 15 6 4 7 12 8 16 9 13 10 17 11 31 12
REMARK SMILES IDX 14 13 18 14 30 15 32 16 19 17 29 18 21 19 20 20 28 21 22 22
REMARK SMILES IDX 25 23 23 24 26 25 27 26 8 27 9 28 10 29 2 30 3 31 1 32 24 33
REMARK H PARENT 24 34
REMARK Flexibility Score: inf
ROOT
ATOM      1  C   UNL     1      24.563  30.675  29.885  1.00  0.00     0.014 C 
ATOM      2  C   UNL     1      25.077  31.951  29.213  1.00  0.00     0.014 C 
ATOM      3  C   UNL     1      23.539  31.235  30.882  1.00  0.00     0.012 C 
ATOM      4  C   UNL     1      23.802  29.721  28.951  1.00  0.00     0.014 C 
ATOM      5  C   UNL     1      25.167  32.980  30.352  1.00  0.00     0.009 C 
ATOM      6  C   UNL     1      23.007  30.112  31.815  1.00  0.00     0.000 C 
ATOM      7  C   UNL     1      24.207  32.500  31.469  1.00  0.00     0.018 C 
ATOM      8  C   UNL     1      23.181  28.542  29.749  1.00  0.00     0.008 C 
ATOM      9  C   UNL     1      22.122  30.611  32.946  1.00  0.00     0.005 C 
ATOM     10  C   UNL     1      22.320  28.905  31.038  1.00  0.00    -0.024 C 
ATOM     11  C   UNL     1      20.755  31.030  32.449  1.00  0.00     0.005 C 
ATOM     12  C   UNL     1      20.723  29.112  30.690  1.00  0.00    -0.024 C 
ATOM     13  C   UNL     1      22.475  27.671  32.002  1.00  0.00     0.012 C 
ATOM     14  C   UNL     1      19.928  29.852  31.861  1.00  0.00     0.002 C 
ATOM     15  C   UNL     1      20.501  29.935  29.390  1.00  0.00     0.008 C 
ATOM     16  C   UNL     1      20.114  27.683  30.443  1.00  0.00     0.012 C 
ATOM     17  C   UNL     1      18.385  30.250  31.551  1.00  0.00    -0.026 C 
ATOM     18  C   UNL     1      19.041  30.162  28.981  1.00  0.00     0.005 C 
ATOM     19  C   UNL     1      17.849  31.316  32.577  1.00  0.00     0.010 C 
ATOM     20  C   UNL     1      17.509  28.975  31.812  1.00  0.00     0.012 C 
ATOM     21  C   UNL     1      18.100  30.765  30.065  1.00  0.00     0.003 C 
ATOM     22  C   UNL     1      16.516  31.943  32.182  1.00  0.00     0.033 C 
ATOM     23  C   UNL     1      17.759  32.311  29.878  1.00  0.00    -0.006 C 
ATOM     24  C   UNL     1      16.605  32.745  30.868  1.00  0.00     0.120 C 
ATOM     25  C   UNL     1      17.207  32.582  28.445  1.00  0.00     0.014 C 
ATOM     26  C   UNL     1      19.013  33.212  30.036  1.00  0.00     0.014 C 
ENDROOT
BRANCH   1  27
ATOM     27  C   UNL     1      25.765  29.956  30.510  1.00  0.00     0.048 C 
ATOM     28  O   UNL     1      25.806  29.699  31.742  1.00  0.00    -0.550 OA
ATOM     29  O   UNL     1      26.892  29.682  29.743  1.00  0.00    -0.550 OA
ENDBRANCH   1  27
BRANCH   7  30
ATOM     30  C   UNL     1      23.225  33.600  31.881  1.00  0.00    -0.077 C 
ATOM     31  C   UNL     1      22.201  34.105  30.898  1.00  0.00     0.039 C 
ATOM     32  C   UNL     1      23.226  34.115  33.125  1.00  0.00     0.008 C 
ENDBRANCH   7  30
BRANCH  24  33
ATOM     33  O   UNL     1      16.697  34.122  31.156  1.00  0.00    -0.393 OA
ATOM     34  H   UNL     1      16.477  34.239  32.118  1.00  0.00     0.210 HD
ENDBRANCH  24  33
TORSDOF 3
ENDMDL
