MODEL 1
REMARK VINA RESULT:    -4.627      0.000      0.000
REMARK INTER + INTRA:          -6.057
REMARK INTER:                  -5.980
REMARK INTRA:                  -0.078
REMARK UNBOUND:                -0.078
REMARK SMILES CCCCCCC(=O)[O-]
REMARK SMILES IDX 5 1 6 2 7 3 8 4 9 5 4 6 3 7 2 8 1 9
REMARK H PARENT
REMARK Flexibility Score: inf
ROOT
ATOM      1  C   UNL     1      88.053 324.730 193.227  1.00  0.00     0.006 C 
ENDROOT
BRANCH   1   2
ATOM      2  C   UNL     1      87.851 326.155 193.771  1.00  0.00     0.053 C 
BRANCH   2   3
ATOM      3  C   UNL     1      87.701 326.189 195.262  1.00  0.00     0.041 C 
ATOM      4  O   UNL     1      86.578 325.992 195.794  1.00  0.00    -0.550 OA
ATOM      5  O   UNL     1      88.812 326.407 196.067  1.00  0.00    -0.550 OA
ENDBRANCH   2   3
ENDBRANCH   1   2
BRANCH   1   6
ATOM      6  C   UNL     1      88.033 324.640 191.690  1.00  0.00     0.000 C 
BRANCH   6   7
ATOM      7  C   UNL     1      88.442 323.254 191.163  1.00  0.00    -0.000 C 
BRANCH   7   8
ATOM      8  C   UNL     1      88.327 323.149 189.634  1.00  0.00    -0.003 C 
ATOM      9  C   UNL     1      89.623 323.526 188.917  1.00  0.00     0.004 C 
ENDBRANCH   7   8
ENDBRANCH   6   7
ENDBRANCH   1   6
TORSDOF 5
ENDMDL
MODEL 2
REMARK VINA RESULT:    -4.604     19.396     20.599
REMARK INTER + INTRA:          -6.028
REMARK INTER:                  -5.775
REMARK INTRA:                  -0.252
REMARK UNBOUND:                -0.078
REMARK SMILES CCCCCCC(=O)[O-]
REMARK SMILES IDX 5 1 6 2 7 3 8 4 9 5 4 6 3 7 2 8 1 9
REMARK H PARENT
REMARK Flexibility Score: inf
ROOT
ATOM      1  C   UNL     1     105.345 311.670 193.048  1.00  0.00     0.006 C 
ENDROOT
BRANCH   1   2
ATOM      2  C   UNL     1     105.607 311.832 194.556  1.00  0.00     0.053 C 
BRANCH   2   3
ATOM      3  C   UNL     1     104.420 312.371 195.295  1.00  0.00     0.041 C 
ATOM      4  O   UNL     1     103.895 311.709 196.228  1.00  0.00    -0.550 OA
ATOM      5  O   UNL     1     103.911 313.623 194.973  1.00  0.00    -0.550 OA
ENDBRANCH   2   3
ENDBRANCH   1   2
BRANCH   1   6
ATOM      6  C   UNL     1     106.125 312.666 192.169  1.00  0.00     0.000 C 
BRANCH   6   7
ATOM      7  C   UNL     1     105.259 313.835 191.671  1.00  0.00    -0.000 C 
BRANCH   7   8
ATOM      8  C   UNL     1     103.932 313.364 191.056  1.00  0.00    -0.003 C 
ATOM      9  C   UNL     1     103.435 314.289 189.946  1.00  0.00     0.004 C 
ENDBRANCH   7   8
ENDBRANCH   6   7
ENDBRANCH   1   6
TORSDOF 5
ENDMDL
MODEL 3
REMARK VINA RESULT:    -4.599     19.094     20.384
REMARK INTER + INTRA:          -6.021
REMARK INTER:                  -5.651
REMARK INTRA:                  -0.370
REMARK UNBOUND:                -0.078
REMARK SMILES CCCCCCC(=O)[O-]
REMARK SMILES IDX 5 1 6 2 7 3 8 4 9 5 4 6 3 7 2 8 1 9
REMARK H PARENT
REMARK Flexibility Score: inf
ROOT
ATOM      1  C   UNL     1     105.967 312.316 192.545  1.00  0.00     0.006 C 
ENDROOT
BRANCH   1   2
ATOM      2  C   UNL     1     104.735 311.604 193.130  1.00  0.00     0.053 C 
BRANCH   2   3
ATOM      3  C   UNL     1     104.380 312.095 194.501  1.00  0.00     0.041 C 
ATOM      4  O   UNL     1     103.519 311.489 195.191  1.00  0.00    -0.550 OA
ATOM      5  O   UNL     1     105.025 313.205 195.030  1.00  0.00    -0.550 OA
ENDBRANCH   2   3
ENDBRANCH   1   2
BRANCH   1   6
ATOM      6  C   UNL     1     105.624 313.465 191.579  1.00  0.00     0.000 C 
BRANCH   6   7
ATOM      7  C   UNL     1     104.174 313.409 191.069  1.00  0.00    -0.000 C 
BRANCH   7   8
ATOM      8  C   UNL     1     103.459 314.765 191.179  1.00  0.00    -0.003 C 
ATOM      9  C   UNL     1     103.495 315.338 192.594  1.00  0.00     0.004 C 
ENDBRANCH   7   8
ENDBRANCH   6   7
ENDBRANCH   1   6
TORSDOF 5
ENDMDL
MODEL 4
REMARK VINA RESULT:    -4.560     19.240     20.398
REMARK INTER + INTRA:          -5.970
REMARK INTER:                  -5.755
REMARK INTRA:                  -0.215
REMARK UNBOUND:                -0.078
REMARK SMILES CCCCCCC(=O)[O-]
REMARK SMILES IDX 5 1 6 2 7 3 8 4 9 5 4 6 3 7 2 8 1 9
REMARK H PARENT
REMARK Flexibility Score: inf
ROOT
ATOM      1  C   UNL     1     105.853 312.445 192.547  1.00  0.00     0.006 C 
ENDROOT
BRANCH   1   2
ATOM      2  C   UNL     1     104.713 311.660 193.221  1.00  0.00     0.053 C 
BRANCH   2   3
ATOM      3  C   UNL     1     104.404 312.159 194.599  1.00  0.00     0.041 C 
ATOM      4  O   UNL     1     104.933 313.219 195.027  1.00  0.00    -0.550 OA
ATOM      5  O   UNL     1     103.504 311.470 195.403  1.00  0.00    -0.550 OA
ENDBRANCH   2   3
ENDBRANCH   1   2
BRANCH   1   6
ATOM      6  C   UNL     1     105.373 313.464 191.497  1.00  0.00     0.000 C 
BRANCH   6   7
ATOM      7  C   UNL     1     103.898 313.274 191.104  1.00  0.00    -0.000 C 
BRANCH   7   8
ATOM      8  C   UNL     1     103.421 314.320 190.084  1.00  0.00    -0.003 C 
ATOM      9  C   UNL     1     104.576 315.086 189.441  1.00  0.00     0.004 C 
ENDBRANCH   7   8
ENDBRANCH   6   7
ENDBRANCH   1   6
TORSDOF 5
ENDMDL
MODEL 5
REMARK VINA RESULT:    -4.558      2.983      5.304
REMARK INTER + INTRA:          -5.969
REMARK INTER:                  -5.769
REMARK INTRA:                  -0.199
REMARK UNBOUND:                -0.078
REMARK SMILES CCCCCCC(=O)[O-]
REMARK SMILES IDX 5 1 6 2 7 3 8 4 9 5 4 6 3 7 2 8 1 9
REMARK H PARENT
REMARK Flexibility Score: inf
ROOT
ATOM      1  C   UNL     1      88.136 324.388 192.990  1.00  0.00     0.006 C 
ENDROOT
BRANCH   1   2
ATOM      2  C   UNL     1      88.125 324.191 191.463  1.00  0.00     0.053 C 
BRANCH   2   3
ATOM      3  C   UNL     1      86.976 323.349 190.997  1.00  0.00     0.041 C 
ATOM      4  O   UNL     1      85.877 323.376 191.611  1.00  0.00    -0.550 OA
ATOM      5  O   UNL     1      87.109 322.557 189.864  1.00  0.00    -0.550 OA
ENDBRANCH   2   3
ENDBRANCH   1   2
BRANCH   1   6
ATOM      6  C   UNL     1      87.757 325.812 193.438  1.00  0.00     0.000 C 
BRANCH   6   7
ATOM      7  C   UNL     1      86.353 325.892 194.061  1.00  0.00    -0.000 C 
BRANCH   7   8
ATOM      8  C   UNL     1      86.388 326.328 195.535  1.00  0.00    -0.003 C 
ATOM      9  C   UNL     1      87.738 326.059 196.197  1.00  0.00     0.004 C 
ENDBRANCH   7   8
ENDBRANCH   6   7
ENDBRANCH   1   6
TORSDOF 5
ENDMDL
MODEL 6
REMARK VINA RESULT:    -4.543      0.795      1.369
REMARK INTER + INTRA:          -5.948
REMARK INTER:                  -5.822
REMARK INTRA:                  -0.126
REMARK UNBOUND:                -0.078
REMARK SMILES CCCCCCC(=O)[O-]
REMARK SMILES IDX 5 1 6 2 7 3 8 4 9 5 4 6 3 7 2 8 1 9
REMARK H PARENT
REMARK Flexibility Score: inf
ROOT
ATOM      1  C   UNL     1      86.516 325.040 193.181  1.00  0.00     0.006 C 
ENDROOT
BRANCH   1   2
ATOM      2  C   UNL     1      87.776 325.781 193.664  1.00  0.00     0.053 C 
BRANCH   2   3
ATOM      3  C   UNL     1      87.695 326.179 195.106  1.00  0.00     0.041 C 
ATOM      4  O   UNL     1      88.741 326.458 195.749  1.00  0.00    -0.550 OA
ATOM      5  O   UNL     1      86.459 326.274 195.733  1.00  0.00    -0.550 OA
ENDBRANCH   2   3
ENDBRANCH   1   2
BRANCH   1   6
ATOM      6  C   UNL     1      86.774 324.066 192.016  1.00  0.00     0.000 C 
BRANCH   6   7
ATOM      7  C   UNL     1      88.166 324.237 191.385  1.00  0.00    -0.000 C 
BRANCH   7   8
ATOM      8  C   UNL     1      88.400 323.279 190.206  1.00  0.00    -0.003 C 
ATOM      9  C   UNL     1      89.481 323.776 189.248  1.00  0.00     0.004 C 
ENDBRANCH   7   8
ENDBRANCH   6   7
ENDBRANCH   1   6
TORSDOF 5
ENDMDL
MODEL 7
REMARK VINA RESULT:    -4.539     19.577     20.830
REMARK INTER + INTRA:          -5.943
REMARK INTER:                  -5.747
REMARK INTRA:                  -0.196
REMARK UNBOUND:                -0.078
REMARK SMILES CCCCCCC(=O)[O-]
REMARK SMILES IDX 5 1 6 2 7 3 8 4 9 5 4 6 3 7 2 8 1 9
REMARK H PARENT
REMARK Flexibility Score: inf
ROOT
ATOM      1  C   UNL     1     103.890 313.709 192.086  1.00  0.00     0.006 C 
ENDROOT
BRANCH   1   2
ATOM      2  C   UNL     1     103.814 313.893 190.560  1.00  0.00     0.053 C 
BRANCH   2   3
ATOM      3  C   UNL     1     104.972 314.672 190.013  1.00  0.00     0.041 C 
ATOM      4  O   UNL     1     106.099 314.615 190.571  1.00  0.00    -0.550 OA
ATOM      5  O   UNL     1     104.813 315.439 188.866  1.00  0.00    -0.550 OA
ENDBRANCH   2   3
ENDBRANCH   1   2
BRANCH   1   6
ATOM      6  C   UNL     1     104.241 312.275 192.525  1.00  0.00     0.000 C 
BRANCH   6   7
ATOM      7  C   UNL     1     105.693 312.134 193.013  1.00  0.00    -0.000 C 
BRANCH   7   8
ATOM      8  C   UNL     1     105.781 311.806 194.512  1.00  0.00    -0.003 C 
ATOM      9  C   UNL     1     104.440 311.958 195.229  1.00  0.00     0.004 C 
ENDBRANCH   7   8
ENDBRANCH   6   7
ENDBRANCH   1   6
TORSDOF 5
ENDMDL
MODEL 8
REMARK VINA RESULT:    -4.521      1.163      1.772
REMARK INTER + INTRA:          -5.921
REMARK INTER:                  -5.727
REMARK INTRA:                  -0.194
REMARK UNBOUND:                -0.078
REMARK SMILES CCCCCCC(=O)[O-]
REMARK SMILES IDX 5 1 6 2 7 3 8 4 9 5 4 6 3 7 2 8 1 9
REMARK H PARENT
REMARK Flexibility Score: inf
ROOT
ATOM      1  C   UNL     1      86.421 325.629 194.034  1.00  0.00     0.006 C 
ENDROOT
BRANCH   1   2
ATOM      2  C   UNL     1      86.589 326.208 195.450  1.00  0.00     0.053 C 
BRANCH   2   3
ATOM      3  C   UNL     1      87.810 325.689 196.146  1.00  0.00     0.041 C 
ATOM      4  O   UNL     1      87.893 324.474 196.466  1.00  0.00    -0.550 OA
ATOM      5  O   UNL     1      88.873 326.542 196.414  1.00  0.00    -0.550 OA
ENDBRANCH   2   3
ENDBRANCH   1   2
BRANCH   1   6
ATOM      6  C   UNL     1      87.709 325.658 193.191  1.00  0.00     0.000 C 
BRANCH   6   7
ATOM      7  C   UNL     1      88.153 324.262 192.722  1.00  0.00    -0.000 C 
BRANCH   7   8
ATOM      8  C   UNL     1      87.549 323.880 191.361  1.00  0.00    -0.003 C 
ATOM      9  C   UNL     1      88.612 323.527 190.322  1.00  0.00     0.004 C 
ENDBRANCH   7   8
ENDBRANCH   6   7
ENDBRANCH   1   6
TORSDOF 5
ENDMDL
MODEL 9
REMARK VINA RESULT:    -4.463      3.098      5.131
REMARK INTER + INTRA:          -5.845
REMARK INTER:                  -5.584
REMARK INTRA:                  -0.261
REMARK UNBOUND:                -0.078
REMARK SMILES CCCCCCC(=O)[O-]
REMARK SMILES IDX 5 1 6 2 7 3 8 4 9 5 4 6 3 7 2 8 1 9
REMARK H PARENT
REMARK Flexibility Score: inf
ROOT
ATOM      1  C   UNL     1      86.544 325.076 193.187  1.00  0.00     0.006 C 
ENDROOT
BRANCH   1   2
ATOM      2  C   UNL     1      87.874 324.721 192.498  1.00  0.00     0.053 C 
BRANCH   2   3
ATOM      3  C   UNL     1      87.683 323.893 191.264  1.00  0.00     0.041 C 
ATOM      4  O   UNL     1      86.579 323.332 191.038  1.00  0.00    -0.550 OA
ATOM      5  O   UNL     1      88.717 323.767 190.345  1.00  0.00    -0.550 OA
ENDBRANCH   2   3
ENDBRANCH   1   2
BRANCH   1   6
ATOM      6  C   UNL     1      86.662 326.208 194.224  1.00  0.00     0.000 C 
BRANCH   6   7
ATOM      7  C   UNL     1      88.119 326.585 194.541  1.00  0.00    -0.000 C 
BRANCH   7   8
ATOM      8  C   UNL     1      88.506 326.268 195.994  1.00  0.00    -0.003 C 
ATOM      9  C   UNL     1      88.595 324.767 196.267  1.00  0.00     0.004 C 
ENDBRANCH   7   8
ENDBRANCH   6   7
ENDBRANCH   1   6
TORSDOF 5
ENDMDL
