MODEL 1
REMARK VINA RESULT:    -4.921      0.000      0.000
REMARK INTER + INTRA:          -6.645
REMARK INTER:                  -6.215
REMARK INTRA:                  -0.429
REMARK UNBOUND:                -0.429
REMARK SMILES CC(C)=CCCC(C)=CCO
REMARK SMILES IDX 7 1 9 2 8 3 6 4 5 5 4 6 1 7 2 8 3 9 10 10 11 11
REMARK H PARENT 11 12
REMARK Flexibility Score: inf
ROOT
ATOM      1  C   UNL     1     -44.683  46.342 -20.776  1.00  0.00    -0.075 C 
ATOM      2  C   UNL     1     -45.707  46.835 -20.043  1.00  0.00    -0.000 C 
ATOM      3  C   UNL     1     -44.892  45.835 -22.183  1.00  0.00     0.039 C 
ENDROOT
BRANCH   1   4
ATOM      4  C   UNL     1     -43.294  46.320 -20.178  1.00  0.00     0.034 C 
BRANCH   4   5
ATOM      5  C   UNL     1     -42.426  45.254 -20.855  1.00  0.00     0.032 C 
BRANCH   5   6
ATOM      6  C   UNL     1     -41.156  45.862 -21.397  1.00  0.00    -0.028 C 
ATOM      7  C   UNL     1     -39.354  46.265 -23.018  1.00  0.00     0.039 C 
ATOM      8  C   UNL     1     -40.655  45.614 -22.627  1.00  0.00    -0.080 C 
ATOM      9  C   UNL     1     -41.370  44.724 -23.617  1.00  0.00     0.039 C 
ENDBRANCH   5   6
ENDBRANCH   4   5
ENDBRANCH   1   4
BRANCH   2  10
ATOM     10  C   UNL     1     -47.127  46.916 -20.532  1.00  0.00     0.183 C 
BRANCH  10  11
ATOM     11  O   UNL     1     -47.463  48.249 -20.798  1.00  0.00    -0.392 OA
ATOM     12  H   UNL     1     -47.439  48.718 -19.923  1.00  0.00     0.210 HD
ENDBRANCH  10  11
ENDBRANCH   2  10
TORSDOF 5
ENDMDL
MODEL 2
REMARK VINA RESULT:    -4.892      1.189      1.961
REMARK INTER + INTRA:          -6.608
REMARK INTER:                  -6.147
REMARK INTRA:                  -0.461
REMARK UNBOUND:                -0.429
REMARK SMILES CC(C)=CCCC(C)=CCO
REMARK SMILES IDX 7 1 9 2 8 3 6 4 5 5 4 6 1 7 2 8 3 9 10 10 11 11
REMARK H PARENT 11 12
REMARK Flexibility Score: inf
ROOT
ATOM      1  C   UNL     1     -44.234  45.891 -21.627  1.00  0.00    -0.075 C 
ATOM      2  C   UNL     1     -45.533  45.545 -21.480  1.00  0.00    -0.000 C 
ATOM      3  C   UNL     1     -43.437  46.473 -20.483  1.00  0.00     0.039 C 
ENDROOT
BRANCH   1   4
ATOM      4  C   UNL     1     -43.560  45.669 -22.963  1.00  0.00     0.034 C 
BRANCH   4   5
ATOM      5  C   UNL     1     -42.350  44.739 -22.815  1.00  0.00     0.032 C 
BRANCH   5   6
ATOM      6  C   UNL     1     -41.104  45.391 -23.359  1.00  0.00    -0.028 C 
ATOM      7  C   UNL     1     -38.865  46.401 -23.289  1.00  0.00     0.039 C 
ATOM      8  C   UNL     1     -40.025  45.718 -22.614  1.00  0.00    -0.080 C 
ATOM      9  C   UNL     1     -39.947  45.401 -21.138  1.00  0.00     0.039 C 
ENDBRANCH   5   6
ENDBRANCH   4   5
ENDBRANCH   1   4
BRANCH   2  10
ATOM     10  C   UNL     1     -46.306  45.711 -20.201  1.00  0.00     0.183 C 
BRANCH  10  11
ATOM     11  O   UNL     1     -47.552  46.290 -20.470  1.00  0.00    -0.392 OA
ATOM     12  H   UNL     1     -47.776  46.037 -21.403  1.00  0.00     0.210 HD
ENDBRANCH  10  11
ENDBRANCH   2  10
TORSDOF 5
ENDMDL
MODEL 3
REMARK VINA RESULT:    -4.767      1.480      1.835
REMARK INTER + INTRA:          -6.451
REMARK INTER:                  -5.892
REMARK INTRA:                  -0.559
REMARK UNBOUND:                -0.429
REMARK SMILES CC(C)=CCCC(C)=CCO
REMARK SMILES IDX 7 1 9 2 8 3 6 4 5 5 4 6 1 7 2 8 3 9 10 10 11 11
REMARK H PARENT 11 12
REMARK Flexibility Score: inf
ROOT
ATOM      1  C   UNL     1     -44.685  45.522 -20.224  1.00  0.00    -0.075 C 
ATOM      2  C   UNL     1     -46.022  45.603 -20.415  1.00  0.00    -0.000 C 
ATOM      3  C   UNL     1     -43.835  46.760 -20.061  1.00  0.00     0.039 C 
ENDROOT
BRANCH   1   4
ATOM      4  C   UNL     1     -44.034  44.159 -20.149  1.00  0.00     0.034 C 
BRANCH   4   5
ATOM      5  C   UNL     1     -43.663  43.654 -21.548  1.00  0.00     0.032 C 
BRANCH   5   6
ATOM      6  C   UNL     1     -42.350  44.243 -21.999  1.00  0.00    -0.028 C 
ATOM      7  C   UNL     1     -40.823  45.537 -23.424  1.00  0.00     0.039 C 
ATOM      8  C   UNL     1     -42.205  45.055 -23.069  1.00  0.00    -0.080 C 
ATOM      9  C   UNL     1     -43.385  45.502 -23.900  1.00  0.00     0.039 C 
ENDBRANCH   5   6
ENDBRANCH   4   5
ENDBRANCH   1   4
BRANCH   2  10
ATOM     10  C   UNL     1     -46.781  46.898 -20.498  1.00  0.00     0.183 C 
BRANCH  10  11
ATOM     11  O   UNL     1     -48.127  46.643 -20.785  1.00  0.00    -0.392 OA
ATOM     12  H   UNL     1     -48.167  46.437 -21.755  1.00  0.00     0.210 HD
ENDBRANCH  10  11
ENDBRANCH   2  10
TORSDOF 5
ENDMDL
MODEL 4
REMARK VINA RESULT:    -4.713      2.995      5.630
REMARK INTER + INTRA:          -6.382
REMARK INTER:                  -5.817
REMARK INTRA:                  -0.565
REMARK UNBOUND:                -0.429
REMARK SMILES CC(C)=CCCC(C)=CCO
REMARK SMILES IDX 7 1 9 2 8 3 6 4 5 5 4 6 1 7 2 8 3 9 10 10 11 11
REMARK H PARENT 11 12
REMARK Flexibility Score: inf
ROOT
ATOM      1  C   UNL     1     -41.605  44.576 -22.712  1.00  0.00    -0.075 C 
ATOM      2  C   UNL     1     -40.987  45.760 -22.924  1.00  0.00    -0.000 C 
ATOM      3  C   UNL     1     -40.919  43.446 -21.983  1.00  0.00     0.039 C 
ENDROOT
BRANCH   1   4
ATOM      4  C   UNL     1     -43.025  44.390 -23.200  1.00  0.00     0.034 C 
BRANCH   4   5
ATOM      5  C   UNL     1     -43.814  45.700 -23.094  1.00  0.00     0.032 C 
BRANCH   5   6
ATOM      6  C   UNL     1     -44.955  45.561 -22.118  1.00  0.00    -0.028 C 
ATOM      7  C   UNL     1     -46.105  45.687 -19.950  1.00  0.00     0.039 C 
ATOM      8  C   UNL     1     -44.896  45.921 -20.817  1.00  0.00    -0.080 C 
ATOM      9  C   UNL     1     -43.665  46.563 -20.220  1.00  0.00     0.039 C 
ENDBRANCH   5   6
ENDBRANCH   4   5
ENDBRANCH   1   4
BRANCH   2  10
ATOM     10  C   UNL     1     -39.583  46.065 -22.480  1.00  0.00     0.183 C 
BRANCH  10  11
ATOM     11  O   UNL     1     -38.815  46.474 -23.577  1.00  0.00    -0.392 OA
ATOM     12  H   UNL     1     -39.391  47.089 -24.101  1.00  0.00     0.210 HD
ENDBRANCH  10  11
ENDBRANCH   2  10
TORSDOF 5
ENDMDL
MODEL 5
REMARK VINA RESULT:    -4.704     17.436     18.624
REMARK INTER + INTRA:          -6.371
REMARK INTER:                  -6.047
REMARK INTRA:                  -0.324
REMARK UNBOUND:                -0.429
REMARK SMILES CC(C)=CCCC(C)=CCO
REMARK SMILES IDX 7 1 9 2 8 3 6 4 5 5 4 6 1 7 2 8 3 9 10 10 11 11
REMARK H PARENT 11 12
REMARK Flexibility Score: inf
ROOT
ATOM      1  C   UNL     1     -40.368  57.047  -7.107  1.00  0.00    -0.075 C 
ATOM      2  C   UNL     1     -39.863  57.700  -8.178  1.00  0.00    -0.000 C 
ATOM      3  C   UNL     1     -41.556  56.122  -7.234  1.00  0.00     0.039 C 
ENDROOT
BRANCH   1   4
ATOM      4  C   UNL     1     -39.713  57.232  -5.756  1.00  0.00     0.034 C 
BRANCH   4   5
ATOM      5  C   UNL     1     -38.449  56.372  -5.641  1.00  0.00     0.032 C 
BRANCH   5   6
ATOM      6  C   UNL     1     -38.752  55.064  -4.954  1.00  0.00    -0.028 C 
ATOM      7  C   UNL     1     -38.329  52.781  -4.150  1.00  0.00     0.039 C 
ATOM      8  C   UNL     1     -37.872  54.046  -4.829  1.00  0.00    -0.080 C 
ATOM      9  C   UNL     1     -36.451  54.150  -5.331  1.00  0.00     0.039 C 
ENDBRANCH   5   6
ENDBRANCH   4   5
ENDBRANCH   1   4
BRANCH   2  10
ATOM     10  C   UNL     1     -40.423  57.590  -9.569  1.00  0.00     0.183 C 
BRANCH  10  11
ATOM     11  O   UNL     1     -41.182  58.728  -9.868  1.00  0.00    -0.392 OA
ATOM     12  H   UNL     1     -40.679  59.217 -10.570  1.00  0.00     0.210 HD
ENDBRANCH  10  11
ENDBRANCH   2  10
TORSDOF 5
ENDMDL
MODEL 6
REMARK VINA RESULT:    -4.651     17.993     19.530
REMARK INTER + INTRA:          -6.304
REMARK INTER:                  -5.750
REMARK INTRA:                  -0.554
REMARK UNBOUND:                -0.429
REMARK SMILES CC(C)=CCCC(C)=CCO
REMARK SMILES IDX 7 1 9 2 8 3 6 4 5 5 4 6 1 7 2 8 3 9 10 10 11 11
REMARK H PARENT 11 12
REMARK Flexibility Score: inf
ROOT
ATOM      1  C   UNL     1     -39.816  57.761  -6.192  1.00  0.00    -0.075 C 
ATOM      2  C   UNL     1     -40.335  58.300  -7.319  1.00  0.00    -0.000 C 
ATOM      3  C   UNL     1     -38.488  57.041  -6.200  1.00  0.00     0.039 C 
ENDROOT
BRANCH   1   4
ATOM      4  C   UNL     1     -40.575  57.903  -4.892  1.00  0.00     0.034 C 
BRANCH   4   5
ATOM      5  C   UNL     1     -42.086  57.933  -5.142  1.00  0.00     0.032 C 
BRANCH   5   6
ATOM      6  C   UNL     1     -42.750  56.709  -4.564  1.00  0.00    -0.028 C 
ATOM      7  C   UNL     1     -43.689  54.438  -4.550  1.00  0.00     0.039 C 
ATOM      8  C   UNL     1     -42.980  55.568  -5.250  1.00  0.00    -0.080 C 
ATOM      9  C   UNL     1     -42.532  55.392  -6.682  1.00  0.00     0.039 C 
ENDBRANCH   5   6
ENDBRANCH   4   5
ENDBRANCH   1   4
BRANCH   2  10
ATOM     10  C   UNL     1     -39.670  58.230  -8.666  1.00  0.00     0.183 C 
BRANCH  10  11
ATOM     11  O   UNL     1     -38.954  59.409  -8.905  1.00  0.00    -0.392 OA
ATOM     12  H   UNL     1     -38.223  59.165  -9.530  1.00  0.00     0.210 HD
ENDBRANCH  10  11
ENDBRANCH   2  10
TORSDOF 5
ENDMDL
MODEL 7
REMARK VINA RESULT:    -4.590      3.007      5.509
REMARK INTER + INTRA:          -6.227
REMARK INTER:                  -5.617
REMARK INTRA:                  -0.610
REMARK UNBOUND:                -0.429
REMARK SMILES CC(C)=CCCC(C)=CCO
REMARK SMILES IDX 7 1 9 2 8 3 6 4 5 5 4 6 1 7 2 8 3 9 10 10 11 11
REMARK H PARENT 11 12
REMARK Flexibility Score: inf
ROOT
ATOM      1  C   UNL     1     -41.483  44.569 -22.224  1.00  0.00    -0.075 C 
ATOM      2  C   UNL     1     -41.259  43.608 -21.299  1.00  0.00    -0.000 C 
ATOM      3  C   UNL     1     -40.551  45.747 -22.381  1.00  0.00     0.039 C 
ENDROOT
BRANCH   1   4
ATOM      4  C   UNL     1     -42.683  44.446 -23.136  1.00  0.00     0.034 C 
BRANCH   4   5
ATOM      5  C   UNL     1     -43.564  45.698 -23.051  1.00  0.00     0.032 C 
BRANCH   5   6
ATOM      6  C   UNL     1     -44.762  45.451 -22.170  1.00  0.00    -0.028 C 
ATOM      7  C   UNL     1     -46.092  45.472 -20.104  1.00  0.00     0.039 C 
ATOM      8  C   UNL     1     -44.844  45.820 -20.872  1.00  0.00    -0.080 C 
ATOM      9  C   UNL     1     -43.734  46.580 -20.185  1.00  0.00     0.039 C 
ENDBRANCH   5   6
ENDBRANCH   4   5
ENDBRANCH   1   4
BRANCH   2  10
ATOM     10  C   UNL     1     -40.098  43.618 -20.343  1.00  0.00     0.183 C 
BRANCH  10  11
ATOM     11  O   UNL     1     -40.481  43.047 -19.123  1.00  0.00    -0.392 OA
ATOM     12  H   UNL     1     -39.869  43.424 -18.439  1.00  0.00     0.210 HD
ENDBRANCH  10  11
ENDBRANCH   2  10
TORSDOF 5
ENDMDL
MODEL 8
REMARK VINA RESULT:    -4.588     18.154     19.798
REMARK INTER + INTRA:          -6.224
REMARK INTER:                  -5.627
REMARK INTRA:                  -0.597
REMARK UNBOUND:                -0.429
REMARK SMILES CC(C)=CCCC(C)=CCO
REMARK SMILES IDX 7 1 9 2 8 3 6 4 5 5 4 6 1 7 2 8 3 9 10 10 11 11
REMARK H PARENT 11 12
REMARK Flexibility Score: inf
ROOT
ATOM      1  C   UNL     1     -41.299  57.242  -6.130  1.00  0.00    -0.075 C 
ATOM      2  C   UNL     1     -40.036  57.721  -6.053  1.00  0.00    -0.000 C 
ATOM      3  C   UNL     1     -41.652  56.088  -7.038  1.00  0.00     0.039 C 
ENDROOT
BRANCH   1   4
ATOM      4  C   UNL     1     -42.375  57.863  -5.268  1.00  0.00     0.034 C 
BRANCH   4   5
ATOM      5  C   UNL     1     -42.476  57.144  -3.918  1.00  0.00     0.032 C 
BRANCH   5   6
ATOM      6  C   UNL     1     -43.685  56.244  -3.879  1.00  0.00    -0.028 C 
ATOM      7  C   UNL     1     -44.930  54.125  -3.916  1.00  0.00     0.039 C 
ATOM      8  C   UNL     1     -43.634  54.894  -3.925  1.00  0.00    -0.080 C 
ATOM      9  C   UNL     1     -42.323  54.144  -3.965  1.00  0.00     0.039 C 
ENDBRANCH   5   6
ENDBRANCH   4   5
ENDBRANCH   1   4
BRANCH   2  10
ATOM     10  C   UNL     1     -38.884  57.180  -6.853  1.00  0.00     0.183 C 
BRANCH  10  11
ATOM     11  O   UNL     1     -38.768  57.886  -8.057  1.00  0.00    -0.392 OA
ATOM     12  H   UNL     1     -37.894  58.354  -8.019  1.00  0.00     0.210 HD
ENDBRANCH  10  11
ENDBRANCH   2  10
TORSDOF 5
ENDMDL
MODEL 9
REMARK VINA RESULT:    -4.462     17.724     19.029
REMARK INTER + INTRA:          -6.065
REMARK INTER:                  -5.567
REMARK INTRA:                  -0.498
REMARK UNBOUND:                -0.429
REMARK SMILES CC(C)=CCCC(C)=CCO
REMARK SMILES IDX 7 1 9 2 8 3 6 4 5 5 4 6 1 7 2 8 3 9 10 10 11 11
REMARK H PARENT 11 12
REMARK Flexibility Score: inf
ROOT
ATOM      1  C   UNL     1     -38.964  54.662  -4.683  1.00  0.00    -0.075 C 
ATOM      2  C   UNL     1     -38.496  53.394  -4.644  1.00  0.00    -0.000 C 
ATOM      3  C   UNL     1     -40.256  55.049  -4.004  1.00  0.00     0.039 C 
ENDROOT
BRANCH   1   4
ATOM      4  C   UNL     1     -38.160  55.721  -5.405  1.00  0.00     0.034 C 
BRANCH   4   5
ATOM      5  C   UNL     1     -38.956  57.026  -5.519  1.00  0.00     0.032 C 
BRANCH   5   6
ATOM      6  C   UNL     1     -39.106  57.438  -6.962  1.00  0.00    -0.028 C 
ATOM      7  C   UNL     1     -40.167  57.586  -9.173  1.00  0.00     0.039 C 
ATOM      8  C   UNL     1     -40.174  57.140  -7.735  1.00  0.00    -0.080 C 
ATOM      9  C   UNL     1     -41.370  56.394  -7.191  1.00  0.00     0.039 C 
ENDBRANCH   5   6
ENDBRANCH   4   5
ENDBRANCH   1   4
BRANCH   2  10
ATOM     10  C   UNL     1     -39.201  52.261  -3.951  1.00  0.00     0.183 C 
BRANCH  10  11
ATOM     11  O   UNL     1     -38.996  51.070  -4.659  1.00  0.00    -0.392 OA
ATOM     12  H   UNL     1     -38.014  50.981  -4.768  1.00  0.00     0.210 HD
ENDBRANCH  10  11
ENDBRANCH   2  10
TORSDOF 5
ENDMDL
