MODEL 1
REMARK VINA RESULT:    -7.249      0.000      0.000
REMARK INTER + INTRA:          -8.595
REMARK INTER:                  -8.308
REMARK INTRA:                  -0.287
REMARK UNBOUND:                -0.287
REMARK SMILES O=C1C[C@@H](c2ccc(O)cc2)Oc2cc(O)cc(O)c21
REMARK SMILES IDX 3 1 4 2 12 3 13 4 14 5 15 6 17 7 18 8 20 9 2 10 1 11 5 12
REMARK SMILES IDX 6 13 11 14 7 15 10 16 8 17 9 18 19 20 16 22
REMARK H PARENT 9 19 19 21 16 23
REMARK Flexibility Score: inf
ROOT
ATOM      1  C   UNL     1       7.718 -25.369 -13.957  1.00  0.00     0.131 C 
ATOM      2  C   UNL     1       8.394 -23.990 -13.970  1.00  0.00     0.211 C 
ATOM      3  O   UNL     1       8.957 -23.692 -12.689  1.00  0.00    -0.484 OA
ATOM      4  C   UNL     1       9.603 -24.659 -11.905  1.00  0.00     0.138 A 
ATOM      5  C   UNL     1      10.362 -24.242 -10.810  1.00  0.00     0.093 A 
ATOM      6  C   UNL     1      11.030 -25.181 -10.017  1.00  0.00     0.123 A 
ATOM      7  C   UNL     1      10.911 -26.542 -10.306  1.00  0.00     0.093 A 
ATOM      8  C   UNL     1      10.122 -26.983 -11.376  1.00  0.00     0.133 A 
ATOM      9  C   UNL     1       9.482 -26.031 -12.212  1.00  0.00     0.102 A 
ATOM     10  C   UNL     1       8.680 -26.381 -13.411  1.00  0.00     0.174 C 
ATOM     11  O   UNL     1       8.828 -27.480 -14.009  1.00  0.00    -0.294 OA
ENDROOT
BRANCH   2  12
ATOM     12  C   UNL     1       7.408 -22.917 -14.364  1.00  0.00    -0.007 A 
ATOM     13  C   UNL     1       7.707 -22.014 -15.399  1.00  0.00     0.011 A 
ATOM     14  C   UNL     1       6.198 -22.776 -13.661  1.00  0.00     0.011 A 
ATOM     15  C   UNL     1       6.803 -21.003 -15.739  1.00  0.00     0.046 A 
ATOM     16  C   UNL     1       5.296 -21.765 -14.003  1.00  0.00     0.046 A 
ATOM     17  C   UNL     1       5.593 -20.878 -15.042  1.00  0.00     0.115 A 
BRANCH  17  18
ATOM     18  O   UNL     1       4.685 -19.876 -15.374  1.00  0.00    -0.508 OA
ATOM     19  H   UNL     1       4.128 -19.924 -16.219  1.00  0.00     0.293 HD
ENDBRANCH  17  18
ENDBRANCH   2  12
BRANCH   8  20
ATOM     20  O   UNL     1       9.980 -28.363 -11.540  1.00  0.00    -0.507 OA
ATOM     21  H   UNL     1      10.705 -29.034 -11.334  1.00  0.00     0.293 HD
ENDBRANCH   8  20
BRANCH   6  22
ATOM     22  O   UNL     1      11.807 -24.773  -8.936  1.00  0.00    -0.508 OA
ATOM     23  H   UNL     1      12.586 -25.328  -8.602  1.00  0.00     0.293 HD
ENDBRANCH   6  22
TORSDOF 4
ENDMDL
MODEL 2
REMARK VINA RESULT:    -7.154     12.186     14.199
REMARK INTER + INTRA:          -8.486
REMARK INTER:                  -8.199
REMARK INTRA:                  -0.287
REMARK UNBOUND:                -0.287
REMARK SMILES O=C1C[C@@H](c2ccc(O)cc2)Oc2cc(O)cc(O)c21
REMARK SMILES IDX 3 1 4 2 12 3 13 4 14 5 15 6 17 7 18 8 20 9 2 10 1 11 5 12
REMARK SMILES IDX 6 13 11 14 7 15 10 16 8 17 9 18 19 20 16 22
REMARK H PARENT 9 19 19 21 16 23
REMARK Flexibility Score: inf
ROOT
ATOM      1  C   UNL     1      15.012 -31.166 -19.810  1.00  0.00     0.131 C 
ATOM      2  C   UNL     1      15.181 -32.579 -19.231  1.00  0.00     0.211 C 
ATOM      3  O   UNL     1      15.997 -33.381 -20.088  1.00  0.00    -0.484 OA
ATOM      4  C   UNL     1      17.127 -32.874 -20.747  1.00  0.00     0.138 A 
ATOM      5  C   UNL     1      18.024 -33.769 -21.334  1.00  0.00     0.093 A 
ATOM      6  C   UNL     1      19.167 -33.294 -21.986  1.00  0.00     0.123 A 
ATOM      7  C   UNL     1      19.395 -31.920 -22.074  1.00  0.00     0.093 A 
ATOM      8  C   UNL     1      18.488 -31.005 -21.525  1.00  0.00     0.133 A 
ATOM      9  C   UNL     1      17.351 -31.483 -20.821  1.00  0.00     0.102 A 
ATOM     10  C   UNL     1      16.364 -30.608 -20.142  1.00  0.00     0.174 C 
ATOM     11  O   UNL     1      16.650 -29.432 -19.791  1.00  0.00    -0.294 OA
ENDROOT
BRANCH   2  12
ATOM     12  C   UNL     1      13.837 -33.236 -19.032  1.00  0.00    -0.007 A 
ATOM     13  C   UNL     1      13.652 -34.197 -18.021  1.00  0.00     0.011 A 
ATOM     14  C   UNL     1      12.767 -32.935 -19.893  1.00  0.00     0.011 A 
ATOM     15  C   UNL     1      12.414 -34.825 -17.860  1.00  0.00     0.046 A 
ATOM     16  C   UNL     1      11.530 -33.565 -19.730  1.00  0.00     0.046 A 
ATOM     17  C   UNL     1      11.349 -34.509 -18.714  1.00  0.00     0.115 A 
BRANCH  17  18
ATOM     18  O   UNL     1      10.110 -35.128 -18.563  1.00  0.00    -0.508 OA
ATOM     19  H   UNL     1       9.650 -35.589 -19.339  1.00  0.00     0.293 HD
ENDBRANCH  17  18
ENDBRANCH   2  12
BRANCH   8  20
ATOM     20  O   UNL     1      18.741 -29.647 -21.736  1.00  0.00    -0.507 OA
ATOM     21  H   UNL     1      19.111 -29.026 -21.032  1.00  0.00     0.293 HD
ENDBRANCH   8  20
BRANCH   6  22
ATOM     22  O   UNL     1      20.077 -34.181 -22.556  1.00  0.00    -0.508 OA
ATOM     23  H   UNL     1      19.791 -35.094 -22.890  1.00  0.00     0.293 HD
ENDBRANCH   6  22
TORSDOF 4
ENDMDL
MODEL 3
REMARK VINA RESULT:    -7.095     10.710     13.357
REMARK INTER + INTRA:          -8.419
REMARK INTER:                  -8.107
REMARK INTRA:                  -0.312
REMARK UNBOUND:                -0.287
REMARK SMILES O=C1C[C@@H](c2ccc(O)cc2)Oc2cc(O)cc(O)c21
REMARK SMILES IDX 3 1 4 2 12 3 13 4 14 5 15 6 17 7 18 8 20 9 2 10 1 11 5 12
REMARK SMILES IDX 6 13 11 14 7 15 10 16 8 17 9 18 19 20 16 22
REMARK H PARENT 9 19 19 21 16 23
REMARK Flexibility Score: inf
ROOT
ATOM      1  C   UNL     1      13.607 -30.926 -19.829  1.00  0.00     0.131 C 
ATOM      2  C   UNL     1      14.121 -32.049 -20.743  1.00  0.00     0.211 C 
ATOM      3  O   UNL     1      13.812 -33.330 -20.188  1.00  0.00    -0.484 OA
ATOM      4  C   UNL     1      12.596 -33.602 -19.545  1.00  0.00     0.138 A 
ATOM      5  C   UNL     1      12.254 -34.930 -19.281  1.00  0.00     0.093 A 
ATOM      6  C   UNL     1      11.041 -35.233 -18.653  1.00  0.00     0.123 A 
ATOM      7  C   UNL     1      10.184 -34.202 -18.265  1.00  0.00     0.093 A 
ATOM      8  C   UNL     1      10.526 -32.862 -18.485  1.00  0.00     0.133 A 
ATOM      9  C   UNL     1      11.734 -32.552 -19.164  1.00  0.00     0.102 A 
ATOM     10  C   UNL     1      12.163 -31.174 -19.512  1.00  0.00     0.174 C 
ATOM     11  O   UNL     1      11.339 -30.225 -19.600  1.00  0.00    -0.294 OA
ENDROOT
BRANCH   2  12
ATOM     12  C   UNL     1      15.610 -31.923 -20.956  1.00  0.00    -0.007 A 
ATOM     13  C   UNL     1      16.228 -30.659 -20.961  1.00  0.00     0.011 A 
ATOM     14  C   UNL     1      16.388 -33.066 -21.206  1.00  0.00     0.011 A 
ATOM     15  C   UNL     1      17.602 -30.545 -21.189  1.00  0.00     0.046 A 
ATOM     16  C   UNL     1      17.762 -32.949 -21.433  1.00  0.00     0.046 A 
ATOM     17  C   UNL     1      18.374 -31.692 -21.424  1.00  0.00     0.115 A 
BRANCH  17  18
ATOM     18  O   UNL     1      19.744 -31.590 -21.651  1.00  0.00    -0.508 OA
ATOM     19  H   UNL     1      20.118 -31.444 -22.582  1.00  0.00     0.293 HD
ENDBRANCH  17  18
ENDBRANCH   2  12
BRANCH   8  20
ATOM     20  O   UNL     1       9.660 -31.888 -17.983  1.00  0.00    -0.507 OA
ATOM     21  H   UNL     1       8.684 -31.818 -18.232  1.00  0.00     0.293 HD
ENDBRANCH   8  20
BRANCH   6  22
ATOM     22  O   UNL     1      10.682 -36.556 -18.406  1.00  0.00    -0.508 OA
ATOM     23  H   UNL     1      11.294 -37.327 -18.648  1.00  0.00     0.293 HD
ENDBRANCH   6  22
TORSDOF 4
ENDMDL
MODEL 4
REMARK VINA RESULT:    -6.943      7.574      9.454
REMARK INTER + INTRA:          -8.244
REMARK INTER:                  -7.928
REMARK INTRA:                  -0.316
REMARK UNBOUND:                -0.287
REMARK SMILES O=C1C[C@@H](c2ccc(O)cc2)Oc2cc(O)cc(O)c21
REMARK SMILES IDX 3 1 4 2 12 3 13 4 14 5 15 6 17 7 18 8 20 9 2 10 1 11 5 12
REMARK SMILES IDX 6 13 11 14 7 15 10 16 8 17 9 18 19 20 16 22
REMARK H PARENT 9 19 19 21 16 23
REMARK Flexibility Score: inf
ROOT
ATOM      1  C   UNL     1       9.603 -30.352 -17.000  1.00  0.00     0.131 C 
ATOM      2  C   UNL     1       8.469 -30.936 -17.855  1.00  0.00     0.211 C 
ATOM      3  O   UNL     1       8.917 -32.097 -18.560  1.00  0.00    -0.484 OA
ATOM      4  C   UNL     1       9.771 -33.048 -17.982  1.00  0.00     0.138 A 
ATOM      5  C   UNL     1       9.939 -34.280 -18.619  1.00  0.00     0.093 A 
ATOM      6  C   UNL     1      10.774 -35.253 -18.061  1.00  0.00     0.123 A 
ATOM      7  C   UNL     1      11.463 -34.981 -16.878  1.00  0.00     0.093 A 
ATOM      8  C   UNL     1      11.339 -33.738 -16.244  1.00  0.00     0.133 A 
ATOM      9  C   UNL     1      10.456 -32.764 -16.782  1.00  0.00     0.102 A 
ATOM     10  C   UNL     1      10.194 -31.443 -16.158  1.00  0.00     0.174 C 
ATOM     11  O   UNL     1      10.404 -31.235 -14.933  1.00  0.00    -0.294 OA
ENDROOT
BRANCH   2  12
ATOM     12  C   UNL     1       7.954 -29.906 -18.831  1.00  0.00    -0.007 A 
ATOM     13  C   UNL     1       7.392 -30.301 -20.058  1.00  0.00     0.011 A 
ATOM     14  C   UNL     1       8.081 -28.535 -18.546  1.00  0.00     0.011 A 
ATOM     15  C   UNL     1       6.944 -29.342 -20.972  1.00  0.00     0.046 A 
ATOM     16  C   UNL     1       7.632 -27.579 -19.461  1.00  0.00     0.046 A 
ATOM     17  C   UNL     1       7.061 -27.978 -20.674  1.00  0.00     0.115 A 
BRANCH  17  18
ATOM     18  O   UNL     1       6.617 -27.014 -21.576  1.00  0.00    -0.508 OA
ATOM     19  H   UNL     1       5.630 -26.835 -21.716  1.00  0.00     0.293 HD
ENDBRANCH  17  18
ENDBRANCH   2  12
BRANCH   8  20
ATOM     20  O   UNL     1      12.133 -33.511 -15.117  1.00  0.00    -0.507 OA
ATOM     21  H   UNL     1      12.380 -34.224 -14.448  1.00  0.00     0.293 HD
ENDBRANCH   8  20
BRANCH   6  22
ATOM     22  O   UNL     1      10.930 -36.492 -18.678  1.00  0.00    -0.508 OA
ATOM     23  H   UNL     1      10.172 -37.163 -18.721  1.00  0.00     0.293 HD
ENDBRANCH   6  22
TORSDOF 4
ENDMDL
MODEL 5
REMARK VINA RESULT:    -6.872      8.286     10.099
REMARK INTER + INTRA:          -8.163
REMARK INTER:                  -7.850
REMARK INTRA:                  -0.313
REMARK UNBOUND:                -0.287
REMARK SMILES O=C1C[C@@H](c2ccc(O)cc2)Oc2cc(O)cc(O)c21
REMARK SMILES IDX 3 1 4 2 12 3 13 4 14 5 15 6 17 7 18 8 20 9 2 10 1 11 5 12
REMARK SMILES IDX 6 13 11 14 7 15 10 16 8 17 9 18 19 20 16 22
REMARK H PARENT 9 19 19 21 16 23
REMARK Flexibility Score: inf
ROOT
ATOM      1  C   UNL     1      11.352 -30.306 -18.976  1.00  0.00     0.131 C 
ATOM      2  C   UNL     1       9.932 -30.694 -18.537  1.00  0.00     0.211 C 
ATOM      3  O   UNL     1       9.699 -32.087 -18.762  1.00  0.00    -0.484 OA
ATOM      4  C   UNL     1      10.677 -33.064 -18.526  1.00  0.00     0.138 A 
ATOM      5  C   UNL     1      10.296 -34.408 -18.498  1.00  0.00     0.093 A 
ATOM      6  C   UNL     1      11.247 -35.404 -18.252  1.00  0.00     0.123 A 
ATOM      7  C   UNL     1      12.585 -35.055 -18.063  1.00  0.00     0.093 A 
ATOM      8  C   UNL     1      12.994 -33.717 -18.126  1.00  0.00     0.133 A 
ATOM      9  C   UNL     1      12.025 -32.698 -18.328  1.00  0.00     0.102 A 
ATOM     10  C   UNL     1      12.334 -31.247 -18.344  1.00  0.00     0.174 C 
ATOM     11  O   UNL     1      13.369 -30.783 -17.794  1.00  0.00    -0.294 OA
ENDROOT
BRANCH   2  12
ATOM     12  C   UNL     1       8.904 -29.872 -19.276  1.00  0.00    -0.007 A 
ATOM     13  C   UNL     1       8.054 -30.472 -20.223  1.00  0.00     0.011 A 
ATOM     14  C   UNL     1       8.822 -28.485 -19.064  1.00  0.00     0.011 A 
ATOM     15  C   UNL     1       7.124 -29.701 -20.926  1.00  0.00     0.046 A 
ATOM     16  C   UNL     1       7.891 -27.717 -19.769  1.00  0.00     0.046 A 
ATOM     17  C   UNL     1       7.039 -28.320 -20.699  1.00  0.00     0.115 A 
BRANCH  17  18
ATOM     18  O   UNL     1       6.115 -27.543 -21.393  1.00  0.00    -0.508 OA
ATOM     19  H   UNL     1       5.951 -26.573 -21.151  1.00  0.00     0.293 HD
ENDBRANCH  17  18
ENDBRANCH   2  12
BRANCH   8  20
ATOM     20  O   UNL     1      14.363 -33.459 -18.020  1.00  0.00    -0.507 OA
ATOM     21  H   UNL     1      14.765 -32.806 -17.363  1.00  0.00     0.293 HD
ENDBRANCH   8  20
BRANCH   6  22
ATOM     22  O   UNL     1      10.872 -36.745 -18.201  1.00  0.00    -0.508 OA
ATOM     23  H   UNL     1      11.403 -37.425 -17.669  1.00  0.00     0.293 HD
ENDBRANCH   6  22
TORSDOF 4
ENDMDL
MODEL 6
REMARK VINA RESULT:    -6.856     12.530     14.176
REMARK INTER + INTRA:          -8.145
REMARK INTER:                  -7.860
REMARK INTRA:                  -0.285
REMARK UNBOUND:                -0.287
REMARK SMILES O=C1C[C@@H](c2ccc(O)cc2)Oc2cc(O)cc(O)c21
REMARK SMILES IDX 3 1 4 2 12 3 13 4 14 5 15 6 17 7 18 8 20 9 2 10 1 11 5 12
REMARK SMILES IDX 6 13 11 14 7 15 10 16 8 17 9 18 19 20 16 22
REMARK H PARENT 9 19 19 21 16 23
REMARK Flexibility Score: inf
ROOT
ATOM      1  C   UNL     1      17.967 -29.231 -20.080  1.00  0.00     0.131 C 
ATOM      2  C   UNL     1      17.221 -28.884 -21.378  1.00  0.00     0.211 C 
ATOM      3  O   UNL     1      16.679 -30.064 -21.978  1.00  0.00    -0.484 OA
ATOM      4  C   UNL     1      16.105 -31.099 -21.225  1.00  0.00     0.138 A 
ATOM      5  C   UNL     1      15.355 -32.076 -21.883  1.00  0.00     0.093 A 
ATOM      6  C   UNL     1      14.758 -33.112 -21.158  1.00  0.00     0.123 A 
ATOM      7  C   UNL     1      14.938 -33.185 -19.775  1.00  0.00     0.093 A 
ATOM      8  C   UNL     1      15.719 -32.237 -19.102  1.00  0.00     0.133 A 
ATOM      9  C   UNL     1      16.287 -31.157 -19.827  1.00  0.00     0.102 A 
ATOM     10  C   UNL     1      17.073 -30.060 -19.208  1.00  0.00     0.174 C 
ATOM     11  O   UNL     1      16.965 -29.776 -17.985  1.00  0.00    -0.294 OA
ENDROOT
BRANCH   2  12
ATOM     12  C   UNL     1      18.141 -28.185 -22.349  1.00  0.00    -0.007 A 
ATOM     13  C   UNL     1      17.697 -27.065 -23.076  1.00  0.00     0.011 A 
ATOM     14  C   UNL     1      19.436 -28.681 -22.580  1.00  0.00     0.011 A 
ATOM     15  C   UNL     1      18.542 -26.440 -23.997  1.00  0.00     0.046 A 
ATOM     16  C   UNL     1      20.279 -28.054 -23.501  1.00  0.00     0.046 A 
ATOM     17  C   UNL     1      19.837 -26.932 -24.210  1.00  0.00     0.115 A 
BRANCH  17  18
ATOM     18  O   UNL     1      20.688 -26.316 -25.125  1.00  0.00    -0.508 OA
ATOM     19  H   UNL     1      21.551 -26.755 -25.424  1.00  0.00     0.293 HD
ENDBRANCH  17  18
ENDBRANCH   2  12
BRANCH   8  20
ATOM     20  O   UNL     1      15.928 -32.434 -17.734  1.00  0.00    -0.507 OA
ATOM     21  H   UNL     1      15.203 -32.356 -17.036  1.00  0.00     0.293 HD
ENDBRANCH   8  20
BRANCH   6  22
ATOM     22  O   UNL     1      13.991 -34.079 -21.803  1.00  0.00    -0.508 OA
ATOM     23  H   UNL     1      13.053 -33.879 -22.133  1.00  0.00     0.293 HD
ENDBRANCH   6  22
TORSDOF 4
ENDMDL
MODEL 7
REMARK VINA RESULT:    -6.819     12.026     13.838
REMARK INTER + INTRA:          -8.103
REMARK INTER:                  -7.814
REMARK INTRA:                  -0.288
REMARK UNBOUND:                -0.287
REMARK SMILES O=C1C[C@@H](c2ccc(O)cc2)Oc2cc(O)cc(O)c21
REMARK SMILES IDX 3 1 4 2 12 3 13 4 14 5 15 6 17 7 18 8 20 9 2 10 1 11 5 12
REMARK SMILES IDX 6 13 11 14 7 15 10 16 8 17 9 18 19 20 16 22
REMARK H PARENT 9 19 19 21 16 23
REMARK Flexibility Score: inf
ROOT
ATOM      1  C   UNL     1      16.133 -33.518 -20.107  1.00  0.00     0.131 C 
ATOM      2  C   UNL     1      14.808 -32.969 -20.657  1.00  0.00     0.211 C 
ATOM      3  O   UNL     1      14.860 -31.544 -20.769  1.00  0.00    -0.484 OA
ATOM      4  C   UNL     1      16.007 -30.862 -21.202  1.00  0.00     0.138 A 
ATOM      5  C   UNL     1      15.900 -29.514 -21.550  1.00  0.00     0.093 A 
ATOM      6  C   UNL     1      17.023 -28.811 -21.999  1.00  0.00     0.123 A 
ATOM      7  C   UNL     1      18.261 -29.453 -22.069  1.00  0.00     0.093 A 
ATOM      8  C   UNL     1      18.398 -30.793 -21.687  1.00  0.00     0.133 A 
ATOM      9  C   UNL     1      17.251 -31.524 -21.277  1.00  0.00     0.102 A 
ATOM     10  C   UNL     1      17.267 -32.964 -20.917  1.00  0.00     0.174 C 
ATOM     11  O   UNL     1      18.176 -33.738 -21.318  1.00  0.00    -0.294 OA
ENDROOT
BRANCH   2  12
ATOM     12  C   UNL     1      13.655 -33.376 -19.773  1.00  0.00    -0.007 A 
ATOM     13  C   UNL     1      13.888 -34.009 -18.539  1.00  0.00     0.011 A 
ATOM     14  C   UNL     1      12.330 -33.175 -20.200  1.00  0.00     0.011 A 
ATOM     15  C   UNL     1      12.816 -34.412 -17.737  1.00  0.00     0.046 A 
ATOM     16  C   UNL     1      11.260 -33.578 -19.396  1.00  0.00     0.046 A 
ATOM     17  C   UNL     1      11.498 -34.195 -18.163  1.00  0.00     0.115 A 
BRANCH  17  18
ATOM     18  O   UNL     1      10.422 -34.591 -17.372  1.00  0.00    -0.508 OA
ATOM     19  H   UNL     1       9.488 -34.231 -17.530  1.00  0.00     0.293 HD
ENDBRANCH  17  18
ENDBRANCH   2  12
BRANCH   8  20
ATOM     20  O   UNL     1      19.686 -31.334 -21.697  1.00  0.00    -0.507 OA
ATOM     21  H   UNL     1      20.190 -31.574 -22.538  1.00  0.00     0.293 HD
ENDBRANCH   8  20
BRANCH   6  22
ATOM     22  O   UNL     1      16.920 -27.472 -22.369  1.00  0.00    -0.508 OA
ATOM     23  H   UNL     1      16.052 -26.958 -22.267  1.00  0.00     0.293 HD
ENDBRANCH   6  22
TORSDOF 4
ENDMDL
MODEL 8
REMARK VINA RESULT:    -6.814     11.078     13.258
REMARK INTER + INTRA:          -8.097
REMARK INTER:                  -7.784
REMARK INTRA:                  -0.313
REMARK UNBOUND:                -0.287
REMARK SMILES O=C1C[C@@H](c2ccc(O)cc2)Oc2cc(O)cc(O)c21
REMARK SMILES IDX 3 1 4 2 12 3 13 4 14 5 15 6 17 7 18 8 20 9 2 10 1 11 5 12
REMARK SMILES IDX 6 13 11 14 7 15 10 16 8 17 9 18 19 20 16 22
REMARK H PARENT 9 19 19 21 16 23
REMARK Flexibility Score: inf
ROOT
ATOM      1  C   UNL     1      15.552 -32.037 -17.465  1.00  0.00     0.131 C 
ATOM      2  C   UNL     1      15.088 -31.945 -18.926  1.00  0.00     0.211 C 
ATOM      3  O   UNL     1      14.364 -33.121 -19.299  1.00  0.00    -0.484 OA
ATOM      4  C   UNL     1      13.466 -33.762 -18.433  1.00  0.00     0.138 A 
ATOM      5  C   UNL     1      12.597 -34.724 -18.952  1.00  0.00     0.093 A 
ATOM      6  C   UNL     1      11.681 -35.371 -18.116  1.00  0.00     0.123 A 
ATOM      7  C   UNL     1      11.655 -35.072 -16.753  1.00  0.00     0.093 A 
ATOM      8  C   UNL     1      12.544 -34.138 -16.205  1.00  0.00     0.133 A 
ATOM      9  C   UNL     1      13.444 -33.445 -17.058  1.00  0.00     0.102 A 
ATOM     10  C   UNL     1      14.380 -32.389 -16.599  1.00  0.00     0.174 C 
ATOM     11  O   UNL     1      14.184 -31.747 -15.533  1.00  0.00    -0.294 OA
ENDROOT
BRANCH   2  12
ATOM     12  C   UNL     1      16.267 -31.750 -19.848  1.00  0.00    -0.007 A 
ATOM     13  C   UNL     1      16.668 -32.774 -20.724  1.00  0.00     0.011 A 
ATOM     14  C   UNL     1      17.011 -30.558 -19.802  1.00  0.00     0.011 A 
ATOM     15  C   UNL     1      17.779 -32.599 -21.554  1.00  0.00     0.046 A 
ATOM     16  C   UNL     1      18.121 -30.386 -20.633  1.00  0.00     0.046 A 
ATOM     17  C   UNL     1      18.508 -31.403 -21.512  1.00  0.00     0.115 A 
BRANCH  17  18
ATOM     18  O   UNL     1      19.616 -31.217 -22.335  1.00  0.00    -0.508 OA
ATOM     19  H   UNL     1      20.527 -30.992 -21.955  1.00  0.00     0.293 HD
ENDBRANCH  17  18
ENDBRANCH   2  12
BRANCH   8  20
ATOM     20  O   UNL     1      12.519 -33.965 -14.819  1.00  0.00    -0.507 OA
ATOM     21  H   UNL     1      13.071 -33.279 -14.326  1.00  0.00     0.293 HD
ENDBRANCH   8  20
BRANCH   6  22
ATOM     22  O   UNL     1      10.797 -36.316 -18.630  1.00  0.00    -0.508 OA
ATOM     23  H   UNL     1       9.795 -36.232 -18.500  1.00  0.00     0.293 HD
ENDBRANCH   6  22
TORSDOF 4
ENDMDL
MODEL 9
REMARK VINA RESULT:    -6.665     10.838     14.019
REMARK INTER + INTRA:          -7.926
REMARK INTER:                  -7.643
REMARK INTRA:                  -0.282
REMARK UNBOUND:                -0.287
REMARK SMILES O=C1C[C@@H](c2ccc(O)cc2)Oc2cc(O)cc(O)c21
REMARK SMILES IDX 3 1 4 2 12 3 13 4 14 5 15 6 17 7 18 8 20 9 2 10 1 11 5 12
REMARK SMILES IDX 6 13 11 14 7 15 10 16 8 17 9 18 19 20 16 22
REMARK H PARENT 9 19 19 21 16 23
REMARK Flexibility Score: inf
ROOT
ATOM      1  C   UNL     1      14.697 -34.724 -10.692  1.00  0.00     0.131 C 
ATOM      2  C   UNL     1      13.930 -36.028 -10.430  1.00  0.00     0.211 C 
ATOM      3  O   UNL     1      12.580 -35.919 -10.888  1.00  0.00    -0.484 OA
ATOM      4  C   UNL     1      12.237 -35.262 -12.079  1.00  0.00     0.138 A 
ATOM      5  C   UNL     1      10.953 -35.434 -12.600  1.00  0.00     0.093 A 
ATOM      6  C   UNL     1      10.587 -34.803 -13.793  1.00  0.00     0.123 A 
ATOM      7  C   UNL     1      11.499 -33.974 -14.449  1.00  0.00     0.093 A 
ATOM      8  C   UNL     1      12.779 -33.757 -13.922  1.00  0.00     0.133 A 
ATOM      9  C   UNL     1      13.171 -34.433 -12.737  1.00  0.00     0.102 A 
ATOM     10  C   UNL     1      14.521 -34.332 -12.129  1.00  0.00     0.174 C 
ATOM     11  O   UNL     1      15.527 -33.980 -12.801  1.00  0.00    -0.294 OA
ENDROOT
BRANCH   2  12
ATOM     12  C   UNL     1      13.951 -36.372  -8.960  1.00  0.00    -0.007 A 
ATOM     13  C   UNL     1      14.080 -35.361  -7.990  1.00  0.00     0.011 A 
ATOM     14  C   UNL     1      13.895 -37.715  -8.546  1.00  0.00     0.011 A 
ATOM     15  C   UNL     1      14.129 -35.687  -6.632  1.00  0.00     0.046 A 
ATOM     16  C   UNL     1      13.944 -38.037  -7.187  1.00  0.00     0.046 A 
ATOM     17  C   UNL     1      14.060 -37.027  -6.227  1.00  0.00     0.115 A 
BRANCH  17  18
ATOM     18  O   UNL     1      14.106 -37.363  -4.876  1.00  0.00    -0.508 OA
ATOM     19  H   UNL     1      14.908 -37.133  -4.300  1.00  0.00     0.293 HD
ENDBRANCH  17  18
ENDBRANCH   2  12
BRANCH   8  20
ATOM     20  O   UNL     1      13.599 -32.842 -14.587  1.00  0.00    -0.507 OA
ATOM     21  H   UNL     1      13.289 -31.936 -14.907  1.00  0.00     0.293 HD
ENDBRANCH   8  20
BRANCH   6  22
ATOM     22  O   UNL     1       9.315 -34.987 -14.331  1.00  0.00    -0.508 OA
ATOM     23  H   UNL     1       8.722 -35.755 -14.041  1.00  0.00     0.293 HD
ENDBRANCH   6  22
TORSDOF 4
ENDMDL
