MODEL 1
REMARK VINA RESULT:    -4.938      0.000      0.000
REMARK INTER + INTRA:          -7.845
REMARK INTER:                  -7.536
REMARK INTRA:                  -0.309
REMARK UNBOUND:                -0.309
REMARK SMILES O=C([O-])CCCCCCCCC(=O)[O-]
REMARK SMILES IDX 7 1 6 2 5 3 4 4 2 5 1 6 3 7 8 8 9 9 10 10 11 11 12 12 13 13
REMARK SMILES IDX 14 14
REMARK H PARENT
REMARK Flexibility Score: inf
ROOT
ATOM      1  C   UNL     1      -0.551   5.571  16.943  1.00  0.00     0.000 C 
ENDROOT
BRANCH   1   2
ATOM      2  C   UNL     1      -0.870   4.076  16.796  1.00  0.00     0.000 C 
BRANCH   2   3
ATOM      3  C   UNL     1      -2.122   3.863  15.939  1.00  0.00     0.006 C 
BRANCH   3   4
ATOM      4  C   UNL     1      -2.956   2.691  16.464  1.00  0.00     0.053 C 
BRANCH   4   5
ATOM      5  C   UNL     1      -4.415   2.957  16.272  1.00  0.00     0.041 C 
ATOM      6  O   UNL     1      -4.801   3.767  15.388  1.00  0.00    -0.550 OA
ATOM      7  O   UNL     1      -5.352   2.273  17.035  1.00  0.00    -0.550 OA
ENDBRANCH   4   5
ENDBRANCH   3   4
ENDBRANCH   2   3
ENDBRANCH   1   2
BRANCH   1   8
ATOM      8  C   UNL     1      -0.153   5.955  18.377  1.00  0.00     0.000 C 
BRANCH   8   9
ATOM      9  C   UNL     1       0.517   7.335  18.457  1.00  0.00     0.000 C 
BRANCH   9  10
ATOM     10  C   UNL     1       0.576   7.833  19.908  1.00  0.00     0.006 C 
BRANCH  10  11
ATOM     11  C   UNL     1      -0.178   6.907  20.872  1.00  0.00     0.053 C 
BRANCH  11  12
ATOM     12  C   UNL     1       0.580   6.696  22.148  1.00  0.00     0.041 C 
ATOM     13  O   UNL     1      -0.035   6.411  23.209  1.00  0.00    -0.550 OA
ATOM     14  O   UNL     1       1.966   6.780  22.157  1.00  0.00    -0.550 OA
ENDBRANCH  11  12
ENDBRANCH  10  11
ENDBRANCH   9  10
ENDBRANCH   8   9
ENDBRANCH   1   8
TORSDOF 9
ENDMDL
MODEL 2
REMARK VINA RESULT:    -4.686      1.186      7.264
REMARK INTER + INTRA:          -7.460
REMARK INTER:                  -7.106
REMARK INTRA:                  -0.354
REMARK UNBOUND:                -0.309
REMARK SMILES O=C([O-])CCCCCCCCC(=O)[O-]
REMARK SMILES IDX 7 1 6 2 5 3 4 4 2 5 1 6 3 7 8 8 9 9 10 10 11 11 12 12 13 13
REMARK SMILES IDX 14 14
REMARK H PARENT
REMARK Flexibility Score: inf
ROOT
ATOM      1  C   UNL     1      -0.198   6.038  18.541  1.00  0.00     0.000 C 
ENDROOT
BRANCH   1   2
ATOM      2  C   UNL     1       0.563   7.359  18.721  1.00  0.00     0.000 C 
BRANCH   2   3
ATOM      3  C   UNL     1       0.661   7.740  20.203  1.00  0.00     0.006 C 
BRANCH   3   4
ATOM      4  C   UNL     1      -0.192   6.807  21.067  1.00  0.00     0.053 C 
BRANCH   4   5
ATOM      5  C   UNL     1       0.427   6.632  22.417  1.00  0.00     0.041 C 
ATOM      6  O   UNL     1      -0.266   6.216  23.384  1.00  0.00    -0.550 OA
ATOM      7  O   UNL     1       1.781   6.880  22.599  1.00  0.00    -0.550 OA
ENDBRANCH   4   5
ENDBRANCH   3   4
ENDBRANCH   2   3
ENDBRANCH   1   2
BRANCH   1   8
ATOM      8  C   UNL     1      -0.248   5.577  17.076  1.00  0.00     0.000 C 
BRANCH   8   9
ATOM      9  C   UNL     1      -0.863   4.179  16.915  1.00  0.00     0.000 C 
BRANCH   9  10
ATOM     10  C   UNL     1      -1.955   4.180  15.835  1.00  0.00     0.006 C 
BRANCH  10  11
ATOM     11  C   UNL     1      -3.211   4.943  16.279  1.00  0.00     0.053 C 
BRANCH  11  12
ATOM     12  C   UNL     1      -4.304   4.855  15.259  1.00  0.00     0.041 C 
ATOM     13  O   UNL     1      -4.413   3.830  14.534  1.00  0.00    -0.550 OA
ATOM     14  O   UNL     1      -5.223   5.889  15.131  1.00  0.00    -0.550 OA
ENDBRANCH  11  12
ENDBRANCH  10  11
ENDBRANCH   9  10
ENDBRANCH   8   9
ENDBRANCH   1   8
TORSDOF 9
ENDMDL
MODEL 3
REMARK VINA RESULT:    -4.478      2.601      6.686
REMARK INTER + INTRA:          -7.144
REMARK INTER:                  -6.621
REMARK INTRA:                  -0.523
REMARK UNBOUND:                -0.309
REMARK SMILES O=C([O-])CCCCCCCCC(=O)[O-]
REMARK SMILES IDX 7 1 6 2 5 3 4 4 2 5 1 6 3 7 8 8 9 9 10 10 11 11 12 12 13 13
REMARK SMILES IDX 14 14
REMARK H PARENT
REMARK Flexibility Score: inf
ROOT
ATOM      1  C   UNL     1      -1.287   4.148  15.912  1.00  0.00     0.000 C 
ENDROOT
BRANCH   1   2
ATOM      2  C   UNL     1      -0.831   4.467  17.343  1.00  0.00     0.000 C 
BRANCH   2   3
ATOM      3  C   UNL     1      -0.112   5.819  17.402  1.00  0.00     0.006 C 
BRANCH   3   4
ATOM      4  C   UNL     1      -0.116   6.383  18.826  1.00  0.00     0.053 C 
BRANCH   4   5
ATOM      5  C   UNL     1       0.518   7.737  18.855  1.00  0.00     0.041 C 
ATOM      6  O   UNL     1       0.618   8.367  19.942  1.00  0.00    -0.550 OA
ATOM      7  O   UNL     1       1.044   8.284  17.692  1.00  0.00    -0.550 OA
ENDBRANCH   4   5
ENDBRANCH   3   4
ENDBRANCH   2   3
ENDBRANCH   1   2
BRANCH   1   8
ATOM      8  C   UNL     1      -2.703   4.665  15.611  1.00  0.00     0.000 C 
BRANCH   8   9
ATOM      9  C   UNL     1      -3.783   3.594  15.821  1.00  0.00     0.000 C 
BRANCH   9  10
ATOM     10  C   UNL     1      -4.904   4.116  16.731  1.00  0.00     0.006 C 
BRANCH  10  11
ATOM     11  C   UNL     1      -4.679   5.574  17.154  1.00  0.00     0.053 C 
BRANCH  11  12
ATOM     12  C   UNL     1      -5.974   6.286  17.405  1.00  0.00     0.041 C 
ATOM     13  O   UNL     1      -6.339   6.538  18.583  1.00  0.00    -0.550 OA
ATOM     14  O   UNL     1      -6.758   6.702  16.337  1.00  0.00    -0.550 OA
ENDBRANCH  11  12
ENDBRANCH  10  11
ENDBRANCH   9  10
ENDBRANCH   8   9
ENDBRANCH   1   8
TORSDOF 9
ENDMDL
MODEL 4
REMARK VINA RESULT:    -4.476      3.330      5.076
REMARK INTER + INTRA:          -7.140
REMARK INTER:                  -6.556
REMARK INTRA:                  -0.584
REMARK UNBOUND:                -0.309
REMARK SMILES O=C([O-])CCCCCCCCC(=O)[O-]
REMARK SMILES IDX 7 1 6 2 5 3 4 4 2 5 1 6 3 7 8 8 9 9 10 10 11 11 12 12 13 13
REMARK SMILES IDX 14 14
REMARK H PARENT
REMARK Flexibility Score: inf
ROOT
ATOM      1  C   UNL     1      -5.005   3.115  16.400  1.00  0.00     0.000 C 
ENDROOT
BRANCH   1   2
ATOM      2  C   UNL     1      -5.332   4.514  16.944  1.00  0.00     0.000 C 
BRANCH   2   3
ATOM      3  C   UNL     1      -5.799   5.445  15.819  1.00  0.00     0.006 C 
BRANCH   3   4
ATOM      4  C   UNL     1      -7.018   6.264  16.253  1.00  0.00     0.053 C 
BRANCH   4   5
ATOM      5  C   UNL     1      -6.624   7.298  17.259  1.00  0.00     0.041 C 
ATOM      6  O   UNL     1      -5.950   8.303  16.905  1.00  0.00    -0.550 OA
ATOM      7  O   UNL     1      -7.042   7.180  18.578  1.00  0.00    -0.550 OA
ENDBRANCH   4   5
ENDBRANCH   3   4
ENDBRANCH   2   3
ENDBRANCH   1   2
BRANCH   1   8
ATOM      8  C   UNL     1      -3.537   2.719  16.628  1.00  0.00     0.000 C 
BRANCH   8   9
ATOM      9  C   UNL     1      -2.585   3.354  15.603  1.00  0.00     0.000 C 
BRANCH   9  10
ATOM     10  C   UNL     1      -1.304   3.858  16.283  1.00  0.00     0.006 C 
BRANCH  10  11
ATOM     11  C   UNL     1      -1.507   5.212  16.977  1.00  0.00     0.053 C 
BRANCH  11  12
ATOM     12  C   UNL     1      -0.228   5.742  17.548  1.00  0.00     0.041 C 
ATOM     13  O   UNL     1       0.673   6.178  16.784  1.00  0.00    -0.550 OA
ATOM     14  O   UNL     1      -0.044   5.787  18.924  1.00  0.00    -0.550 OA
ENDBRANCH  11  12
ENDBRANCH  10  11
ENDBRANCH   9  10
ENDBRANCH   8   9
ENDBRANCH   1   8
TORSDOF 9
ENDMDL
MODEL 5
REMARK VINA RESULT:    -4.397      4.704      6.184
REMARK INTER + INTRA:          -7.019
REMARK INTER:                  -6.102
REMARK INTRA:                  -0.917
REMARK UNBOUND:                -0.309
REMARK SMILES O=C([O-])CCCCCCCCC(=O)[O-]
REMARK SMILES IDX 7 1 6 2 5 3 4 4 2 5 1 6 3 7 8 8 9 9 10 10 11 11 12 12 13 13
REMARK SMILES IDX 14 14
REMARK H PARENT
REMARK Flexibility Score: inf
ROOT
ATOM      1  C   UNL     1      -5.663   6.480  16.112  1.00  0.00     0.000 C 
ENDROOT
BRANCH   1   2
ATOM      2  C   UNL     1      -7.061   5.894  15.863  1.00  0.00     0.000 C 
BRANCH   2   3
ATOM      3  C   UNL     1      -7.387   5.868  14.366  1.00  0.00     0.006 C 
BRANCH   3   4
ATOM      4  C   UNL     1      -7.141   4.478  13.773  1.00  0.00     0.053 C 
BRANCH   4   5
ATOM      5  C   UNL     1      -5.939   4.493  12.884  1.00  0.00     0.041 C 
ATOM      6  O   UNL     1      -5.242   3.453  12.741  1.00  0.00    -0.550 OA
ATOM      7  O   UNL     1      -5.615   5.641  12.172  1.00  0.00    -0.550 OA
ENDBRANCH   4   5
ENDBRANCH   3   4
ENDBRANCH   2   3
ENDBRANCH   1   2
BRANCH   1   8
ATOM      8  C   UNL     1      -4.769   5.549  16.945  1.00  0.00     0.000 C 
BRANCH   8   9
ATOM      9  C   UNL     1      -5.284   4.102  16.976  1.00  0.00     0.000 C 
BRANCH   9  10
ATOM     10  C   UNL     1      -4.266   3.142  16.345  1.00  0.00     0.006 C 
BRANCH  10  11
ATOM     11  C   UNL     1      -3.144   3.886  15.608  1.00  0.00     0.053 C 
BRANCH  11  12
ATOM     12  C   UNL     1      -1.790   3.508  16.129  1.00  0.00     0.041 C 
ATOM     13  O   UNL     1      -0.789   4.224  15.865  1.00  0.00    -0.550 OA
ATOM     14  O   UNL     1      -1.642   2.385  16.931  1.00  0.00    -0.550 OA
ENDBRANCH  11  12
ENDBRANCH  10  11
ENDBRANCH   9  10
ENDBRANCH   8   9
ENDBRANCH   1   8
TORSDOF 9
ENDMDL
MODEL 6
REMARK VINA RESULT:    -4.364      1.522      6.852
REMARK INTER + INTRA:          -6.970
REMARK INTER:                  -6.576
REMARK INTRA:                  -0.394
REMARK UNBOUND:                -0.309
REMARK SMILES O=C([O-])CCCCCCCCC(=O)[O-]
REMARK SMILES IDX 7 1 6 2 5 3 4 4 2 5 1 6 3 7 8 8 9 9 10 10 11 11 12 12 13 13
REMARK SMILES IDX 14 14
REMARK H PARENT
REMARK Flexibility Score: inf
ROOT
ATOM      1  C   UNL     1      -1.236   4.988  16.997  1.00  0.00     0.000 C 
ENDROOT
BRANCH   1   2
ATOM      2  C   UNL     1       0.085   5.737  16.766  1.00  0.00     0.000 C 
BRANCH   2   3
ATOM      3  C   UNL     1       0.329   6.772  17.869  1.00  0.00     0.006 C 
BRANCH   3   4
ATOM      4  C   UNL     1      -0.153   6.254  19.227  1.00  0.00     0.053 C 
BRANCH   4   5
ATOM      5  C   UNL     1       0.245   7.195  20.319  1.00  0.00     0.041 C 
ATOM      6  O   UNL     1      -0.029   6.926  21.519  1.00  0.00    -0.550 OA
ATOM      7  O   UNL     1       0.964   8.344  20.018  1.00  0.00    -0.550 OA
ENDBRANCH   4   5
ENDBRANCH   3   4
ENDBRANCH   2   3
ENDBRANCH   1   2
BRANCH   1   8
ATOM      8  C   UNL     1      -1.375   3.741  16.108  1.00  0.00     0.000 C 
BRANCH   8   9
ATOM      9  C   UNL     1      -2.752   3.643  15.434  1.00  0.00     0.000 C 
BRANCH   9  10
ATOM     10  C   UNL     1      -3.869   4.050  16.406  1.00  0.00     0.006 C 
BRANCH  10  11
ATOM     11  C   UNL     1      -5.054   3.076  16.371  1.00  0.00     0.053 C 
BRANCH  11  12
ATOM     12  C   UNL     1      -4.856   1.926  17.311  1.00  0.00     0.041 C 
ATOM     13  O   UNL     1      -5.689   0.982  17.340  1.00  0.00    -0.550 OA
ATOM     14  O   UNL     1      -3.735   1.880  18.130  1.00  0.00    -0.550 OA
ENDBRANCH  11  12
ENDBRANCH  10  11
ENDBRANCH   9  10
ENDBRANCH   8   9
ENDBRANCH   1   8
TORSDOF 9
ENDMDL
MODEL 7
REMARK VINA RESULT:    -4.321      4.242      6.553
REMARK INTER + INTRA:          -6.903
REMARK INTER:                  -6.122
REMARK INTRA:                  -0.781
REMARK UNBOUND:                -0.309
REMARK SMILES O=C([O-])CCCCCCCCC(=O)[O-]
REMARK SMILES IDX 7 1 6 2 5 3 4 4 2 5 1 6 3 7 8 8 9 9 10 10 11 11 12 12 13 13
REMARK SMILES IDX 14 14
REMARK H PARENT
REMARK Flexibility Score: inf
ROOT
ATOM      1  C   UNL     1      -5.436   3.769  14.650  1.00  0.00     0.000 C 
ENDROOT
BRANCH   1   2
ATOM      2  C   UNL     1      -4.717   3.637  16.001  1.00  0.00     0.000 C 
BRANCH   2   3
ATOM      3  C   UNL     1      -3.513   4.582  16.077  1.00  0.00     0.006 C 
BRANCH   3   4
ATOM      4  C   UNL     1      -2.236   3.888  15.596  1.00  0.00     0.053 C 
BRANCH   4   5
ATOM      5  C   UNL     1      -1.375   3.509  16.758  1.00  0.00     0.041 C 
ATOM      6  O   UNL     1      -0.645   4.371  17.315  1.00  0.00    -0.550 OA
ATOM      7  O   UNL     1      -1.416   2.214  17.261  1.00  0.00    -0.550 OA
ENDBRANCH   4   5
ENDBRANCH   3   4
ENDBRANCH   2   3
ENDBRANCH   1   2
BRANCH   1   8
ATOM      8  C   UNL     1      -6.026   5.170  14.427  1.00  0.00     0.000 C 
BRANCH   8   9
ATOM      9  C   UNL     1      -7.517   5.250  14.786  1.00  0.00     0.000 C 
BRANCH   9  10
ATOM     10  C   UNL     1      -7.783   6.391  15.779  1.00  0.00     0.006 C 
BRANCH  10  11
ATOM     11  C   UNL     1      -6.487   7.050  16.268  1.00  0.00     0.053 C 
BRANCH  11  12
ATOM     12  C   UNL     1      -6.396   7.058  17.763  1.00  0.00     0.041 C 
ATOM     13  O   UNL     1      -5.973   6.043  18.377  1.00  0.00    -0.550 OA
ATOM     14  O   UNL     1      -6.748   8.197  18.477  1.00  0.00    -0.550 OA
ENDBRANCH  11  12
ENDBRANCH  10  11
ENDBRANCH   9  10
ENDBRANCH   8   9
ENDBRANCH   1   8
TORSDOF 9
ENDMDL
MODEL 8
REMARK VINA RESULT:    -4.245      4.412      7.928
REMARK INTER + INTRA:          -6.788
REMARK INTER:                  -6.070
REMARK INTRA:                  -0.718
REMARK UNBOUND:                -0.309
REMARK SMILES O=C([O-])CCCCCCCCC(=O)[O-]
REMARK SMILES IDX 7 1 6 2 5 3 4 4 2 5 1 6 3 7 8 8 9 9 10 10 11 11 12 12 13 13
REMARK SMILES IDX 14 14
REMARK H PARENT
REMARK Flexibility Score: inf
ROOT
ATOM      1  C   UNL     1      -4.807   5.412  16.670  1.00  0.00     0.000 C 
ENDROOT
BRANCH   1   2
ATOM      2  C   UNL     1      -5.157   3.953  16.996  1.00  0.00     0.000 C 
BRANCH   2   3
ATOM      3  C   UNL     1      -4.191   2.988  16.300  1.00  0.00     0.006 C 
BRANCH   3   4
ATOM      4  C   UNL     1      -2.962   3.729  15.767  1.00  0.00     0.053 C 
BRANCH   4   5
ATOM      5  C   UNL     1      -1.750   3.381  16.571  1.00  0.00     0.041 C 
ATOM      6  O   UNL     1      -1.593   2.210  17.009  1.00  0.00    -0.550 OA
ATOM      7  O   UNL     1      -0.767   4.336  16.795  1.00  0.00    -0.550 OA
ENDBRANCH   4   5
ENDBRANCH   3   4
ENDBRANCH   2   3
ENDBRANCH   1   2
BRANCH   1   8
ATOM      8  C   UNL     1      -6.004   6.361  16.838  1.00  0.00     0.000 C 
BRANCH   8   9
ATOM      9  C   UNL     1      -7.164   6.028  15.887  1.00  0.00     0.000 C 
BRANCH   9  10
ATOM     10  C   UNL     1      -6.674   5.938  14.434  1.00  0.00     0.006 C 
BRANCH  10  11
ATOM     11  C   UNL     1      -7.380   4.824  13.650  1.00  0.00     0.053 C 
BRANCH  11  12
ATOM     12  C   UNL     1      -6.476   4.202  12.630  1.00  0.00     0.041 C 
ATOM     13  O   UNL     1      -5.356   3.741  12.975  1.00  0.00    -0.550 OA
ATOM     14  O   UNL     1      -6.884   4.100  11.307  1.00  0.00    -0.550 OA
ENDBRANCH  11  12
ENDBRANCH  10  11
ENDBRANCH   9  10
ENDBRANCH   8   9
ENDBRANCH   1   8
TORSDOF 9
ENDMDL
MODEL 9
REMARK VINA RESULT:    -4.202      5.824      7.718
REMARK INTER + INTRA:          -6.722
REMARK INTER:                  -5.730
REMARK INTRA:                  -0.992
REMARK UNBOUND:                -0.309
REMARK SMILES O=C([O-])CCCCCCCCC(=O)[O-]
REMARK SMILES IDX 7 1 6 2 5 3 4 4 2 5 1 6 3 7 8 8 9 9 10 10 11 11 12 12 13 13
REMARK SMILES IDX 14 14
REMARK H PARENT
REMARK Flexibility Score: inf
ROOT
ATOM      1  C   UNL     1      -5.829   4.903  12.843  1.00  0.00     0.000 C 
ENDROOT
BRANCH   1   2
ATOM      2  C   UNL     1      -5.340   3.877  13.876  1.00  0.00     0.000 C 
BRANCH   2   3
ATOM      3  C   UNL     1      -4.859   4.572  15.155  1.00  0.00     0.006 C 
BRANCH   3   4
ATOM      4  C   UNL     1      -5.485   3.932  16.397  1.00  0.00     0.053 C 
BRANCH   4   5
ATOM      5  C   UNL     1      -4.759   2.676  16.762  1.00  0.00     0.041 C 
ATOM      6  O   UNL     1      -5.403   1.639  17.073  1.00  0.00    -0.550 OA
ATOM      7  O   UNL     1      -3.372   2.635  16.710  1.00  0.00    -0.550 OA
ENDBRANCH   4   5
ENDBRANCH   3   4
ENDBRANCH   2   3
ENDBRANCH   1   2
BRANCH   1   8
ATOM      8  C   UNL     1      -7.243   4.595  12.324  1.00  0.00     0.000 C 
BRANCH   8   9
ATOM      9  C   UNL     1      -8.314   4.707  13.419  1.00  0.00     0.000 C 
BRANCH   9  10
ATOM     10  C   UNL     1      -8.405   6.144  13.953  1.00  0.00     0.006 C 
BRANCH  10  11
ATOM     11  C   UNL     1      -8.582   6.188  15.476  1.00  0.00     0.053 C 
BRANCH  11  12
ATOM     12  C   UNL     1      -7.541   7.043  16.133  1.00  0.00     0.041 C 
ATOM     13  O   UNL     1      -7.447   7.073  17.389  1.00  0.00    -0.550 OA
ATOM     14  O   UNL     1      -6.654   7.779  15.358  1.00  0.00    -0.550 OA
ENDBRANCH  11  12
ENDBRANCH  10  11
ENDBRANCH   9  10
ENDBRANCH   8   9
ENDBRANCH   1   8
TORSDOF 9
ENDMDL
