MODEL 1
REMARK VINA RESULT:    -3.506      0.000      0.000
REMARK INTER + INTRA:          -4.730
REMARK INTER:                  -5.351
REMARK INTRA:                   0.621
REMARK UNBOUND:                 0.621
REMARK SMILES CC1=CCC[C@@H](C)C(=O)C[C@H](C(C)C)C(=O)C1
REMARK SMILES IDX 8 1 9 2 6 3 7 4 5 5 4 6 3 7 2 8 1 9 10 11 11 12 15 13 16 14
REMARK SMILES IDX 17 15 12 17 13 18 14 19
REMARK H PARENT
REMARK Flexibility Score: 70.00
ROOT
ATOM      1  C   UNL     1     165.812 199.646 302.963  1.00  0.00     0.136 C 
ATOM      2  O   UNL     1     164.816 198.947 302.838  1.00  0.00    -0.299 OA
ENDROOT
BRANCH   1   3
ATOM      3  C   UNL     1     165.953 200.530 304.189  1.00  0.00     0.053 C 
ATOM      4  C   UNL     1     166.307 199.686 305.421  1.00  0.00     0.016 C 
BRANCH   3   5
ATOM      5  C   UNL     1     164.657 201.338 304.427  1.00  0.00     0.015 C 
BRANCH   5   6
ATOM      6  C   UNL     1     164.536 202.522 303.447  1.00  0.00     0.028 C 
BRANCH   6   7
ATOM      7  C   UNL     1     163.640 202.230 302.270  1.00  0.00    -0.028 C 
ATOM      8  C   UNL     1     163.967 202.419 300.967  1.00  0.00    -0.070 CG0
ATOM      9  C   UNL     1     162.898 202.162 299.934  1.00  0.00     0.039 C 
ATOM     10  G   UNL     1     165.357 202.827 300.496  1.00  0.00     0.000 G0
ENDBRANCH   6   7
ENDBRANCH   5   6
ENDBRANCH   3   5
ENDBRANCH   1   3
BRANCH   1  11
ATOM     11  C   UNL     1     166.883 199.595 301.897  1.00  0.00     0.087 C 
BRANCH  11  12
ATOM     12  C   UNL     1     166.524 200.461 300.660  1.00  0.00     0.066 C 
BRANCH  12  13
ATOM     13  C   UNL     1     166.472 201.940 301.018  1.00  0.00     0.140 C 
ATOM     14  O   UNL     1     167.349 202.442 301.706  1.00  0.00    -0.299 OA
BRANCH  13  15
ATOM     15  C   UNL     1     165.365 202.810 300.473  1.00  0.00     0.106 CG0
ATOM     16  G   UNL     1     163.975 202.415 300.953  1.00  0.00     0.000 G0
ENDBRANCH  13  15
ENDBRANCH  12  13
BRANCH  12  17
ATOM     17  C   UNL     1     167.443 200.193 299.424  1.00  0.00    -0.006 C 
ATOM     18  C   UNL     1     168.161 201.449 298.898  1.00  0.00     0.008 C 
ATOM     19  C   UNL     1     168.475 199.091 299.718  1.00  0.00     0.008 C 
ENDBRANCH  12  17
ENDBRANCH  11  12
ENDBRANCH   1  11
TORSDOF 1
ENDMDL
MODEL 2
REMARK VINA RESULT:    -3.462      2.215      5.016
REMARK INTER + INTRA:          -4.663
REMARK INTER:                  -5.293
REMARK INTRA:                   0.630
REMARK UNBOUND:                 0.621
REMARK SMILES CC1=CCC[C@@H](C)C(=O)C[C@H](C(C)C)C(=O)C1
REMARK SMILES IDX 8 1 9 2 6 3 7 4 5 5 4 6 3 7 2 8 1 9 10 11 11 12 15 13 16 14
REMARK SMILES IDX 17 15 12 17 13 18 14 19
REMARK H PARENT
REMARK Flexibility Score: 70.00
ROOT
ATOM      1  C   UNL     1     164.393 202.408 304.298  1.00  0.00     0.136 C 
ATOM      2  O   UNL     1     163.503 202.448 305.136  1.00  0.00    -0.299 OA
ENDROOT
BRANCH   1   3
ATOM      3  C   UNL     1     164.199 203.114 302.969  1.00  0.00     0.053 C 
ATOM      4  C   UNL     1     162.830 202.762 302.370  1.00  0.00     0.016 C 
BRANCH   3   5
ATOM      5  C   UNL     1     165.339 202.751 301.991  1.00  0.00     0.015 C 
BRANCH   5   6
ATOM      6  C   UNL     1     165.004 201.491 301.168  1.00  0.00     0.028 C 
BRANCH   6   7
ATOM      7  C   UNL     1     166.208 200.632 300.878  1.00  0.00    -0.028 C 
ATOM      8  C   UNL     1     166.581 199.535 301.585  1.00  0.00    -0.070 CG0
ATOM      9  C   UNL     1     167.876 198.863 301.201  1.00  0.00     0.039 C 
ATOM     10  G   UNL     1     165.743 198.928 302.703  1.00  0.00     0.000 G0
ENDBRANCH   6   7
ENDBRANCH   5   6
ENDBRANCH   3   5
ENDBRANCH   1   3
BRANCH   1  11
ATOM     11  C   UNL     1     165.671 201.666 304.620  1.00  0.00     0.087 C 
BRANCH  11  12
ATOM     12  C   UNL     1     165.412 200.183 304.996  1.00  0.00     0.066 C 
BRANCH  12  13
ATOM     13  C   UNL     1     166.211 199.241 304.106  1.00  0.00     0.140 C 
ATOM     14  O   UNL     1     167.220 198.695 304.530  1.00  0.00    -0.299 OA
BRANCH  13  15
ATOM     15  C   UNL     1     165.728 198.930 302.709  1.00  0.00     0.106 CG0
ATOM     16  G   UNL     1     166.589 199.534 301.608  1.00  0.00     0.000 G0
ENDBRANCH  13  15
ENDBRANCH  12  13
BRANCH  12  17
ATOM     17  C   UNL     1     165.631 199.876 306.513  1.00  0.00    -0.006 C 
ATOM     18  C   UNL     1     164.584 200.524 307.437  1.00  0.00     0.008 C 
ATOM     19  C   UNL     1     165.692 198.362 306.779  1.00  0.00     0.008 C 
ENDBRANCH  12  17
ENDBRANCH  11  12
ENDBRANCH   1  11
TORSDOF 1
ENDMDL
MODEL 3
REMARK VINA RESULT:    -3.098      1.455      3.953
REMARK INTER + INTRA:          -4.107
REMARK INTER:                  -5.114
REMARK INTRA:                   1.007
REMARK UNBOUND:                 0.621
REMARK SMILES CC1=CCC[C@@H](C)C(=O)C[C@H](C(C)C)C(=O)C1
REMARK SMILES IDX 8 1 9 2 6 3 7 4 5 5 4 6 3 7 2 8 1 9 10 11 11 12 15 13 16 14
REMARK SMILES IDX 17 15 12 17 13 18 14 19
REMARK H PARENT
REMARK Flexibility Score: 70.00
ROOT
ATOM      1  C   UNL     1     166.925 199.702 301.126  1.00  0.00     0.136 C 
ATOM      2  O   UNL     1     167.796 198.955 301.551  1.00  0.00    -0.299 OA
ENDROOT
BRANCH   1   3
ATOM      3  C   UNL     1     167.200 200.541 299.892  1.00  0.00     0.053 C 
ATOM      4  C   UNL     1     168.317 199.908 299.050  1.00  0.00     0.016 C 
BRANCH   3   5
ATOM      5  C   UNL     1     167.564 201.990 300.291  1.00  0.00     0.015 C 
BRANCH   5   6
ATOM      6  C   UNL     1     166.707 203.021 299.530  1.00  0.00     0.028 C 
BRANCH   6   7
ATOM      7  C   UNL     1     165.246 202.651 299.470  1.00  0.00    -0.028 C 
ATOM      8  C   UNL     1     164.420 202.532 300.540  1.00  0.00    -0.070 CG0
ATOM      9  C   UNL     1     163.012 202.055 300.285  1.00  0.00     0.039 C 
ATOM     10  G   UNL     1     164.824 202.897 301.962  1.00  0.00     0.000 G0
ENDBRANCH   6   7
ENDBRANCH   5   6
ENDBRANCH   3   5
ENDBRANCH   1   3
BRANCH   1  11
ATOM     11  C   UNL     1     165.592 199.753 301.836  1.00  0.00     0.087 C 
BRANCH  11  12
ATOM     12  C   UNL     1     165.628 200.665 303.092  1.00  0.00     0.066 C 
BRANCH  12  13
ATOM     13  C   UNL     1     164.617 201.798 302.981  1.00  0.00     0.140 C 
ATOM     14  O   UNL     1     163.661 201.850 303.741  1.00  0.00    -0.299 OA
BRANCH  13  15
ATOM     15  C   UNL     1     164.823 202.897 301.967  1.00  0.00     0.106 CG0
ATOM     16  G   UNL     1     164.401 202.522 300.553  1.00  0.00     0.000 G0
ENDBRANCH  13  15
ENDBRANCH  12  13
BRANCH  12  17
ATOM     17  C   UNL     1     165.478 199.880 304.436  1.00  0.00    -0.006 C 
ATOM     18  C   UNL     1     166.694 199.001 304.782  1.00  0.00     0.008 C 
ATOM     19  C   UNL     1     165.170 200.826 305.609  1.00  0.00     0.008 C 
ENDBRANCH  12  17
ENDBRANCH  11  12
ENDBRANCH   1  11
TORSDOF 1
ENDMDL
MODEL 4
REMARK VINA RESULT:    -3.031      1.634      3.795
REMARK INTER + INTRA:          -4.004
REMARK INTER:                  -4.745
REMARK INTRA:                   0.741
REMARK UNBOUND:                 0.621
REMARK SMILES CC1=CCC[C@@H](C)C(=O)C[C@H](C(C)C)C(=O)C1
REMARK SMILES IDX 8 1 9 2 6 3 7 4 5 5 4 6 3 7 2 8 1 9 10 11 11 12 15 13 16 14
REMARK SMILES IDX 17 15 12 17 13 18 14 19
REMARK H PARENT
REMARK Flexibility Score: 70.00
ROOT
ATOM      1  C   UNL     1     164.961 200.916 304.149  1.00  0.00     0.136 C 
ATOM      2  O   UNL     1     164.788 201.886 304.874  1.00  0.00    -0.299 OA
ENDROOT
BRANCH   1   3
ATOM      3  C   UNL     1     165.515 199.632 304.740  1.00  0.00     0.053 C 
ATOM      4  C   UNL     1     165.788 199.807 306.241  1.00  0.00     0.016 C 
BRANCH   3   5
ATOM      5  C   UNL     1     166.798 199.201 303.993  1.00  0.00     0.015 C 
BRANCH   5   6
ATOM      6  C   UNL     1     166.484 198.688 302.573  1.00  0.00     0.028 C 
BRANCH   6   7
ATOM      7  C   UNL     1     167.604 198.929 301.593  1.00  0.00    -0.028 C 
ATOM      8  C   UNL     1     167.567 199.804 300.557  1.00  0.00    -0.070 CG0
ATOM      9  C   UNL     1     168.752 199.832 299.623  1.00  0.00     0.039 C 
ATOM     10  G   UNL     1     166.424 200.782 300.319  1.00  0.00     0.000 G0
ENDBRANCH   6   7
ENDBRANCH   5   6
ENDBRANCH   3   5
ENDBRANCH   1   3
BRANCH   1  11
ATOM     11  C   UNL     1     164.601 201.020 302.685  1.00  0.00     0.087 C 
BRANCH  11  12
ATOM     12  C   UNL     1     165.165 202.309 302.030  1.00  0.00     0.066 C 
BRANCH  12  13
ATOM     13  C   UNL     1     166.392 202.005 301.181  1.00  0.00     0.140 C 
ATOM     14  O   UNL     1     167.382 202.720 301.245  1.00  0.00    -0.299 OA
BRANCH  13  15
ATOM     15  C   UNL     1     166.413 200.781 300.297  1.00  0.00     0.106 CG0
ATOM     16  G   UNL     1     167.566 199.829 300.585  1.00  0.00     0.000 G0
ENDBRANCH  13  15
ENDBRANCH  12  13
BRANCH  12  17
ATOM     17  C   UNL     1     164.094 203.125 301.234  1.00  0.00    -0.006 C 
ATOM     18  C   UNL     1     164.148 202.902 299.712  1.00  0.00     0.008 C 
ATOM     19  C   UNL     1     162.673 202.842 301.750  1.00  0.00     0.008 C 
ENDBRANCH  12  17
ENDBRANCH  11  12
ENDBRANCH   1  11
TORSDOF 1
ENDMDL
MODEL 5
REMARK VINA RESULT:    -2.849      1.581      4.149
REMARK INTER + INTRA:          -3.727
REMARK INTER:                  -4.475
REMARK INTRA:                   0.748
REMARK UNBOUND:                 0.621
REMARK SMILES CC1=CCC[C@@H](C)C(=O)C[C@H](C(C)C)C(=O)C1
REMARK SMILES IDX 8 1 9 2 6 3 7 4 5 5 4 6 3 7 2 8 1 9 10 11 11 12 15 13 16 14
REMARK SMILES IDX 17 15 12 17 13 18 14 19
REMARK H PARENT
REMARK Flexibility Score: 70.00
ROOT
ATOM      1  C   UNL     1     163.943 202.438 303.860  1.00  0.00     0.136 C 
ATOM      2  O   UNL     1     163.300 202.218 304.876  1.00  0.00    -0.299 OA
ENDROOT
BRANCH   1   3
ATOM      3  C   UNL     1     163.251 203.052 302.657  1.00  0.00     0.053 C 
ATOM      4  C   UNL     1     161.727 203.013 302.837  1.00  0.00     0.016 C 
BRANCH   3   5
ATOM      5  C   UNL     1     163.673 202.325 301.359  1.00  0.00     0.015 C 
BRANCH   5   6
ATOM      6  C   UNL     1     164.764 203.105 300.599  1.00  0.00     0.028 C 
BRANCH   6   7
ATOM      7  C   UNL     1     165.631 202.225 299.734  1.00  0.00    -0.028 C 
ATOM      8  C   UNL     1     166.708 201.519 300.161  1.00  0.00    -0.070 CG0
ATOM      9  C   UNL     1     167.510 200.772 299.123  1.00  0.00     0.039 C 
ATOM     10  G   UNL     1     167.116 201.404 301.624  1.00  0.00     0.000 G0
ENDBRANCH   6   7
ENDBRANCH   5   6
ENDBRANCH   3   5
ENDBRANCH   1   3
BRANCH   1  11
ATOM     11  C   UNL     1     165.418 202.106 303.839  1.00  0.00     0.087 C 
BRANCH  11  12
ATOM     12  C   UNL     1     165.677 200.584 303.683  1.00  0.00     0.066 C 
BRANCH  12  13
ATOM     13  C   UNL     1     166.450 200.284 302.406  1.00  0.00     0.140 C 
ATOM     14  O   UNL     1     166.490 199.146 301.959  1.00  0.00    -0.299 OA
BRANCH  13  15
ATOM     15  C   UNL     1     167.124 201.405 301.651  1.00  0.00     0.106 CG0
ATOM     16  G   UNL     1     166.702 201.509 300.191  1.00  0.00     0.000 G0
ENDBRANCH  13  15
ENDBRANCH  12  13
BRANCH  12  17
ATOM     17  C   UNL     1     166.349 199.934 304.936  1.00  0.00    -0.006 C 
ATOM     18  C   UNL     1     165.366 199.629 306.082  1.00  0.00     0.008 C 
ATOM     19  C   UNL     1     167.122 198.657 304.562  1.00  0.00     0.008 C 
ENDBRANCH  12  17
ENDBRANCH  11  12
ENDBRANCH   1  11
TORSDOF 1
ENDMDL
MODEL 6
REMARK VINA RESULT:    -2.693      1.833      3.440
REMARK INTER + INTRA:          -3.489
REMARK INTER:                  -3.923
REMARK INTRA:                   0.433
REMARK UNBOUND:                 0.621
REMARK SMILES CC1=CCC[C@@H](C)C(=O)C[C@H](C(C)C)C(=O)C1
REMARK SMILES IDX 8 1 9 2 6 3 7 4 5 5 4 6 3 7 2 8 1 9 10 11 11 12 15 13 16 14
REMARK SMILES IDX 17 15 12 17 13 18 14 19
REMARK H PARENT
REMARK Flexibility Score: 70.00
ROOT
ATOM      1  C   UNL     1     165.479 199.612 301.949  1.00  0.00     0.136 C 
ATOM      2  O   UNL     1     164.639 198.780 302.264  1.00  0.00    -0.299 OA
ENDROOT
BRANCH   1   3
ATOM      3  C   UNL     1     166.844 199.579 302.611  1.00  0.00     0.053 C 
ATOM      4  C   UNL     1     167.774 198.605 301.875  1.00  0.00     0.016 C 
BRANCH   3   5
ATOM      5  C   UNL     1     166.715 199.198 304.103  1.00  0.00     0.015 C 
BRANCH   5   6
ATOM      6  C   UNL     1     166.469 200.437 304.987  1.00  0.00     0.028 C 
BRANCH   6   7
ATOM      7  C   UNL     1     165.028 200.880 305.003  1.00  0.00    -0.028 C 
ATOM      8  C   UNL     1     164.562 202.058 304.518  1.00  0.00    -0.070 CG0
ATOM      9  C   UNL     1     163.097 202.365 304.714  1.00  0.00     0.039 C 
ATOM     10  G   UNL     1     165.423 203.055 303.754  1.00  0.00     0.000 G0
ENDBRANCH   6   7
ENDBRANCH   5   6
ENDBRANCH   3   5
ENDBRANCH   1   3
BRANCH   1  11
ATOM     11  C   UNL     1     165.136 200.639 300.895  1.00  0.00     0.087 C 
BRANCH  11  12
ATOM     12  C   UNL     1     164.601 201.959 301.511  1.00  0.00     0.066 C 
BRANCH  12  13
ATOM     13  C   UNL     1     165.684 202.675 302.307  1.00  0.00     0.140 C 
ATOM     14  O   UNL     1     166.739 202.988 301.774  1.00  0.00    -0.299 OA
BRANCH  13  15
ATOM     15  C   UNL     1     165.435 203.057 303.747  1.00  0.00     0.106 CG0
ATOM     16  G   UNL     1     164.571 202.062 304.510  1.00  0.00     0.000 G0
ENDBRANCH  13  15
ENDBRANCH  12  13
BRANCH  12  17
ATOM     17  C   UNL     1     163.924 202.906 300.466  1.00  0.00    -0.006 C 
ATOM     18  C   UNL     1     164.488 202.763 299.041  1.00  0.00     0.008 C 
ATOM     19  C   UNL     1     162.398 202.718 300.442  1.00  0.00     0.008 C 
ENDBRANCH  12  17
ENDBRANCH  11  12
ENDBRANCH   1  11
TORSDOF 1
ENDMDL
MODEL 7
REMARK VINA RESULT:    -2.328      2.247      4.561
REMARK INTER + INTRA:          -2.932
REMARK INTER:                  -4.532
REMARK INTRA:                   1.600
REMARK UNBOUND:                 0.621
REMARK SMILES CC1=CCC[C@@H](C)C(=O)C[C@H](C(C)C)C(=O)C1
REMARK SMILES IDX 8 1 9 2 6 3 7 4 5 5 4 6 3 7 2 8 1 9 10 11 11 12 15 13 16 14
REMARK SMILES IDX 17 15 12 17 13 18 14 19
REMARK H PARENT
REMARK Flexibility Score: 70.00
ROOT
ATOM      1  C   UNL     1     165.529 201.386 301.925  1.00  0.00     0.136 C 
ATOM      2  O   UNL     1     166.479 202.098 302.221  1.00  0.00    -0.299 OA
ENDROOT
BRANCH   1   3
ATOM      3  C   UNL     1     164.902 201.513 300.549  1.00  0.00     0.053 C 
ATOM      4  C   UNL     1     165.549 202.667 299.769  1.00  0.00     0.016 C 
BRANCH   3   5
ATOM      5  C   UNL     1     163.373 201.716 300.666  1.00  0.00     0.015 C 
BRANCH   5   6
ATOM      6  C   UNL     1     163.025 203.124 301.188  1.00  0.00     0.028 C 
BRANCH   6   7
ATOM      7  C   UNL     1     162.096 203.105 302.375  1.00  0.00    -0.028 C 
ATOM      8  C   UNL     1     162.479 202.994 303.672  1.00  0.00    -0.070 CG0
ATOM      9  C   UNL     1     161.394 202.893 304.716  1.00  0.00     0.039 C 
ATOM     10  G   UNL     1     163.932 203.015 304.127  1.00  0.00     0.000 G0
ENDBRANCH   6   7
ENDBRANCH   5   6
ENDBRANCH   3   5
ENDBRANCH   1   3
BRANCH   1  11
ATOM     11  C   UNL     1     165.019 200.386 302.937  1.00  0.00     0.087 C 
BRANCH  11  12
ATOM     12  C   UNL     1     165.360 200.796 304.394  1.00  0.00     0.066 C 
BRANCH  12  13
ATOM     13  C   UNL     1     164.340 201.786 304.941  1.00  0.00     0.140 C 
ATOM     14  O   UNL     1     163.867 201.634 306.059  1.00  0.00    -0.299 OA
BRANCH  13  15
ATOM     15  C   UNL     1     163.951 202.997 304.127  1.00  0.00     0.106 CG0
ATOM     16  G   UNL     1     162.492 203.005 303.689  1.00  0.00     0.000 G0
ENDBRANCH  13  15
ENDBRANCH  12  13
BRANCH  12  17
ATOM     17  C   UNL     1     165.562 199.578 305.354  1.00  0.00    -0.006 C 
ATOM     18  C   UNL     1     166.829 198.756 305.057  1.00  0.00     0.008 C 
ATOM     19  C   UNL     1     165.561 200.017 306.828  1.00  0.00     0.008 C 
ENDBRANCH  12  17
ENDBRANCH  11  12
ENDBRANCH   1  11
TORSDOF 1
ENDMDL
MODEL 8
REMARK VINA RESULT:    -2.325      1.932      4.357
REMARK INTER + INTRA:          -2.928
REMARK INTER:                  -3.301
REMARK INTRA:                   0.373
REMARK UNBOUND:                 0.621
REMARK SMILES CC1=CCC[C@@H](C)C(=O)C[C@H](C(C)C)C(=O)C1
REMARK SMILES IDX 8 1 9 2 6 3 7 4 5 5 4 6 3 7 2 8 1 9 10 11 11 12 15 13 16 14
REMARK SMILES IDX 17 15 12 17 13 18 14 19
REMARK H PARENT
REMARK Flexibility Score: 70.00
ROOT
ATOM      1  C   UNL     1     165.406 199.914 305.666  1.00  0.00     0.136 C 
ATOM      2  O   UNL     1     165.627 200.323 306.797  1.00  0.00    -0.299 OA
ENDROOT
BRANCH   1   3
ATOM      3  C   UNL     1     166.106 198.660 305.176  1.00  0.00     0.053 C 
ATOM      4  C   UNL     1     166.863 197.983 306.327  1.00  0.00     0.016 C 
BRANCH   3   5
ATOM      5  C   UNL     1     167.062 198.994 304.008  1.00  0.00     0.015 C 
BRANCH   5   6
ATOM      6  C   UNL     1     166.348 198.904 302.644  1.00  0.00     0.028 C 
BRANCH   6   7
ATOM      7  C   UNL     1     166.904 199.858 301.618  1.00  0.00    -0.028 C 
ATOM      8  C   UNL     1     166.395 201.080 301.323  1.00  0.00    -0.070 CG0
ATOM      9  C   UNL     1     167.033 201.849 300.192  1.00  0.00     0.039 C 
ATOM     10  G   UNL     1     165.256 201.729 302.098  1.00  0.00     0.000 G0
ENDBRANCH   6   7
ENDBRANCH   5   6
ENDBRANCH   3   5
ENDBRANCH   1   3
BRANCH   1  11
ATOM     11  C   UNL     1     164.424 200.664 304.793  1.00  0.00     0.087 C 
BRANCH  11  12
ATOM     12  C   UNL     1     164.801 202.161 304.637  1.00  0.00     0.066 C 
BRANCH  12  13
ATOM     13  C   UNL     1     165.634 202.393 303.384  1.00  0.00     0.140 C 
ATOM     14  O   UNL     1     166.654 203.065 303.434  1.00  0.00    -0.299 OA
BRANCH  13  15
ATOM     15  C   UNL     1     165.235 201.742 302.081  1.00  0.00     0.106 CG0
ATOM     16  G   UNL     1     166.386 201.066 301.349  1.00  0.00     0.000 G0
ENDBRANCH  13  15
ENDBRANCH  12  13
BRANCH  12  17
ATOM     17  C   UNL     1     163.569 203.123 304.703  1.00  0.00    -0.006 C 
ATOM     18  C   UNL     1     162.595 202.968 303.521  1.00  0.00     0.008 C 
ATOM     19  C   UNL     1     162.805 202.970 306.029  1.00  0.00     0.008 C 
ENDBRANCH  12  17
ENDBRANCH  11  12
ENDBRANCH   1  11
TORSDOF 1
ENDMDL
MODEL 9
REMARK VINA RESULT:    -2.207      1.744      4.873
REMARK INTER + INTRA:          -2.747
REMARK INTER:                  -3.270
REMARK INTRA:                   0.523
REMARK UNBOUND:                 0.621
REMARK SMILES CC1=CCC[C@@H](C)C(=O)C[C@H](C(C)C)C(=O)C1
REMARK SMILES IDX 8 1 9 2 6 3 7 4 5 5 4 6 3 7 2 8 1 9 10 11 11 12 15 13 16 14
REMARK SMILES IDX 17 15 12 17 13 18 14 19
REMARK H PARENT
REMARK Flexibility Score: 70.00
ROOT
ATOM      1  C   UNL     1     167.029 202.451 300.876  1.00  0.00     0.136 C 
ATOM      2  O   UNL     1     167.942 202.754 301.631  1.00  0.00    -0.299 OA
ENDROOT
BRANCH   1   3
ATOM      3  C   UNL     1     167.267 201.407 299.800  1.00  0.00     0.053 C 
ATOM      4  C   UNL     1     166.013 201.239 298.930  1.00  0.00     0.016 C 
BRANCH   3   5
ATOM      5  C   UNL     1     167.683 200.060 300.434  1.00  0.00     0.015 C 
BRANCH   5   6
ATOM      6  C   UNL     1     166.501 199.384 301.160  1.00  0.00     0.028 C 
BRANCH   6   7
ATOM      7  C   UNL     1     166.769 199.129 302.621  1.00  0.00    -0.028 C 
ATOM      8  C   UNL     1     166.011 199.584 303.650  1.00  0.00    -0.070 CG0
ATOM      9  C   UNL     1     166.497 199.308 305.052  1.00  0.00     0.039 C 
ATOM     10  G   UNL     1     164.685 200.311 303.465  1.00  0.00     0.000 G0
ENDBRANCH   6   7
ENDBRANCH   5   6
ENDBRANCH   3   5
ENDBRANCH   1   3
BRANCH   1  11
ATOM     11  C   UNL     1     165.683 203.116 301.048  1.00  0.00     0.087 C 
BRANCH  11  12
ATOM     12  C   UNL     1     164.599 202.129 301.558  1.00  0.00     0.066 C 
BRANCH  12  13
ATOM     13  C   UNL     1     164.833 201.758 303.016  1.00  0.00     0.140 C 
ATOM     14  O   UNL     1     165.100 202.621 303.840  1.00  0.00    -0.299 OA
BRANCH  13  15
ATOM     15  C   UNL     1     164.679 200.324 303.464  1.00  0.00     0.106 CG0
ATOM     16  G   UNL     1     166.000 199.598 303.679  1.00  0.00     0.000 G0
ENDBRANCH  13  15
ENDBRANCH  12  13
BRANCH  12  17
ATOM     17  C   UNL     1     163.137 202.627 301.312  1.00  0.00    -0.006 C 
ATOM     18  C   UNL     1     162.300 201.684 300.428  1.00  0.00     0.008 C 
ATOM     19  C   UNL     1     162.400 202.887 302.636  1.00  0.00     0.008 C 
ENDBRANCH  12  17
ENDBRANCH  11  12
ENDBRANCH   1  11
TORSDOF 1
ENDMDL
