MODEL 1
REMARK VINA RESULT:    -3.145      0.000      0.000
REMARK INTER + INTRA:          -3.567
REMARK INTER:                  -3.513
REMARK INTRA:                  -0.054
REMARK UNBOUND:                -0.054
REMARK SMILES CCCC(=O)[O-]
REMARK SMILES IDX 3 1 4 2 5 3 6 4 2 5 1 6
REMARK H PARENT
REMARK Flexibility Score: inf
ROOT
ATOM      1  C   UNL     1      15.051  43.197  18.884  1.00  0.00     0.052 C 
ENDROOT
BRANCH   1   2
ATOM      2  C   UNL     1      14.524  43.127  20.282  1.00  0.00     0.041 C 
ATOM      3  O   UNL     1      15.238  43.504  21.249  1.00  0.00    -0.550 OA
ATOM      4  O   UNL     1      13.263  42.598  20.524  1.00  0.00    -0.550 OA
ENDBRANCH   1   2
BRANCH   1   5
ATOM      5  C   UNL     1      15.105  44.649  18.404  1.00  0.00     0.003 C 
ATOM      6  C   UNL     1      13.748  45.105  17.875  1.00  0.00     0.004 C 
ENDBRANCH   1   5
TORSDOF 2
ENDMDL
MODEL 2
REMARK VINA RESULT:    -2.978      2.020      2.956
REMARK INTER + INTRA:          -3.380
REMARK INTER:                  -3.326
REMARK INTRA:                  -0.054
REMARK UNBOUND:                -0.054
REMARK SMILES CCCC(=O)[O-]
REMARK SMILES IDX 3 1 4 2 5 3 6 4 2 5 1 6
REMARK H PARENT
REMARK Flexibility Score: inf
ROOT
ATOM      1  C   UNL     1      14.820  43.258  18.582  1.00  0.00     0.052 C 
ENDROOT
BRANCH   1   2
ATOM      2  C   UNL     1      13.591  44.089  18.389  1.00  0.00     0.041 C 
ATOM      3  O   UNL     1      12.455  43.612  18.649  1.00  0.00    -0.550 OA
ATOM      4  O   UNL     1      13.695  45.375  17.875  1.00  0.00    -0.550 OA
ENDBRANCH   1   2
BRANCH   1   5
ATOM      5  C   UNL     1      15.722  43.877  19.653  1.00  0.00     0.003 C 
ATOM      6  C   UNL     1      15.250  43.502  21.055  1.00  0.00     0.004 C 
ENDBRANCH   1   5
TORSDOF 2
ENDMDL
MODEL 3
REMARK VINA RESULT:    -2.905      1.303      1.665
REMARK INTER + INTRA:          -3.298
REMARK INTER:                  -3.281
REMARK INTRA:                  -0.018
REMARK UNBOUND:                -0.054
REMARK SMILES CCCC(=O)[O-]
REMARK SMILES IDX 3 1 4 2 5 3 6 4 2 5 1 6
REMARK H PARENT
REMARK Flexibility Score: inf
ROOT
ATOM      1  C   UNL     1      14.834  43.478  20.273  1.00  0.00     0.052 C 
ENDROOT
BRANCH   1   2
ATOM      2  C   UNL     1      13.762  42.475  19.979  1.00  0.00     0.041 C 
ATOM      3  O   UNL     1      12.866  42.237  20.831  1.00  0.00    -0.550 OA
ATOM      4  O   UNL     1      13.781  41.768  18.785  1.00  0.00    -0.550 OA
ENDBRANCH   1   2
BRANCH   1   5
ATOM      5  C   UNL     1      15.510  43.934  18.978  1.00  0.00     0.003 C 
ATOM      6  C   UNL     1      14.704  45.035  18.294  1.00  0.00     0.004 C 
ENDBRANCH   1   5
TORSDOF 2
ENDMDL
MODEL 4
REMARK VINA RESULT:    -2.870      1.910      2.410
REMARK INTER + INTRA:          -3.259
REMARK INTER:                  -3.241
REMARK INTRA:                  -0.018
REMARK UNBOUND:                -0.054
REMARK SMILES CCCC(=O)[O-]
REMARK SMILES IDX 3 1 4 2 5 3 6 4 2 5 1 6
REMARK H PARENT
REMARK Flexibility Score: inf
ROOT
ATOM      1  C   UNL     1      14.179  42.970  20.427  1.00  0.00     0.052 C 
ENDROOT
BRANCH   1   2
ATOM      2  C   UNL     1      13.727  41.546  20.338  1.00  0.00     0.041 C 
ATOM      3  O   UNL     1      13.397  41.055  19.226  1.00  0.00    -0.550 OA
ATOM      4  O   UNL     1      13.621  40.777  21.489  1.00  0.00    -0.550 OA
ENDBRANCH   1   2
BRANCH   1   5
ATOM      5  C   UNL     1      14.754  43.434  19.086  1.00  0.00     0.003 C 
ATOM      6  C   UNL     1      16.118  44.092  19.269  1.00  0.00     0.004 C 
ENDBRANCH   1   5
TORSDOF 2
ENDMDL
MODEL 5
REMARK VINA RESULT:    -2.836      1.649      2.307
REMARK INTER + INTRA:          -3.222
REMARK INTER:                  -3.159
REMARK INTRA:                  -0.063
REMARK UNBOUND:                -0.054
REMARK SMILES CCCC(=O)[O-]
REMARK SMILES IDX 3 1 4 2 5 3 6 4 2 5 1 6
REMARK H PARENT
REMARK Flexibility Score: inf
ROOT
ATOM      1  C   UNL     1      13.596  43.887  19.075  1.00  0.00     0.052 C 
ENDROOT
BRANCH   1   2
ATOM      2  C   UNL     1      13.703  42.396  18.997  1.00  0.00     0.041 C 
ATOM      3  O   UNL     1      13.720  41.820  17.878  1.00  0.00    -0.550 OA
ATOM      4  O   UNL     1      13.735  41.640  20.161  1.00  0.00    -0.550 OA
ENDBRANCH   1   2
BRANCH   1   5
ATOM      5  C   UNL     1      14.864  44.545  18.525  1.00  0.00     0.003 C 
ATOM      6  C   UNL     1      16.101  44.079  19.288  1.00  0.00     0.004 C 
ENDBRANCH   1   5
TORSDOF 2
ENDMDL
MODEL 6
REMARK VINA RESULT:    -2.779     11.054     11.695
REMARK INTER + INTRA:          -3.158
REMARK INTER:                  -3.123
REMARK INTRA:                  -0.035
REMARK UNBOUND:                -0.054
REMARK SMILES CCCC(=O)[O-]
REMARK SMILES IDX 3 1 4 2 5 3 6 4 2 5 1 6
REMARK H PARENT
REMARK Flexibility Score: inf
ROOT
ATOM      1  C   UNL     1      24.196  38.648  24.927  1.00  0.00     0.052 C 
ENDROOT
BRANCH   1   2
ATOM      2  C   UNL     1      23.818  39.551  23.795  1.00  0.00     0.041 C 
ATOM      3  O   UNL     1      23.419  39.066  22.703  1.00  0.00    -0.550 OA
ATOM      4  O   UNL     1      23.953  40.926  23.928  1.00  0.00    -0.550 OA
ENDBRANCH   1   2
BRANCH   1   5
ATOM      5  C   UNL     1      23.031  37.724  25.287  1.00  0.00     0.003 C 
ATOM      6  C   UNL     1      22.240  38.271  26.471  1.00  0.00     0.004 C 
ENDBRANCH   1   5
TORSDOF 2
ENDMDL
MODEL 7
REMARK VINA RESULT:    -2.772      1.614      2.341
REMARK INTER + INTRA:          -3.150
REMARK INTER:                  -3.098
REMARK INTRA:                  -0.053
REMARK UNBOUND:                -0.054
REMARK SMILES CCCC(=O)[O-]
REMARK SMILES IDX 3 1 4 2 5 3 6 4 2 5 1 6
REMARK H PARENT
REMARK Flexibility Score: inf
ROOT
ATOM      1  C   UNL     1      14.235  43.953  18.952  1.00  0.00     0.052 C 
ENDROOT
BRANCH   1   2
ATOM      2  C   UNL     1      15.450  43.898  19.825  1.00  0.00     0.041 C 
ATOM      3  O   UNL     1      16.595  44.064  19.328  1.00  0.00    -0.550 OA
ATOM      4  O   UNL     1      15.322  43.614  21.177  1.00  0.00    -0.550 OA
ENDBRANCH   1   2
BRANCH   1   5
ATOM      5  C   UNL     1      14.141  42.694  18.086  1.00  0.00     0.003 C 
ATOM      6  C   UNL     1      13.446  41.561  18.835  1.00  0.00     0.004 C 
ENDBRANCH   1   5
TORSDOF 2
ENDMDL
MODEL 8
REMARK VINA RESULT:    -2.706      1.856      3.083
REMARK INTER + INTRA:          -3.076
REMARK INTER:                  -3.037
REMARK INTRA:                  -0.038
REMARK UNBOUND:                -0.054
REMARK SMILES CCCC(=O)[O-]
REMARK SMILES IDX 3 1 4 2 5 3 6 4 2 5 1 6
REMARK H PARENT
REMARK Flexibility Score: inf
ROOT
ATOM      1  C   UNL     1      14.159  42.744  19.484  1.00  0.00     0.052 C 
ENDROOT
BRANCH   1   2
ATOM      2  C   UNL     1      15.244  43.562  20.111  1.00  0.00     0.041 C 
ATOM      3  O   UNL     1      15.332  43.645  21.365  1.00  0.00    -0.550 OA
ATOM      4  O   UNL     1      16.128  44.273  19.311  1.00  0.00    -0.550 OA
ENDBRANCH   1   2
BRANCH   1   5
ATOM      5  C   UNL     1      13.275  42.111  20.562  1.00  0.00     0.003 C 
ATOM      6  C   UNL     1      13.492  40.603  20.637  1.00  0.00     0.004 C 
ENDBRANCH   1   5
TORSDOF 2
ENDMDL
MODEL 9
REMARK VINA RESULT:    -2.474     11.006     11.459
REMARK INTER + INTRA:          -2.817
REMARK INTER:                  -2.765
REMARK INTRA:                  -0.052
REMARK UNBOUND:                -0.054
REMARK SMILES CCCC(=O)[O-]
REMARK SMILES IDX 3 1 4 2 5 3 6 4 2 5 1 6
REMARK H PARENT
REMARK Flexibility Score: inf
ROOT
ATOM      1  C   UNL     1      22.815  38.556  23.847  1.00  0.00     0.052 C 
ENDROOT
BRANCH   1   2
ATOM      2  C   UNL     1      23.114  37.999  25.203  1.00  0.00     0.041 C 
ATOM      3  O   UNL     1      23.891  37.016  25.328  1.00  0.00    -0.550 OA
ATOM      4  O   UNL     1      22.496  38.534  26.325  1.00  0.00    -0.550 OA
ENDBRANCH   1   2
BRANCH   1   5
ATOM      5  C   UNL     1      23.982  39.413  23.351  1.00  0.00     0.003 C 
ATOM      6  C   UNL     1      23.893  40.834  23.898  1.00  0.00     0.004 C 
ENDBRANCH   1   5
TORSDOF 2
ENDMDL
