MODEL 1
REMARK VINA RESULT:    -4.025      0.000      0.000
REMARK INTER + INTRA:          -5.167
REMARK INTER:                  -4.848
REMARK INTRA:                  -0.319
REMARK UNBOUND:                -0.319
REMARK SMILES O=c1c(O)c(-c2ccc(O)c(O)c2)oc2cc(O)cc(O)c12
REMARK SMILES IDX 5 1 3 2 2 3 1 4 22 5 20 6 19 7 17 8 16 9 15 10 14 11 6 12
REMARK SMILES IDX 7 13 8 14 9 15 13 16 11 17 10 18 12 20 4 22 21 24 18 26
REMARK H PARENT 10 19 12 21 4 23 21 25 18 27
REMARK Flexibility Score: inf
ROOT
ATOM      1  C   UNL     1      21.694  48.816  87.417  1.00  0.00     0.180 A 
ATOM      2  C   UNL     1      21.027  47.626  87.754  1.00  0.00     0.208 A 
ATOM      3  C   UNL     1      19.721  47.698  88.265  1.00  0.00     0.238 A 
ATOM      4  O   UNL     1      19.149  46.633  88.616  1.00  0.00    -0.285 OA
ATOM      5  C   UNL     1      19.093  48.958  88.418  1.00  0.00     0.111 A 
ATOM      6  C   UNL     1      17.758  49.146  88.888  1.00  0.00     0.134 A 
ATOM      7  C   UNL     1      17.286  50.444  89.123  1.00  0.00     0.093 A 
ATOM      8  C   UNL     1      18.077  51.560  88.842  1.00  0.00     0.123 A 
ATOM      9  C   UNL     1      19.360  51.388  88.326  1.00  0.00     0.094 A 
ATOM     10  C   UNL     1      19.872  50.105  88.116  1.00  0.00     0.146 A 
ATOM     11  O   UNL     1      21.103  49.985  87.634  1.00  0.00    -0.452 OA
ENDROOT
BRANCH   1  12
ATOM     12  C   UNL     1      23.062  48.819  86.850  1.00  0.00     0.025 A 
ATOM     13  C   UNL     1      23.233  48.790  85.457  1.00  0.00     0.016 A 
ATOM     14  C   UNL     1      24.515  48.771  84.902  1.00  0.00     0.051 A 
ATOM     15  C   UNL     1      25.644  48.765  85.731  1.00  0.00     0.157 A 
ATOM     16  C   UNL     1      24.198  48.793  87.679  1.00  0.00     0.062 A 
ATOM     17  C   UNL     1      25.483  48.771  87.126  1.00  0.00     0.158 A 
BRANCH  15  18
ATOM     18  O   UNL     1      26.923  48.749  85.173  1.00  0.00    -0.504 OA
ATOM     19  H   UNL     1      27.747  48.591  85.740  1.00  0.00     0.293 HD
ENDBRANCH  15  18
BRANCH  17  20
ATOM     20  O   UNL     1      26.587  48.751  87.979  1.00  0.00    -0.504 OA
ATOM     21  H   UNL     1      27.312  49.456  87.937  1.00  0.00     0.293 HD
ENDBRANCH  17  20
ENDBRANCH   1  12
BRANCH   2  22
ATOM     22  O   UNL     1      21.673  46.394  87.617  1.00  0.00    -0.502 OA
ATOM     23  H   UNL     1      21.347  45.554  88.079  1.00  0.00     0.293 HD
ENDBRANCH   2  22
BRANCH   6  24
ATOM     24  O   UNL     1      16.855  48.103  89.112  1.00  0.00    -0.507 OA
ATOM     25  H   UNL     1      16.165  48.088  89.848  1.00  0.00     0.293 HD
ENDBRANCH   6  24
BRANCH   8  26
ATOM     26  O   UNL     1      17.594  52.848  89.064  1.00  0.00    -0.508 OA
ATOM     27  H   UNL     1      17.919  53.409  89.843  1.00  0.00     0.293 HD
ENDBRANCH   8  26
TORSDOF 6
ENDMDL
MODEL 2
REMARK VINA RESULT:    -3.888      1.855      6.916
REMARK INTER + INTRA:          -5.002
REMARK INTER:                  -4.754
REMARK INTRA:                  -0.248
REMARK UNBOUND:                -0.319
REMARK SMILES O=c1c(O)c(-c2ccc(O)c(O)c2)oc2cc(O)cc(O)c12
REMARK SMILES IDX 5 1 3 2 2 3 1 4 22 5 20 6 19 7 17 8 16 9 15 10 14 11 6 12
REMARK SMILES IDX 7 13 8 14 9 15 13 16 11 17 10 18 12 20 4 22 21 24 18 26
REMARK H PARENT 10 19 12 21 4 23 21 25 18 27
REMARK Flexibility Score: inf
ROOT
ATOM      1  C   UNL     1      21.779  49.597  86.962  1.00  0.00     0.180 A 
ATOM      2  C   UNL     1      22.035  48.457  86.182  1.00  0.00     0.208 A 
ATOM      3  C   UNL     1      23.337  48.240  85.700  1.00  0.00     0.238 A 
ATOM      4  O   UNL     1      23.549  47.247  84.957  1.00  0.00    -0.285 OA
ATOM      5  C   UNL     1      24.367  49.158  86.017  1.00  0.00     0.111 A 
ATOM      6  C   UNL     1      25.730  49.016  85.617  1.00  0.00     0.134 A 
ATOM      7  C   UNL     1      26.637  50.052  85.877  1.00  0.00     0.093 A 
ATOM      8  C   UNL     1      26.245  51.192  86.582  1.00  0.00     0.123 A 
ATOM      9  C   UNL     1      24.932  51.312  87.029  1.00  0.00     0.094 A 
ATOM     10  C   UNL     1      23.995  50.314  86.752  1.00  0.00     0.146 A 
ATOM     11  O   UNL     1      22.751  50.473  87.187  1.00  0.00    -0.452 OA
ENDROOT
BRANCH   1  12
ATOM     12  C   UNL     1      20.439  49.881  87.526  1.00  0.00     0.025 A 
ATOM     13  C   UNL     1      19.959  49.105  88.592  1.00  0.00     0.016 A 
ATOM     14  C   UNL     1      18.690  49.342  89.125  1.00  0.00     0.051 A 
ATOM     15  C   UNL     1      17.875  50.348  88.589  1.00  0.00     0.157 A 
ATOM     16  C   UNL     1      19.610  50.876  86.977  1.00  0.00     0.062 A 
ATOM     17  C   UNL     1      18.336  51.115  87.507  1.00  0.00     0.158 A 
BRANCH  15  18
ATOM     18  O   UNL     1      16.609  50.583  89.125  1.00  0.00    -0.504 OA
ATOM     19  H   UNL     1      16.241  50.024  89.884  1.00  0.00     0.293 HD
ENDBRANCH  15  18
BRANCH  17  20
ATOM     20  O   UNL     1      17.544  52.113  86.941  1.00  0.00    -0.504 OA
ATOM     21  H   UNL     1      16.540  52.144  87.074  1.00  0.00     0.293 HD
ENDBRANCH  17  20
ENDBRANCH   1  12
BRANCH   2  22
ATOM     22  O   UNL     1      20.998  47.576  85.861  1.00  0.00    -0.502 OA
ATOM     23  H   UNL     1      21.029  46.592  86.096  1.00  0.00     0.293 HD
ENDBRANCH   2  22
BRANCH   6  24
ATOM     24  O   UNL     1      26.245  47.877  84.990  1.00  0.00    -0.507 OA
ATOM     25  H   UNL     1      27.123  47.440  85.225  1.00  0.00     0.293 HD
ENDBRANCH   6  24
BRANCH   8  26
ATOM     26  O   UNL     1      27.158  52.210  86.850  1.00  0.00    -0.508 OA
ATOM     27  H   UNL     1      28.157  52.037  86.862  1.00  0.00     0.293 HD
ENDBRANCH   8  26
TORSDOF 6
ENDMDL
MODEL 3
REMARK VINA RESULT:    -3.857      2.330      7.720
REMARK INTER + INTRA:          -4.964
REMARK INTER:                  -4.688
REMARK INTRA:                  -0.276
REMARK UNBOUND:                -0.319
REMARK SMILES O=c1c(O)c(-c2ccc(O)c(O)c2)oc2cc(O)cc(O)c12
REMARK SMILES IDX 5 1 3 2 2 3 1 4 22 5 20 6 19 7 17 8 16 9 15 10 14 11 6 12
REMARK SMILES IDX 7 13 8 14 9 15 13 16 11 17 10 18 12 20 4 22 21 24 18 26
REMARK H PARENT 10 19 12 21 4 23 21 25 18 27
REMARK Flexibility Score: inf
ROOT
ATOM      1  C   UNL     1      23.035  50.601  87.201  1.00  0.00     0.180 A 
ATOM      2  C   UNL     1      23.718  51.816  87.381  1.00  0.00     0.208 A 
ATOM      3  C   UNL     1      25.047  51.922  86.941  1.00  0.00     0.238 A 
ATOM      4  O   UNL     1      25.672  52.993  87.154  1.00  0.00    -0.285 OA
ATOM      5  C   UNL     1      25.671  50.818  86.311  1.00  0.00     0.111 A 
ATOM      6  C   UNL     1      26.999  50.826  85.789  1.00  0.00     0.134 A 
ATOM      7  C   UNL     1      27.558  49.637  85.304  1.00  0.00     0.093 A 
ATOM      8  C   UNL     1      26.813  48.456  85.261  1.00  0.00     0.123 A 
ATOM      9  C   UNL     1      25.496  48.452  85.712  1.00  0.00     0.094 A 
ATOM     10  C   UNL     1      24.922  49.614  86.236  1.00  0.00     0.146 A 
ATOM     11  O   UNL     1      23.668  49.564  86.666  1.00  0.00    -0.452 OA
ENDROOT
BRANCH   1  12
ATOM     12  C   UNL     1      21.625  50.421  87.617  1.00  0.00     0.025 A 
ATOM     13  C   UNL     1      21.330  49.616  88.728  1.00  0.00     0.016 A 
ATOM     14  C   UNL     1      20.006  49.415  89.125  1.00  0.00     0.051 A 
ATOM     15  C   UNL     1      18.956  50.003  88.407  1.00  0.00     0.157 A 
ATOM     16  C   UNL     1      20.567  50.993  86.887  1.00  0.00     0.062 A 
ATOM     17  C   UNL     1      19.239  50.792  87.280  1.00  0.00     0.158 A 
BRANCH  15  18
ATOM     18  O   UNL     1      17.635  49.803  88.808  1.00  0.00    -0.504 OA
ATOM     19  H   UNL     1      16.964  49.337  88.210  1.00  0.00     0.293 HD
ENDBRANCH  15  18
BRANCH  17  20
ATOM     20  O   UNL     1      18.216  51.380  86.536  1.00  0.00    -0.504 OA
ATOM     21  H   UNL     1      17.495  51.945  86.966  1.00  0.00     0.293 HD
ENDBRANCH  17  20
ENDBRANCH   1  12
BRANCH   2  22
ATOM     22  O   UNL     1      23.092  52.886  88.027  1.00  0.00    -0.502 OA
ATOM     23  H   UNL     1      22.194  53.250  87.730  1.00  0.00     0.293 HD
ENDBRANCH   2  22
BRANCH   6  24
ATOM     24  O   UNL     1      27.795  51.972  85.700  1.00  0.00    -0.507 OA
ATOM     25  H   UNL     1      27.442  52.913  85.611  1.00  0.00     0.293 HD
ENDBRANCH   6  24
BRANCH   8  26
ATOM     26  O   UNL     1      27.372  47.281  84.762  1.00  0.00    -0.508 OA
ATOM     27  H   UNL     1      27.126  46.374  85.141  1.00  0.00     0.293 HD
ENDBRANCH   8  26
TORSDOF 6
ENDMDL
MODEL 4
REMARK VINA RESULT:    -3.853      3.177      5.052
REMARK INTER + INTRA:          -4.960
REMARK INTER:                  -4.641
REMARK INTRA:                  -0.319
REMARK UNBOUND:                -0.319
REMARK SMILES O=c1c(O)c(-c2ccc(O)c(O)c2)oc2cc(O)cc(O)c12
REMARK SMILES IDX 5 1 3 2 2 3 1 4 22 5 20 6 19 7 17 8 16 9 15 10 14 11 6 12
REMARK SMILES IDX 7 13 8 14 9 15 13 16 11 17 10 18 12 20 4 22 21 24 18 26
REMARK H PARENT 10 19 12 21 4 23 21 25 18 27
REMARK Flexibility Score: inf
ROOT
ATOM      1  C   UNL     1      22.164  50.254  87.750  1.00  0.00     0.180 A 
ATOM      2  C   UNL     1      20.944  50.810  88.169  1.00  0.00     0.208 A 
ATOM      3  C   UNL     1      20.905  52.161  88.552  1.00  0.00     0.238 A 
ATOM      4  O   UNL     1      19.822  52.638  88.978  1.00  0.00    -0.285 OA
ATOM      5  C   UNL     1      22.085  52.942  88.496  1.00  0.00     0.111 A 
ATOM      6  C   UNL     1      22.153  54.330  88.821  1.00  0.00     0.134 A 
ATOM      7  C   UNL     1      23.398  54.971  88.856  1.00  0.00     0.093 A 
ATOM      8  C   UNL     1      24.568  54.289  88.512  1.00  0.00     0.123 A 
ATOM      9  C   UNL     1      24.504  52.950  88.135  1.00  0.00     0.094 A 
ATOM     10  C   UNL     1      23.281  52.274  88.127  1.00  0.00     0.146 A 
ATOM     11  O   UNL     1      23.266  50.995  87.772  1.00  0.00    -0.452 OA
ENDROOT
BRANCH   1  12
ATOM     12  C   UNL     1      22.279  48.845  87.309  1.00  0.00     0.025 A 
ATOM     13  C   UNL     1      21.980  48.511  85.979  1.00  0.00     0.016 A 
ATOM     14  C   UNL     1      22.061  47.185  85.547  1.00  0.00     0.051 A 
ATOM     15  C   UNL     1      22.427  46.171  86.442  1.00  0.00     0.157 A 
ATOM     16  C   UNL     1      22.626  47.822  88.210  1.00  0.00     0.062 A 
ATOM     17  C   UNL     1      22.705  46.492  87.781  1.00  0.00     0.158 A 
BRANCH  15  18
ATOM     18  O   UNL     1      22.509  44.849  86.007  1.00  0.00    -0.504 OA
ATOM     19  H   UNL     1      21.687  44.333  85.718  1.00  0.00     0.293 HD
ENDBRANCH  15  18
BRANCH  17  20
ATOM     20  O   UNL     1      23.057  45.504  88.701  1.00  0.00    -0.504 OA
ATOM     21  H   UNL     1      22.437  45.221  89.449  1.00  0.00     0.293 HD
ENDBRANCH  17  20
ENDBRANCH   1  12
BRANCH   2  22
ATOM     22  O   UNL     1      19.796  50.014  88.239  1.00  0.00    -0.502 OA
ATOM     23  H   UNL     1      19.327  49.813  89.114  1.00  0.00     0.293 HD
ENDBRANCH   2  22
BRANCH   6  24
ATOM     24  O   UNL     1      21.035  55.125  89.090  1.00  0.00    -0.507 OA
ATOM     25  H   UNL     1      21.023  56.133  89.053  1.00  0.00     0.293 HD
ENDBRANCH   6  24
BRANCH   8  26
ATOM     26  O   UNL     1      25.801  54.939  88.533  1.00  0.00    -0.508 OA
ATOM     27  H   UNL     1      26.116  55.504  87.752  1.00  0.00     0.293 HD
ENDBRANCH   8  26
TORSDOF 6
ENDMDL
MODEL 5
REMARK VINA RESULT:    -3.806      1.289      2.973
REMARK INTER + INTRA:          -4.903
REMARK INTER:                  -4.582
REMARK INTRA:                  -0.321
REMARK UNBOUND:                -0.319
REMARK SMILES O=c1c(O)c(-c2ccc(O)c(O)c2)oc2cc(O)cc(O)c12
REMARK SMILES IDX 5 1 3 2 2 3 1 4 22 5 20 6 19 7 17 8 16 9 15 10 14 11 6 12
REMARK SMILES IDX 7 13 8 14 9 15 13 16 11 17 10 18 12 20 4 22 21 24 18 26
REMARK H PARENT 10 19 12 21 4 23 21 25 18 27
REMARK Flexibility Score: inf
ROOT
ATOM      1  C   UNL     1      22.032  49.071  87.498  1.00  0.00     0.180 A 
ATOM      2  C   UNL     1      21.376  50.300  87.681  1.00  0.00     0.208 A 
ATOM      3  C   UNL     1      20.026  50.300  88.068  1.00  0.00     0.238 A 
ATOM      4  O   UNL     1      19.429  51.403  88.177  1.00  0.00    -0.285 OA
ATOM      5  C   UNL     1      19.354  49.073  88.282  1.00  0.00     0.111 A 
ATOM      6  C   UNL     1      17.999  48.955  88.714  1.00  0.00     0.134 A 
ATOM      7  C   UNL     1      17.398  47.691  88.767  1.00  0.00     0.093 A 
ATOM      8  C   UNL     1      18.124  46.536  88.467  1.00  0.00     0.123 A 
ATOM      9  C   UNL     1      19.465  46.636  88.102  1.00  0.00     0.094 A 
ATOM     10  C   UNL     1      20.081  47.886  88.005  1.00  0.00     0.146 A 
ATOM     11  O   UNL     1      21.357  47.937  87.643  1.00  0.00    -0.452 OA
ENDROOT
BRANCH   1  12
ATOM     12  C   UNL     1      23.461  48.990  87.115  1.00  0.00     0.025 A 
ATOM     13  C   UNL     1      23.814  48.998  85.757  1.00  0.00     0.016 A 
ATOM     14  C   UNL     1      25.154  48.901  85.374  1.00  0.00     0.051 A 
ATOM     15  C   UNL     1      26.159  48.778  86.341  1.00  0.00     0.157 A 
ATOM     16  C   UNL     1      24.471  48.846  88.084  1.00  0.00     0.062 A 
ATOM     17  C   UNL     1      25.814  48.746  87.703  1.00  0.00     0.158 A 
BRANCH  15  18
ATOM     18  O   UNL     1      27.496  48.684  85.955  1.00  0.00    -0.504 OA
ATOM     19  H   UNL     1      27.759  48.464  85.003  1.00  0.00     0.293 HD
ENDBRANCH  15  18
BRANCH  17  20
ATOM     20  O   UNL     1      26.790  48.610  88.690  1.00  0.00    -0.504 OA
ATOM     21  H   UNL     1      26.690  47.957  89.458  1.00  0.00     0.293 HD
ENDBRANCH  17  20
ENDBRANCH   1  12
BRANCH   2  22
ATOM     22  O   UNL     1      22.052  51.501  87.442  1.00  0.00    -0.502 OA
ATOM     23  H   UNL     1      22.444  51.733  86.538  1.00  0.00     0.293 HD
ENDBRANCH   2  22
BRANCH   6  24
ATOM     24  O   UNL     1      17.214  50.037  89.125  1.00  0.00    -0.507 OA
ATOM     25  H   UNL     1      17.034  50.284  90.086  1.00  0.00     0.293 HD
ENDBRANCH   6  24
BRANCH   8  26
ATOM     26  O   UNL     1      17.523  45.280  88.538  1.00  0.00    -0.508 OA
ATOM     27  H   UNL     1      17.794  44.602  89.240  1.00  0.00     0.293 HD
ENDBRANCH   8  26
TORSDOF 6
ENDMDL
MODEL 6
REMARK VINA RESULT:    -3.781      2.024      6.988
REMARK INTER + INTRA:          -4.874
REMARK INTER:                  -4.991
REMARK INTRA:                   0.118
REMARK UNBOUND:                -0.319
REMARK SMILES O=c1c(O)c(-c2ccc(O)c(O)c2)oc2cc(O)cc(O)c12
REMARK SMILES IDX 5 1 3 2 2 3 1 4 22 5 20 6 19 7 17 8 16 9 15 10 14 11 6 12
REMARK SMILES IDX 7 13 8 14 9 15 13 16 11 17 10 18 12 20 4 22 21 24 18 26
REMARK H PARENT 10 19 12 21 4 23 21 25 18 27
REMARK Flexibility Score: inf
ROOT
ATOM      1  C   UNL     1      21.970  50.286  87.423  1.00  0.00     0.180 A 
ATOM      2  C   UNL     1      22.108  49.505  86.262  1.00  0.00     0.208 A 
ATOM      3  C   UNL     1      23.385  49.049  85.897  1.00  0.00     0.238 A 
ATOM      4  O   UNL     1      23.511  48.397  84.828  1.00  0.00    -0.285 OA
ATOM      5  C   UNL     1      24.504  49.364  86.705  1.00  0.00     0.111 A 
ATOM      6  C   UNL     1      25.837  48.921  86.453  1.00  0.00     0.134 A 
ATOM      7  C   UNL     1      26.887  49.402  87.246  1.00  0.00     0.093 A 
ATOM      8  C   UNL     1      26.642  50.258  88.323  1.00  0.00     0.123 A 
ATOM      9  C   UNL     1      25.337  50.648  88.613  1.00  0.00     0.094 A 
ATOM     10  C   UNL     1      24.274  50.215  87.818  1.00  0.00     0.146 A 
ATOM     11  O   UNL     1      23.047  50.620  88.123  1.00  0.00    -0.452 OA
ENDROOT
BRANCH   1  12
ATOM     12  C   UNL     1      20.654  50.783  87.885  1.00  0.00     0.025 A 
ATOM     13  C   UNL     1      19.541  49.928  87.855  1.00  0.00     0.016 A 
ATOM     14  C   UNL     1      18.287  50.383  88.267  1.00  0.00     0.051 A 
ATOM     15  C   UNL     1      18.122  51.705  88.700  1.00  0.00     0.157 A 
ATOM     16  C   UNL     1      20.480  52.116  88.302  1.00  0.00     0.062 A 
ATOM     17  C   UNL     1      19.224  52.575  88.713  1.00  0.00     0.158 A 
BRANCH  15  18
ATOM     18  O   UNL     1      16.868  52.155  89.113  1.00  0.00    -0.504 OA
ATOM     19  H   UNL     1      16.550  53.095  88.913  1.00  0.00     0.293 HD
ENDBRANCH  15  18
BRANCH  17  20
ATOM     20  O   UNL     1      19.090  53.901  89.125  1.00  0.00    -0.504 OA
ATOM     21  H   UNL     1      19.823  54.384  89.629  1.00  0.00     0.293 HD
ENDBRANCH  17  20
ENDBRANCH   1  12
BRANCH   2  22
ATOM     22  O   UNL     1      20.994  49.225  85.466  1.00  0.00    -0.502 OA
ATOM     23  H   UNL     1      20.996  49.356  84.462  1.00  0.00     0.293 HD
ENDBRANCH   2  22
BRANCH   6  24
ATOM     24  O   UNL     1      26.177  47.995  85.462  1.00  0.00    -0.507 OA
ATOM     25  H   UNL     1      25.706  47.904  84.574  1.00  0.00     0.293 HD
ENDBRANCH   6  24
BRANCH   8  26
ATOM     26  O   UNL     1      27.690  50.719  89.116  1.00  0.00    -0.508 OA
ATOM     27  H   UNL     1      27.548  51.435  89.819  1.00  0.00     0.293 HD
ENDBRANCH   8  26
TORSDOF 6
ENDMDL
MODEL 7
REMARK VINA RESULT:    -3.597      1.755      7.034
REMARK INTER + INTRA:          -4.652
REMARK INTER:                  -5.106
REMARK INTRA:                   0.455
REMARK UNBOUND:                -0.319
REMARK SMILES O=c1c(O)c(-c2ccc(O)c(O)c2)oc2cc(O)cc(O)c12
REMARK SMILES IDX 5 1 3 2 2 3 1 4 22 5 20 6 19 7 17 8 16 9 15 10 14 11 6 12
REMARK SMILES IDX 7 13 8 14 9 15 13 16 11 17 10 18 12 20 4 22 21 24 18 26
REMARK H PARENT 10 19 12 21 4 23 21 25 18 27
REMARK Flexibility Score: inf
ROOT
ATOM      1  C   UNL     1      21.398  49.368  87.722  1.00  0.00     0.180 A 
ATOM      2  C   UNL     1      21.662  50.706  88.062  1.00  0.00     0.208 A 
ATOM      3  C   UNL     1      22.901  51.266  87.710  1.00  0.00     0.238 A 
ATOM      4  O   UNL     1      23.154  52.446  88.065  1.00  0.00    -0.285 OA
ATOM      5  C   UNL     1      23.853  50.487  87.009  1.00  0.00     0.111 A 
ATOM      6  C   UNL     1      25.124  50.964  86.567  1.00  0.00     0.134 A 
ATOM      7  C   UNL     1      26.038  50.068  85.998  1.00  0.00     0.093 A 
ATOM      8  C   UNL     1      25.701  48.728  85.794  1.00  0.00     0.123 A 
ATOM      9  C   UNL     1      24.441  48.266  86.168  1.00  0.00     0.094 A 
ATOM     10  C   UNL     1      23.521  49.127  86.772  1.00  0.00     0.146 A 
ATOM     11  O   UNL     1      22.336  48.644  87.123  1.00  0.00    -0.452 OA
ENDROOT
BRANCH   1  12
ATOM     12  C   UNL     1      20.106  48.716  88.037  1.00  0.00     0.025 A 
ATOM     13  C   UNL     1      18.992  49.507  88.358  1.00  0.00     0.016 A 
ATOM     14  C   UNL     1      17.770  48.911  88.679  1.00  0.00     0.051 A 
ATOM     15  C   UNL     1      17.648  47.516  88.700  1.00  0.00     0.157 A 
ATOM     16  C   UNL     1      19.985  47.315  88.079  1.00  0.00     0.062 A 
ATOM     17  C   UNL     1      18.763  46.715  88.403  1.00  0.00     0.158 A 
BRANCH  15  18
ATOM     18  O   UNL     1      16.426  46.924  89.019  1.00  0.00    -0.504 OA
ATOM     19  H   UNL     1      16.118  46.069  88.573  1.00  0.00     0.293 HD
ENDBRANCH  15  18
BRANCH  17  20
ATOM     20  O   UNL     1      18.678  45.323  88.430  1.00  0.00    -0.504 OA
ATOM     21  H   UNL     1      19.502  44.734  88.437  1.00  0.00     0.293 HD
ENDBRANCH  17  20
ENDBRANCH   1  12
BRANCH   2  22
ATOM     22  O   UNL     1      20.718  51.451  88.775  1.00  0.00    -0.502 OA
ATOM     23  H   UNL     1      20.927  52.361  89.166  1.00  0.00     0.293 HD
ENDBRANCH   2  22
BRANCH   6  24
ATOM     24  O   UNL     1      25.523  52.302  86.639  1.00  0.00    -0.507 OA
ATOM     25  H   UNL     1      25.645  52.909  85.842  1.00  0.00     0.293 HD
ENDBRANCH   6  24
BRANCH   8  26
ATOM     26  O   UNL     1      26.610  47.847  85.212  1.00  0.00    -0.508 OA
ATOM     27  H   UNL     1      26.624  47.683  84.212  1.00  0.00     0.293 HD
ENDBRANCH   8  26
TORSDOF 6
ENDMDL
MODEL 8
REMARK VINA RESULT:    -3.597      2.675      3.898
REMARK INTER + INTRA:          -4.651
REMARK INTER:                  -4.423
REMARK INTRA:                  -0.229
REMARK UNBOUND:                -0.319
REMARK SMILES O=c1c(O)c(-c2ccc(O)c(O)c2)oc2cc(O)cc(O)c12
REMARK SMILES IDX 5 1 3 2 2 3 1 4 22 5 20 6 19 7 17 8 16 9 15 10 14 11 6 12
REMARK SMILES IDX 7 13 8 14 9 15 13 16 11 17 10 18 12 20 4 22 21 24 18 26
REMARK H PARENT 10 19 12 21 4 23 21 25 18 27
REMARK Flexibility Score: inf
ROOT
ATOM      1  C   UNL     1      21.322  47.014  88.208  1.00  0.00     0.180 A 
ATOM      2  C   UNL     1      21.734  45.692  88.447  1.00  0.00     0.208 A 
ATOM      3  C   UNL     1      20.764  44.717  88.731  1.00  0.00     0.238 A 
ATOM      4  O   UNL     1      21.143  43.547  88.998  1.00  0.00    -0.285 OA
ATOM      5  C   UNL     1      19.394  45.073  88.757  1.00  0.00     0.111 A 
ATOM      6  C   UNL     1      18.324  44.158  88.993  1.00  0.00     0.134 A 
ATOM      7  C   UNL     1      17.017  44.645  89.125  1.00  0.00     0.093 A 
ATOM      8  C   UNL     1      16.734  46.003  88.962  1.00  0.00     0.123 A 
ATOM      9  C   UNL     1      17.764  46.895  88.672  1.00  0.00     0.094 A 
ATOM     10  C   UNL     1      19.083  46.445  88.571  1.00  0.00     0.146 A 
ATOM     11  O   UNL     1      20.036  47.330  88.304  1.00  0.00    -0.452 OA
ENDROOT
BRANCH   1  12
ATOM     12  C   UNL     1      22.283  48.092  87.879  1.00  0.00     0.025 A 
ATOM     13  C   UNL     1      22.460  49.158  88.774  1.00  0.00     0.016 A 
ATOM     14  C   UNL     1      23.345  50.196  88.473  1.00  0.00     0.051 A 
ATOM     15  C   UNL     1      24.055  50.191  87.266  1.00  0.00     0.157 A 
ATOM     16  C   UNL     1      22.982  48.101  86.658  1.00  0.00     0.062 A 
ATOM     17  C   UNL     1      23.869  49.140  86.352  1.00  0.00     0.158 A 
BRANCH  15  18
ATOM     18  O   UNL     1      24.940  51.228  86.969  1.00  0.00    -0.504 OA
ATOM     19  H   UNL     1      25.379  51.308  86.060  1.00  0.00     0.293 HD
ENDBRANCH  15  18
BRANCH  17  20
ATOM     20  O   UNL     1      24.549  49.114  85.135  1.00  0.00    -0.504 OA
ATOM     21  H   UNL     1      24.248  49.662  84.339  1.00  0.00     0.293 HD
ENDBRANCH  17  20
ENDBRANCH   1  12
BRANCH   2  22
ATOM     22  O   UNL     1      23.094  45.367  88.440  1.00  0.00    -0.502 OA
ATOM     23  H   UNL     1      23.470  44.591  88.971  1.00  0.00     0.293 HD
ENDBRANCH   2  22
BRANCH   6  24
ATOM     24  O   UNL     1      18.486  42.772  89.079  1.00  0.00    -0.507 OA
ATOM     25  H   UNL     1      18.511  42.146  88.288  1.00  0.00     0.293 HD
ENDBRANCH   6  24
BRANCH   8  26
ATOM     26  O   UNL     1      15.429  46.476  89.079  1.00  0.00    -0.508 OA
ATOM     27  H   UNL     1      15.229  47.466  89.168  1.00  0.00     0.293 HD
ENDBRANCH   8  26
TORSDOF 6
ENDMDL
MODEL 9
REMARK VINA RESULT:    -3.543      2.955      6.109
REMARK INTER + INTRA:          -4.587
REMARK INTER:                  -4.594
REMARK INTRA:                   0.007
REMARK UNBOUND:                -0.319
REMARK SMILES O=c1c(O)c(-c2ccc(O)c(O)c2)oc2cc(O)cc(O)c12
REMARK SMILES IDX 5 1 3 2 2 3 1 4 22 5 20 6 19 7 17 8 16 9 15 10 14 11 6 12
REMARK SMILES IDX 7 13 8 14 9 15 13 16 11 17 10 18 12 20 4 22 21 24 18 26
REMARK H PARENT 10 19 12 21 4 23 21 25 18 27
REMARK Flexibility Score: inf
ROOT
ATOM      1  C   UNL     1      23.326  49.225  87.431  1.00  0.00     0.180 A 
ATOM      2  C   UNL     1      24.482  49.162  86.634  1.00  0.00     0.208 A 
ATOM      3  C   UNL     1      25.183  50.347  86.356  1.00  0.00     0.238 A 
ATOM      4  O   UNL     1      26.185  50.292  85.597  1.00  0.00    -0.285 OA
ATOM      5  C   UNL     1      24.728  51.576  86.890  1.00  0.00     0.111 A 
ATOM      6  C   UNL     1      25.382  52.831  86.707  1.00  0.00     0.134 A 
ATOM      7  C   UNL     1      24.772  54.003  87.173  1.00  0.00     0.093 A 
ATOM      8  C   UNL     1      23.564  53.956  87.873  1.00  0.00     0.123 A 
ATOM      9  C   UNL     1      22.948  52.730  88.110  1.00  0.00     0.094 A 
ATOM     10  C   UNL     1      23.514  51.547  87.625  1.00  0.00     0.146 A 
ATOM     11  O   UNL     1      22.888  50.401  87.863  1.00  0.00    -0.452 OA
ENDROOT
BRANCH   1  12
ATOM     12  C   UNL     1      22.548  48.016  87.788  1.00  0.00     0.025 A 
ATOM     13  C   UNL     1      23.211  46.900  88.322  1.00  0.00     0.016 A 
ATOM     14  C   UNL     1      22.500  45.742  88.645  1.00  0.00     0.051 A 
ATOM     15  C   UNL     1      21.118  45.677  88.426  1.00  0.00     0.157 A 
ATOM     16  C   UNL     1      21.164  47.940  87.550  1.00  0.00     0.062 A 
ATOM     17  C   UNL     1      20.449  46.780  87.871  1.00  0.00     0.158 A 
BRANCH  15  18
ATOM     18  O   UNL     1      20.410  44.520  88.753  1.00  0.00    -0.504 OA
ATOM     19  H   UNL     1      20.795  43.598  88.588  1.00  0.00     0.293 HD
ENDBRANCH  15  18
BRANCH  17  20
ATOM     20  O   UNL     1      19.076  46.742  87.626  1.00  0.00    -0.504 OA
ATOM     21  H   UNL     1      18.474  47.534  87.816  1.00  0.00     0.293 HD
ENDBRANCH  17  20
ENDBRANCH   1  12
BRANCH   2  22
ATOM     22  O   UNL     1      24.900  47.941  86.097  1.00  0.00    -0.502 OA
ATOM     23  H   UNL     1      25.529  47.317  86.589  1.00  0.00     0.293 HD
ENDBRANCH   2  22
BRANCH   6  24
ATOM     24  O   UNL     1      26.635  52.977  86.103  1.00  0.00    -0.507 OA
ATOM     25  H   UNL     1      27.341  53.635  86.396  1.00  0.00     0.293 HD
ENDBRANCH   6  24
BRANCH   8  26
ATOM     26  O   UNL     1      22.972  55.125  88.347  1.00  0.00    -0.508 OA
ATOM     27  H   UNL     1      23.480  56.002  88.376  1.00  0.00     0.293 HD
ENDBRANCH   8  26
TORSDOF 6
ENDMDL
