MODEL 1
REMARK VINA RESULT:    -5.517      0.000      0.000
REMARK INTER + INTRA:          -5.678
REMARK INTER:                  -5.678
REMARK INTRA:                   0.000
REMARK UNBOUND:                 0.000
REMARK SMILES O=c1ccc2ccc(O)cc2o1
REMARK SMILES IDX 6 1 7 2 8 3 10 4 11 5 5 6 4 7 3 8 2 9 1 10 12 11 9 12
REMARK H PARENT 9 13
REMARK Flexibility Score: inf
ROOT
ATOM      1  C   UNL     1      18.373   1.707 -25.411  1.00  0.00     0.016 A 
ATOM      2  C   UNL     1      17.275   2.509 -25.740  1.00  0.00     0.047 A 
ATOM      3  C   UNL     1      15.980   1.977 -25.719  1.00  0.00     0.119 A 
ATOM      4  C   UNL     1      15.780   0.634 -25.366  1.00  0.00     0.094 A 
ATOM      5  C   UNL     1      16.873  -0.175 -25.035  1.00  0.00     0.142 A 
ATOM      6  C   UNL     1      18.178   0.365 -25.058  1.00  0.00     0.018 A 
ATOM      7  C   UNL     1      19.251  -0.467 -24.723  1.00  0.00     0.019 A 
ATOM      8  C   UNL     1      19.003  -1.796 -24.379  1.00  0.00     0.094 A 
ATOM      9  C   UNL     1      17.683  -2.263 -24.378  1.00  0.00     0.336 A 
ATOM     10  O   UNL     1      17.440  -3.458 -24.071  1.00  0.00    -0.246 OA
ATOM     11  O   UNL     1      16.682  -1.449 -24.701  1.00  0.00    -0.423 OA
ENDROOT
BRANCH   3  12
ATOM     12  O   UNL     1      14.899   2.791 -26.050  1.00  0.00    -0.508 OA
ATOM     13  H   UNL     1      14.014   2.719 -25.562  1.00  0.00     0.293 HD
ENDBRANCH   3  12
TORSDOF 1
ENDMDL
MODEL 2
REMARK VINA RESULT:    -5.464      2.719      3.260
REMARK INTER + INTRA:          -5.624
REMARK INTER:                  -5.624
REMARK INTRA:                   0.000
REMARK UNBOUND:                 0.000
REMARK SMILES O=c1ccc2ccc(O)cc2o1
REMARK SMILES IDX 6 1 7 2 8 3 10 4 11 5 5 6 4 7 3 8 2 9 1 10 12 11 9 12
REMARK H PARENT 9 13
REMARK Flexibility Score: inf
ROOT
ATOM      1  C   UNL     1      16.741  -0.620 -24.597  1.00  0.00     0.016 A 
ATOM      2  C   UNL     1      15.930   0.168 -25.419  1.00  0.00     0.047 A 
ATOM      3  C   UNL     1      15.923   1.562 -25.281  1.00  0.00     0.119 A 
ATOM      4  C   UNL     1      16.735   2.172 -24.313  1.00  0.00     0.094 A 
ATOM      5  C   UNL     1      17.550   1.391 -23.486  1.00  0.00     0.142 A 
ATOM      6  C   UNL     1      17.553  -0.014 -23.628  1.00  0.00     0.018 A 
ATOM      7  C   UNL     1      18.377  -0.768 -22.787  1.00  0.00     0.019 A 
ATOM      8  C   UNL     1      19.166  -0.116 -21.840  1.00  0.00     0.094 A 
ATOM      9  C   UNL     1      19.111   1.280 -21.755  1.00  0.00     0.336 A 
ATOM     10  O   UNL     1      19.816   1.885 -20.906  1.00  0.00    -0.246 OA
ATOM     11  O   UNL     1      18.318   1.973 -22.568  1.00  0.00    -0.423 OA
ENDROOT
BRANCH   3  12
ATOM     12  O   UNL     1      15.109   2.330 -26.110  1.00  0.00    -0.508 OA
ATOM     13  H   UNL     1      14.247   2.740 -25.772  1.00  0.00     0.293 HD
ENDBRANCH   3  12
TORSDOF 1
ENDMDL
MODEL 3
REMARK VINA RESULT:    -5.371      2.267      4.314
REMARK INTER + INTRA:          -5.528
REMARK INTER:                  -5.528
REMARK INTRA:                   0.000
REMARK UNBOUND:                 0.000
REMARK SMILES O=c1ccc2ccc(O)cc2o1
REMARK SMILES IDX 6 1 7 2 8 3 10 4 11 5 5 6 4 7 3 8 2 9 1 10 12 11 9 12
REMARK H PARENT 9 13
REMARK Flexibility Score: inf
ROOT
ATOM      1  C   UNL     1      19.036  -1.621 -25.019  1.00  0.00     0.016 A 
ATOM      2  C   UNL     1      19.721  -2.085 -26.146  1.00  0.00     0.047 A 
ATOM      3  C   UNL     1      19.436  -1.560 -27.413  1.00  0.00     0.119 A 
ATOM      4  C   UNL     1      18.460  -0.563 -27.554  1.00  0.00     0.094 A 
ATOM      5  C   UNL     1      17.770  -0.092 -26.431  1.00  0.00     0.142 A 
ATOM      6  C   UNL     1      18.060  -0.624 -25.155  1.00  0.00     0.018 A 
ATOM      7  C   UNL     1      17.354  -0.135 -24.052  1.00  0.00     0.019 A 
ATOM      8  C   UNL     1      16.392   0.857 -24.241  1.00  0.00     0.094 A 
ATOM      9  C   UNL     1      16.157   1.337 -25.535  1.00  0.00     0.336 A 
ATOM     10  O   UNL     1      15.293   2.232 -25.725  1.00  0.00    -0.246 OA
ATOM     11  O   UNL     1      16.843   0.854 -26.567  1.00  0.00    -0.423 OA
ENDROOT
BRANCH   3  12
ATOM     12  O   UNL     1      20.129  -2.035 -28.525  1.00  0.00    -0.508 OA
ATOM     13  H   UNL     1      20.882  -2.706 -28.432  1.00  0.00     0.293 HD
ENDBRANCH   3  12
TORSDOF 1
ENDMDL
MODEL 4
REMARK VINA RESULT:    -5.314      2.533      3.237
REMARK INTER + INTRA:          -5.469
REMARK INTER:                  -5.469
REMARK INTRA:                   0.000
REMARK UNBOUND:                 0.000
REMARK SMILES O=c1ccc2ccc(O)cc2o1
REMARK SMILES IDX 6 1 7 2 8 3 10 4 11 5 5 6 4 7 3 8 2 9 1 10 12 11 9 12
REMARK H PARENT 9 13
REMARK Flexibility Score: inf
ROOT
ATOM      1  C   UNL     1      16.801   1.353 -25.789  1.00  0.00     0.016 A 
ATOM      2  C   UNL     1      16.497   1.196 -24.433  1.00  0.00     0.047 A 
ATOM      3  C   UNL     1      16.958   0.077 -23.728  1.00  0.00     0.119 A 
ATOM      4  C   UNL     1      17.731  -0.893 -24.385  1.00  0.00     0.094 A 
ATOM      5  C   UNL     1      18.041  -0.743 -25.742  1.00  0.00     0.142 A 
ATOM      6  C   UNL     1      17.572   0.386 -26.448  1.00  0.00     0.018 A 
ATOM      7  C   UNL     1      17.897   0.508 -27.803  1.00  0.00     0.019 A 
ATOM      8  C   UNL     1      18.667  -0.482 -28.413  1.00  0.00     0.094 A 
ATOM      9  C   UNL     1      19.097  -1.575 -27.649  1.00  0.00     0.336 A 
ATOM     10  O   UNL     1      19.793  -2.477 -28.182  1.00  0.00    -0.246 OA
ATOM     11  O   UNL     1      18.773  -1.665 -26.363  1.00  0.00    -0.423 OA
ENDROOT
BRANCH   3  12
ATOM     12  O   UNL     1      16.645  -0.062 -22.378  1.00  0.00    -0.508 OA
ATOM     13  H   UNL     1      17.180   0.411 -21.660  1.00  0.00     0.293 HD
ENDBRANCH   3  12
TORSDOF 1
ENDMDL
MODEL 5
REMARK VINA RESULT:    -5.239      7.331      8.267
REMARK INTER + INTRA:          -5.392
REMARK INTER:                  -5.392
REMARK INTRA:                   0.000
REMARK UNBOUND:                 0.000
REMARK SMILES O=c1ccc2ccc(O)cc2o1
REMARK SMILES IDX 6 1 7 2 8 3 10 4 11 5 5 6 4 7 3 8 2 9 1 10 12 11 9 12
REMARK H PARENT 9 13
REMARK Flexibility Score: inf
ROOT
ATOM      1  C   UNL     1      20.359  -0.672 -16.603  1.00  0.00     0.016 A 
ATOM      2  C   UNL     1      19.458  -0.373 -15.576  1.00  0.00     0.047 A 
ATOM      3  C   UNL     1      18.431   0.556 -15.784  1.00  0.00     0.119 A 
ATOM      4  C   UNL     1      18.303   1.190 -17.028  1.00  0.00     0.094 A 
ATOM      5  C   UNL     1      19.200   0.897 -18.062  1.00  0.00     0.142 A 
ATOM      6  C   UNL     1      20.235  -0.039 -17.848  1.00  0.00     0.018 A 
ATOM      7  C   UNL     1      21.117  -0.311 -18.899  1.00  0.00     0.019 A 
ATOM      8  C   UNL     1      20.950   0.345 -20.118  1.00  0.00     0.094 A 
ATOM      9  C   UNL     1      19.901   1.262 -20.258  1.00  0.00     0.336 A 
ATOM     10  O   UNL     1      19.734   1.863 -21.350  1.00  0.00    -0.246 OA
ATOM     11  O   UNL     1      19.077   1.501 -19.242  1.00  0.00    -0.423 OA
ENDROOT
BRANCH   3  12
ATOM     12  O   UNL     1      17.543   0.840 -14.749  1.00  0.00    -0.508 OA
ATOM     13  H   UNL     1      17.847   1.309 -13.905  1.00  0.00     0.293 HD
ENDBRANCH   3  12
TORSDOF 1
ENDMDL
MODEL 6
REMARK VINA RESULT:    -5.217      2.073      2.247
REMARK INTER + INTRA:          -5.369
REMARK INTER:                  -5.369
REMARK INTRA:                   0.000
REMARK UNBOUND:                 0.000
REMARK SMILES O=c1ccc2ccc(O)cc2o1
REMARK SMILES IDX 6 1 7 2 8 3 10 4 11 5 5 6 4 7 3 8 2 9 1 10 12 11 9 12
REMARK H PARENT 9 13
REMARK Flexibility Score: inf
ROOT
ATOM      1  C   UNL     1      17.634   0.287 -23.917  1.00  0.00     0.016 A 
ATOM      2  C   UNL     1      16.638   1.223 -24.211  1.00  0.00     0.047 A 
ATOM      3  C   UNL     1      16.219   1.419 -25.533  1.00  0.00     0.119 A 
ATOM      4  C   UNL     1      16.801   0.673 -26.569  1.00  0.00     0.094 A 
ATOM      5  C   UNL     1      17.798  -0.266 -26.283  1.00  0.00     0.142 A 
ATOM      6  C   UNL     1      18.218  -0.460 -24.949  1.00  0.00     0.018 A 
ATOM      7  C   UNL     1      19.217  -1.404 -24.694  1.00  0.00     0.019 A 
ATOM      8  C   UNL     1      19.766  -2.122 -25.757  1.00  0.00     0.094 A 
ATOM      9  C   UNL     1      19.300  -1.877 -27.054  1.00  0.00     0.336 A 
ATOM     10  O   UNL     1      19.784  -2.515 -28.025  1.00  0.00    -0.246 OA
ATOM     11  O   UNL     1      18.349  -0.973 -27.268  1.00  0.00    -0.423 OA
ENDROOT
BRANCH   3  12
ATOM     12  O   UNL     1      15.225   2.356 -25.807  1.00  0.00    -0.508 OA
ATOM     13  H   UNL     1      15.402   3.350 -25.738  1.00  0.00     0.293 HD
ENDBRANCH   3  12
TORSDOF 1
ENDMDL
MODEL 7
REMARK VINA RESULT:    -5.156      8.829     10.160
REMARK INTER + INTRA:          -5.306
REMARK INTER:                  -5.306
REMARK INTRA:                   0.000
REMARK UNBOUND:                 0.000
REMARK SMILES O=c1ccc2ccc(O)cc2o1
REMARK SMILES IDX 6 1 7 2 8 3 10 4 11 5 5 6 4 7 3 8 2 9 1 10 12 11 9 12
REMARK H PARENT 9 13
REMARK Flexibility Score: inf
ROOT
ATOM      1  C   UNL     1      21.266  -0.427 -17.518  1.00  0.00     0.016 A 
ATOM      2  C   UNL     1      22.017  -1.168 -16.600  1.00  0.00     0.047 A 
ATOM      3  C   UNL     1      21.602  -1.272 -15.266  1.00  0.00     0.119 A 
ATOM      4  C   UNL     1      20.428  -0.629 -14.847  1.00  0.00     0.094 A 
ATOM      5  C   UNL     1      19.670   0.114 -15.759  1.00  0.00     0.142 A 
ATOM      6  C   UNL     1      20.092   0.217 -17.103  1.00  0.00     0.018 A 
ATOM      7  C   UNL     1      19.315   0.967 -17.990  1.00  0.00     0.019 A 
ATOM      8  C   UNL     1      18.155   1.588 -17.527  1.00  0.00     0.094 A 
ATOM      9  C   UNL     1      17.799   1.443 -16.181  1.00  0.00     0.336 A 
ATOM     10  O   UNL     1      16.756   1.996 -15.745  1.00  0.00    -0.246 OA
ATOM     11  O   UNL     1      18.556   0.724 -15.358  1.00  0.00    -0.423 OA
ENDROOT
BRANCH   3  12
ATOM     12  O   UNL     1      22.363  -2.015 -14.367  1.00  0.00    -0.508 OA
ATOM     13  H   UNL     1      21.977  -2.815 -13.882  1.00  0.00     0.293 HD
ENDBRANCH   3  12
TORSDOF 1
ENDMDL
MODEL 8
REMARK VINA RESULT:    -5.120     17.192     18.692
REMARK INTER + INTRA:          -5.270
REMARK INTER:                  -5.270
REMARK INTRA:                   0.000
REMARK UNBOUND:                 0.000
REMARK SMILES O=c1ccc2ccc(O)cc2o1
REMARK SMILES IDX 6 1 7 2 8 3 10 4 11 5 5 6 4 7 3 8 2 9 1 10 12 11 9 12
REMARK H PARENT 9 13
REMARK Flexibility Score: inf
ROOT
ATOM      1  C   UNL     1      12.011 -11.093  -9.503  1.00  0.00     0.016 A 
ATOM      2  C   UNL     1      12.225  -9.718  -9.647  1.00  0.00     0.047 A 
ATOM      3  C   UNL     1      12.514  -9.174 -10.905  1.00  0.00     0.119 A 
ATOM      4  C   UNL     1      12.589 -10.011 -12.028  1.00  0.00     0.094 A 
ATOM      5  C   UNL     1      12.375 -11.388 -11.894  1.00  0.00     0.142 A 
ATOM      6  C   UNL     1      12.085 -11.932 -10.623  1.00  0.00     0.018 A 
ATOM      7  C   UNL     1      11.877 -13.311 -10.520  1.00  0.00     0.019 A 
ATOM      8  C   UNL     1      11.962 -14.103 -11.665  1.00  0.00     0.094 A 
ATOM      9  C   UNL     1      12.254 -13.494 -12.891  1.00  0.00     0.336 A 
ATOM     10  O   UNL     1      12.335 -14.192 -13.935  1.00  0.00    -0.246 OA
ATOM     11  O   UNL     1      12.448 -12.180 -12.961  1.00  0.00    -0.423 OA
ENDROOT
BRANCH   3  12
ATOM     12  O   UNL     1      12.724  -7.803 -11.028  1.00  0.00    -0.508 OA
ATOM     13  H   UNL     1      12.932  -7.378 -11.923  1.00  0.00     0.293 HD
ENDBRANCH   3  12
TORSDOF 1
ENDMDL
MODEL 9
REMARK VINA RESULT:    -5.072      8.346      9.660
REMARK INTER + INTRA:          -5.220
REMARK INTER:                  -5.220
REMARK INTRA:                   0.000
REMARK UNBOUND:                 0.000
REMARK SMILES O=c1ccc2ccc(O)cc2o1
REMARK SMILES IDX 6 1 7 2 8 3 10 4 11 5 5 6 4 7 3 8 2 9 1 10 12 11 9 12
REMARK H PARENT 9 13
REMARK Flexibility Score: inf
ROOT
ATOM      1  C   UNL     1      20.755  -0.428 -18.715  1.00  0.00     0.016 A 
ATOM      2  C   UNL     1      20.273  -1.741 -18.708  1.00  0.00     0.047 A 
ATOM      3  C   UNL     1      19.753  -2.298 -17.533  1.00  0.00     0.119 A 
ATOM      4  C   UNL     1      19.715  -1.537 -16.355  1.00  0.00     0.094 A 
ATOM      5  C   UNL     1      20.195  -0.222 -16.353  1.00  0.00     0.142 A 
ATOM      6  C   UNL     1      20.719   0.336 -17.540  1.00  0.00     0.018 A 
ATOM      7  C   UNL     1      21.192   1.651 -17.507  1.00  0.00     0.019 A 
ATOM      8  C   UNL     1      21.133   2.369 -16.313  1.00  0.00     0.094 A 
ATOM      9  C   UNL     1      20.601   1.751 -15.175  1.00  0.00     0.336 A 
ATOM     10  O   UNL     1      20.540   2.383 -14.088  1.00  0.00    -0.246 OA
ATOM     11  O   UNL     1      20.158   0.498 -15.234  1.00  0.00    -0.423 OA
ENDROOT
BRANCH   3  12
ATOM     12  O   UNL     1      19.277  -3.607 -17.546  1.00  0.00    -0.508 OA
ATOM     13  H   UNL     1      18.517  -3.900 -16.944  1.00  0.00     0.293 HD
ENDBRANCH   3  12
TORSDOF 1
ENDMDL
