MODEL 1
REMARK VINA RESULT:    -3.429      0.000      0.000
REMARK INTER + INTRA:          -4.250
REMARK INTER:                  -4.031
REMARK INTRA:                  -0.219
REMARK UNBOUND:                -0.219
REMARK SMILES [NH3+][C@@H](CO)C(=O)[O-]
REMARK SMILES IDX 3 1 2 2 1 3 5 7 6 8 7 9 4 10
REMARK H PARENT 1 4 1 5 1 6 4 11
REMARK Flexibility Score: inf
ROOT
ATOM      1  C   UNL     1     158.415 167.353 167.397  1.00  0.00     0.227 C 
ENDROOT
BRANCH   1   2
ATOM      2  C   UNL     1     157.809 168.528 166.613  1.00  0.00     0.253 C 
BRANCH   2   3
ATOM      3  N   UNL     1     158.088 169.809 167.274  1.00  0.00    -0.348 N 
ATOM      4  H   UNL     1     158.551 170.478 166.618  1.00  0.00     0.345 HD
ATOM      5  H   UNL     1     157.194 170.231 167.617  1.00  0.00     0.345 HD
ATOM      6  H   UNL     1     158.713 169.652 168.099  1.00  0.00     0.345 HD
ENDBRANCH   2   3
BRANCH   2   7
ATOM      7  C   UNL     1     156.326 168.335 166.426  1.00  0.00     0.102 C 
ATOM      8  O   UNL     1     155.728 167.413 167.042  1.00  0.00    -0.544 OA
ATOM      9  O   UNL     1     155.600 169.195 165.611  1.00  0.00    -0.544 OA
ENDBRANCH   2   7
ENDBRANCH   1   2
BRANCH   1  10
ATOM     10  O   UNL     1     158.213 167.516 168.773  1.00  0.00    -0.390 OA
ATOM     11  H   UNL     1     157.947 168.464 168.903  1.00  0.00     0.210 HD
ENDBRANCH   1  10
TORSDOF 4
ENDMDL
MODEL 2
REMARK VINA RESULT:    -3.290      1.868      2.027
REMARK INTER + INTRA:          -4.085
REMARK INTER:                  -3.701
REMARK INTRA:                  -0.385
REMARK UNBOUND:                -0.219
REMARK SMILES [NH3+][C@@H](CO)C(=O)[O-]
REMARK SMILES IDX 3 1 2 2 1 3 5 7 6 8 7 9 4 10
REMARK H PARENT 1 4 1 5 1 6 4 11
REMARK Flexibility Score: inf
ROOT
ATOM      1  C   UNL     1     159.022 167.034 167.307  1.00  0.00     0.227 C 
ENDROOT
BRANCH   1   2
ATOM      2  C   UNL     1     158.480 167.706 166.034  1.00  0.00     0.253 C 
BRANCH   2   3
ATOM      3  N   UNL     1     159.556 167.965 165.070  1.00  0.00    -0.348 N 
ATOM      4  H   UNL     1     159.351 168.814 164.496  1.00  0.00     0.345 HD
ATOM      5  H   UNL     1     160.459 168.108 165.580  1.00  0.00     0.345 HD
ATOM      6  H   UNL     1     159.667 167.142 164.434  1.00  0.00     0.345 HD
ENDBRANCH   2   3
BRANCH   2   7
ATOM      7  C   UNL     1     157.749 168.978 166.374  1.00  0.00     0.102 C 
ATOM      8  O   UNL     1     156.489 169.002 166.368  1.00  0.00    -0.544 OA
ATOM      9  O   UNL     1     158.452 170.120 166.737  1.00  0.00    -0.544 OA
ENDBRANCH   2   7
ENDBRANCH   1   2
BRANCH   1  10
ATOM     10  O   UNL     1     158.427 167.584 168.450  1.00  0.00    -0.390 OA
ATOM     11  H   UNL     1     158.669 166.983 169.202  1.00  0.00     0.210 HD
ENDBRANCH   1  10
TORSDOF 4
ENDMDL
MODEL 3
REMARK VINA RESULT:    -3.245     19.638     20.480
REMARK INTER + INTRA:          -4.033
REMARK INTER:                  -3.636
REMARK INTRA:                  -0.397
REMARK UNBOUND:                -0.219
REMARK SMILES [NH3+][C@@H](CO)C(=O)[O-]
REMARK SMILES IDX 3 1 2 2 1 3 5 7 6 8 7 9 4 10
REMARK H PARENT 1 4 1 5 1 6 4 11
REMARK Flexibility Score: inf
ROOT
ATOM      1  C   UNL     1     160.460 155.082 181.086  1.00  0.00     0.227 C 
ENDROOT
BRANCH   1   2
ATOM      2  C   UNL     1     160.590 155.067 182.618  1.00  0.00     0.253 C 
BRANCH   2   3
ATOM      3  N   UNL     1     160.422 153.711 183.153  1.00  0.00    -0.348 N 
ATOM      4  H   UNL     1     159.420 153.413 183.115  1.00  0.00     0.345 HD
ATOM      5  H   UNL     1     160.998 153.038 182.598  1.00  0.00     0.345 HD
ATOM      6  H   UNL     1     160.749 153.681 184.146  1.00  0.00     0.345 HD
ENDBRANCH   2   3
BRANCH   2   7
ATOM      7  C   UNL     1     159.602 156.017 183.244  1.00  0.00     0.102 C 
ATOM      8  O   UNL     1     159.892 157.236 183.371  1.00  0.00    -0.544 OA
ATOM      9  O   UNL     1     158.350 155.567 183.648  1.00  0.00    -0.544 OA
ENDBRANCH   2   7
ENDBRANCH   1   2
BRANCH   1  10
ATOM     10  O   UNL     1     159.318 155.791 180.690  1.00  0.00    -0.390 OA
ATOM     11  H   UNL     1     159.142 155.528 179.750  1.00  0.00     0.210 HD
ENDBRANCH   1  10
TORSDOF 4
ENDMDL
MODEL 4
REMARK VINA RESULT:    -3.242     19.310     20.165
REMARK INTER + INTRA:          -4.029
REMARK INTER:                  -3.643
REMARK INTRA:                  -0.386
REMARK UNBOUND:                -0.219
REMARK SMILES [NH3+][C@@H](CO)C(=O)[O-]
REMARK SMILES IDX 3 1 2 2 1 3 5 7 6 8 7 9 4 10
REMARK H PARENT 1 4 1 5 1 6 4 11
REMARK Flexibility Score: inf
ROOT
ATOM      1  C   UNL     1     161.109 154.793 183.462  1.00  0.00     0.227 C 
ENDROOT
BRANCH   1   2
ATOM      2  C   UNL     1     161.349 155.769 182.299  1.00  0.00     0.253 C 
BRANCH   2   3
ATOM      3  N   UNL     1     161.086 157.155 182.705  1.00  0.00    -0.348 N 
ATOM      4  H   UNL     1     160.237 157.216 183.311  1.00  0.00     0.345 HD
ATOM      5  H   UNL     1     161.908 157.530 183.232  1.00  0.00     0.345 HD
ATOM      6  H   UNL     1     160.943 157.750 181.856  1.00  0.00     0.345 HD
ENDBRANCH   2   3
BRANCH   2   7
ATOM      7  C   UNL     1     160.509 155.393 181.106  1.00  0.00     0.102 C 
ATOM      8  O   UNL     1     161.036 154.808 180.123  1.00  0.00    -0.544 OA
ATOM      9  O   UNL     1     159.142 155.647 181.098  1.00  0.00    -0.544 OA
ENDBRANCH   2   7
ENDBRANCH   1   2
BRANCH   1  10
ATOM     10  O   UNL     1     160.427 153.651 183.021  1.00  0.00    -0.390 OA
ATOM     11  H   UNL     1     159.529 153.687 183.440  1.00  0.00     0.210 HD
ENDBRANCH   1  10
TORSDOF 4
ENDMDL
MODEL 5
REMARK VINA RESULT:    -3.185      2.143      2.693
REMARK INTER + INTRA:          -3.962
REMARK INTER:                  -3.740
REMARK INTRA:                  -0.223
REMARK UNBOUND:                -0.219
REMARK SMILES [NH3+][C@@H](CO)C(=O)[O-]
REMARK SMILES IDX 3 1 2 2 1 3 5 7 6 8 7 9 4 10
REMARK H PARENT 1 4 1 5 1 6 4 11
REMARK Flexibility Score: inf
ROOT
ATOM      1  C   UNL     1     156.656 166.784 167.082  1.00  0.00     0.227 C 
ENDROOT
BRANCH   1   2
ATOM      2  C   UNL     1     158.105 167.180 167.407  1.00  0.00     0.253 C 
BRANCH   2   3
ATOM      3  N   UNL     1     158.239 167.605 168.805  1.00  0.00    -0.348 N 
ATOM      4  H   UNL     1     159.223 167.491 169.140  1.00  0.00     0.345 HD
ATOM      5  H   UNL     1     157.963 168.610 168.896  1.00  0.00     0.345 HD
ATOM      6  H   UNL     1     157.604 167.035 169.410  1.00  0.00     0.345 HD
ENDBRANCH   2   3
BRANCH   2   7
ATOM      7  C   UNL     1     158.584 168.260 166.471  1.00  0.00     0.102 C 
ATOM      8  O   UNL     1     159.162 167.951 165.396  1.00  0.00    -0.544 OA
ATOM      9  O   UNL     1     158.354 169.599 166.763  1.00  0.00    -0.544 OA
ENDBRANCH   2   7
ENDBRANCH   1   2
BRANCH   1  10
ATOM     10  O   UNL     1     155.805 167.894 167.169  1.00  0.00    -0.390 OA
ATOM     11  H   UNL     1     154.972 167.640 166.693  1.00  0.00     0.210 HD
ENDBRANCH   1  10
TORSDOF 4
ENDMDL
MODEL 6
REMARK VINA RESULT:    -3.120      2.003      2.241
REMARK INTER + INTRA:          -3.886
REMARK INTER:                  -3.874
REMARK INTRA:                  -0.012
REMARK UNBOUND:                -0.219
REMARK SMILES [NH3+][C@@H](CO)C(=O)[O-]
REMARK SMILES IDX 3 1 2 2 1 3 5 7 6 8 7 9 4 10
REMARK H PARENT 1 4 1 5 1 6 4 11
REMARK Flexibility Score: inf
ROOT
ATOM      1  C   UNL     1     158.843 167.229 167.616  1.00  0.00     0.227 C 
ENDROOT
BRANCH   1   2
ATOM      2  C   UNL     1     158.803 168.409 166.631  1.00  0.00     0.253 C 
BRANCH   2   3
ATOM      3  N   UNL     1     157.832 169.424 167.057  1.00  0.00    -0.348 N 
ATOM      4  H   UNL     1     157.319 169.118 167.915  1.00  0.00     0.345 HD
ATOM      5  H   UNL     1     158.328 170.323 167.259  1.00  0.00     0.345 HD
ATOM      6  H   UNL     1     157.142 169.597 166.289  1.00  0.00     0.345 HD
ENDBRANCH   2   3
BRANCH   2   7
ATOM      7  C   UNL     1     158.496 167.928 165.236  1.00  0.00     0.102 C 
ATOM      8  O   UNL     1     159.388 167.963 164.347  1.00  0.00    -0.544 OA
ATOM      9  O   UNL     1     157.246 167.402 164.931  1.00  0.00    -0.544 OA
ENDBRANCH   2   7
ENDBRANCH   1   2
BRANCH   1  10
ATOM     10  O   UNL     1     158.178 167.552 168.806  1.00  0.00    -0.390 OA
ATOM     11  H   UNL     1     157.386 166.956 168.849  1.00  0.00     0.210 HD
ENDBRANCH   1  10
TORSDOF 4
ENDMDL
MODEL 7
REMARK VINA RESULT:    -3.108      2.149      3.065
REMARK INTER + INTRA:          -3.872
REMARK INTER:                  -3.649
REMARK INTRA:                  -0.223
REMARK UNBOUND:                -0.219
REMARK SMILES [NH3+][C@@H](CO)C(=O)[O-]
REMARK SMILES IDX 3 1 2 2 1 3 5 7 6 8 7 9 4 10
REMARK H PARENT 1 4 1 5 1 6 4 11
REMARK Flexibility Score: inf
ROOT
ATOM      1  C   UNL     1     157.953 169.150 166.430  1.00  0.00     0.227 C 
ENDROOT
BRANCH   1   2
ATOM      2  C   UNL     1     159.090 168.120 166.343  1.00  0.00     0.253 C 
BRANCH   2   3
ATOM      3  N   UNL     1     159.445 167.836 164.947  1.00  0.00    -0.348 N 
ATOM      4  H   UNL     1     159.519 166.806 164.779  1.00  0.00     0.345 HD
ATOM      5  H   UNL     1     158.716 168.233 164.310  1.00  0.00     0.345 HD
ATOM      6  H   UNL     1     160.360 168.287 164.716  1.00  0.00     0.345 HD
ENDBRANCH   2   3
BRANCH   2   7
ATOM      7  C   UNL     1     158.718 166.853 167.068  1.00  0.00     0.102 C 
ATOM      8  O   UNL     1     157.788 166.863 167.917  1.00  0.00    -0.544 OA
ATOM      9  O   UNL     1     159.363 165.657 166.777  1.00  0.00    -0.544 OA
ENDBRANCH   2   7
ENDBRANCH   1   2
BRANCH   1  10
ATOM     10  O   UNL     1     157.998 169.838 167.650  1.00  0.00    -0.390 OA
ATOM     11  H   UNL     1     158.955 170.035 167.820  1.00  0.00     0.210 HD
ENDBRANCH   1  10
TORSDOF 4
ENDMDL
MODEL 8
REMARK VINA RESULT:    -3.104      7.093      7.963
REMARK INTER + INTRA:          -3.867
REMARK INTER:                  -3.511
REMARK INTRA:                  -0.356
REMARK UNBOUND:                -0.219
REMARK SMILES [NH3+][C@@H](CO)C(=O)[O-]
REMARK SMILES IDX 3 1 2 2 1 3 5 7 6 8 7 9 4 10
REMARK H PARENT 1 4 1 5 1 6 4 11
REMARK Flexibility Score: inf
ROOT
ATOM      1  C   UNL     1     149.680 169.382 164.273  1.00  0.00     0.227 C 
ENDROOT
BRANCH   1   2
ATOM      2  C   UNL     1     149.595 167.887 164.620  1.00  0.00     0.253 C 
BRANCH   2   3
ATOM      3  N   UNL     1     148.213 167.487 164.913  1.00  0.00    -0.348 N 
ATOM      4  H   UNL     1     148.188 166.627 165.508  1.00  0.00     0.345 HD
ATOM      5  H   UNL     1     147.720 168.262 165.413  1.00  0.00     0.345 HD
ATOM      6  H   UNL     1     147.703 167.298 164.019  1.00  0.00     0.345 HD
ENDBRANCH   2   3
BRANCH   2   7
ATOM      7  C   UNL     1     150.504 167.555 165.775  1.00  0.00     0.102 C 
ATOM      8  O   UNL     1     151.736 167.383 165.578  1.00  0.00    -0.544 OA
ATOM      9  O   UNL     1     150.002 167.479 167.068  1.00  0.00    -0.544 OA
ENDBRANCH   2   7
ENDBRANCH   1   2
BRANCH   1  10
ATOM     10  O   UNL     1     150.111 170.125 165.381  1.00  0.00    -0.390 OA
ATOM     11  H   UNL     1     149.665 169.724 166.172  1.00  0.00     0.210 HD
ENDBRANCH   1  10
TORSDOF 4
ENDMDL
MODEL 9
REMARK VINA RESULT:    -3.084     19.942     21.007
REMARK INTER + INTRA:          -3.844
REMARK INTER:                  -3.617
REMARK INTRA:                  -0.227
REMARK UNBOUND:                -0.219
REMARK SMILES [NH3+][C@@H](CO)C(=O)[O-]
REMARK SMILES IDX 3 1 2 2 1 3 5 7 6 8 7 9 4 10
REMARK H PARENT 1 4 1 5 1 6 4 11
REMARK Flexibility Score: inf
ROOT
ATOM      1  C   UNL     1     159.661 155.143 181.742  1.00  0.00     0.227 C 
ENDROOT
BRANCH   1   2
ATOM      2  C   UNL     1     160.707 154.403 182.592  1.00  0.00     0.253 C 
BRANCH   2   3
ATOM      3  N   UNL     1     160.075 153.686 183.706  1.00  0.00    -0.348 N 
ATOM      4  H   UNL     1     159.032 153.742 183.647  1.00  0.00     0.345 HD
ATOM      5  H   UNL     1     160.364 152.681 183.689  1.00  0.00     0.345 HD
ATOM      6  H   UNL     1     160.387 154.101 184.615  1.00  0.00     0.345 HD
ENDBRANCH   2   3
BRANCH   2   7
ATOM      7  C   UNL     1     161.755 155.360 183.098  1.00  0.00     0.102 C 
ATOM      8  O   UNL     1     162.457 155.054 184.098  1.00  0.00    -0.544 OA
ATOM      9  O   UNL     1     161.987 156.563 182.442  1.00  0.00    -0.544 OA
ENDBRANCH   2   7
ENDBRANCH   1   2
BRANCH   1  10
ATOM     10  O   UNL     1     160.158 155.403 180.458  1.00  0.00    -0.390 OA
ATOM     11  H   UNL     1     160.191 154.527 179.992  1.00  0.00     0.210 HD
ENDBRANCH   1  10
TORSDOF 4
ENDMDL
