MODEL 1
REMARK VINA RESULT:    -2.582      0.000      0.000
REMARK INTER + INTRA:          -3.073
REMARK INTER:                  -3.035
REMARK INTRA:                  -0.037
REMARK UNBOUND:                -0.037
REMARK SMILES CCCCC(=O)[O-]
REMARK SMILES IDX 4 1 5 2 6 3 7 4 3 5 2 6 1 7
REMARK H PARENT
REMARK Flexibility Score: inf
ROOT
ATOM      1  C   UNL     1      31.031  16.750  51.484  1.00  0.00     0.053 C 
ENDROOT
BRANCH   1   2
ATOM      2  C   UNL     1      29.747  17.140  50.823  1.00  0.00     0.041 C 
ATOM      3  O   UNL     1      28.728  16.409  50.935  1.00  0.00    -0.550 OA
ATOM      4  O   UNL     1      29.688  18.287  50.041  1.00  0.00    -0.550 OA
ENDBRANCH   1   2
BRANCH   1   5
ATOM      5  C   UNL     1      32.192  16.821  50.484  1.00  0.00     0.006 C 
BRANCH   5   6
ATOM      6  C   UNL     1      33.124  15.604  50.574  1.00  0.00    -0.003 C 
ATOM      7  C   UNL     1      33.018  14.875  51.915  1.00  0.00     0.004 C 
ENDBRANCH   5   6
ENDBRANCH   1   5
TORSDOF 3
ENDMDL
MODEL 2
REMARK VINA RESULT:    -2.533      9.549     10.806
REMARK INTER + INTRA:          -3.015
REMARK INTER:                  -2.990
REMARK INTRA:                  -0.025
REMARK UNBOUND:                -0.037
REMARK SMILES CCCCC(=O)[O-]
REMARK SMILES IDX 4 1 5 2 6 3 7 4 3 5 2 6 1 7
REMARK H PARENT
REMARK Flexibility Score: inf
ROOT
ATOM      1  C   UNL     1      22.784  17.441  43.765  1.00  0.00     0.053 C 
ENDROOT
BRANCH   1   2
ATOM      2  C   UNL     1      22.883  16.600  42.530  1.00  0.00     0.041 C 
ATOM      3  O   UNL     1      23.026  17.142  41.404  1.00  0.00    -0.550 OA
ATOM      4  O   UNL     1      22.767  15.218  42.620  1.00  0.00    -0.550 OA
ENDBRANCH   1   2
BRANCH   1   5
ATOM      5  C   UNL     1      23.903  18.490  43.788  1.00  0.00     0.006 C 
BRANCH   5   6
ATOM      6  C   UNL     1      24.849  18.317  44.986  1.00  0.00    -0.003 C 
ATOM      7  C   UNL     1      26.253  18.856  44.713  1.00  0.00     0.004 C 
ENDBRANCH   5   6
ENDBRANCH   1   5
TORSDOF 3
ENDMDL
MODEL 3
REMARK VINA RESULT:    -2.478      1.268      1.884
REMARK INTER + INTRA:          -2.950
REMARK INTER:                  -2.927
REMARK INTRA:                  -0.023
REMARK UNBOUND:                -0.037
REMARK SMILES CCCCC(=O)[O-]
REMARK SMILES IDX 4 1 5 2 6 3 7 4 3 5 2 6 1 7
REMARK H PARENT
REMARK Flexibility Score: inf
ROOT
ATOM      1  C   UNL     1      29.745  17.049  50.410  1.00  0.00     0.053 C 
ENDROOT
BRANCH   1   2
ATOM      2  C   UNL     1      28.554  17.335  51.269  1.00  0.00     0.041 C 
ATOM      3  O   UNL     1      28.675  18.032  52.310  1.00  0.00    -0.550 OA
ATOM      4  O   UNL     1      27.316  16.791  50.944  1.00  0.00    -0.550 OA
ENDBRANCH   1   2
BRANCH   1   5
ATOM      5  C   UNL     1      30.957  16.691  51.279  1.00  0.00     0.006 C 
BRANCH   5   6
ATOM      6  C   UNL     1      32.290  16.867  50.535  1.00  0.00    -0.003 C 
ATOM      7  C   UNL     1      33.100  15.572  50.459  1.00  0.00     0.004 C 
ENDBRANCH   5   6
ENDBRANCH   1   5
TORSDOF 3
ENDMDL
MODEL 4
REMARK VINA RESULT:    -2.459     19.359     20.036
REMARK INTER + INTRA:          -2.927
REMARK INTER:                  -2.816
REMARK INTRA:                  -0.111
REMARK UNBOUND:                -0.037
REMARK SMILES CCCCC(=O)[O-]
REMARK SMILES IDX 4 1 5 2 6 3 7 4 3 5 2 6 1 7
REMARK H PARENT
REMARK Flexibility Score: inf
ROOT
ATOM      1  C   UNL     1      15.533  28.126  54.388  1.00  0.00     0.053 C 
ENDROOT
BRANCH   1   2
ATOM      2  C   UNL     1      14.726  28.202  53.130  1.00  0.00     0.041 C 
ATOM      3  O   UNL     1      15.296  28.181  52.008  1.00  0.00    -0.550 OA
ATOM      4  O   UNL     1      13.345  28.345  53.198  1.00  0.00    -0.550 OA
ENDBRANCH   1   2
BRANCH   1   5
ATOM      5  C   UNL     1      16.080  29.510  54.758  1.00  0.00     0.006 C 
BRANCH   5   6
ATOM      6  C   UNL     1      17.535  29.709  54.309  1.00  0.00    -0.003 C 
ATOM      7  C   UNL     1      17.658  30.629  53.094  1.00  0.00     0.004 C 
ENDBRANCH   5   6
ENDBRANCH   1   5
TORSDOF 3
ENDMDL
MODEL 5
REMARK VINA RESULT:    -2.455      2.298      2.808
REMARK INTER + INTRA:          -2.923
REMARK INTER:                  -2.865
REMARK INTRA:                  -0.058
REMARK UNBOUND:                -0.037
REMARK SMILES CCCCC(=O)[O-]
REMARK SMILES IDX 4 1 5 2 6 3 7 4 3 5 2 6 1 7
REMARK H PARENT
REMARK Flexibility Score: inf
ROOT
ATOM      1  C   UNL     1      28.531  16.495  50.840  1.00  0.00     0.053 C 
ENDROOT
BRANCH   1   2
ATOM      2  C   UNL     1      27.213  17.085  51.233  1.00  0.00     0.041 C 
ATOM      3  O   UNL     1      26.217  16.976  50.471  1.00  0.00    -0.550 OA
ATOM      4  O   UNL     1      27.097  17.799  52.420  1.00  0.00    -0.550 OA
ENDBRANCH   1   2
BRANCH   1   5
ATOM      5  C   UNL     1      29.526  17.604  50.475  1.00  0.00     0.006 C 
BRANCH   5   6
ATOM      6  C   UNL     1      30.969  17.256  50.871  1.00  0.00    -0.003 C 
ATOM      7  C   UNL     1      31.074  16.696  52.290  1.00  0.00     0.004 C 
ENDBRANCH   5   6
ENDBRANCH   1   5
TORSDOF 3
ENDMDL
MODEL 6
REMARK VINA RESULT:    -2.424     17.767     18.817
REMARK INTER + INTRA:          -2.886
REMARK INTER:                  -2.822
REMARK INTRA:                  -0.064
REMARK UNBOUND:                -0.037
REMARK SMILES CCCCC(=O)[O-]
REMARK SMILES IDX 4 1 5 2 6 3 7 4 3 5 2 6 1 7
REMARK H PARENT
REMARK Flexibility Score: inf
ROOT
ATOM      1  C   UNL     1      19.188  29.136  54.299  1.00  0.00     0.053 C 
ENDROOT
BRANCH   1   2
ATOM      2  C   UNL     1      19.985  29.593  55.480  1.00  0.00     0.041 C 
ATOM      3  O   UNL     1      20.714  30.616  55.396  1.00  0.00    -0.550 OA
ATOM      4  O   UNL     1      19.960  28.860  56.661  1.00  0.00    -0.550 OA
ENDBRANCH   1   2
BRANCH   1   5
ATOM      5  C   UNL     1      18.234  30.244  53.836  1.00  0.00     0.006 C 
BRANCH   5   6
ATOM      6  C   UNL     1      16.764  29.797  53.840  1.00  0.00    -0.003 C 
ATOM      7  C   UNL     1      16.269  29.405  55.232  1.00  0.00     0.004 C 
ENDBRANCH   5   6
ENDBRANCH   1   5
TORSDOF 3
ENDMDL
MODEL 7
REMARK VINA RESULT:    -2.421     11.084     11.819
REMARK INTER + INTRA:          -2.883
REMARK INTER:                  -2.835
REMARK INTRA:                  -0.048
REMARK UNBOUND:                -0.037
REMARK SMILES CCCCC(=O)[O-]
REMARK SMILES IDX 4 1 5 2 6 3 7 4 3 5 2 6 1 7
REMARK H PARENT
REMARK Flexibility Score: inf
ROOT
ATOM      1  C   UNL     1      30.842  17.483  38.998  1.00  0.00     0.053 C 
ENDROOT
BRANCH   1   2
ATOM      2  C   UNL     1      32.026  16.636  39.347  1.00  0.00     0.041 C 
ATOM      3  O   UNL     1      32.033  15.410  39.064  1.00  0.00    -0.550 OA
ATOM      4  O   UNL     1      33.101  17.193  40.029  1.00  0.00    -0.550 OA
ENDBRANCH   1   2
BRANCH   1   5
ATOM      5  C   UNL     1      31.160  18.967  39.221  1.00  0.00     0.006 C 
BRANCH   5   6
ATOM      6  C   UNL     1      30.024  19.713  39.936  1.00  0.00    -0.003 C 
ATOM      7  C   UNL     1      30.397  20.136  41.357  1.00  0.00     0.004 C 
ENDBRANCH   5   6
ENDBRANCH   1   5
TORSDOF 3
ENDMDL
MODEL 8
REMARK VINA RESULT:    -2.415     12.737     14.260
REMARK INTER + INTRA:          -2.876
REMARK INTER:                  -2.765
REMARK INTRA:                  -0.111
REMARK UNBOUND:                -0.037
REMARK SMILES CCCCC(=O)[O-]
REMARK SMILES IDX 4 1 5 2 6 3 7 4 3 5 2 6 1 7
REMARK H PARENT
REMARK Flexibility Score: inf
ROOT
ATOM      1  C   UNL     1      16.212  18.223  53.300  1.00  0.00     0.053 C 
ENDROOT
BRANCH   1   2
ATOM      2  C   UNL     1      17.086  18.082  54.507  1.00  0.00     0.041 C 
ATOM      3  O   UNL     1      16.670  17.463  55.522  1.00  0.00    -0.550 OA
ATOM      4  O   UNL     1      18.342  18.675  54.529  1.00  0.00    -0.550 OA
ENDBRANCH   1   2
BRANCH   1   5
ATOM      5  C   UNL     1      16.515  17.113  52.287  1.00  0.00     0.006 C 
BRANCH   5   6
ATOM      6  C   UNL     1      17.403  17.596  51.131  1.00  0.00    -0.003 C 
ATOM      7  C   UNL     1      18.832  17.057  51.217  1.00  0.00     0.004 C 
ENDBRANCH   5   6
ENDBRANCH   1   5
TORSDOF 3
ENDMDL
MODEL 9
REMARK VINA RESULT:    -2.399     14.572     15.636
REMARK INTER + INTRA:          -2.857
REMARK INTER:                  -2.793
REMARK INTRA:                  -0.064
REMARK UNBOUND:                -0.037
REMARK SMILES CCCCC(=O)[O-]
REMARK SMILES IDX 4 1 5 2 6 3 7 4 3 5 2 6 1 7
REMARK H PARENT
REMARK Flexibility Score: inf
ROOT
ATOM      1  C   UNL     1      16.460  18.294  46.026  1.00  0.00     0.053 C 
ENDROOT
BRANCH   1   2
ATOM      2  C   UNL     1      15.153  17.567  46.077  1.00  0.00     0.041 C 
ATOM      3  O   UNL     1      15.078  16.370  45.697  1.00  0.00    -0.550 OA
ATOM      4  O   UNL     1      14.005  18.229  46.499  1.00  0.00    -0.550 OA
ENDBRANCH   1   2
BRANCH   1   5
ATOM      5  C   UNL     1      17.344  17.889  47.212  1.00  0.00     0.006 C 
BRANCH   5   6
ATOM      6  C   UNL     1      16.860  18.488  48.541  1.00  0.00    -0.003 C 
ATOM      7  C   UNL     1      17.690  18.020  49.737  1.00  0.00     0.004 C 
ENDBRANCH   5   6
ENDBRANCH   1   5
TORSDOF 3
ENDMDL
