MODEL 1
REMARK VINA RESULT:    -3.935      0.000      0.000
REMARK INTER + INTRA:          -4.336
REMARK INTER:                  -4.165
REMARK INTRA:                  -0.170
REMARK UNBOUND:                -0.170
REMARK SMILES CC(C)[C@H]1CC[C@@H](C)CC1=O
REMARK SMILES IDX 8 1 7 2 6 3 5 4 4 5 10 6 11 7 9 8 2 9 1 10 3 11
REMARK H PARENT
REMARK Flexibility Score: inf
ROOT
ATOM      1  C   UNL     1     140.645 140.238 131.944  1.00  0.00     0.008 C 
ATOM      2  C   UNL     1     139.614 140.214 130.804  1.00  0.00    -0.007 C 
ATOM      3  C   UNL     1     138.521 139.144 131.030  1.00  0.00     0.004 C 
ATOM      4  C   UNL     1     139.060 137.713 130.879  1.00  0.00     0.012 C 
ATOM      5  C   UNL     1     139.718 137.492 129.497  1.00  0.00     0.058 C 
ATOM      6  C   UNL     1     140.725 138.600 129.229  1.00  0.00     0.136 C 
ATOM      7  O   UNL     1     141.832 138.368 128.770  1.00  0.00    -0.299 OA
ATOM      8  C   UNL     1     140.295 140.027 129.434  1.00  0.00     0.079 C 
ENDROOT
BRANCH   5   9
ATOM      9  C   UNL     1     140.247 136.031 129.338  1.00  0.00    -0.007 C 
ATOM     10  C   UNL     1     140.244 135.271 130.674  1.00  0.00     0.008 C 
ATOM     11  C   UNL     1     139.534 135.209 128.248  1.00  0.00     0.008 C 
ENDBRANCH   5   9
TORSDOF 1
ENDMDL
MODEL 2
REMARK VINA RESULT:    -3.934      3.205      4.537
REMARK INTER + INTRA:          -4.334
REMARK INTER:                  -4.167
REMARK INTRA:                  -0.167
REMARK UNBOUND:                -0.170
REMARK SMILES CC(C)[C@H]1CC[C@@H](C)CC1=O
REMARK SMILES IDX 8 1 7 2 6 3 5 4 4 5 10 6 11 7 9 8 2 9 1 10 3 11
REMARK H PARENT
REMARK Flexibility Score: inf
ROOT
ATOM      1  C   UNL     1     140.208 134.418 132.000  1.00  0.00     0.008 C 
ATOM      2  C   UNL     1     140.137 135.539 130.951  1.00  0.00    -0.007 C 
ATOM      3  C   UNL     1     139.034 136.573 131.276  1.00  0.00     0.004 C 
ATOM      4  C   UNL     1     137.619 135.999 131.094  1.00  0.00     0.012 C 
ATOM      5  C   UNL     1     137.405 135.452 129.663  1.00  0.00     0.058 C 
ATOM      6  C   UNL     1     138.542 134.510 129.302  1.00  0.00     0.136 C 
ATOM      7  O   UNL     1     138.342 133.437 128.754  1.00  0.00    -0.299 OA
ATOM      8  C   UNL     1     139.956 134.970 129.530  1.00  0.00     0.079 C 
ENDROOT
BRANCH   5   9
ATOM      9  C   UNL     1     135.960 134.889 129.473  1.00  0.00    -0.007 C 
ATOM     10  C   UNL     1     135.171 134.877 130.793  1.00  0.00     0.008 C 
ATOM     11  C   UNL     1     135.147 135.580 128.363  1.00  0.00     0.008 C 
ENDBRANCH   5   9
TORSDOF 1
ENDMDL
MODEL 3
REMARK VINA RESULT:    -3.923      4.721      6.343
REMARK INTER + INTRA:          -4.323
REMARK INTER:                  -4.154
REMARK INTRA:                  -0.169
REMARK UNBOUND:                -0.170
REMARK SMILES CC(C)[C@H]1CC[C@@H](C)CC1=O
REMARK SMILES IDX 8 1 7 2 6 3 5 4 4 5 10 6 11 7 9 8 2 9 1 10 3 11
REMARK H PARENT
REMARK Flexibility Score: inf
ROOT
ATOM      1  C   UNL     1     134.589 134.981 131.890  1.00  0.00     0.008 C 
ATOM      2  C   UNL     1     135.634 135.075 130.766  1.00  0.00    -0.007 C 
ATOM      3  C   UNL     1     136.693 136.166 131.045  1.00  0.00     0.004 C 
ATOM      4  C   UNL     1     136.114 137.586 130.937  1.00  0.00     0.012 C 
ATOM      5  C   UNL     1     135.469 137.837 129.555  1.00  0.00     0.058 C 
ATOM      6  C   UNL     1     134.498 136.712 129.234  1.00  0.00     0.136 C 
ATOM      7  O   UNL     1     133.391 136.929 128.768  1.00  0.00    -0.299 OA
ATOM      8  C   UNL     1     134.966 135.292 129.394  1.00  0.00     0.079 C 
ENDROOT
BRANCH   5   9
ATOM      9  C   UNL     1     134.900 139.288 129.440  1.00  0.00    -0.007 C 
ATOM     10  C   UNL     1     134.901 140.013 130.796  1.00  0.00     0.008 C 
ATOM     11  C   UNL     1     135.578 140.156 128.363  1.00  0.00     0.008 C 
ENDBRANCH   5   9
TORSDOF 1
ENDMDL
MODEL 4
REMARK VINA RESULT:    -3.900      3.106      4.445
REMARK INTER + INTRA:          -4.298
REMARK INTER:                  -4.129
REMARK INTRA:                  -0.170
REMARK UNBOUND:                -0.170
REMARK SMILES CC(C)[C@H]1CC[C@@H](C)CC1=O
REMARK SMILES IDX 8 1 7 2 6 3 5 4 4 5 10 6 11 7 9 8 2 9 1 10 3 11
REMARK H PARENT
REMARK Flexibility Score: inf
ROOT
ATOM      1  C   UNL     1     134.989 140.637 131.960  1.00  0.00     0.008 C 
ATOM      2  C   UNL     1     135.045 139.588 130.839  1.00  0.00    -0.007 C 
ATOM      3  C   UNL     1     136.122 138.511 131.101  1.00  0.00     0.004 C 
ATOM      4  C   UNL     1     137.550 139.065 130.967  1.00  0.00     0.012 C 
ATOM      5  C   UNL     1     137.788 139.702 129.579  1.00  0.00     0.058 C 
ATOM      6  C   UNL     1     136.674 140.691 129.274  1.00  0.00     0.136 C 
ATOM      7  O   UNL     1     136.902 141.793 128.801  1.00  0.00    -0.299 OA
ATOM      8  C   UNL     1     135.249 140.248 129.461  1.00  0.00     0.079 C 
ENDROOT
BRANCH   5   9
ATOM      9  C   UNL     1     139.246 140.245 129.437  1.00  0.00    -0.007 C 
ATOM     10  C   UNL     1     139.992 140.242 130.781  1.00  0.00     0.008 C 
ATOM     11  C   UNL     1     140.085 139.545 128.352  1.00  0.00     0.008 C 
ENDBRANCH   5   9
TORSDOF 1
ENDMDL
MODEL 5
REMARK VINA RESULT:    -3.857      3.115      4.798
REMARK INTER + INTRA:          -4.253
REMARK INTER:                  -4.096
REMARK INTRA:                  -0.157
REMARK UNBOUND:                -0.170
REMARK SMILES CC(C)[C@H]1CC[C@@H](C)CC1=O
REMARK SMILES IDX 8 1 7 2 6 3 5 4 4 5 10 6 11 7 9 8 2 9 1 10 3 11
REMARK H PARENT
REMARK Flexibility Score: inf
ROOT
ATOM      1  C   UNL     1     140.568 136.842 129.403  1.00  0.00     0.008 C 
ATOM      2  C   UNL     1     140.301 135.342 129.606  1.00  0.00    -0.007 C 
ATOM      3  C   UNL     1     139.560 134.714 128.404  1.00  0.00     0.004 C 
ATOM      4  C   UNL     1     138.103 135.193 128.296  1.00  0.00     0.012 C 
ATOM      5  C   UNL     1     137.311 134.908 129.593  1.00  0.00     0.058 C 
ATOM      6  C   UNL     1     138.085 135.439 130.789  1.00  0.00     0.136 C 
ATOM      7  O   UNL     1     137.540 136.066 131.684  1.00  0.00    -0.299 OA
ATOM      8  C   UNL     1     139.540 135.080 130.921  1.00  0.00     0.079 C 
ENDROOT
BRANCH   5   9
ATOM      9  C   UNL     1     135.825 135.377 129.474  1.00  0.00    -0.007 C 
ATOM     10  C   UNL     1     135.445 135.717 128.024  1.00  0.00     0.008 C 
ATOM     11  C   UNL     1     134.799 134.406 130.088  1.00  0.00     0.008 C 
ENDBRANCH   5   9
TORSDOF 1
ENDMDL
MODEL 6
REMARK VINA RESULT:    -3.846      1.532      2.477
REMARK INTER + INTRA:          -4.242
REMARK INTER:                  -4.092
REMARK INTRA:                  -0.150
REMARK UNBOUND:                -0.170
REMARK SMILES CC(C)[C@H]1CC[C@@H](C)CC1=O
REMARK SMILES IDX 8 1 7 2 6 3 5 4 4 5 10 6 11 7 9 8 2 9 1 10 3 11
REMARK H PARENT
REMARK Flexibility Score: inf
ROOT
ATOM      1  C   UNL     1     138.486 140.566 129.390  1.00  0.00     0.008 C 
ATOM      2  C   UNL     1     139.985 140.276 129.564  1.00  0.00    -0.007 C 
ATOM      3  C   UNL     1     140.576 139.514 128.355  1.00  0.00     0.004 C 
ATOM      4  C   UNL     1     140.071 138.064 128.272  1.00  0.00     0.012 C 
ATOM      5  C   UNL     1     140.371 137.279 129.569  1.00  0.00     0.058 C 
ATOM      6  C   UNL     1     139.878 138.073 130.769  1.00  0.00     0.136 C 
ATOM      7  O   UNL     1     139.261 137.546 131.682  1.00  0.00    -0.299 OA
ATOM      8  C   UNL     1     140.263 139.523 130.879  1.00  0.00     0.079 C 
ENDROOT
BRANCH   5   9
ATOM      9  C   UNL     1     139.876 135.801 129.475  1.00  0.00    -0.007 C 
ATOM     10  C   UNL     1     139.572 135.389 128.025  1.00  0.00     0.008 C 
ATOM     11  C   UNL     1     140.807 134.772 130.144  1.00  0.00     0.008 C 
ENDBRANCH   5   9
TORSDOF 1
ENDMDL
MODEL 7
REMARK VINA RESULT:    -3.839      3.162      4.849
REMARK INTER + INTRA:          -4.233
REMARK INTER:                  -4.096
REMARK INTRA:                  -0.138
REMARK UNBOUND:                -0.170
REMARK SMILES CC(C)[C@H]1CC[C@@H](C)CC1=O
REMARK SMILES IDX 8 1 7 2 6 3 5 4 4 5 10 6 11 7 9 8 2 9 1 10 3 11
REMARK H PARENT
REMARK Flexibility Score: inf
ROOT
ATOM      1  C   UNL     1     134.645 138.397 129.395  1.00  0.00     0.008 C 
ATOM      2  C   UNL     1     134.916 139.908 129.480  1.00  0.00    -0.007 C 
ATOM      3  C   UNL     1     135.720 140.424 128.264  1.00  0.00     0.004 C 
ATOM      4  C   UNL     1     137.176 139.931 128.272  1.00  0.00     0.012 C 
ATOM      5  C   UNL     1     137.906 140.325 129.576  1.00  0.00     0.058 C 
ATOM      6  C   UNL     1     137.070 139.905 130.774  1.00  0.00     0.136 C 
ATOM      7  O   UNL     1     137.565 139.357 131.747  1.00  0.00    -0.299 OA
ATOM      8  C   UNL     1     135.614 140.281 130.802  1.00  0.00     0.079 C 
ENDROOT
BRANCH   5   9
ATOM      9  C   UNL     1     139.392 139.840 129.573  1.00  0.00    -0.007 C 
ATOM     10  C   UNL     1     139.886 139.519 128.153  1.00  0.00     0.008 C 
ATOM     11  C   UNL     1     140.374 140.789 130.285  1.00  0.00     0.008 C 
ENDBRANCH   5   9
TORSDOF 1
ENDMDL
MODEL 8
REMARK VINA RESULT:    -3.786      1.629      3.762
REMARK INTER + INTRA:          -4.178
REMARK INTER:                  -4.016
REMARK INTRA:                  -0.162
REMARK UNBOUND:                -0.170
REMARK SMILES CC(C)[C@H]1CC[C@@H](C)CC1=O
REMARK SMILES IDX 8 1 7 2 6 3 5 4 4 5 10 6 11 7 9 8 2 9 1 10 3 11
REMARK H PARENT
REMARK Flexibility Score: inf
ROOT
ATOM      1  C   UNL     1     137.431 135.829 131.014  1.00  0.00     0.008 C 
ATOM      2  C   UNL     1     138.925 135.623 131.308  1.00  0.00    -0.007 C 
ATOM      3  C   UNL     1     139.592 136.902 131.865  1.00  0.00     0.004 C 
ATOM      4  C   UNL     1     139.719 138.007 130.805  1.00  0.00     0.012 C 
ATOM      5  C   UNL     1     140.500 137.520 129.563  1.00  0.00     0.058 C 
ATOM      6  C   UNL     1     139.908 136.210 129.070  1.00  0.00     0.136 C 
ATOM      7  O   UNL     1     139.703 135.999 127.885  1.00  0.00    -0.299 OA
ATOM      8  C   UNL     1     139.677 135.106 130.066  1.00  0.00     0.079 C 
ENDROOT
BRANCH   5   9
ATOM      9  C   UNL     1     140.646 138.651 128.495  1.00  0.00    -0.007 C 
ATOM     10  C   UNL     1     140.014 139.971 128.966  1.00  0.00     0.008 C 
ATOM     11  C   UNL     1     142.089 138.887 128.008  1.00  0.00     0.008 C 
ENDBRANCH   5   9
TORSDOF 1
ENDMDL
MODEL 9
REMARK VINA RESULT:    -3.705      2.534      4.183
REMARK INTER + INTRA:          -4.092
REMARK INTER:                  -3.972
REMARK INTRA:                  -0.120
REMARK UNBOUND:                -0.170
REMARK SMILES CC(C)[C@H]1CC[C@@H](C)CC1=O
REMARK SMILES IDX 8 1 7 2 6 3 5 4 4 5 10 6 11 7 9 8 2 9 1 10 3 11
REMARK H PARENT
REMARK Flexibility Score: inf
ROOT
ATOM      1  C   UNL     1     140.635 137.976 129.300  1.00  0.00     0.008 C 
ATOM      2  C   UNL     1     140.285 139.430 128.944  1.00  0.00    -0.007 C 
ATOM      3  C   UNL     1     139.901 140.259 130.191  1.00  0.00     0.004 C 
ATOM      4  C   UNL     1     138.546 139.837 130.782  1.00  0.00     0.012 C 
ATOM      5  C   UNL     1     137.412 139.928 129.735  1.00  0.00     0.058 C 
ATOM      6  C   UNL     1     137.828 139.196 128.469  1.00  0.00     0.136 C 
ATOM      7  O   UNL     1     137.067 138.447 127.878  1.00  0.00    -0.299 OA
ATOM      8  C   UNL     1     139.177 139.496 127.875  1.00  0.00     0.079 C 
ENDROOT
BRANCH   5   9
ATOM      9  C   UNL     1     136.033 139.519 130.343  1.00  0.00    -0.007 C 
ATOM     10  C   UNL     1     136.021 139.647 131.875  1.00  0.00     0.008 C 
ATOM     11  C   UNL     1     134.823 140.249 129.731  1.00  0.00     0.008 C 
ENDBRANCH   5   9
TORSDOF 1
ENDMDL
