MODEL 1
REMARK VINA RESULT:    -6.984      0.000      0.000
REMARK INTER + INTRA:         -11.188
REMARK INTER:                 -10.251
REMARK INTRA:                  -0.937
REMARK UNBOUND:                -0.937
REMARK SMILES O=c1c(O[C@H]2O[C@H](CO)[C@@H](O)[C@@H](O)[C@H]2O)c(-c2ccc(O)c(O)c2)oc2cc(O)cc(O)c12
REMARK SMILES IDX 4 1 3 2 16 3 25 4 2 5 26 6 1 7 33 8 27 9 31 10 28 11 30 12
REMARK SMILES IDX 17 13 18 14 19 15 20 16 24 17 22 18 21 19 23 21 32 23 29 25
REMARK SMILES IDX 5 27 14 28 6 29 12 30 7 31 10 32 15 33 13 35 8 37 9 38 11 40
REMARK H PARENT 21 20 23 22 32 24 29 26 15 34 13 36 9 39 11 41
REMARK Flexibility Score: inf
ROOT
ATOM      1  O   UNL     1      -5.789   7.607  14.236  1.00  0.00    -0.454 OA
ENDROOT
BRANCH   1   2
ATOM      2  C   UNL     1      -4.870   6.641  14.672  1.00  0.00     0.214 A 
ATOM      3  C   UNL     1      -3.588   6.524  14.083  1.00  0.00     0.180 A 
ATOM      4  O   UNL     1      -2.807   5.499  14.403  1.00  0.00    -0.452 OA
ATOM      5  C   UNL     1      -5.163   5.818  15.769  1.00  0.00     0.239 A 
ATOM      6  C   UNL     1      -3.112   4.616  15.351  1.00  0.00     0.146 A 
ATOM      7  O   UNL     1      -6.190   6.050  16.464  1.00  0.00    -0.285 OA
ATOM      8  C   UNL     1      -4.305   4.758  16.104  1.00  0.00     0.111 A 
ATOM      9  C   UNL     1      -2.221   3.577  15.635  1.00  0.00     0.094 A 
ATOM     10  C   UNL     1      -4.574   3.842  17.149  1.00  0.00     0.134 A 
ATOM     11  C   UNL     1      -2.529   2.633  16.614  1.00  0.00     0.123 A 
ATOM     12  C   UNL     1      -3.687   2.782  17.390  1.00  0.00     0.093 A 
BRANCH   3  13
ATOM     13  C   UNL     1      -3.043   7.541  13.159  1.00  0.00     0.025 A 
ATOM     14  C   UNL     1      -3.483   7.579  11.827  1.00  0.00     0.016 A 
ATOM     15  C   UNL     1      -2.889   8.455  10.919  1.00  0.00     0.051 A 
ATOM     16  C   UNL     1      -1.829   9.289  11.314  1.00  0.00     0.157 A 
ATOM     17  C   UNL     1      -1.990   8.380  13.560  1.00  0.00     0.062 A 
ATOM     18  C   UNL     1      -1.391   9.258  12.643  1.00  0.00     0.158 A 
BRANCH  16  19
ATOM     19  O   UNL     1      -1.193  10.125  10.394  1.00  0.00    -0.504 OA
ATOM     20  H   UNL     1      -1.606  11.032  10.172  1.00  0.00     0.293 HD
ENDBRANCH  16  19
BRANCH  18  21
ATOM     21  O   UNL     1      -0.351  10.088  13.038  1.00  0.00    -0.504 OA
ATOM     22  H   UNL     1      -0.511  11.090  13.080  1.00  0.00     0.293 HD
ENDBRANCH  18  21
ENDBRANCH   3  13
BRANCH  10  23
ATOM     23  O   UNL     1      -5.727   3.949  17.933  1.00  0.00    -0.507 OA
ATOM     24  H   UNL     1      -6.474   3.270  17.842  1.00  0.00     0.293 HD
ENDBRANCH  10  23
BRANCH  11  25
ATOM     25  O   UNL     1      -1.724   1.515  16.790  1.00  0.00    -0.508 OA
ATOM     26  H   UNL     1      -1.815   0.720  16.182  1.00  0.00     0.293 HD
ENDBRANCH  11  25
ENDBRANCH   1   2
BRANCH   1  27
ATOM     27  C   UNL     1      -6.782   7.497  13.192  1.00  0.00     0.339 C 
ATOM     28  C   UNL     1      -8.293   7.448  13.585  1.00  0.00     0.214 C 
ATOM     29  O   UNL     1      -6.445   6.514  12.226  1.00  0.00    -0.332 OA
ATOM     30  C   UNL     1      -8.777   6.040  13.966  1.00  0.00     0.180 C 
ATOM     31  C   UNL     1      -6.793   5.206  12.629  1.00  0.00     0.179 C 
ATOM     32  C   UNL     1      -8.317   5.046  12.884  1.00  0.00     0.177 C 
BRANCH  28  33
ATOM     33  O   UNL     1      -8.598   8.379  14.587  1.00  0.00    -0.384 OA
ATOM     34  H   UNL     1      -9.572   8.532  14.542  1.00  0.00     0.211 HD
ENDBRANCH  28  33
BRANCH  30  35
ATOM     35  O   UNL     1      -8.289   5.648  15.221  1.00  0.00    -0.387 OA
ATOM     36  H   UNL     1      -9.044   5.210  15.694  1.00  0.00     0.211 HD
ENDBRANCH  30  35
BRANCH  31  37
ATOM     37  C   UNL     1      -6.308   4.227  11.547  1.00  0.00     0.191 C 
BRANCH  37  38
ATOM     38  O   UNL     1      -7.379   3.797  10.750  1.00  0.00    -0.394 OA
ATOM     39  H   UNL     1      -7.295   2.811  10.656  1.00  0.00     0.210 HD
ENDBRANCH  37  38
ENDBRANCH  31  37
BRANCH  32  40
ATOM     40  O   UNL     1      -8.634   3.724  13.231  1.00  0.00    -0.387 OA
ATOM     41  H   UNL     1      -8.361   3.142  12.470  1.00  0.00     0.211 HD
ENDBRANCH  32  40
ENDBRANCH   1  27
TORSDOF 12
ENDMDL
MODEL 2
REMARK VINA RESULT:    -6.560      1.481      2.555
REMARK INTER + INTRA:         -10.566
REMARK INTER:                  -9.664
REMARK INTRA:                  -0.902
REMARK UNBOUND:                -0.937
REMARK SMILES O=c1c(O[C@H]2O[C@H](CO)[C@@H](O)[C@@H](O)[C@H]2O)c(-c2ccc(O)c(O)c2)oc2cc(O)cc(O)c12
REMARK SMILES IDX 4 1 3 2 16 3 25 4 2 5 26 6 1 7 33 8 27 9 31 10 28 11 30 12
REMARK SMILES IDX 17 13 18 14 19 15 20 16 24 17 22 18 21 19 23 21 32 23 29 25
REMARK SMILES IDX 5 27 14 28 6 29 12 30 7 31 10 32 15 33 13 35 8 37 9 38 11 40
REMARK H PARENT 21 20 23 22 32 24 29 26 15 34 13 36 9 39 11 41
REMARK Flexibility Score: inf
ROOT
ATOM      1  O   UNL     1      -5.974   5.540  13.454  1.00  0.00    -0.454 OA
ENDROOT
BRANCH   1   2
ATOM      2  C   UNL     1      -4.962   5.028  14.279  1.00  0.00     0.214 A 
ATOM      3  C   UNL     1      -3.646   5.549  14.243  1.00  0.00     0.180 A 
ATOM      4  O   UNL     1      -2.675   4.938  14.913  1.00  0.00    -0.452 OA
ATOM      5  C   UNL     1      -5.247   4.041  15.233  1.00  0.00     0.239 A 
ATOM      6  C   UNL     1      -2.889   3.909  15.729  1.00  0.00     0.146 A 
ATOM      7  O   UNL     1      -6.447   3.721  15.458  1.00  0.00    -0.285 OA
ATOM      8  C   UNL     1      -4.204   3.430  15.950  1.00  0.00     0.111 A 
ATOM      9  C   UNL     1      -1.809   3.337  16.410  1.00  0.00     0.094 A 
ATOM     10  C   UNL     1      -4.410   2.376  16.872  1.00  0.00     0.134 A 
ATOM     11  C   UNL     1      -2.009   2.248  17.258  1.00  0.00     0.123 A 
ATOM     12  C   UNL     1      -3.308   1.789  17.512  1.00  0.00     0.093 A 
BRANCH   3  13
ATOM     13  C   UNL     1      -3.307   6.800  13.532  1.00  0.00     0.025 A 
ATOM     14  C   UNL     1      -3.891   7.073  12.286  1.00  0.00     0.016 A 
ATOM     15  C   UNL     1      -3.489   8.189  11.554  1.00  0.00     0.051 A 
ATOM     16  C   UNL     1      -2.479   9.039  12.036  1.00  0.00     0.157 A 
ATOM     17  C   UNL     1      -2.304   7.653  14.022  1.00  0.00     0.062 A 
ATOM     18  C   UNL     1      -1.898   8.773  13.281  1.00  0.00     0.158 A 
BRANCH  16  19
ATOM     19  O   UNL     1      -2.033  10.124  11.280  1.00  0.00    -0.504 OA
ATOM     20  H   UNL     1      -1.646  10.941  11.754  1.00  0.00     0.293 HD
ENDBRANCH  16  19
BRANCH  18  21
ATOM     21  O   UNL     1      -0.906   9.616  13.765  1.00  0.00    -0.504 OA
ATOM     22  H   UNL     1      -0.987   9.975  14.712  1.00  0.00     0.293 HD
ENDBRANCH  18  21
ENDBRANCH   3  13
BRANCH  10  23
ATOM     23  O   UNL     1      -5.689   1.880  17.138  1.00  0.00    -0.507 OA
ATOM     24  H   UNL     1      -6.328   1.675  16.379  1.00  0.00     0.293 HD
ENDBRANCH  10  23
BRANCH  11  25
ATOM     25  O   UNL     1      -0.923   1.581  17.811  1.00  0.00    -0.508 OA
ATOM     26  H   UNL     1      -0.599   1.812  18.734  1.00  0.00     0.293 HD
ENDBRANCH  11  25
ENDBRANCH   1   2
BRANCH   1  27
ATOM     27  C   UNL     1      -7.273   6.044  13.834  1.00  0.00     0.339 C 
ATOM     28  C   UNL     1      -8.551   5.394  13.212  1.00  0.00     0.214 C 
ATOM     29  O   UNL     1      -7.330   7.463  13.820  1.00  0.00    -0.332 OA
ATOM     30  C   UNL     1      -8.914   5.968  11.833  1.00  0.00     0.180 C 
ATOM     31  C   UNL     1      -7.555   7.990  12.529  1.00  0.00     0.179 C 
ATOM     32  C   UNL     1      -8.897   7.504  11.913  1.00  0.00     0.177 C 
BRANCH  28  33
ATOM     33  O   UNL     1      -8.453   3.997  13.172  1.00  0.00    -0.384 OA
ATOM     34  H   UNL     1      -9.358   3.658  12.971  1.00  0.00     0.211 HD
ENDBRANCH  28  33
BRANCH  30  35
ATOM     35  O   UNL     1      -8.029   5.525  10.840  1.00  0.00    -0.387 OA
ATOM     36  H   UNL     1      -8.286   4.590  10.628  1.00  0.00     0.211 HD
ENDBRANCH  30  35
BRANCH  31  37
ATOM     37  C   UNL     1      -7.513   9.523  12.625  1.00  0.00     0.191 C 
BRANCH  37  38
ATOM     38  O   UNL     1      -8.773  10.034  12.974  1.00  0.00    -0.394 OA
ATOM     39  H   UNL     1      -8.665  11.014  13.104  1.00  0.00     0.210 HD
ENDBRANCH  37  38
ENDBRANCH  31  37
BRANCH  32  40
ATOM     40  O   UNL     1      -9.113   8.088  10.655  1.00  0.00    -0.387 OA
ATOM     41  H   UNL     1      -8.344   7.838  10.074  1.00  0.00     0.211 HD
ENDBRANCH  32  40
ENDBRANCH   1  27
TORSDOF 12
ENDMDL
MODEL 3
REMARK VINA RESULT:    -6.288      1.461      6.044
REMARK INTER + INTRA:         -10.165
REMARK INTER:                 -10.412
REMARK INTRA:                   0.247
REMARK UNBOUND:                -0.937
REMARK SMILES O=c1c(O[C@H]2O[C@H](CO)[C@@H](O)[C@@H](O)[C@H]2O)c(-c2ccc(O)c(O)c2)oc2cc(O)cc(O)c12
REMARK SMILES IDX 4 1 3 2 16 3 25 4 2 5 26 6 1 7 33 8 27 9 31 10 28 11 30 12
REMARK SMILES IDX 17 13 18 14 19 15 20 16 24 17 22 18 21 19 23 21 32 23 29 25
REMARK SMILES IDX 5 27 14 28 6 29 12 30 7 31 10 32 15 33 13 35 8 37 9 38 11 40
REMARK H PARENT 21 20 23 22 32 24 29 26 15 34 13 36 9 39 11 41
REMARK Flexibility Score: inf
ROOT
ATOM      1  O   UNL     1      -6.343   4.506  13.303  1.00  0.00    -0.454 OA
ENDROOT
BRANCH   1   2
ATOM      2  C   UNL     1      -5.235   5.367  13.291  1.00  0.00     0.214 A 
ATOM      3  C   UNL     1      -4.266   5.338  14.322  1.00  0.00     0.180 A 
ATOM      4  O   UNL     1      -3.323   6.271  14.368  1.00  0.00    -0.452 OA
ATOM      5  C   UNL     1      -5.007   6.224  12.204  1.00  0.00     0.239 A 
ATOM      6  C   UNL     1      -3.156   7.188  13.418  1.00  0.00     0.146 A 
ATOM      7  O   UNL     1      -5.713   6.112  11.165  1.00  0.00    -0.285 OA
ATOM      8  C   UNL     1      -3.983   7.184  12.266  1.00  0.00     0.111 A 
ATOM      9  C   UNL     1      -2.124   8.123  13.538  1.00  0.00     0.094 A 
ATOM     10  C   UNL     1      -3.744   8.131  11.241  1.00  0.00     0.134 A 
ATOM     11  C   UNL     1      -1.943   9.102  12.561  1.00  0.00     0.123 A 
ATOM     12  C   UNL     1      -2.730   9.087  11.402  1.00  0.00     0.093 A 
BRANCH   3  13
ATOM     13  C   UNL     1      -4.216   4.261  15.333  1.00  0.00     0.025 A 
ATOM     14  C   UNL     1      -5.331   4.020  16.150  1.00  0.00     0.016 A 
ATOM     15  C   UNL     1      -5.253   3.089  17.185  1.00  0.00     0.051 A 
ATOM     16  C   UNL     1      -4.055   2.400  17.443  1.00  0.00     0.157 A 
ATOM     17  C   UNL     1      -3.020   3.568  15.582  1.00  0.00     0.062 A 
ATOM     18  C   UNL     1      -2.942   2.634  16.627  1.00  0.00     0.158 A 
BRANCH  16  19
ATOM     19  O   UNL     1      -3.956   1.510  18.514  1.00  0.00    -0.504 OA
ATOM     20  H   UNL     1      -4.735   1.424  19.167  1.00  0.00     0.293 HD
ENDBRANCH  16  19
BRANCH  18  21
ATOM     21  O   UNL     1      -1.760   1.948  16.873  1.00  0.00    -0.504 OA
ATOM     22  H   UNL     1      -1.217   2.187  17.697  1.00  0.00     0.293 HD
ENDBRANCH  18  21
ENDBRANCH   3  13
BRANCH  10  23
ATOM     23  O   UNL     1      -4.519   8.157  10.078  1.00  0.00    -0.507 OA
ATOM     24  H   UNL     1      -5.420   8.622  10.073  1.00  0.00     0.293 HD
ENDBRANCH  10  23
BRANCH  11  25
ATOM     25  O   UNL     1      -1.022  10.125  12.754  1.00  0.00    -0.508 OA
ATOM     26  H   UNL     1      -1.320  11.019  13.103  1.00  0.00     0.293 HD
ENDBRANCH  11  25
ENDBRANCH   1   2
BRANCH   1  27
ATOM     27  C   UNL     1      -7.657   4.742  13.855  1.00  0.00     0.339 C 
ATOM     28  C   UNL     1      -8.748   5.408  12.956  1.00  0.00     0.214 C 
ATOM     29  O   UNL     1      -7.606   5.313  15.153  1.00  0.00    -0.332 OA
ATOM     30  C   UNL     1      -8.663   6.943  12.935  1.00  0.00     0.180 C 
ATOM     31  C   UNL     1      -7.417   6.713  15.129  1.00  0.00     0.179 C 
ATOM     32  C   UNL     1      -8.559   7.456  14.382  1.00  0.00     0.177 C 
BRANCH  28  33
ATOM     33  O   UNL     1      -8.743   4.881  11.658  1.00  0.00    -0.384 OA
ATOM     34  H   UNL     1      -8.413   5.597  11.065  1.00  0.00     0.211 HD
ENDBRANCH  28  33
BRANCH  30  35
ATOM     35  O   UNL     1      -7.565   7.389  12.184  1.00  0.00    -0.387 OA
ATOM     36  H   UNL     1      -7.201   8.181  12.658  1.00  0.00     0.211 HD
ENDBRANCH  30  35
BRANCH  31  37
ATOM     37  C   UNL     1      -7.295   7.203  16.581  1.00  0.00     0.191 C 
BRANCH  37  38
ATOM     38  O   UNL     1      -8.378   6.750  17.351  1.00  0.00    -0.394 OA
ATOM     39  H   UNL     1      -8.905   6.132  16.777  1.00  0.00     0.210 HD
ENDBRANCH  37  38
ENDBRANCH  31  37
BRANCH  32  40
ATOM     40  O   UNL     1      -8.367   8.846  14.424  1.00  0.00    -0.387 OA
ATOM     41  H   UNL     1      -7.836   9.048  15.242  1.00  0.00     0.211 HD
ENDBRANCH  32  40
ENDBRANCH   1  27
TORSDOF 12
ENDMDL
MODEL 4
REMARK VINA RESULT:    -6.285     11.965     16.257
REMARK INTER + INTRA:         -10.161
REMARK INTER:                  -8.759
REMARK INTRA:                  -1.402
REMARK UNBOUND:                -0.937
REMARK SMILES O=c1c(O[C@H]2O[C@H](CO)[C@@H](O)[C@@H](O)[C@H]2O)c(-c2ccc(O)c(O)c2)oc2cc(O)cc(O)c12
REMARK SMILES IDX 4 1 3 2 16 3 25 4 2 5 26 6 1 7 33 8 27 9 31 10 28 11 30 12
REMARK SMILES IDX 17 13 18 14 19 15 20 16 24 17 22 18 21 19 23 21 32 23 29 25
REMARK SMILES IDX 5 27 14 28 6 29 12 30 7 31 10 32 15 33 13 35 8 37 9 38 11 40
REMARK H PARENT 21 20 23 22 32 24 29 26 15 34 13 36 9 39 11 41
REMARK Flexibility Score: inf
ROOT
ATOM      1  O   UNL     1      -4.285  -8.245  22.231  1.00  0.00    -0.454 OA
ENDROOT
BRANCH   1   2
ATOM      2  C   UNL     1      -4.067  -7.563  23.438  1.00  0.00     0.214 A 
ATOM      3  C   UNL     1      -4.239  -6.161  23.535  1.00  0.00     0.180 A 
ATOM      4  O   UNL     1      -3.868  -5.526  24.641  1.00  0.00    -0.452 OA
ATOM      5  C   UNL     1      -3.758  -8.267  24.611  1.00  0.00     0.239 A 
ATOM      6  C   UNL     1      -3.442  -6.153  25.734  1.00  0.00     0.146 A 
ATOM      7  O   UNL     1      -3.827  -9.526  24.618  1.00  0.00    -0.285 OA
ATOM      8  C   UNL     1      -3.397  -7.570  25.777  1.00  0.00     0.111 A 
ATOM      9  C   UNL     1      -3.090  -5.405  26.862  1.00  0.00     0.094 A 
ATOM     10  C   UNL     1      -3.000  -8.213  26.973  1.00  0.00     0.134 A 
ATOM     11  C   UNL     1      -2.625  -6.043  28.012  1.00  0.00     0.123 A 
ATOM     12  C   UNL     1      -2.609  -7.442  28.078  1.00  0.00     0.093 A 
BRANCH   3  13
ATOM     13  C   UNL     1      -4.882  -5.365  22.468  1.00  0.00     0.025 A 
ATOM     14  C   UNL     1      -4.164  -5.051  21.305  1.00  0.00     0.016 A 
ATOM     15  C   UNL     1      -4.718  -4.202  20.348  1.00  0.00     0.051 A 
ATOM     16  C   UNL     1      -5.986  -3.629  20.544  1.00  0.00     0.157 A 
ATOM     17  C   UNL     1      -6.154  -4.802  22.664  1.00  0.00     0.062 A 
ATOM     18  C   UNL     1      -6.708  -3.944  21.701  1.00  0.00     0.158 A 
BRANCH  16  19
ATOM     19  O   UNL     1      -6.520  -2.733  19.616  1.00  0.00    -0.504 OA
ATOM     20  H   UNL     1      -7.515  -2.510  19.649  1.00  0.00     0.293 HD
ENDBRANCH  16  19
BRANCH  18  21
ATOM     21  O   UNL     1      -7.965  -3.387  21.894  1.00  0.00    -0.504 OA
ATOM     22  H   UNL     1      -8.126  -2.810  22.714  1.00  0.00     0.293 HD
ENDBRANCH  18  21
ENDBRANCH   3  13
BRANCH  10  23
ATOM     23  O   UNL     1      -2.956  -9.606  27.072  1.00  0.00    -0.507 OA
ATOM     24  H   UNL     1      -3.792 -10.158  26.916  1.00  0.00     0.293 HD
ENDBRANCH  10  23
BRANCH  11  25
ATOM     25  O   UNL     1      -2.127  -5.298  29.075  1.00  0.00    -0.508 OA
ATOM     26  H   UNL     1      -1.514  -5.721  29.750  1.00  0.00     0.293 HD
ENDBRANCH  11  25
ENDBRANCH   1   2
BRANCH   1  27
ATOM     27  C   UNL     1      -5.321  -9.199  21.913  1.00  0.00     0.339 C 
ATOM     28  C   UNL     1      -5.539  -9.615  20.423  1.00  0.00     0.214 C 
ATOM     29  O   UNL     1      -6.543  -8.913  22.576  1.00  0.00    -0.332 OA
ATOM     30  C   UNL     1      -6.431  -8.636  19.643  1.00  0.00     0.180 C 
ATOM     31  C   UNL     1      -7.310  -7.930  21.912  1.00  0.00     0.179 C 
ATOM     32  C   UNL     1      -7.698  -8.353  20.467  1.00  0.00     0.177 C 
BRANCH  28  33
ATOM     33  O   UNL     1      -4.321  -9.830  19.762  1.00  0.00    -0.384 OA
ATOM     34  H   UNL     1      -4.340 -10.760  19.434  1.00  0.00     0.211 HD
ENDBRANCH  28  33
BRANCH  30  35
ATOM     35  O   UNL     1      -5.758  -7.437  19.362  1.00  0.00    -0.387 OA
ATOM     36  H   UNL     1      -6.315  -6.706  19.737  1.00  0.00     0.211 HD
ENDBRANCH  30  35
BRANCH  31  37
ATOM     37  C   UNL     1      -8.561  -7.647  22.760  1.00  0.00     0.191 C 
BRANCH  37  38
ATOM     38  O   UNL     1      -9.112  -6.399  22.430  1.00  0.00    -0.394 OA
ATOM     39  H   UNL     1      -9.500  -6.484  21.518  1.00  0.00     0.210 HD
ENDBRANCH  37  38
ENDBRANCH  31  37
BRANCH  32  40
ATOM     40  O   UNL     1      -8.503  -7.378  19.857  1.00  0.00    -0.387 OA
ATOM     41  H   UNL     1      -8.652  -6.654  20.525  1.00  0.00     0.211 HD
ENDBRANCH  32  40
ENDBRANCH   1  27
TORSDOF 12
ENDMDL
MODEL 5
REMARK VINA RESULT:    -6.259      1.960      4.951
REMARK INTER + INTRA:         -10.123
REMARK INTER:                  -8.350
REMARK INTRA:                  -1.773
REMARK UNBOUND:                -0.937
REMARK SMILES O=c1c(O[C@H]2O[C@H](CO)[C@@H](O)[C@@H](O)[C@H]2O)c(-c2ccc(O)c(O)c2)oc2cc(O)cc(O)c12
REMARK SMILES IDX 4 1 3 2 16 3 25 4 2 5 26 6 1 7 33 8 27 9 31 10 28 11 30 12
REMARK SMILES IDX 17 13 18 14 19 15 20 16 24 17 22 18 21 19 23 21 32 23 29 25
REMARK SMILES IDX 5 27 14 28 6 29 12 30 7 31 10 32 15 33 13 35 8 37 9 38 11 40
REMARK H PARENT 21 20 23 22 32 24 29 26 15 34 13 36 9 39 11 41
REMARK Flexibility Score: inf
ROOT
ATOM      1  O   UNL     1      -3.916   6.958  13.994  1.00  0.00    -0.454 OA
ENDROOT
BRANCH   1   2
ATOM      2  C   UNL     1      -3.728   5.747  14.678  1.00  0.00     0.214 A 
ATOM      3  C   UNL     1      -4.720   4.737  14.674  1.00  0.00     0.180 A 
ATOM      4  O   UNL     1      -4.583   3.676  15.462  1.00  0.00    -0.452 OA
ATOM      5  C   UNL     1      -2.510   5.465  15.313  1.00  0.00     0.239 A 
ATOM      6  C   UNL     1      -3.492   3.440  16.185  1.00  0.00     0.146 A 
ATOM      7  O   UNL     1      -1.526   6.235  15.139  1.00  0.00    -0.285 OA
ATOM      8  C   UNL     1      -2.383   4.321  16.118  1.00  0.00     0.111 A 
ATOM      9  C   UNL     1      -3.426   2.287  16.973  1.00  0.00     0.094 A 
ATOM     10  C   UNL     1      -1.211   4.012  16.849  1.00  0.00     0.134 A 
ATOM     11  C   UNL     1      -2.298   2.029  17.752  1.00  0.00     0.123 A 
ATOM     12  C   UNL     1      -1.182   2.873  17.666  1.00  0.00     0.093 A 
BRANCH   3  13
ATOM     13  C   UNL     1      -5.891   4.777  13.773  1.00  0.00     0.025 A 
ATOM     14  C   UNL     1      -5.852   4.091  12.550  1.00  0.00     0.016 A 
ATOM     15  C   UNL     1      -6.901   4.220  11.641  1.00  0.00     0.051 A 
ATOM     16  C   UNL     1      -7.995   5.056  11.921  1.00  0.00     0.157 A 
ATOM     17  C   UNL     1      -6.988   5.606  14.060  1.00  0.00     0.062 A 
ATOM     18  C   UNL     1      -8.041   5.738  13.142  1.00  0.00     0.158 A 
BRANCH  16  19
ATOM     19  O   UNL     1      -9.019   5.233  10.989  1.00  0.00    -0.504 OA
ATOM     20  H   UNL     1      -9.628   4.448  10.758  1.00  0.00     0.293 HD
ENDBRANCH  16  19
BRANCH  18  21
ATOM     21  O   UNL     1      -9.125   6.557  13.426  1.00  0.00    -0.504 OA
ATOM     22  H   UNL     1      -8.962   7.439  13.903  1.00  0.00     0.293 HD
ENDBRANCH  18  21
ENDBRANCH   3  13
BRANCH  10  23
ATOM     23  O   UNL     1      -0.084   4.839  16.801  1.00  0.00    -0.507 OA
ATOM     24  H   UNL     1       0.842   4.437  16.714  1.00  0.00     0.293 HD
ENDBRANCH  10  23
BRANCH  11  25
ATOM     25  O   UNL     1      -2.293   0.971  18.652  1.00  0.00    -0.508 OA
ATOM     26  H   UNL     1      -3.155   0.626  19.038  1.00  0.00     0.293 HD
ENDBRANCH  11  25
ENDBRANCH   1   2
BRANCH   1  27
ATOM     27  C   UNL     1      -3.305   7.396  12.760  1.00  0.00     0.339 C 
ATOM     28  C   UNL     1      -2.796   8.869  12.647  1.00  0.00     0.214 C 
ATOM     29  O   UNL     1      -4.042   6.992  11.616  1.00  0.00    -0.332 OA
ATOM     30  C   UNL     1      -3.901   9.865  12.261  1.00  0.00     0.180 C 
ATOM     31  C   UNL     1      -5.125   7.852  11.330  1.00  0.00     0.179 C 
ATOM     32  C   UNL     1      -4.670   9.311  11.049  1.00  0.00     0.177 C 
BRANCH  28  33
ATOM     33  O   UNL     1      -2.128   9.277  13.810  1.00  0.00    -0.384 OA
ATOM     34  H   UNL     1      -2.038  10.258  13.753  1.00  0.00     0.211 HD
ENDBRANCH  28  33
BRANCH  30  35
ATOM     35  O   UNL     1      -4.783  10.098  13.328  1.00  0.00    -0.387 OA
ATOM     36  H   UNL     1      -5.133   9.212  13.604  1.00  0.00     0.211 HD
ENDBRANCH  30  35
BRANCH  31  37
ATOM     37  C   UNL     1      -5.892   7.271  10.131  1.00  0.00     0.191 C 
BRANCH  37  38
ATOM     38  O   UNL     1      -7.237   7.670  10.161  1.00  0.00    -0.394 OA
ATOM     39  H   UNL     1      -7.682   7.254   9.375  1.00  0.00     0.210 HD
ENDBRANCH  37  38
ENDBRANCH  31  37
BRANCH  32  40
ATOM     40  O   UNL     1      -5.765  10.124  10.717  1.00  0.00    -0.387 OA
ATOM     41  H   UNL     1      -5.912  10.038   9.735  1.00  0.00     0.211 HD
ENDBRANCH  32  40
ENDBRANCH   1  27
TORSDOF 12
ENDMDL
MODEL 6
REMARK VINA RESULT:    -5.588     12.243     17.280
REMARK INTER + INTRA:          -9.138
REMARK INTER:                  -8.800
REMARK INTRA:                  -0.339
REMARK UNBOUND:                -0.937
REMARK SMILES O=c1c(O[C@H]2O[C@H](CO)[C@@H](O)[C@@H](O)[C@H]2O)c(-c2ccc(O)c(O)c2)oc2cc(O)cc(O)c12
REMARK SMILES IDX 4 1 3 2 16 3 25 4 2 5 26 6 1 7 33 8 27 9 31 10 28 11 30 12
REMARK SMILES IDX 17 13 18 14 19 15 20 16 24 17 22 18 21 19 23 21 32 23 29 25
REMARK SMILES IDX 5 27 14 28 6 29 12 30 7 31 10 32 15 33 13 35 8 37 9 38 11 40
REMARK H PARENT 21 20 23 22 32 24 29 26 15 34 13 36 9 39 11 41
REMARK Flexibility Score: inf
ROOT
ATOM      1  O   UNL     1      -5.208  -8.874  23.017  1.00  0.00    -0.454 OA
ENDROOT
BRANCH   1   2
ATOM      2  C   UNL     1      -5.257  -7.602  22.429  1.00  0.00     0.214 A 
ATOM      3  C   UNL     1      -4.779  -6.456  23.109  1.00  0.00     0.180 A 
ATOM      4  O   UNL     1      -4.988  -5.249  22.595  1.00  0.00    -0.452 OA
ATOM      5  C   UNL     1      -5.700  -7.441  21.108  1.00  0.00     0.239 A 
ATOM      6  C   UNL     1      -5.529  -5.050  21.396  1.00  0.00     0.146 A 
ATOM      7  O   UNL     1      -5.909  -8.459  20.394  1.00  0.00    -0.285 OA
ATOM      8  C   UNL     1      -5.886  -6.152  20.579  1.00  0.00     0.111 A 
ATOM      9  C   UNL     1      -5.696  -3.744  20.926  1.00  0.00     0.094 A 
ATOM     10  C   UNL     1      -6.401  -5.913  19.282  1.00  0.00     0.134 A 
ATOM     11  C   UNL     1      -6.276  -3.513  19.679  1.00  0.00     0.123 A 
ATOM     12  C   UNL     1      -6.599  -4.594  18.847  1.00  0.00     0.093 A 
BRANCH   3  13
ATOM     13  C   UNL     1      -3.989  -6.545  24.355  1.00  0.00     0.025 A 
ATOM     14  C   UNL     1      -3.122  -7.630  24.554  1.00  0.00     0.016 A 
ATOM     15  C   UNL     1      -2.465  -7.786  25.773  1.00  0.00     0.051 A 
ATOM     16  C   UNL     1      -2.678  -6.879  26.826  1.00  0.00     0.157 A 
ATOM     17  C   UNL     1      -4.197  -5.631  25.401  1.00  0.00     0.062 A 
ATOM     18  C   UNL     1      -3.536  -5.792  26.629  1.00  0.00     0.158 A 
BRANCH  16  19
ATOM     19  O   UNL     1      -2.066  -7.065  28.067  1.00  0.00    -0.504 OA
ATOM     20  H   UNL     1      -1.626  -7.960  28.280  1.00  0.00     0.293 HD
ENDBRANCH  16  19
BRANCH  18  21
ATOM     21  O   UNL     1      -3.742  -4.889  27.664  1.00  0.00    -0.504 OA
ATOM     22  H   UNL     1      -3.464  -5.150  28.605  1.00  0.00     0.293 HD
ENDBRANCH  18  21
ENDBRANCH   3  13
BRANCH  10  23
ATOM     23  O   UNL     1      -6.749  -6.965  18.431  1.00  0.00    -0.507 OA
ATOM     24  H   UNL     1      -6.518  -7.921  18.676  1.00  0.00     0.293 HD
ENDBRANCH  10  23
BRANCH  11  25
ATOM     25  O   UNL     1      -6.586  -2.220  19.277  1.00  0.00    -0.508 OA
ATOM     26  H   UNL     1      -5.894  -1.492  19.323  1.00  0.00     0.293 HD
ENDBRANCH  11  25
ENDBRANCH   1   2
BRANCH   1  27
ATOM     27  C   UNL     1      -6.274  -9.609  23.658  1.00  0.00     0.339 C 
ATOM     28  C   UNL     1      -7.727  -9.036  23.608  1.00  0.00     0.214 C 
ATOM     29  O   UNL     1      -5.918 -10.059  24.956  1.00  0.00    -0.332 OA
ATOM     30  C   UNL     1      -8.007  -7.995  24.704  1.00  0.00     0.180 C 
ATOM     31  C   UNL     1      -6.073  -9.063  25.945  1.00  0.00     0.179 C 
ATOM     32  C   UNL     1      -7.539  -8.558  26.057  1.00  0.00     0.177 C 
BRANCH  28  33
ATOM     33  O   UNL     1      -8.042  -8.534  22.338  1.00  0.00    -0.384 OA
ATOM     34  H   UNL     1      -8.789  -9.082  21.997  1.00  0.00     0.211 HD
ENDBRANCH  28  33
BRANCH  30  35
ATOM     35  O   UNL     1      -7.363  -6.778  24.438  1.00  0.00    -0.387 OA
ATOM     36  H   UNL     1      -6.426  -7.000  24.199  1.00  0.00     0.211 HD
ENDBRANCH  30  35
BRANCH  31  37
ATOM     37  C   UNL     1      -5.582  -9.636  27.284  1.00  0.00     0.191 C 
BRANCH  37  38
ATOM     38  O   UNL     1      -5.263  -8.604  28.179  1.00  0.00    -0.394 OA
ATOM     39  H   UNL     1      -4.842  -9.028  28.974  1.00  0.00     0.210 HD
ENDBRANCH  37  38
ENDBRANCH  31  37
BRANCH  32  40
ATOM     40  O   UNL     1      -7.668  -7.609  27.083  1.00  0.00    -0.387 OA
ATOM     41  H   UNL     1      -8.266  -8.000  27.777  1.00  0.00     0.211 HD
ENDBRANCH  32  40
ENDBRANCH   1  27
TORSDOF 12
ENDMDL
MODEL 7
REMARK VINA RESULT:    -5.573      2.566      4.167
REMARK INTER + INTRA:          -9.116
REMARK INTER:                  -9.101
REMARK INTRA:                  -0.015
REMARK UNBOUND:                -0.937
REMARK SMILES O=c1c(O[C@H]2O[C@H](CO)[C@@H](O)[C@@H](O)[C@H]2O)c(-c2ccc(O)c(O)c2)oc2cc(O)cc(O)c12
REMARK SMILES IDX 4 1 3 2 16 3 25 4 2 5 26 6 1 7 33 8 27 9 31 10 28 11 30 12
REMARK SMILES IDX 17 13 18 14 19 15 20 16 24 17 22 18 21 19 23 21 32 23 29 25
REMARK SMILES IDX 5 27 14 28 6 29 12 30 7 31 10 32 15 33 13 35 8 37 9 38 11 40
REMARK H PARENT 21 20 23 22 32 24 29 26 15 34 13 36 9 39 11 41
REMARK Flexibility Score: inf
ROOT
ATOM      1  O   UNL     1      -6.702   4.376  14.535  1.00  0.00    -0.454 OA
ENDROOT
BRANCH   1   2
ATOM      2  C   UNL     1      -5.449   4.771  15.027  1.00  0.00     0.214 A 
ATOM      3  C   UNL     1      -5.052   6.130  15.030  1.00  0.00     0.180 A 
ATOM      4  O   UNL     1      -3.803   6.451  15.348  1.00  0.00    -0.452 OA
ATOM      5  C   UNL     1      -4.586   3.836  15.618  1.00  0.00     0.239 A 
ATOM      6  C   UNL     1      -2.911   5.567  15.788  1.00  0.00     0.146 A 
ATOM      7  O   UNL     1      -4.998   2.667  15.847  1.00  0.00    -0.285 OA
ATOM      8  C   UNL     1      -3.278   4.210  15.972  1.00  0.00     0.111 A 
ATOM      9  C   UNL     1      -1.623   5.997  16.118  1.00  0.00     0.094 A 
ATOM     10  C   UNL     1      -2.329   3.303  16.501  1.00  0.00     0.134 A 
ATOM     11  C   UNL     1      -0.668   5.083  16.566  1.00  0.00     0.123 A 
ATOM     12  C   UNL     1      -1.029   3.747  16.785  1.00  0.00     0.093 A 
BRANCH   3  13
ATOM     13  C   UNL     1      -5.995   7.232  14.750  1.00  0.00     0.025 A 
ATOM     14  C   UNL     1      -7.258   7.241  15.362  1.00  0.00     0.016 A 
ATOM     15  C   UNL     1      -8.198   8.210  15.014  1.00  0.00     0.051 A 
ATOM     16  C   UNL     1      -7.908   9.171  14.031  1.00  0.00     0.157 A 
ATOM     17  C   UNL     1      -5.699   8.198  13.774  1.00  0.00     0.062 A 
ATOM     18  C   UNL     1      -6.648   9.170  13.422  1.00  0.00     0.158 A 
BRANCH  16  19
ATOM     19  O   UNL     1      -8.868  10.107  13.639  1.00  0.00    -0.504 OA
ATOM     20  H   UNL     1      -9.702   9.791  13.144  1.00  0.00     0.293 HD
ENDBRANCH  16  19
BRANCH  18  21
ATOM     21  O   UNL     1      -6.355  10.125  12.458  1.00  0.00    -0.504 OA
ATOM     22  H   UNL     1      -6.040   9.817  11.543  1.00  0.00     0.293 HD
ENDBRANCH  18  21
ENDBRANCH   3  13
BRANCH  10  23
ATOM     23  O   UNL     1      -2.647   1.959  16.718  1.00  0.00    -0.507 OA
ATOM     24  H   UNL     1      -1.914   1.263  16.779  1.00  0.00     0.293 HD
ENDBRANCH  10  23
BRANCH  11  25
ATOM     25  O   UNL     1       0.652   5.478  16.744  1.00  0.00    -0.508 OA
ATOM     26  H   UNL     1       0.878   6.237  17.362  1.00  0.00     0.293 HD
ENDBRANCH  11  25
ENDBRANCH   1   2
BRANCH   1  27
ATOM     27  C   UNL     1      -7.039   3.904  13.212  1.00  0.00     0.339 C 
ATOM     28  C   UNL     1      -5.897   3.708  12.163  1.00  0.00     0.214 C 
ATOM     29  O   UNL     1      -8.162   4.578  12.665  1.00  0.00    -0.332 OA
ATOM     30  C   UNL     1      -5.521   5.002  11.425  1.00  0.00     0.180 C 
ATOM     31  C   UNL     1      -7.827   5.821  12.084  1.00  0.00     0.179 C 
ATOM     32  C   UNL     1      -6.807   5.679  10.920  1.00  0.00     0.177 C 
BRANCH  28  33
ATOM     33  O   UNL     1      -4.770   3.101  12.733  1.00  0.00    -0.384 OA
ATOM     34  H   UNL     1      -4.615   3.551  13.598  1.00  0.00     0.211 HD
ENDBRANCH  28  33
BRANCH  30  35
ATOM     35  O   UNL     1      -4.806   5.880  12.254  1.00  0.00    -0.387 OA
ATOM     36  H   UNL     1      -4.446   5.334  13.000  1.00  0.00     0.211 HD
ENDBRANCH  30  35
BRANCH  31  37
ATOM     37  C   UNL     1      -9.125   6.489  11.604  1.00  0.00     0.191 C 
BRANCH  37  38
ATOM     38  O   UNL     1      -8.900   7.837  11.284  1.00  0.00    -0.394 OA
ATOM     39  H   UNL     1      -7.919   7.988  11.330  1.00  0.00     0.210 HD
ENDBRANCH  37  38
ENDBRANCH  31  37
BRANCH  32  40
ATOM     40  O   UNL     1      -6.538   6.925  10.332  1.00  0.00    -0.387 OA
ATOM     41  H   UNL     1      -5.559   7.088  10.417  1.00  0.00     0.211 HD
ENDBRANCH  32  40
ENDBRANCH   1  27
TORSDOF 12
ENDMDL
MODEL 8
REMARK VINA RESULT:    -5.521     12.931     16.509
REMARK INTER + INTRA:          -9.040
REMARK INTER:                  -8.044
REMARK INTRA:                  -0.997
REMARK UNBOUND:                -0.937
REMARK SMILES O=c1c(O[C@H]2O[C@H](CO)[C@@H](O)[C@@H](O)[C@H]2O)c(-c2ccc(O)c(O)c2)oc2cc(O)cc(O)c12
REMARK SMILES IDX 4 1 3 2 16 3 25 4 2 5 26 6 1 7 33 8 27 9 31 10 28 11 30 12
REMARK SMILES IDX 17 13 18 14 19 15 20 16 24 17 22 18 21 19 23 21 32 23 29 25
REMARK SMILES IDX 5 27 14 28 6 29 12 30 7 31 10 32 15 33 13 35 8 37 9 38 11 40
REMARK H PARENT 21 20 23 22 32 24 29 26 15 34 13 36 9 39 11 41
REMARK Flexibility Score: inf
ROOT
ATOM      1  O   UNL     1      -5.854  -6.140  23.656  1.00  0.00    -0.454 OA
ENDROOT
BRANCH   1   2
ATOM      2  C   UNL     1      -4.755  -6.752  24.278  1.00  0.00     0.214 A 
ATOM      3  C   UNL     1      -4.268  -8.009  23.846  1.00  0.00     0.180 A 
ATOM      4  O   UNL     1      -3.336  -8.635  24.555  1.00  0.00    -0.452 OA
ATOM      5  C   UNL     1      -4.047  -6.091  25.293  1.00  0.00     0.239 A 
ATOM      6  C   UNL     1      -2.733  -8.091  25.609  1.00  0.00     0.146 A 
ATOM      7  O   UNL     1      -4.302  -4.881  25.542  1.00  0.00    -0.285 OA
ATOM      8  C   UNL     1      -3.046  -6.767  26.009  1.00  0.00     0.111 A 
ATOM      9  C   UNL     1      -1.748  -8.816  26.287  1.00  0.00     0.094 A 
ATOM     10  C   UNL     1      -2.344  -6.190  27.094  1.00  0.00     0.134 A 
ATOM     11  C   UNL     1      -1.115  -8.269  27.404  1.00  0.00     0.123 A 
ATOM     12  C   UNL     1      -1.390  -6.950  27.787  1.00  0.00     0.093 A 
BRANCH   3  13
ATOM     13  C   UNL     1      -4.711  -8.640  22.585  1.00  0.00     0.025 A 
ATOM     14  C   UNL     1      -3.872  -8.614  21.460  1.00  0.00     0.016 A 
ATOM     15  C   UNL     1      -4.328  -9.099  20.235  1.00  0.00     0.051 A 
ATOM     16  C   UNL     1      -5.636  -9.594  20.101  1.00  0.00     0.157 A 
ATOM     17  C   UNL     1      -6.017  -9.143  22.456  1.00  0.00     0.062 A 
ATOM     18  C   UNL     1      -6.475  -9.627  21.221  1.00  0.00     0.158 A 
BRANCH  16  19
ATOM     19  O   UNL     1      -6.115 -10.027  18.863  1.00  0.00    -0.504 OA
ATOM     20  H   UNL     1      -5.452 -10.288  18.132  1.00  0.00     0.293 HD
ENDBRANCH  16  19
BRANCH  18  21
ATOM     21  O   UNL     1      -7.765 -10.125  21.093  1.00  0.00    -0.504 OA
ATOM     22  H   UNL     1      -8.412 -10.013  21.868  1.00  0.00     0.293 HD
ENDBRANCH  18  21
ENDBRANCH   3  13
BRANCH  10  23
ATOM     23  O   UNL     1      -2.602  -4.882  27.516  1.00  0.00    -0.507 OA
ATOM     24  H   UNL     1      -2.719  -4.676  28.502  1.00  0.00     0.293 HD
ENDBRANCH  10  23
BRANCH  11  25
ATOM     25  O   UNL     1      -0.253  -9.044  28.171  1.00  0.00    -0.508 OA
ATOM     26  H   UNL     1      -0.166  -8.882  29.159  1.00  0.00     0.293 HD
ENDBRANCH  11  25
ENDBRANCH   1   2
BRANCH   1  27
ATOM     27  C   UNL     1      -5.912  -4.855  22.997  1.00  0.00     0.339 C 
ATOM     28  C   UNL     1      -7.189  -4.480  22.180  1.00  0.00     0.214 C 
ATOM     29  O   UNL     1      -4.716  -4.551  22.296  1.00  0.00    -0.332 OA
ATOM     30  C   UNL     1      -7.176  -5.031  20.745  1.00  0.00     0.180 C 
ATOM     31  C   UNL     1      -4.660  -5.151  21.019  1.00  0.00     0.179 C 
ATOM     32  C   UNL     1      -5.823  -4.693  20.095  1.00  0.00     0.177 C 
BRANCH  28  33
ATOM     33  O   UNL     1      -8.362  -4.847  22.854  1.00  0.00    -0.384 OA
ATOM     34  H   UNL     1      -9.070  -4.233  22.542  1.00  0.00     0.211 HD
ENDBRANCH  28  33
BRANCH  30  35
ATOM     35  O   UNL     1      -7.392  -6.417  20.721  1.00  0.00    -0.387 OA
ATOM     36  H   UNL     1      -8.155  -6.594  21.331  1.00  0.00     0.211 HD
ENDBRANCH  30  35
BRANCH  31  37
ATOM     37  C   UNL     1      -3.295  -4.820  20.395  1.00  0.00     0.191 C 
BRANCH  37  38
ATOM     38  O   UNL     1      -2.631  -5.993  20.004  1.00  0.00    -0.394 OA
ATOM     39  H   UNL     1      -3.128  -6.363  19.227  1.00  0.00     0.210 HD
ENDBRANCH  37  38
ENDBRANCH  31  37
BRANCH  32  40
ATOM     40  O   UNL     1      -5.707  -5.266  18.819  1.00  0.00    -0.387 OA
ATOM     41  H   UNL     1      -4.739  -5.273  18.582  1.00  0.00     0.211 HD
ENDBRANCH  32  40
ENDBRANCH   1  27
TORSDOF 12
ENDMDL
MODEL 9
REMARK VINA RESULT:    -5.370     12.024     16.316
REMARK INTER + INTRA:          -8.818
REMARK INTER:                  -8.286
REMARK INTRA:                  -0.533
REMARK UNBOUND:                -0.937
REMARK SMILES O=c1c(O[C@H]2O[C@H](CO)[C@@H](O)[C@@H](O)[C@H]2O)c(-c2ccc(O)c(O)c2)oc2cc(O)cc(O)c12
REMARK SMILES IDX 4 1 3 2 16 3 25 4 2 5 26 6 1 7 33 8 27 9 31 10 28 11 30 12
REMARK SMILES IDX 17 13 18 14 19 15 20 16 24 17 22 18 21 19 23 21 32 23 29 25
REMARK SMILES IDX 5 27 14 28 6 29 12 30 7 31 10 32 15 33 13 35 8 37 9 38 11 40
REMARK H PARENT 21 20 23 22 32 24 29 26 15 34 13 36 9 39 11 41
REMARK Flexibility Score: inf
ROOT
ATOM      1  O   UNL     1      -4.992  -5.612  22.635  1.00  0.00    -0.454 OA
ENDROOT
BRANCH   1   2
ATOM      2  C   UNL     1      -4.512  -6.427  23.671  1.00  0.00     0.214 A 
ATOM      3  C   UNL     1      -4.535  -7.839  23.569  1.00  0.00     0.180 A 
ATOM      4  O   UNL     1      -4.228  -8.581  24.627  1.00  0.00    -0.452 OA
ATOM      5  C   UNL     1      -3.911  -5.863  24.805  1.00  0.00     0.239 A 
ATOM      6  C   UNL     1      -3.778  -8.072  25.770  1.00  0.00     0.146 A 
ATOM      7  O   UNL     1      -3.660  -4.627  24.826  1.00  0.00    -0.285 OA
ATOM      8  C   UNL     1      -3.569  -6.675  25.900  1.00  0.00     0.111 A 
ATOM      9  C   UNL     1      -3.461  -8.930  26.828  1.00  0.00     0.094 A 
ATOM     10  C   UNL     1      -3.030  -6.166  27.105  1.00  0.00     0.134 A 
ATOM     11  C   UNL     1      -3.004  -8.414  28.041  1.00  0.00     0.123 A 
ATOM     12  C   UNL     1      -2.760  -7.040  28.168  1.00  0.00     0.093 A 
BRANCH   3  13
ATOM     13  C   UNL     1      -4.827  -8.539  22.300  1.00  0.00     0.025 A 
ATOM     14  C   UNL     1      -3.836  -8.633  21.312  1.00  0.00     0.016 A 
ATOM     15  C   UNL     1      -4.138  -9.184  20.068  1.00  0.00     0.051 A 
ATOM     16  C   UNL     1      -5.440  -9.626  19.775  1.00  0.00     0.157 A 
ATOM     17  C   UNL     1      -6.127  -8.988  22.014  1.00  0.00     0.062 A 
ATOM     18  C   UNL     1      -6.430  -9.539  20.759  1.00  0.00     0.158 A 
BRANCH  16  19
ATOM     19  O   UNL     1      -5.760 -10.125  18.511  1.00  0.00    -0.504 OA
ATOM     20  H   UNL     1      -6.155  -9.497  17.810  1.00  0.00     0.293 HD
ENDBRANCH  16  19
BRANCH  18  21
ATOM     21  O   UNL     1      -7.714  -9.984  20.477  1.00  0.00    -0.504 OA
ATOM     22  H   UNL     1      -8.369 -10.111  21.242  1.00  0.00     0.293 HD
ENDBRANCH  18  21
ENDBRANCH   3  13
BRANCH  10  23
ATOM     23  O   UNL     1      -2.789  -4.800  27.276  1.00  0.00    -0.507 OA
ATOM     24  H   UNL     1      -1.851  -4.464  27.462  1.00  0.00     0.293 HD
ENDBRANCH  10  23
BRANCH  11  25
ATOM     25  O   UNL     1      -2.839  -9.247  29.140  1.00  0.00    -0.508 OA
ATOM     26  H   UNL     1      -2.226 -10.042  29.090  1.00  0.00     0.293 HD
ENDBRANCH  11  25
ENDBRANCH   1   2
BRANCH   1  27
ATOM     27  C   UNL     1      -5.988  -5.922  21.636  1.00  0.00     0.339 C 
ATOM     28  C   UNL     1      -5.730  -5.506  20.152  1.00  0.00     0.214 C 
ATOM     29  O   UNL     1      -7.303  -5.600  22.063  1.00  0.00    -0.332 OA
ATOM     30  C   UNL     1      -6.121  -4.050  19.852  1.00  0.00     0.180 C 
ATOM     31  C   UNL     1      -7.619  -4.235  21.887  1.00  0.00     0.179 C 
ATOM     32  C   UNL     1      -7.535  -3.791  20.400  1.00  0.00     0.177 C 
BRANCH  28  33
ATOM     33  O   UNL     1      -4.409  -5.769  19.763  1.00  0.00    -0.384 OA
ATOM     34  H   UNL     1      -3.844  -5.602  20.555  1.00  0.00     0.211 HD
ENDBRANCH  28  33
BRANCH  30  35
ATOM     35  O   UNL     1      -5.210  -3.144  20.416  1.00  0.00    -0.387 OA
ATOM     36  H   UNL     1      -5.720  -2.601  21.071  1.00  0.00     0.211 HD
ENDBRANCH  30  35
BRANCH  31  37
ATOM     37  C   UNL     1      -9.025  -3.992  22.458  1.00  0.00     0.191 C 
BRANCH  37  38
ATOM     38  O   UNL     1      -9.125  -2.701  22.999  1.00  0.00    -0.394 OA
ATOM     39  H   UNL     1      -9.868  -2.719  23.660  1.00  0.00     0.210 HD
ENDBRANCH  37  38
ENDBRANCH  31  37
BRANCH  32  40
ATOM     40  O   UNL     1      -7.906  -2.445  20.254  1.00  0.00    -0.387 OA
ATOM     41  H   UNL     1      -8.673  -2.415  19.619  1.00  0.00     0.211 HD
ENDBRANCH  32  40
ENDBRANCH   1  27
TORSDOF 12
ENDMDL
