MODEL 1
REMARK VINA RESULT:    -4.924      0.000      0.000
REMARK INTER + INTRA:          -5.068
REMARK INTER:                  -5.068
REMARK INTRA:                   0.000
REMARK UNBOUND:                 0.000
REMARK SMILES O=c1ccc2ccc(O)cc2o1
REMARK SMILES IDX 6 1 7 2 8 3 10 4 11 5 5 6 4 7 3 8 2 9 1 10 12 11 9 12
REMARK H PARENT 9 13
REMARK Flexibility Score: inf
ROOT
ATOM      1  C   UNL     1      12.218  16.795   8.097  1.00  0.00     0.016 A 
ATOM      2  C   UNL     1      11.174  16.576   9.002  1.00  0.00     0.047 A 
ATOM      3  C   UNL     1      11.423  16.556  10.379  1.00  0.00     0.119 A 
ATOM      4  C   UNL     1      12.727  16.755  10.857  1.00  0.00     0.094 A 
ATOM      5  C   UNL     1      13.777  16.974   9.961  1.00  0.00     0.142 A 
ATOM      6  C   UNL     1      13.523  16.994   8.571  1.00  0.00     0.018 A 
ATOM      7  C   UNL     1      14.593  17.215   7.700  1.00  0.00     0.019 A 
ATOM      8  C   UNL     1      15.872  17.407   8.221  1.00  0.00     0.094 A 
ATOM      9  C   UNL     1      16.050  17.374   9.609  1.00  0.00     0.336 A 
ATOM     10  O   UNL     1      17.196  17.546  10.100  1.00  0.00    -0.246 OA
ATOM     11  O   UNL     1      15.013  17.163  10.416  1.00  0.00    -0.423 OA
ENDROOT
BRANCH   3  12
ATOM     12  O   UNL     1      10.368  16.338  11.263  1.00  0.00    -0.508 OA
ATOM     13  H   UNL     1       9.616  17.009  11.366  1.00  0.00     0.293 HD
ENDBRANCH   3  12
TORSDOF 1
ENDMDL
MODEL 2
REMARK VINA RESULT:    -4.671      0.866      4.254
REMARK INTER + INTRA:          -4.807
REMARK INTER:                  -4.807
REMARK INTRA:                   0.000
REMARK UNBOUND:                 0.000
REMARK SMILES O=c1ccc2ccc(O)cc2o1
REMARK SMILES IDX 6 1 7 2 8 3 10 4 11 5 5 6 4 7 3 8 2 9 1 10 12 11 9 12
REMARK H PARENT 9 13
REMARK Flexibility Score: inf
ROOT
ATOM      1  C   UNL     1      14.972  17.048   7.416  1.00  0.00     0.016 A 
ATOM      2  C   UNL     1      16.302  17.129   7.839  1.00  0.00     0.047 A 
ATOM      3  C   UNL     1      16.606  17.228   9.202  1.00  0.00     0.119 A 
ATOM      4  C   UNL     1      15.572  17.246  10.150  1.00  0.00     0.094 A 
ATOM      5  C   UNL     1      14.239  17.165   9.736  1.00  0.00     0.142 A 
ATOM      6  C   UNL     1      13.935  17.065   8.360  1.00  0.00     0.018 A 
ATOM      7  C   UNL     1      12.593  16.987   7.977  1.00  0.00     0.019 A 
ATOM      8  C   UNL     1      11.600  17.009   8.955  1.00  0.00     0.094 A 
ATOM      9  C   UNL     1      11.975  17.109  10.300  1.00  0.00     0.336 A 
ATOM     10  O   UNL     1      11.093  17.130  11.198  1.00  0.00    -0.246 OA
ATOM     11  O   UNL     1      13.260  17.182  10.637  1.00  0.00    -0.423 OA
ENDROOT
BRANCH   3  12
ATOM     12  O   UNL     1      17.938  17.307   9.604  1.00  0.00    -0.508 OA
ATOM     13  H   UNL     1      18.682  16.895   9.052  1.00  0.00     0.293 HD
ENDBRANCH   3  12
TORSDOF 1
ENDMDL
MODEL 3
REMARK VINA RESULT:    -4.579      1.753      2.468
REMARK INTER + INTRA:          -4.712
REMARK INTER:                  -4.712
REMARK INTRA:                   0.000
REMARK UNBOUND:                 0.000
REMARK SMILES O=c1ccc2ccc(O)cc2o1
REMARK SMILES IDX 6 1 7 2 8 3 10 4 11 5 5 6 4 7 3 8 2 9 1 10 12 11 9 12
REMARK H PARENT 9 13
REMARK Flexibility Score: inf
ROOT
ATOM      1  C   UNL     1      13.255  15.152  11.553  1.00  0.00     0.016 A 
ATOM      2  C   UNL     1      11.976  15.492  12.007  1.00  0.00     0.047 A 
ATOM      3  C   UNL     1      11.176  16.376  11.273  1.00  0.00     0.119 A 
ATOM      4  C   UNL     1      11.657  16.923  10.074  1.00  0.00     0.094 A 
ATOM      5  C   UNL     1      12.934  16.589   9.612  1.00  0.00     0.142 A 
ATOM      6  C   UNL     1      13.739  15.698  10.356  1.00  0.00     0.018 A 
ATOM      7  C   UNL     1      15.011  15.383   9.869  1.00  0.00     0.019 A 
ATOM      8  C   UNL     1      15.447  15.953   8.673  1.00  0.00     0.094 A 
ATOM      9  C   UNL     1      14.595  16.828   7.990  1.00  0.00     0.336 A 
ATOM     10  O   UNL     1      14.969  17.352   6.908  1.00  0.00    -0.246 OA
ATOM     11  O   UNL     1      13.388  17.110   8.475  1.00  0.00    -0.423 OA
ENDROOT
BRANCH   3  12
ATOM     12  O   UNL     1       9.905  16.701  11.743  1.00  0.00    -0.508 OA
ATOM     13  H   UNL     1       9.301  17.338  11.236  1.00  0.00     0.293 HD
ENDBRANCH   3  12
TORSDOF 1
ENDMDL
MODEL 4
REMARK VINA RESULT:    -4.537      0.931      1.170
REMARK INTER + INTRA:          -4.670
REMARK INTER:                  -4.670
REMARK INTRA:                   0.000
REMARK UNBOUND:                 0.000
REMARK SMILES O=c1ccc2ccc(O)cc2o1
REMARK SMILES IDX 6 1 7 2 8 3 10 4 11 5 5 6 4 7 3 8 2 9 1 10 12 11 9 12
REMARK H PARENT 9 13
REMARK Flexibility Score: inf
ROOT
ATOM      1  C   UNL     1      13.545  17.094   7.870  1.00  0.00     0.016 A 
ATOM      2  C   UNL     1      12.255  17.000   8.402  1.00  0.00     0.047 A 
ATOM      3  C   UNL     1      12.053  17.069   9.785  1.00  0.00     0.119 A 
ATOM      4  C   UNL     1      13.149  17.234  10.645  1.00  0.00     0.094 A 
ATOM      5  C   UNL     1      14.443  17.329  10.123  1.00  0.00     0.142 A 
ATOM      6  C   UNL     1      14.643  17.259   8.726  1.00  0.00     0.018 A 
ATOM      7  C   UNL     1      15.948  17.357   8.233  1.00  0.00     0.019 A 
ATOM      8  C   UNL     1      17.007  17.519   9.126  1.00  0.00     0.094 A 
ATOM      9  C   UNL     1      16.733  17.580  10.497  1.00  0.00     0.336 A 
ATOM     10  O   UNL     1      17.675  17.727  11.320  1.00  0.00    -0.246 OA
ATOM     11  O   UNL     1      15.481  17.485  10.940  1.00  0.00    -0.423 OA
ENDROOT
BRANCH   3  12
ATOM     12  O   UNL     1      10.759  16.974  10.295  1.00  0.00    -0.508 OA
ATOM     13  H   UNL     1       9.948  17.003   9.688  1.00  0.00     0.293 HD
ENDBRANCH   3  12
TORSDOF 1
ENDMDL
MODEL 5
REMARK VINA RESULT:    -4.455      2.216      3.747
REMARK INTER + INTRA:          -4.585
REMARK INTER:                  -4.585
REMARK INTRA:                   0.000
REMARK UNBOUND:                 0.000
REMARK SMILES O=c1ccc2ccc(O)cc2o1
REMARK SMILES IDX 6 1 7 2 8 3 10 4 11 5 5 6 4 7 3 8 2 9 1 10 12 11 9 12
REMARK H PARENT 9 13
REMARK Flexibility Score: inf
ROOT
ATOM      1  C   UNL     1      16.258  18.120  10.925  1.00  0.00     0.016 A 
ATOM      2  C   UNL     1      16.018  18.122  12.303  1.00  0.00     0.047 A 
ATOM      3  C   UNL     1      14.766  17.746  12.804  1.00  0.00     0.119 A 
ATOM      4  C   UNL     1      13.746  17.363  11.921  1.00  0.00     0.094 A 
ATOM      5  C   UNL     1      13.976  17.358  10.541  1.00  0.00     0.142 A 
ATOM      6  C   UNL     1      15.240  17.739  10.039  1.00  0.00     0.018 A 
ATOM      7  C   UNL     1      15.440  17.724   8.655  1.00  0.00     0.019 A 
ATOM      8  C   UNL     1      14.396  17.338   7.817  1.00  0.00     0.094 A 
ATOM      9  C   UNL     1      13.170  16.973   8.385  1.00  0.00     0.336 A 
ATOM     10  O   UNL     1      12.214  16.621   7.645  1.00  0.00    -0.246 OA
ATOM     11  O   UNL     1      13.006  16.996   9.705  1.00  0.00    -0.423 OA
ENDROOT
BRANCH   3  12
ATOM     12  O   UNL     1      14.548  17.754  14.180  1.00  0.00    -0.508 OA
ATOM     13  H   UNL     1      15.276  18.030  14.829  1.00  0.00     0.293 HD
ENDBRANCH   3  12
TORSDOF 1
ENDMDL
MODEL 6
REMARK VINA RESULT:    -4.440      1.681      4.803
REMARK INTER + INTRA:          -4.570
REMARK INTER:                  -4.570
REMARK INTRA:                   0.000
REMARK UNBOUND:                 0.000
REMARK SMILES O=c1ccc2ccc(O)cc2o1
REMARK SMILES IDX 6 1 7 2 8 3 10 4 11 5 5 6 4 7 3 8 2 9 1 10 12 11 9 12
REMARK H PARENT 9 13
REMARK Flexibility Score: inf
ROOT
ATOM      1  C   UNL     1      15.448  17.696  10.628  1.00  0.00     0.016 A 
ATOM      2  C   UNL     1      16.649  17.911   9.945  1.00  0.00     0.047 A 
ATOM      3  C   UNL     1      16.721  17.711   8.561  1.00  0.00     0.119 A 
ATOM      4  C   UNL     1      15.583  17.295   7.854  1.00  0.00     0.094 A 
ATOM      5  C   UNL     1      14.378  17.077   8.529  1.00  0.00     0.142 A 
ATOM      6  C   UNL     1      14.309  17.279   9.926  1.00  0.00     0.018 A 
ATOM      7  C   UNL     1      13.090  17.053  10.573  1.00  0.00     0.019 A 
ATOM      8  C   UNL     1      11.987  16.639   9.828  1.00  0.00     0.094 A 
ATOM      9  C   UNL     1      12.129  16.459   8.448  1.00  0.00     0.336 A 
ATOM     10  O   UNL     1      11.144  16.085   7.758  1.00  0.00    -0.246 OA
ATOM     11  O   UNL     1      13.300  16.681   7.857  1.00  0.00    -0.423 OA
ENDROOT
BRANCH   3  12
ATOM     12  O   UNL     1      17.927  17.932   7.898  1.00  0.00    -0.508 OA
ATOM     13  H   UNL     1      18.791  18.078   8.407  1.00  0.00     0.293 HD
ENDBRANCH   3  12
TORSDOF 1
ENDMDL
MODEL 7
REMARK VINA RESULT:    -4.437      2.018      3.179
REMARK INTER + INTRA:          -4.567
REMARK INTER:                  -4.567
REMARK INTRA:                   0.000
REMARK UNBOUND:                 0.000
REMARK SMILES O=c1ccc2ccc(O)cc2o1
REMARK SMILES IDX 6 1 7 2 8 3 10 4 11 5 5 6 4 7 3 8 2 9 1 10 12 11 9 12
REMARK H PARENT 9 13
REMARK Flexibility Score: inf
ROOT
ATOM      1  C   UNL     1      15.708  17.499   8.362  1.00  0.00     0.016 A 
ATOM      2  C   UNL     1      14.608  17.207   7.548  1.00  0.00     0.047 A 
ATOM      3  C   UNL     1      13.353  16.962   8.117  1.00  0.00     0.119 A 
ATOM      4  C   UNL     1      13.195  17.009   9.511  1.00  0.00     0.094 A 
ATOM      5  C   UNL     1      14.289  17.299  10.332  1.00  0.00     0.142 A 
ATOM      6  C   UNL     1      15.555  17.546   9.754  1.00  0.00     0.018 A 
ATOM      7  C   UNL     1      16.630  17.833  10.601  1.00  0.00     0.019 A 
ATOM      8  C   UNL     1      16.425  17.868  11.980  1.00  0.00     0.094 A 
ATOM      9  C   UNL     1      15.143  17.613  12.481  1.00  0.00     0.336 A 
ATOM     10  O   UNL     1      14.937  17.640  13.723  1.00  0.00    -0.246 OA
ATOM     11  O   UNL     1      14.137  17.343  11.653  1.00  0.00    -0.423 OA
ENDROOT
BRANCH   3  12
ATOM     12  O   UNL     1      12.269  16.675   7.290  1.00  0.00    -0.508 OA
ATOM     13  H   UNL     1      11.335  17.001   7.509  1.00  0.00     0.293 HD
ENDBRANCH   3  12
TORSDOF 1
ENDMDL
MODEL 8
REMARK VINA RESULT:    -4.378      1.881      2.863
REMARK INTER + INTRA:          -4.506
REMARK INTER:                  -4.506
REMARK INTRA:                   0.000
REMARK UNBOUND:                 0.000
REMARK SMILES O=c1ccc2ccc(O)cc2o1
REMARK SMILES IDX 6 1 7 2 8 3 10 4 11 5 5 6 4 7 3 8 2 9 1 10 12 11 9 12
REMARK H PARENT 9 13
REMARK Flexibility Score: inf
ROOT
ATOM      1  C   UNL     1      11.488  17.442  10.618  1.00  0.00     0.016 A 
ATOM      2  C   UNL     1      11.185  17.038   9.314  1.00  0.00     0.047 A 
ATOM      3  C   UNL     1      12.211  16.738   8.410  1.00  0.00     0.119 A 
ATOM      4  C   UNL     1      13.551  16.842   8.812  1.00  0.00     0.094 A 
ATOM      5  C   UNL     1      13.864  17.246  10.114  1.00  0.00     0.142 A 
ATOM      6  C   UNL     1      12.826  17.548  11.024  1.00  0.00     0.018 A 
ATOM      7  C   UNL     1      13.170  17.949  12.319  1.00  0.00     0.019 A 
ATOM      8  C   UNL     1      14.515  18.039  12.673  1.00  0.00     0.094 A 
ATOM      9  C   UNL     1      15.489  17.724  11.719  1.00  0.00     0.336 A 
ATOM     10  O   UNL     1      16.710  17.798  12.019  1.00  0.00    -0.246 OA
ATOM     11  O   UNL     1      15.135  17.344  10.494  1.00  0.00    -0.423 OA
ENDROOT
BRANCH   3  12
ATOM     12  O   UNL     1      11.888  16.337   7.115  1.00  0.00    -0.508 OA
ATOM     13  H   UNL     1      11.739  17.012   6.373  1.00  0.00     0.293 HD
ENDBRANCH   3  12
TORSDOF 1
ENDMDL
MODEL 9
REMARK VINA RESULT:    -4.365      1.584      2.375
REMARK INTER + INTRA:          -4.493
REMARK INTER:                  -4.493
REMARK INTRA:                   0.000
REMARK UNBOUND:                 0.000
REMARK SMILES O=c1ccc2ccc(O)cc2o1
REMARK SMILES IDX 6 1 7 2 8 3 10 4 11 5 5 6 4 7 3 8 2 9 1 10 12 11 9 12
REMARK H PARENT 9 13
REMARK Flexibility Score: inf
ROOT
ATOM      1  C   UNL     1      13.453  17.333  11.485  1.00  0.00     0.016 A 
ATOM      2  C   UNL     1      12.130  17.526  11.074  1.00  0.00     0.047 A 
ATOM      3  C   UNL     1      11.774  17.355   9.731  1.00  0.00     0.119 A 
ATOM      4  C   UNL     1      12.748  16.988   8.790  1.00  0.00     0.094 A 
ATOM      5  C   UNL     1      14.073  16.793   9.191  1.00  0.00     0.142 A 
ATOM      6  C   UNL     1      14.430  16.966  10.548  1.00  0.00     0.018 A 
ATOM      7  C   UNL     1      15.763  16.765  10.919  1.00  0.00     0.019 A 
ATOM      8  C   UNL     1      16.695  16.402   9.948  1.00  0.00     0.094 A 
ATOM      9  C   UNL     1      16.270  16.248   8.623  1.00  0.00     0.336 A 
ATOM     10  O   UNL     1      17.097  15.920   7.732  1.00  0.00    -0.246 OA
ATOM     11  O   UNL     1      14.996  16.445   8.297  1.00  0.00    -0.423 OA
ENDROOT
BRANCH   3  12
ATOM     12  O   UNL     1      10.450  17.551   9.343  1.00  0.00    -0.508 OA
ATOM     13  H   UNL     1      10.213  18.136   8.549  1.00  0.00     0.293 HD
ENDBRANCH   3  12
TORSDOF 1
ENDMDL
