MODEL 1
REMARK VINA RESULT:     2.730      0.000      0.000
REMARK INTER + INTRA:           3.770
REMARK INTER:                   4.006
REMARK INTRA:                  -0.236
REMARK UNBOUND:                -0.236
REMARK SMILES O=C([O-])CCCCCCCC(=O)[O-]
REMARK SMILES IDX 7 1 6 2 5 3 4 4 2 5 1 6 3 7 8 8 9 9 10 10 11 11 12 12 13 13
REMARK H PARENT
REMARK Flexibility Score: inf
ROOT
ATOM      1  C   UNL     1      11.119  -3.514 -16.434  1.00  0.00     0.000 C 
ENDROOT
BRANCH   1   2
ATOM      2  C   UNL     1      10.915  -2.023 -16.741  1.00  0.00     0.000 C 
BRANCH   2   3
ATOM      3  C   UNL     1      12.235  -1.231 -16.762  1.00  0.00     0.006 C 
BRANCH   3   4
ATOM      4  C   UNL     1      12.071   0.262 -17.084  1.00  0.00     0.053 C 
BRANCH   4   5
ATOM      5  C   UNL     1      13.370   0.898 -17.474  1.00  0.00     0.041 C 
ATOM      6  O   UNL     1      14.184   0.278 -18.208  1.00  0.00    -0.550 OA
ATOM      7  O   UNL     1      13.667   2.188 -17.054  1.00  0.00    -0.550 OA
ENDBRANCH   4   5
ENDBRANCH   3   4
ENDBRANCH   2   3
ENDBRANCH   1   2
BRANCH   1   8
ATOM      8  C   UNL     1      11.273  -4.325 -17.727  1.00  0.00     0.000 C 
BRANCH   8   9
ATOM      9  C   UNL     1      12.171  -5.548 -17.506  1.00  0.00     0.006 C 
BRANCH   9  10
ATOM     10  C   UNL     1      12.784  -6.024 -18.826  1.00  0.00     0.053 C 
BRANCH  10  11
ATOM     11  C   UNL     1      14.185  -6.504 -18.610  1.00  0.00     0.041 C 
ATOM     12  O   UNL     1      14.441  -7.308 -17.675  1.00  0.00    -0.550 OA
ATOM     13  O   UNL     1      15.215  -6.026 -19.409  1.00  0.00    -0.550 OA
ENDBRANCH  10  11
ENDBRANCH   9  10
ENDBRANCH   8   9
ENDBRANCH   1   8
TORSDOF 8
ENDMDL
MODEL 2
REMARK VINA RESULT:     2.784      0.183      6.277
REMARK INTER + INTRA:           3.851
REMARK INTER:                   4.085
REMARK INTRA:                  -0.234
REMARK UNBOUND:                -0.236
REMARK SMILES O=C([O-])CCCCCCCC(=O)[O-]
REMARK SMILES IDX 7 1 6 2 5 3 4 4 2 5 1 6 3 7 8 8 9 9 10 10 11 11 12 12 13 13
REMARK H PARENT
REMARK Flexibility Score: inf
ROOT
ATOM      1  C   UNL     1      11.170  -3.339 -16.393  1.00  0.00     0.000 C 
ENDROOT
BRANCH   1   2
ATOM      2  C   UNL     1      11.154  -4.324 -17.571  1.00  0.00     0.000 C 
BRANCH   2   3
ATOM      3  C   UNL     1      12.190  -5.453 -17.420  1.00  0.00     0.006 C 
BRANCH   3   4
ATOM      4  C   UNL     1      12.755  -5.974 -18.751  1.00  0.00     0.053 C 
BRANCH   4   5
ATOM      5  C   UNL     1      14.164  -6.462 -18.608  1.00  0.00     0.041 C 
ATOM      6  O   UNL     1      15.065  -6.030 -19.374  1.00  0.00    -0.550 OA
ATOM      7  O   UNL     1      14.488  -7.369 -17.608  1.00  0.00    -0.550 OA
ENDBRANCH   4   5
ENDBRANCH   3   4
ENDBRANCH   2   3
ENDBRANCH   1   2
BRANCH   1   8
ATOM      8  C   UNL     1      11.038  -1.892 -16.885  1.00  0.00     0.000 C 
BRANCH   8   9
ATOM      9  C   UNL     1      12.375  -1.149 -16.780  1.00  0.00     0.006 C 
BRANCH   9  10
ATOM     10  C   UNL     1      12.221   0.319 -17.184  1.00  0.00     0.053 C 
BRANCH  10  11
ATOM     11  C   UNL     1      13.550   0.907 -17.539  1.00  0.00     0.041 C 
ATOM     12  O   UNL     1      13.838   2.082 -17.187  1.00  0.00    -0.550 OA
ATOM     13  O   UNL     1      14.452   0.176 -18.302  1.00  0.00    -0.550 OA
ENDBRANCH  10  11
ENDBRANCH   9  10
ENDBRANCH   8   9
ENDBRANCH   1   8
TORSDOF 8
ENDMDL
MODEL 3
REMARK VINA RESULT:     5.363      2.343      6.090
REMARK INTER + INTRA:           7.636
REMARK INTER:                   7.923
REMARK INTRA:                  -0.287
REMARK UNBOUND:                -0.236
REMARK SMILES O=C([O-])CCCCCCCC(=O)[O-]
REMARK SMILES IDX 7 1 6 2 5 3 4 4 2 5 1 6 3 7 8 8 9 9 10 10 11 11 12 12 13 13
REMARK H PARENT
REMARK Flexibility Score: inf
ROOT
ATOM      1  C   UNL     1      12.389   0.274 -15.929  1.00  0.00     0.000 C 
ENDROOT
BRANCH   1   2
ATOM      2  C   UNL     1      12.194  -0.972 -16.805  1.00  0.00     0.000 C 
BRANCH   2   3
ATOM      3  C   UNL     1      11.036  -1.865 -16.323  1.00  0.00     0.006 C 
BRANCH   3   4
ATOM      4  C   UNL     1      10.627  -2.962 -17.319  1.00  0.00     0.053 C 
BRANCH   4   5
ATOM      5  C   UNL     1      11.131  -4.310 -16.905  1.00  0.00     0.041 C 
ATOM      6  O   UNL     1      10.990  -4.703 -15.717  1.00  0.00    -0.550 OA
ATOM      7  O   UNL     1      11.727  -5.147 -17.840  1.00  0.00    -0.550 OA
ENDBRANCH   4   5
ENDBRANCH   3   4
ENDBRANCH   2   3
ENDBRANCH   1   2
BRANCH   1   8
ATOM      8  C   UNL     1      12.143   1.556 -16.735  1.00  0.00     0.000 C 
BRANCH   8   9
ATOM      9  C   UNL     1      13.464   2.161 -17.225  1.00  0.00     0.006 C 
BRANCH   9  10
ATOM     10  C   UNL     1      13.858   1.590 -18.590  1.00  0.00     0.053 C 
BRANCH  10  11
ATOM     11  C   UNL     1      15.055   0.701 -18.460  1.00  0.00     0.041 C 
ATOM     12  O   UNL     1      15.682   0.330 -19.488  1.00  0.00    -0.550 OA
ATOM     13  O   UNL     1      15.449   0.244 -17.210  1.00  0.00    -0.550 OA
ENDBRANCH  10  11
ENDBRANCH   9  10
ENDBRANCH   8   9
ENDBRANCH   1   8
TORSDOF 8
ENDMDL
MODEL 4
REMARK VINA RESULT:     5.531      4.727      6.092
REMARK INTER + INTRA:           7.882
REMARK INTER:                   7.581
REMARK INTRA:                   0.301
REMARK UNBOUND:                -0.236
REMARK SMILES O=C([O-])CCCCCCCC(=O)[O-]
REMARK SMILES IDX 7 1 6 2 5 3 4 4 2 5 1 6 3 7 8 8 9 9 10 10 11 11 12 12 13 13
REMARK H PARENT
REMARK Flexibility Score: inf
ROOT
ATOM      1  C   UNL     1      12.055   0.492 -16.116  1.00  0.00     0.000 C 
ENDROOT
BRANCH   1   2
ATOM      2  C   UNL     1      12.004   1.973 -15.716  1.00  0.00     0.000 C 
BRANCH   2   3
ATOM      3  C   UNL     1      10.638   2.391 -15.142  1.00  0.00     0.006 C 
BRANCH   3   4
ATOM      4  C   UNL     1      10.495   2.173 -13.628  1.00  0.00     0.053 C 
BRANCH   4   5
ATOM      5  C   UNL     1       9.763   0.905 -13.311  1.00  0.00     0.041 C 
ATOM      6  O   UNL     1      10.153  -0.191 -13.793  1.00  0.00    -0.550 OA
ATOM      7  O   UNL     1       8.668   0.930 -12.456  1.00  0.00    -0.550 OA
ENDBRANCH   4   5
ENDBRANCH   3   4
ENDBRANCH   2   3
ENDBRANCH   1   2
BRANCH   1   8
ATOM      8  C   UNL     1      12.626   0.324 -17.530  1.00  0.00     0.000 C 
BRANCH   8   9
ATOM      9  C   UNL     1      13.200   1.646 -18.053  1.00  0.00     0.006 C 
BRANCH   9  10
ATOM     10  C   UNL     1      14.160   1.404 -19.221  1.00  0.00     0.053 C 
BRANCH  10  11
ATOM     11  C   UNL     1      15.382   0.678 -18.752  1.00  0.00     0.041 C 
ATOM     12  O   UNL     1      16.283   0.358 -19.573  1.00  0.00    -0.550 OA
ATOM     13  O   UNL     1      15.503   0.311 -17.418  1.00  0.00    -0.550 OA
ENDBRANCH  10  11
ENDBRANCH   9  10
ENDBRANCH   8   9
ENDBRANCH   1   8
TORSDOF 8
ENDMDL
