MODEL 1
REMARK VINA RESULT:    -4.788      0.000      0.000
REMARK INTER + INTRA:          -5.609
REMARK INTER:                  -5.488
REMARK INTRA:                  -0.121
REMARK UNBOUND:                -0.121
REMARK SMILES COc1cc(C(C)=O)ccc1O
REMARK SMILES IDX 5 1 4 2 3 3 11 4 10 5 9 6 6 7 7 8 8 9 2 10 1 11 12 12
REMARK H PARENT 12 13
REMARK Flexibility Score: inf
ROOT
ATOM      1  C   UNL     1     127.560 129.425 117.291  1.00  0.00     0.021 A 
ATOM      2  C   UNL     1     128.878 129.051 116.959  1.00  0.00     0.062 A 
ATOM      3  C   UNL     1     129.890 129.025 117.939  1.00  0.00     0.161 A 
ATOM      4  C   UNL     1     129.578 129.374 119.260  1.00  0.00     0.157 A 
ATOM      5  C   UNL     1     128.271 129.745 119.596  1.00  0.00     0.051 A 
ATOM      6  C   UNL     1     127.272 129.771 118.623  1.00  0.00     0.016 A 
ENDROOT
BRANCH   1   7
ATOM      7  C   UNL     1     126.482 129.458 116.265  1.00  0.00     0.159 C 
ATOM      8  C   UNL     1     125.095 128.967 116.553  1.00  0.00     0.093 C 
ATOM      9  O   UNL     1     126.729 129.910 115.113  1.00  0.00    -0.295 OA
ENDBRANCH   1   7
BRANCH   3  10
ATOM     10  O   UNL     1     131.212 128.658 117.642  1.00  0.00    -0.493 OA
ATOM     11  C   UNL     1     131.992 129.226 116.595  1.00  0.00     0.278 C 
ENDBRANCH   3  10
BRANCH   4  12
ATOM     12  O   UNL     1     130.575 129.349 120.234  1.00  0.00    -0.504 OA
ATOM     13  H   UNL     1     131.416 128.796 120.120  1.00  0.00     0.293 HD
ENDBRANCH   4  12
TORSDOF 3
ENDMDL
MODEL 2
REMARK VINA RESULT:    -4.742      1.745      3.965
REMARK INTER + INTRA:          -5.556
REMARK INTER:                  -5.459
REMARK INTRA:                  -0.097
REMARK UNBOUND:                -0.121
REMARK SMILES COc1cc(C(C)=O)ccc1O
REMARK SMILES IDX 5 1 4 2 3 3 11 4 10 5 9 6 6 7 7 8 8 9 2 10 1 11 12 12
REMARK H PARENT 12 13
REMARK Flexibility Score: inf
ROOT
ATOM      1  C   UNL     1     128.727 129.446 117.751  1.00  0.00     0.021 A 
ATOM      2  C   UNL     1     129.792 129.415 116.827  1.00  0.00     0.062 A 
ATOM      3  C   UNL     1     129.546 129.335 115.443  1.00  0.00     0.161 A 
ATOM      4  C   UNL     1     128.223 129.287 114.981  1.00  0.00     0.157 A 
ATOM      5  C   UNL     1     127.162 129.318 115.892  1.00  0.00     0.051 A 
ATOM      6  C   UNL     1     127.410 129.397 117.263  1.00  0.00     0.016 A 
ENDROOT
BRANCH   1   7
ATOM      7  C   UNL     1     128.974 129.530 119.216  1.00  0.00     0.159 C 
ATOM      8  C   UNL     1     130.141 128.848 119.867  1.00  0.00     0.093 C 
ATOM      9  O   UNL     1     128.186 130.193 119.946  1.00  0.00    -0.295 OA
ENDBRANCH   1   7
BRANCH   3  10
ATOM     10  O   UNL     1     130.582 129.302 114.497  1.00  0.00    -0.493 OA
ATOM     11  C   UNL     1     131.822 128.627 114.682  1.00  0.00     0.278 C 
ENDBRANCH   3  10
BRANCH   4  12
ATOM     12  O   UNL     1     127.973 129.207 113.612  1.00  0.00    -0.504 OA
ATOM     13  H   UNL     1     127.045 129.358 113.232  1.00  0.00     0.293 HD
ENDBRANCH   4  12
TORSDOF 3
ENDMDL
MODEL 3
REMARK VINA RESULT:    -4.737      1.590      4.621
REMARK INTER + INTRA:          -5.550
REMARK INTER:                  -5.459
REMARK INTRA:                  -0.091
REMARK UNBOUND:                -0.121
REMARK SMILES COc1cc(C(C)=O)ccc1O
REMARK SMILES IDX 5 1 4 2 3 3 11 4 10 5 9 6 6 7 7 8 8 9 2 10 1 11 12 12
REMARK H PARENT 12 13
REMARK Flexibility Score: inf
ROOT
ATOM      1  C   UNL     1     130.041 129.007 117.944  1.00  0.00     0.021 A 
ATOM      2  C   UNL     1     128.920 129.136 117.099  1.00  0.00     0.062 A 
ATOM      3  C   UNL     1     129.080 129.303 115.709  1.00  0.00     0.161 A 
ATOM      4  C   UNL     1     130.370 129.341 115.164  1.00  0.00     0.157 A 
ATOM      5  C   UNL     1     131.487 129.212 115.997  1.00  0.00     0.051 A 
ATOM      6  C   UNL     1     131.325 129.047 117.374  1.00  0.00     0.016 A 
ENDROOT
BRANCH   1   7
ATOM      7  C   UNL     1     129.887 128.830 119.414  1.00  0.00     0.159 C 
ATOM      8  C   UNL     1     128.942 129.669 120.222  1.00  0.00     0.093 C 
ATOM      9  O   UNL     1     130.565 127.950 120.013  1.00  0.00    -0.295 OA
ENDBRANCH   1   7
BRANCH   3  10
ATOM     10  O   UNL     1     127.986 129.435 114.839  1.00  0.00    -0.493 OA
ATOM     11  C   UNL     1     126.632 129.575 115.260  1.00  0.00     0.278 C 
ENDBRANCH   3  10
BRANCH   4  12
ATOM     12  O   UNL     1     130.534 129.506 113.790  1.00  0.00    -0.504 OA
ATOM     13  H   UNL     1     131.227 128.980 113.271  1.00  0.00     0.293 HD
ENDBRANCH   4  12
TORSDOF 3
ENDMDL
MODEL 4
REMARK VINA RESULT:    -4.462      1.672      4.453
REMARK INTER + INTRA:          -5.235
REMARK INTER:                  -5.097
REMARK INTRA:                  -0.138
REMARK UNBOUND:                -0.121
REMARK SMILES COc1cc(C(C)=O)ccc1O
REMARK SMILES IDX 5 1 4 2 3 3 11 4 10 5 9 6 6 7 7 8 8 9 2 10 1 11 12 12
REMARK H PARENT 12 13
REMARK Flexibility Score: inf
ROOT
ATOM      1  C   UNL     1     129.349 129.203 117.242  1.00  0.00     0.021 A 
ATOM      2  C   UNL     1     129.469 129.175 115.837  1.00  0.00     0.062 A 
ATOM      3  C   UNL     1     128.343 129.366 115.012  1.00  0.00     0.161 A 
ATOM      4  C   UNL     1     127.091 129.588 115.599  1.00  0.00     0.157 A 
ATOM      5  C   UNL     1     126.965 129.619 116.992  1.00  0.00     0.051 A 
ATOM      6  C   UNL     1     128.082 129.428 117.806  1.00  0.00     0.016 A 
ENDROOT
BRANCH   1   7
ATOM      7  C   UNL     1     130.531 129.002 118.124  1.00  0.00     0.159 C 
ATOM      8  C   UNL     1     130.395 128.818 119.606  1.00  0.00     0.093 C 
ATOM      9  O   UNL     1     131.689 128.984 117.624  1.00  0.00    -0.295 OA
ENDBRANCH   1   7
BRANCH   3  10
ATOM     10  O   UNL     1     128.427 129.342 113.611  1.00  0.00    -0.493 OA
ATOM     11  C   UNL     1     128.487 128.156 112.826  1.00  0.00     0.278 C 
ENDBRANCH   3  10
BRANCH   4  12
ATOM     12  O   UNL     1     125.972 129.778 114.788  1.00  0.00    -0.504 OA
ATOM     13  H   UNL     1     126.014 130.347 113.951  1.00  0.00     0.293 HD
ENDBRANCH   4  12
TORSDOF 3
ENDMDL
MODEL 5
REMARK VINA RESULT:    -4.291      1.263      2.794
REMARK INTER + INTRA:          -5.040
REMARK INTER:                  -4.946
REMARK INTRA:                  -0.094
REMARK UNBOUND:                -0.121
REMARK SMILES COc1cc(C(C)=O)ccc1O
REMARK SMILES IDX 5 1 4 2 3 3 11 4 10 5 9 6 6 7 7 8 8 9 2 10 1 11 12 12
REMARK H PARENT 12 13
REMARK Flexibility Score: inf
ROOT
ATOM      1  C   UNL     1     128.704 129.312 116.026  1.00  0.00     0.021 A 
ATOM      2  C   UNL     1     129.056 129.149 117.381  1.00  0.00     0.062 A 
ATOM      3  C   UNL     1     130.407 129.103 117.777  1.00  0.00     0.161 A 
ATOM      4  C   UNL     1     131.411 129.221 116.807  1.00  0.00     0.157 A 
ATOM      5  C   UNL     1     131.070 129.383 115.460  1.00  0.00     0.051 A 
ATOM      6  C   UNL     1     129.730 129.428 115.072  1.00  0.00     0.016 A 
ENDROOT
BRANCH   1   7
ATOM      7  C   UNL     1     127.280 129.362 115.595  1.00  0.00     0.159 C 
ATOM      8  C   UNL     1     126.151 129.118 116.551  1.00  0.00     0.093 C 
ATOM      9  O   UNL     1     127.000 129.618 114.391  1.00  0.00    -0.295 OA
ENDBRANCH   1   7
BRANCH   3  10
ATOM     10  O   UNL     1     130.791 128.942 119.117  1.00  0.00    -0.493 OA
ATOM     11  C   UNL     1     129.896 128.982 120.224  1.00  0.00     0.278 C 
ENDBRANCH   3  10
BRANCH   4  12
ATOM     12  O   UNL     1     132.751 129.176 117.192  1.00  0.00    -0.504 OA
ATOM     13  H   UNL     1     133.442 128.668 116.652  1.00  0.00     0.293 HD
ENDBRANCH   4  12
TORSDOF 3
ENDMDL
MODEL 6
REMARK VINA RESULT:    -4.168      8.360     11.101
REMARK INTER + INTRA:          -4.898
REMARK INTER:                  -4.805
REMARK INTRA:                  -0.093
REMARK UNBOUND:                -0.121
REMARK SMILES COc1cc(C(C)=O)ccc1O
REMARK SMILES IDX 5 1 4 2 3 3 11 4 10 5 9 6 6 7 7 8 8 9 2 10 1 11 12 12
REMARK H PARENT 12 13
REMARK Flexibility Score: inf
ROOT
ATOM      1  C   UNL     1     120.933 131.663 109.749  1.00  0.00     0.021 A 
ATOM      2  C   UNL     1     121.625 131.855 110.962  1.00  0.00     0.062 A 
ATOM      3  C   UNL     1     120.948 132.287 112.120  1.00  0.00     0.161 A 
ATOM      4  C   UNL     1     119.569 132.526 112.061  1.00  0.00     0.157 A 
ATOM      5  C   UNL     1     118.875 132.337 110.861  1.00  0.00     0.051 A 
ATOM      6  C   UNL     1     119.549 131.910 109.716  1.00  0.00     0.016 A 
ENDROOT
BRANCH   1   7
ATOM      7  C   UNL     1     121.636 131.208 108.519  1.00  0.00     0.159 C 
ATOM      8  C   UNL     1     123.029 130.654 108.558  1.00  0.00     0.093 C 
ATOM      9  O   UNL     1     121.054 131.284 107.402  1.00  0.00    -0.295 OA
ENDBRANCH   1   7
BRANCH   3  10
ATOM     10  O   UNL     1     121.607 132.488 113.343  1.00  0.00    -0.493 OA
ATOM     11  C   UNL     1     123.015 132.385 113.528  1.00  0.00     0.278 C 
ENDBRANCH   3  10
BRANCH   4  12
ATOM     12  O   UNL     1     118.893 132.953 113.203  1.00  0.00    -0.504 OA
ATOM     13  H   UNL     1     118.126 133.613 113.151  1.00  0.00     0.293 HD
ENDBRANCH   4  12
TORSDOF 3
ENDMDL
MODEL 7
REMARK VINA RESULT:    -4.007      7.547      9.776
REMARK INTER + INTRA:          -4.714
REMARK INTER:                  -4.604
REMARK INTRA:                  -0.110
REMARK UNBOUND:                -0.121
REMARK SMILES COc1cc(C(C)=O)ccc1O
REMARK SMILES IDX 5 1 4 2 3 3 11 4 10 5 9 6 6 7 7 8 8 9 2 10 1 11 12 12
REMARK H PARENT 12 13
REMARK Flexibility Score: inf
ROOT
ATOM      1  C   UNL     1     123.942 131.891 111.774  1.00  0.00     0.021 A 
ATOM      2  C   UNL     1     122.901 131.917 110.823  1.00  0.00     0.062 A 
ATOM      3  C   UNL     1     121.567 132.139 111.219  1.00  0.00     0.161 A 
ATOM      4  C   UNL     1     121.276 132.339 112.575  1.00  0.00     0.157 A 
ATOM      5  C   UNL     1     122.304 132.315 113.523  1.00  0.00     0.051 A 
ATOM      6  C   UNL     1     123.624 132.094 113.128  1.00  0.00     0.016 A 
ENDROOT
BRANCH   1   7
ATOM      7  C   UNL     1     125.355 131.656 111.370  1.00  0.00     0.159 C 
ATOM      8  C   UNL     1     126.415 132.704 111.536  1.00  0.00     0.093 C 
ATOM      9  O   UNL     1     125.686 130.545 110.870  1.00  0.00    -0.295 OA
ENDBRANCH   1   7
BRANCH   3  10
ATOM     10  O   UNL     1     120.508 132.171 110.299  1.00  0.00    -0.493 OA
ATOM     11  C   UNL     1     120.312 131.216 109.260  1.00  0.00     0.278 C 
ENDBRANCH   3  10
BRANCH   4  12
ATOM     12  O   UNL     1     119.958 132.560 112.972  1.00  0.00    -0.504 OA
ATOM     13  H   UNL     1     119.736 133.126 113.782  1.00  0.00     0.293 HD
ENDBRANCH   4  12
TORSDOF 3
ENDMDL
MODEL 8
REMARK VINA RESULT:    -3.936      7.920     10.051
REMARK INTER + INTRA:          -4.632
REMARK INTER:                  -4.523
REMARK INTRA:                  -0.109
REMARK UNBOUND:                -0.121
REMARK SMILES COc1cc(C(C)=O)ccc1O
REMARK SMILES IDX 5 1 4 2 3 3 11 4 10 5 9 6 6 7 7 8 8 9 2 10 1 11 12 12
REMARK H PARENT 12 13
REMARK Flexibility Score: inf
ROOT
ATOM      1  C   UNL     1     123.825 133.333 111.887  1.00  0.00     0.021 A 
ATOM      2  C   UNL     1     122.912 133.136 110.831  1.00  0.00     0.062 A 
ATOM      3  C   UNL     1     121.658 132.536 111.062  1.00  0.00     0.161 A 
ATOM      4  C   UNL     1     121.317 132.134 112.360  1.00  0.00     0.157 A 
ATOM      5  C   UNL     1     122.218 132.327 113.413  1.00  0.00     0.051 A 
ATOM      6  C   UNL     1     123.459 132.920 113.180  1.00  0.00     0.016 A 
ENDROOT
BRANCH   1   7
ATOM      7  C   UNL     1     125.152 133.964 111.656  1.00  0.00     0.159 C 
ATOM      8  C   UNL     1     125.369 134.992 110.585  1.00  0.00     0.093 C 
ATOM      9  O   UNL     1     126.135 133.634 112.375  1.00  0.00    -0.295 OA
ENDBRANCH   1   7
BRANCH   3  10
ATOM     10  O   UNL     1     120.727 132.325 110.034  1.00  0.00    -0.493 OA
ATOM     11  C   UNL     1     120.744 131.213 109.144  1.00  0.00     0.278 C 
ENDBRANCH   3  10
BRANCH   4  12
ATOM     12  O   UNL     1     120.078 131.540 112.596  1.00  0.00    -0.504 OA
ATOM     13  H   UNL     1     119.359 131.511 111.882  1.00  0.00     0.293 HD
ENDBRANCH   4  12
TORSDOF 3
ENDMDL
MODEL 9
REMARK VINA RESULT:    -3.861      7.693      9.471
REMARK INTER + INTRA:          -4.546
REMARK INTER:                  -4.436
REMARK INTRA:                  -0.111
REMARK UNBOUND:                -0.121
REMARK SMILES COc1cc(C(C)=O)ccc1O
REMARK SMILES IDX 5 1 4 2 3 3 11 4 10 5 9 6 6 7 7 8 8 9 2 10 1 11 12 12
REMARK H PARENT 12 13
REMARK Flexibility Score: inf
ROOT
ATOM      1  C   UNL     1     121.400 132.563 111.477  1.00  0.00     0.021 A 
ATOM      2  C   UNL     1     122.490 133.220 110.870  1.00  0.00     0.062 A 
ATOM      3  C   UNL     1     123.730 133.323 111.531  1.00  0.00     0.161 A 
ATOM      4  C   UNL     1     123.878 132.762 112.807  1.00  0.00     0.157 A 
ATOM      5  C   UNL     1     122.801 132.108 113.414  1.00  0.00     0.051 A 
ATOM      6  C   UNL     1     121.574 132.009 112.757  1.00  0.00     0.016 A 
ENDROOT
BRANCH   1   7
ATOM      7  C   UNL     1     120.084 132.448 110.790  1.00  0.00     0.159 C 
ATOM      8  C   UNL     1     119.891 131.582 109.582  1.00  0.00     0.093 C 
ATOM      9  O   UNL     1     119.092 133.094 111.228  1.00  0.00    -0.295 OA
ENDBRANCH   1   7
BRANCH   3  10
ATOM     10  O   UNL     1     124.834 133.970 110.956  1.00  0.00    -0.493 OA
ATOM     11  C   UNL     1     124.893 135.363 110.667  1.00  0.00     0.278 C 
ENDBRANCH   3  10
BRANCH   4  12
ATOM     12  O   UNL     1     125.103 132.860 113.466  1.00  0.00    -0.504 OA
ATOM     13  H   UNL     1     125.393 132.173 114.151  1.00  0.00     0.293 HD
ENDBRANCH   4  12
TORSDOF 3
ENDMDL
