MODEL 1
REMARK VINA RESULT:    -2.217      0.000      0.000
REMARK INTER + INTRA:          -6.125
REMARK INTER:                  -4.809
REMARK INTRA:                  -1.316
REMARK UNBOUND:                -1.316
REMARK SMILES CCCCCCCCCCCCCCCCCCCCCC(=O)[O-]
REMARK SMILES IDX 12 1 11 2 10 3 9 4 8 5 7 6 6 7 5 8 4 9 3 10 2 11 1 12 13 13
REMARK SMILES IDX 14 14 15 15 16 16 17 17 18 18 19 19 20 20 21 21 22 22 23 23
REMARK SMILES IDX 24 24
REMARK H PARENT
REMARK Flexibility Score: inf
ROOT
ATOM      1  C   UNL     1     -21.211   1.479   8.899  1.00  0.00     0.000 C 
ENDROOT
BRANCH   1   2
ATOM      2  C   UNL     1     -20.407   1.647   7.597  1.00  0.00     0.000 C 
BRANCH   2   3
ATOM      3  C   UNL     1     -20.502   0.461   6.616  1.00  0.00     0.000 C 
BRANCH   3   4
ATOM      4  C   UNL     1     -20.882  -0.890   7.256  1.00  0.00    -0.000 C 
BRANCH   4   5
ATOM      5  C   UNL     1     -19.690  -1.781   7.650  1.00  0.00    -0.000 C 
BRANCH   5   6
ATOM      6  C   UNL     1     -19.901  -2.501   8.989  1.00  0.00    -0.000 C 
BRANCH   6   7
ATOM      7  C   UNL     1     -20.207  -1.496  10.111  1.00  0.00    -0.000 C 
BRANCH   7   8
ATOM      8  C   UNL     1     -19.652  -1.944  11.473  1.00  0.00    -0.000 C 
BRANCH   8   9
ATOM      9  C   UNL     1     -20.744  -2.051  12.549  1.00  0.00    -0.000 C 
BRANCH   9  10
ATOM     10  C   UNL     1     -20.582  -0.950  13.607  1.00  0.00    -0.000 C 
BRANCH  10  11
ATOM     11  C   UNL     1     -21.673   0.128  13.508  1.00  0.00    -0.003 C 
ATOM     12  C   UNL     1     -21.152   1.444  12.929  1.00  0.00     0.004 C 
ENDBRANCH  10  11
ENDBRANCH   9  10
ENDBRANCH   8   9
ENDBRANCH   7   8
ENDBRANCH   6   7
ENDBRANCH   5   6
ENDBRANCH   4   5
ENDBRANCH   3   4
ENDBRANCH   2   3
ENDBRANCH   1   2
BRANCH   1  13
ATOM     13  C   UNL     1     -21.618   2.797   9.588  1.00  0.00     0.000 C 
BRANCH  13  14
ATOM     14  C   UNL     1     -21.681   4.007   8.632  1.00  0.00     0.000 C 
BRANCH  14  15
ATOM     15  C   UNL     1     -21.624   5.354   9.377  1.00  0.00     0.000 C 
BRANCH  15  16
ATOM     16  C   UNL     1     -20.376   6.175   9.015  1.00  0.00     0.000 C 
BRANCH  16  17
ATOM     17  C   UNL     1     -19.411   6.338  10.204  1.00  0.00     0.000 C 
BRANCH  17  18
ATOM     18  C   UNL     1     -18.581   7.630  10.124  1.00  0.00     0.000 C 
BRANCH  18  19
ATOM     19  C   UNL     1     -17.069   7.356  10.054  1.00  0.00     0.000 C 
BRANCH  19  20
ATOM     20  C   UNL     1     -16.253   8.604   9.668  1.00  0.00     0.006 C 
BRANCH  20  21
ATOM     21  C   UNL     1     -15.831   9.483  10.856  1.00  0.00     0.053 C 
BRANCH  21  22
ATOM     22  C   UNL     1     -14.620  10.309  10.546  1.00  0.00     0.041 C 
ATOM     23  O   UNL     1     -14.260  10.482   9.351  1.00  0.00    -0.550 OA
ATOM     24  O   UNL     1     -13.863  10.850  11.577  1.00  0.00    -0.550 OA
ENDBRANCH  21  22
ENDBRANCH  20  21
ENDBRANCH  19  20
ENDBRANCH  18  19
ENDBRANCH  17  18
ENDBRANCH  16  17
ENDBRANCH  15  16
ENDBRANCH  14  15
ENDBRANCH  13  14
ENDBRANCH   1  13
TORSDOF 20
ENDMDL
MODEL 2
REMARK VINA RESULT:    -2.086      4.199     10.360
REMARK INTER + INTRA:          -5.842
REMARK INTER:                  -5.124
REMARK INTRA:                  -0.717
REMARK UNBOUND:                -1.316
REMARK SMILES CCCCCCCCCCCCCCCCCCCCCC(=O)[O-]
REMARK SMILES IDX 12 1 11 2 10 3 9 4 8 5 7 6 6 7 5 8 4 9 3 10 2 11 1 12 13 13
REMARK SMILES IDX 14 14 15 15 16 16 17 17 18 18 19 19 20 20 21 21 22 22 23 23
REMARK SMILES IDX 24 24
REMARK H PARENT
REMARK Flexibility Score: inf
ROOT
ATOM      1  C   UNL     1     -21.784   5.566   9.293  1.00  0.00     0.000 C 
ENDROOT
BRANCH   1   2
ATOM      2  C   UNL     1     -20.378   6.155   9.078  1.00  0.00     0.000 C 
BRANCH   2   3
ATOM      3  C   UNL     1     -19.590   6.451  10.370  1.00  0.00     0.000 C 
BRANCH   3   4
ATOM      4  C   UNL     1     -18.106   6.815  10.165  1.00  0.00    -0.000 C 
BRANCH   4   5
ATOM      5  C   UNL     1     -17.820   8.322  10.029  1.00  0.00    -0.000 C 
BRANCH   5   6
ATOM      6  C   UNL     1     -16.334   8.626   9.789  1.00  0.00    -0.000 C 
BRANCH   6   7
ATOM      7  C   UNL     1     -15.790   9.586  10.859  1.00  0.00    -0.000 C 
BRANCH   7   8
ATOM      8  C   UNL     1     -14.660  10.482  10.330  1.00  0.00    -0.000 C 
BRANCH   8   9
ATOM      9  C   UNL     1     -13.826  11.110  11.458  1.00  0.00    -0.000 C 
BRANCH   9  10
ATOM     10  C   UNL     1     -14.165  10.470  12.812  1.00  0.00    -0.000 C 
BRANCH  10  11
ATOM     11  C   UNL     1     -13.151  10.833  13.908  1.00  0.00    -0.003 C 
ATOM     12  C   UNL     1     -11.717  10.457  13.533  1.00  0.00     0.004 C 
ENDBRANCH  10  11
ENDBRANCH   9  10
ENDBRANCH   8   9
ENDBRANCH   7   8
ENDBRANCH   6   7
ENDBRANCH   5   6
ENDBRANCH   4   5
ENDBRANCH   3   4
ENDBRANCH   2   3
ENDBRANCH   1   2
BRANCH   1  13
ATOM     13  C   UNL     1     -22.015   4.182   8.656  1.00  0.00     0.000 C 
BRANCH  13  14
ATOM     14  C   UNL     1     -21.828   3.005   9.635  1.00  0.00     0.000 C 
BRANCH  14  15
ATOM     15  C   UNL     1     -21.220   1.762   8.959  1.00  0.00     0.000 C 
BRANCH  15  16
ATOM     16  C   UNL     1     -20.526   2.095   7.628  1.00  0.00     0.000 C 
BRANCH  16  17
ATOM     17  C   UNL     1     -19.653   0.937   7.111  1.00  0.00     0.000 C 
BRANCH  17  18
ATOM     18  C   UNL     1     -20.477  -0.188   6.465  1.00  0.00     0.000 C 
BRANCH  18  19
ATOM     19  C   UNL     1     -20.582  -1.433   7.363  1.00  0.00     0.000 C 
BRANCH  19  20
ATOM     20  C   UNL     1     -20.039  -1.191   8.785  1.00  0.00     0.006 C 
BRANCH  20  21
ATOM     21  C   UNL     1     -19.916  -2.458   9.645  1.00  0.00     0.053 C 
BRANCH  21  22
ATOM     22  C   UNL     1     -19.430  -2.156  11.030  1.00  0.00     0.041 C 
ATOM     23  O   UNL     1     -18.195  -2.074  11.264  1.00  0.00    -0.550 OA
ATOM     24  O   UNL     1     -20.339  -2.013  12.071  1.00  0.00    -0.550 OA
ENDBRANCH  21  22
ENDBRANCH  20  21
ENDBRANCH  19  20
ENDBRANCH  18  19
ENDBRANCH  17  18
ENDBRANCH  16  17
ENDBRANCH  15  16
ENDBRANCH  14  15
ENDBRANCH  13  14
ENDBRANCH   1  13
TORSDOF 20
ENDMDL
MODEL 3
REMARK VINA RESULT:    -1.914      4.649     10.912
REMARK INTER + INTRA:          -5.468
REMARK INTER:                  -4.513
REMARK INTRA:                  -0.956
REMARK UNBOUND:                -1.316
REMARK SMILES CCCCCCCCCCCCCCCCCCCCCC(=O)[O-]
REMARK SMILES IDX 12 1 11 2 10 3 9 4 8 5 7 6 6 7 5 8 4 9 3 10 2 11 1 12 13 13
REMARK SMILES IDX 14 14 15 15 16 16 17 17 18 18 19 19 20 20 21 21 22 22 23 23
REMARK SMILES IDX 24 24
REMARK H PARENT
REMARK Flexibility Score: inf
ROOT
ATOM      1  C   UNL     1     -19.802   6.249  10.397  1.00  0.00     0.000 C 
ENDROOT
BRANCH   1   2
ATOM      2  C   UNL     1     -18.318   6.654  10.337  1.00  0.00     0.000 C 
BRANCH   2   3
ATOM      3  C   UNL     1     -18.056   8.098   9.864  1.00  0.00     0.000 C 
BRANCH   3   4
ATOM      4  C   UNL     1     -16.579   8.434   9.569  1.00  0.00    -0.000 C 
BRANCH   4   5
ATOM      5  C   UNL     1     -15.859   9.222  10.678  1.00  0.00    -0.000 C 
BRANCH   5   6
ATOM      6  C   UNL     1     -14.992  10.364  10.130  1.00  0.00    -0.000 C 
BRANCH   6   7
ATOM      7  C   UNL     1     -14.150  11.000  11.246  1.00  0.00    -0.000 C 
BRANCH   7   8
ATOM      8  C   UNL     1     -14.768  10.801  12.640  1.00  0.00    -0.000 C 
BRANCH   8   9
ATOM      9  C   UNL     1     -13.756  11.032  13.773  1.00  0.00    -0.000 C 
BRANCH   9  10
ATOM     10  C   UNL     1     -12.325  11.124  13.221  1.00  0.00    -0.000 C 
BRANCH  10  11
ATOM     11  C   UNL     1     -11.310  10.353  14.079  1.00  0.00    -0.003 C 
ATOM     12  C   UNL     1      -9.895  10.397  13.501  1.00  0.00     0.004 C 
ENDBRANCH  10  11
ENDBRANCH   9  10
ENDBRANCH   8   9
ENDBRANCH   7   8
ENDBRANCH   6   7
ENDBRANCH   5   6
ENDBRANCH   4   5
ENDBRANCH   3   4
ENDBRANCH   2   3
ENDBRANCH   1   2
BRANCH   1  13
ATOM     13  C   UNL     1     -20.371   5.664   9.089  1.00  0.00     0.000 C 
BRANCH  13  14
ATOM     14  C   UNL     1     -21.899   5.823   8.948  1.00  0.00     0.000 C 
BRANCH  14  15
ATOM     15  C   UNL     1     -22.603   4.498   8.600  1.00  0.00     0.000 C 
BRANCH  15  16
ATOM     16  C   UNL     1     -21.696   3.275   8.814  1.00  0.00     0.000 C 
BRANCH  16  17
ATOM     17  C   UNL     1     -21.145   2.709   7.493  1.00  0.00     0.000 C 
BRANCH  17  18
ATOM     18  C   UNL     1     -20.029   1.673   7.708  1.00  0.00     0.000 C 
BRANCH  18  19
ATOM     19  C   UNL     1     -20.241   0.397   6.876  1.00  0.00     0.000 C 
BRANCH  19  20
ATOM     20  C   UNL     1     -20.730  -0.793   7.723  1.00  0.00     0.006 C 
BRANCH  20  21
ATOM     21  C   UNL     1     -20.117  -0.871   9.129  1.00  0.00     0.053 C 
BRANCH  21  22
ATOM     22  C   UNL     1     -19.923  -2.286   9.584  1.00  0.00     0.041 C 
ATOM     23  O   UNL     1     -20.229  -2.621  10.759  1.00  0.00    -0.550 OA
ATOM     24  O   UNL     1     -19.361  -3.222   8.726  1.00  0.00    -0.550 OA
ENDBRANCH  21  22
ENDBRANCH  20  21
ENDBRANCH  19  20
ENDBRANCH  18  19
ENDBRANCH  17  18
ENDBRANCH  16  17
ENDBRANCH  15  16
ENDBRANCH  14  15
ENDBRANCH  13  14
ENDBRANCH   1  13
TORSDOF 20
ENDMDL
MODEL 4
REMARK VINA RESULT:    -1.870      3.831      9.865
REMARK INTER + INTRA:          -5.371
REMARK INTER:                  -4.592
REMARK INTRA:                  -0.779
REMARK UNBOUND:                -1.316
REMARK SMILES CCCCCCCCCCCCCCCCCCCCCC(=O)[O-]
REMARK SMILES IDX 12 1 11 2 10 3 9 4 8 5 7 6 6 7 5 8 4 9 3 10 2 11 1 12 13 13
REMARK SMILES IDX 14 14 15 15 16 16 17 17 18 18 19 19 20 20 21 21 22 22 23 23
REMARK SMILES IDX 24 24
REMARK H PARENT
REMARK Flexibility Score: inf
ROOT
ATOM      1  C   UNL     1     -21.479   3.152   8.842  1.00  0.00     0.000 C 
ENDROOT
BRANCH   1   2
ATOM      2  C   UNL     1     -22.216   4.500   8.731  1.00  0.00     0.000 C 
BRANCH   2   3
ATOM      3  C   UNL     1     -21.552   5.669   9.486  1.00  0.00     0.000 C 
BRANCH   3   4
ATOM      4  C   UNL     1     -20.046   5.857   9.207  1.00  0.00    -0.000 C 
BRANCH   4   5
ATOM      5  C   UNL     1     -19.249   6.503  10.356  1.00  0.00    -0.000 C 
BRANCH   5   6
ATOM      6  C   UNL     1     -18.423   7.714   9.900  1.00  0.00    -0.000 C 
BRANCH   6   7
ATOM      7  C   UNL     1     -16.927   7.489  10.164  1.00  0.00    -0.000 C 
BRANCH   7   8
ATOM      8  C   UNL     1     -16.065   8.689   9.741  1.00  0.00    -0.000 C 
BRANCH   8   9
ATOM      9  C   UNL     1     -15.806   9.668  10.897  1.00  0.00    -0.000 C 
BRANCH   9  10
ATOM     10  C   UNL     1     -14.619  10.590  10.580  1.00  0.00    -0.000 C 
BRANCH  10  11
ATOM     11  C   UNL     1     -13.931  11.123  11.846  1.00  0.00    -0.003 C 
ATOM     12  C   UNL     1     -14.344  10.364  13.107  1.00  0.00     0.004 C 
ENDBRANCH  10  11
ENDBRANCH   9  10
ENDBRANCH   8   9
ENDBRANCH   7   8
ENDBRANCH   6   7
ENDBRANCH   5   6
ENDBRANCH   4   5
ENDBRANCH   3   4
ENDBRANCH   2   3
ENDBRANCH   1   2
BRANCH   1  13
ATOM     13  C   UNL     1     -21.065   2.524   7.497  1.00  0.00     0.000 C 
BRANCH  13  14
ATOM     14  C   UNL     1     -20.038   1.380   7.632  1.00  0.00     0.000 C 
BRANCH  14  15
ATOM     15  C   UNL     1     -20.478   0.099   6.900  1.00  0.00     0.000 C 
BRANCH  15  16
ATOM     16  C   UNL     1     -20.245  -1.169   7.739  1.00  0.00     0.000 C 
BRANCH  16  17
ATOM     17  C   UNL     1     -20.384  -0.912   9.250  1.00  0.00     0.000 C 
BRANCH  17  18
ATOM     18  C   UNL     1     -19.957  -2.119  10.101  1.00  0.00     0.000 C 
BRANCH  18  19
ATOM     19  C   UNL     1     -19.849  -1.777  11.597  1.00  0.00     0.000 C 
BRANCH  19  20
ATOM     20  C   UNL     1     -20.992  -2.383  12.433  1.00  0.00     0.006 C 
BRANCH  20  21
ATOM     21  C   UNL     1     -21.058  -1.881  13.883  1.00  0.00     0.053 C 
BRANCH  21  22
ATOM     22  C   UNL     1     -20.923  -0.391  13.972  1.00  0.00     0.041 C 
ATOM     23  O   UNL     1     -20.336   0.135  14.955  1.00  0.00    -0.550 OA
ATOM     24  O   UNL     1     -21.486   0.419  12.994  1.00  0.00    -0.550 OA
ENDBRANCH  21  22
ENDBRANCH  20  21
ENDBRANCH  19  20
ENDBRANCH  18  19
ENDBRANCH  17  18
ENDBRANCH  16  17
ENDBRANCH  15  16
ENDBRANCH  14  15
ENDBRANCH  13  14
ENDBRANCH   1  13
TORSDOF 20
ENDMDL
MODEL 5
REMARK VINA RESULT:    -1.862      0.942      3.762
REMARK INTER + INTRA:          -5.355
REMARK INTER:                  -4.022
REMARK INTRA:                  -1.333
REMARK UNBOUND:                -1.316
REMARK SMILES CCCCCCCCCCCCCCCCCCCCCC(=O)[O-]
REMARK SMILES IDX 12 1 11 2 10 3 9 4 8 5 7 6 6 7 5 8 4 9 3 10 2 11 1 12 13 13
REMARK SMILES IDX 14 14 15 15 16 16 17 17 18 18 19 19 20 20 21 21 22 22 23 23
REMARK SMILES IDX 24 24
REMARK H PARENT
REMARK Flexibility Score: inf
ROOT
ATOM      1  C   UNL     1     -21.166   1.397  10.954  1.00  0.00     0.000 C 
ENDROOT
BRANCH   1   2
ATOM      2  C   UNL     1     -21.834   1.312  12.338  1.00  0.00     0.000 C 
BRANCH   2   3
ATOM      3  C   UNL     1     -20.856   1.221  13.528  1.00  0.00     0.000 C 
BRANCH   3   4
ATOM      4  C   UNL     1     -20.835  -0.139  14.256  1.00  0.00    -0.000 C 
BRANCH   4   5
ATOM      5  C   UNL     1     -21.170  -1.354  13.372  1.00  0.00    -0.000 C 
BRANCH   5   6
ATOM      6  C   UNL     1     -20.017  -1.748  12.438  1.00  0.00    -0.000 C 
BRANCH   6   7
ATOM      7  C   UNL     1     -20.545  -2.456  11.181  1.00  0.00    -0.000 C 
BRANCH   7   8
ATOM      8  C   UNL     1     -19.720  -2.125   9.926  1.00  0.00    -0.000 C 
BRANCH   8   9
ATOM      9  C   UNL     1     -20.331  -0.980   9.103  1.00  0.00    -0.000 C 
BRANCH   9  10
ATOM     10  C   UNL     1     -20.262  -1.288   7.600  1.00  0.00    -0.000 C 
BRANCH  10  11
ATOM     11  C   UNL     1     -20.534  -0.050   6.731  1.00  0.00    -0.003 C 
ATOM     12  C   UNL     1     -19.510   1.063   6.952  1.00  0.00     0.004 C 
ENDBRANCH  10  11
ENDBRANCH   9  10
ENDBRANCH   8   9
ENDBRANCH   7   8
ENDBRANCH   6   7
ENDBRANCH   5   6
ENDBRANCH   4   5
ENDBRANCH   3   4
ENDBRANCH   2   3
ENDBRANCH   1   2
BRANCH   1  13
ATOM     13  C   UNL     1     -21.983   2.144   9.881  1.00  0.00     0.000 C 
BRANCH  13  14
ATOM     14  C   UNL     1     -21.162   3.172   9.075  1.00  0.00     0.000 C 
BRANCH  14  15
ATOM     15  C   UNL     1     -21.954   4.458   8.774  1.00  0.00     0.000 C 
BRANCH  15  16
ATOM     16  C   UNL     1     -21.447   5.666   9.579  1.00  0.00     0.000 C 
BRANCH  16  17
ATOM     17  C   UNL     1     -20.056   6.140   9.120  1.00  0.00     0.000 C 
BRANCH  17  18
ATOM     18  C   UNL     1     -19.153   6.560  10.290  1.00  0.00     0.000 C 
BRANCH  18  19
ATOM     19  C   UNL     1     -18.404   7.875  10.015  1.00  0.00     0.000 C 
BRANCH  19  20
ATOM     20  C   UNL     1     -16.876   7.730  10.141  1.00  0.00     0.006 C 
BRANCH  20  21
ATOM     21  C   UNL     1     -16.073   8.900   9.553  1.00  0.00     0.053 C 
BRANCH  21  22
ATOM     22  C   UNL     1     -15.264   9.611  10.595  1.00  0.00     0.041 C 
ATOM     23  O   UNL     1     -15.561   9.497  11.814  1.00  0.00    -0.550 OA
ATOM     24  O   UNL     1     -14.213  10.436  10.218  1.00  0.00    -0.550 OA
ENDBRANCH  21  22
ENDBRANCH  20  21
ENDBRANCH  19  20
ENDBRANCH  18  19
ENDBRANCH  17  18
ENDBRANCH  16  17
ENDBRANCH  15  16
ENDBRANCH  14  15
ENDBRANCH  13  14
ENDBRANCH   1  13
TORSDOF 20
ENDMDL
MODEL 6
REMARK VINA RESULT:    -1.654      2.053      4.680
REMARK INTER + INTRA:          -4.904
REMARK INTER:                  -3.553
REMARK INTRA:                  -1.350
REMARK UNBOUND:                -1.316
REMARK SMILES CCCCCCCCCCCCCCCCCCCCCC(=O)[O-]
REMARK SMILES IDX 12 1 11 2 10 3 9 4 8 5 7 6 6 7 5 8 4 9 3 10 2 11 1 12 13 13
REMARK SMILES IDX 14 14 15 15 16 16 17 17 18 18 19 19 20 20 21 21 22 22 23 23
REMARK SMILES IDX 24 24
REMARK H PARENT
REMARK Flexibility Score: inf
ROOT
ATOM      1  C   UNL     1     -20.175   5.462   9.484  1.00  0.00     0.000 C 
ENDROOT
BRANCH   1   2
ATOM      2  C   UNL     1     -21.596   5.539   8.897  1.00  0.00     0.000 C 
BRANCH   2   3
ATOM      3  C   UNL     1     -22.311   4.181   8.742  1.00  0.00     0.000 C 
BRANCH   3   4
ATOM      4  C   UNL     1     -21.926   3.115   9.788  1.00  0.00    -0.000 C 
BRANCH   4   5
ATOM      5  C   UNL     1     -21.364   1.806   9.203  1.00  0.00    -0.000 C 
BRANCH   5   6
ATOM      6  C   UNL     1     -20.645   2.013   7.863  1.00  0.00    -0.000 C 
BRANCH   6   7
ATOM      7  C   UNL     1     -19.766   0.801   7.518  1.00  0.00    -0.000 C 
BRANCH   7   8
ATOM      8  C   UNL     1     -20.449  -0.165   6.536  1.00  0.00    -0.000 C 
BRANCH   8   9
ATOM      9  C   UNL     1     -20.800  -1.514   7.183  1.00  0.00    -0.000 C 
BRANCH   9  10
ATOM     10  C   UNL     1     -19.565  -2.145   7.842  1.00  0.00    -0.000 C 
BRANCH  10  11
ATOM     11  C   UNL     1     -19.837  -2.617   9.279  1.00  0.00    -0.003 C 
ATOM     12  C   UNL     1     -19.980  -1.457  10.265  1.00  0.00     0.004 C 
ENDBRANCH  10  11
ENDBRANCH   9  10
ENDBRANCH   8   9
ENDBRANCH   7   8
ENDBRANCH   6   7
ENDBRANCH   5   6
ENDBRANCH   4   5
ENDBRANCH   3   4
ENDBRANCH   2   3
ENDBRANCH   1   2
BRANCH   1  13
ATOM     13  C   UNL     1     -19.739   6.694  10.301  1.00  0.00     0.000 C 
BRANCH  13  14
ATOM     14  C   UNL     1     -18.217   6.780  10.538  1.00  0.00     0.000 C 
BRANCH  14  15
ATOM     15  C   UNL     1     -17.571   7.975   9.813  1.00  0.00     0.000 C 
BRANCH  15  16
ATOM     16  C   UNL     1     -16.146   8.268  10.312  1.00  0.00     0.000 C 
BRANCH  16  17
ATOM     17  C   UNL     1     -15.585   9.589   9.757  1.00  0.00     0.000 C 
BRANCH  17  18
ATOM     18  C   UNL     1     -14.791  10.386  10.805  1.00  0.00     0.000 C 
BRANCH  18  19
ATOM     19  C   UNL     1     -14.937   9.807  12.222  1.00  0.00     0.000 C 
BRANCH  19  20
ATOM     20  C   UNL     1     -14.190  10.635  13.285  1.00  0.00     0.006 C 
BRANCH  20  21
ATOM     21  C   UNL     1     -12.790  11.104  12.861  1.00  0.00     0.053 C 
BRANCH  21  22
ATOM     22  C   UNL     1     -11.708  10.459  13.673  1.00  0.00     0.041 C 
ATOM     23  O   UNL     1     -10.498  10.640  13.373  1.00  0.00    -0.550 OA
ATOM     24  O   UNL     1     -12.036   9.622  14.731  1.00  0.00    -0.550 OA
ENDBRANCH  21  22
ENDBRANCH  20  21
ENDBRANCH  19  20
ENDBRANCH  18  19
ENDBRANCH  17  18
ENDBRANCH  16  17
ENDBRANCH  15  16
ENDBRANCH  14  15
ENDBRANCH  13  14
ENDBRANCH   1  13
TORSDOF 20
ENDMDL
MODEL 7
REMARK VINA RESULT:    -1.652      3.757      9.597
REMARK INTER + INTRA:          -4.899
REMARK INTER:                  -3.850
REMARK INTRA:                  -1.049
REMARK UNBOUND:                -1.316
REMARK SMILES CCCCCCCCCCCCCCCCCCCCCC(=O)[O-]
REMARK SMILES IDX 12 1 11 2 10 3 9 4 8 5 7 6 6 7 5 8 4 9 3 10 2 11 1 12 13 13
REMARK SMILES IDX 14 14 15 15 16 16 17 17 18 18 19 19 20 20 21 21 22 22 23 23
REMARK SMILES IDX 24 24
REMARK H PARENT
REMARK Flexibility Score: inf
ROOT
ATOM      1  C   UNL     1     -22.093   2.249  10.377  1.00  0.00     0.000 C 
ENDROOT
BRANCH   1   2
ATOM      2  C   UNL     1     -21.531   2.785   9.047  1.00  0.00     0.000 C 
BRANCH   2   3
ATOM      3  C   UNL     1     -21.852   4.265   8.754  1.00  0.00     0.000 C 
BRANCH   3   4
ATOM      4  C   UNL     1     -21.292   5.272   9.779  1.00  0.00    -0.000 C 
BRANCH   4   5
ATOM      5  C   UNL     1     -20.211   6.223   9.232  1.00  0.00    -0.000 C 
BRANCH   5   6
ATOM      6  C   UNL     1     -19.094   6.500  10.247  1.00  0.00    -0.000 C 
BRANCH   6   7
ATOM      7  C   UNL     1     -18.342   7.794   9.897  1.00  0.00    -0.000 C 
BRANCH   7   8
ATOM      8  C   UNL     1     -16.831   7.690  10.159  1.00  0.00    -0.000 C 
BRANCH   8   9
ATOM      9  C   UNL     1     -16.067   8.950   9.721  1.00  0.00    -0.000 C 
BRANCH   9  10
ATOM     10  C   UNL     1     -15.503   9.699  10.937  1.00  0.00    -0.000 C 
BRANCH  10  11
ATOM     11  C   UNL     1     -14.633  10.901  10.539  1.00  0.00    -0.003 C 
ATOM     12  C   UNL     1     -13.288  10.922  11.264  1.00  0.00     0.004 C 
ENDBRANCH  10  11
ENDBRANCH   9  10
ENDBRANCH   8   9
ENDBRANCH   7   8
ENDBRANCH   6   7
ENDBRANCH   5   6
ENDBRANCH   4   5
ENDBRANCH   3   4
ENDBRANCH   2   3
ENDBRANCH   1   2
BRANCH   1  13
ATOM     13  C   UNL     1     -21.142   1.324  11.161  1.00  0.00     0.000 C 
BRANCH  13  14
ATOM     14  C   UNL     1     -21.419   1.285  12.678  1.00  0.00     0.000 C 
BRANCH  14  15
ATOM     15  C   UNL     1     -21.605  -0.148  13.210  1.00  0.00     0.000 C 
BRANCH  15  16
ATOM     16  C   UNL     1     -20.373  -1.033  12.964  1.00  0.00     0.000 C 
BRANCH  16  17
ATOM     17  C   UNL     1     -20.566  -2.001  11.783  1.00  0.00     0.000 C 
BRANCH  17  18
ATOM     18  C   UNL     1     -19.536  -1.787  10.662  1.00  0.00     0.000 C 
BRANCH  18  19
ATOM     19  C   UNL     1     -19.637  -2.852   9.558  1.00  0.00     0.000 C 
BRANCH  19  20
ATOM     20  C   UNL     1     -19.988  -2.255   8.182  1.00  0.00     0.006 C 
BRANCH  20  21
ATOM     21  C   UNL     1     -20.335  -0.758   8.206  1.00  0.00     0.053 C 
BRANCH  21  22
ATOM     22  C   UNL     1     -20.192  -0.123   6.856  1.00  0.00     0.041 C 
ATOM     23  O   UNL     1     -19.239  -0.450   6.100  1.00  0.00    -0.550 OA
ATOM     24  O   UNL     1     -21.082   0.864   6.452  1.00  0.00    -0.550 OA
ENDBRANCH  21  22
ENDBRANCH  20  21
ENDBRANCH  19  20
ENDBRANCH  18  19
ENDBRANCH  17  18
ENDBRANCH  16  17
ENDBRANCH  15  16
ENDBRANCH  14  15
ENDBRANCH  13  14
ENDBRANCH   1  13
TORSDOF 20
ENDMDL
MODEL 8
REMARK VINA RESULT:    -1.632      5.540      8.038
REMARK INTER + INTRA:          -4.857
REMARK INTER:                  -3.127
REMARK INTRA:                  -1.730
REMARK UNBOUND:                -1.316
REMARK SMILES CCCCCCCCCCCCCCCCCCCCCC(=O)[O-]
REMARK SMILES IDX 12 1 11 2 10 3 9 4 8 5 7 6 6 7 5 8 4 9 3 10 2 11 1 12 13 13
REMARK SMILES IDX 14 14 15 15 16 16 17 17 18 18 19 19 20 20 21 21 22 22 23 23
REMARK SMILES IDX 24 24
REMARK H PARENT
REMARK Flexibility Score: inf
ROOT
ATOM      1  C   UNL     1     -20.007  -2.008  12.242  1.00  0.00     0.000 C 
ENDROOT
BRANCH   1   2
ATOM      2  C   UNL     1     -20.457  -2.165  10.778  1.00  0.00     0.000 C 
BRANCH   2   3
ATOM      3  C   UNL     1     -19.314  -2.363   9.763  1.00  0.00     0.000 C 
BRANCH   3   4
ATOM      4  C   UNL     1     -19.597  -3.393   8.650  1.00  0.00    -0.000 C 
BRANCH   4   5
ATOM      5  C   UNL     1     -18.655  -4.611   8.637  1.00  0.00    -0.000 C 
BRANCH   5   6
ATOM      6  C   UNL     1     -19.398  -5.940   8.830  1.00  0.00    -0.000 C 
BRANCH   6   7
ATOM      7  C   UNL     1     -20.827  -5.856   8.273  1.00  0.00    -0.000 C 
BRANCH   7   8
ATOM      8  C   UNL     1     -21.875  -6.424   9.244  1.00  0.00    -0.000 C 
BRANCH   8   9
ATOM      9  C   UNL     1     -22.561  -7.687   8.700  1.00  0.00    -0.000 C 
BRANCH   9  10
ATOM     10  C   UNL     1     -24.046  -7.425   8.413  1.00  0.00    -0.000 C 
BRANCH  10  11
ATOM     11  C   UNL     1     -24.793  -8.689   7.959  1.00  0.00    -0.003 C 
ATOM     12  C   UNL     1     -25.873  -9.125   8.949  1.00  0.00     0.004 C 
ENDBRANCH  10  11
ENDBRANCH   9  10
ENDBRANCH   8   9
ENDBRANCH   7   8
ENDBRANCH   6   7
ENDBRANCH   5   6
ENDBRANCH   4   5
ENDBRANCH   3   4
ENDBRANCH   2   3
ENDBRANCH   1   2
BRANCH   1  13
ATOM     13  C   UNL     1     -21.112  -2.236  13.292  1.00  0.00     0.000 C 
BRANCH  13  14
ATOM     14  C   UNL     1     -21.569  -0.947  14.007  1.00  0.00     0.000 C 
BRANCH  14  15
ATOM     15  C   UNL     1     -20.574   0.214  13.830  1.00  0.00     0.000 C 
BRANCH  15  16
ATOM     16  C   UNL     1     -21.215   1.445  13.168  1.00  0.00     0.000 C 
BRANCH  16  17
ATOM     17  C   UNL     1     -21.512   1.225  11.674  1.00  0.00     0.000 C 
BRANCH  17  18
ATOM     18  C   UNL     1     -21.485   2.531  10.863  1.00  0.00     0.000 C 
BRANCH  18  19
ATOM     19  C   UNL     1     -21.553   2.285   9.346  1.00  0.00     0.000 C 
BRANCH  19  20
ATOM     20  C   UNL     1     -20.864   0.974   8.922  1.00  0.00     0.006 C 
BRANCH  20  21
ATOM     21  C   UNL     1     -20.032   1.077   7.634  1.00  0.00     0.053 C 
BRANCH  21  22
ATOM     22  C   UNL     1     -20.126  -0.164   6.800  1.00  0.00     0.041 C 
ATOM     23  O   UNL     1     -19.319  -0.351   5.850  1.00  0.00    -0.550 OA
ATOM     24  O   UNL     1     -21.132  -1.091   7.040  1.00  0.00    -0.550 OA
ENDBRANCH  21  22
ENDBRANCH  20  21
ENDBRANCH  19  20
ENDBRANCH  18  19
ENDBRANCH  17  18
ENDBRANCH  16  17
ENDBRANCH  15  16
ENDBRANCH  14  15
ENDBRANCH  13  14
ENDBRANCH   1  13
TORSDOF 20
ENDMDL
MODEL 9
REMARK VINA RESULT:    -1.376      4.157     10.248
REMARK INTER + INTRA:          -4.301
REMARK INTER:                  -3.259
REMARK INTRA:                  -1.042
REMARK UNBOUND:                -1.316
REMARK SMILES CCCCCCCCCCCCCCCCCCCCCC(=O)[O-]
REMARK SMILES IDX 12 1 11 2 10 3 9 4 8 5 7 6 6 7 5 8 4 9 3 10 2 11 1 12 13 13
REMARK SMILES IDX 14 14 15 15 16 16 17 17 18 18 19 19 20 20 21 21 22 22 23 23
REMARK SMILES IDX 24 24
REMARK H PARENT
REMARK Flexibility Score: inf
ROOT
ATOM      1  C   UNL     1     -20.876   5.478   8.952  1.00  0.00     0.000 C 
ENDROOT
BRANCH   1   2
ATOM      2  C   UNL     1     -20.632   5.873  10.420  1.00  0.00     0.000 C 
BRANCH   2   3
ATOM      3  C   UNL     1     -19.164   6.187  10.775  1.00  0.00     0.000 C 
BRANCH   3   4
ATOM      4  C   UNL     1     -18.481   7.231   9.868  1.00  0.00    -0.000 C 
BRANCH   4   5
ATOM      5  C   UNL     1     -17.044   7.606  10.278  1.00  0.00    -0.000 C 
BRANCH   5   6
ATOM      6  C   UNL     1     -16.557   8.904   9.619  1.00  0.00    -0.000 C 
BRANCH   6   7
ATOM      7  C   UNL     1     -15.144   9.267  10.100  1.00  0.00    -0.000 C 
BRANCH   7   8
ATOM      8  C   UNL     1     -14.954  10.781  10.288  1.00  0.00    -0.000 C 
BRANCH   8   9
ATOM      9  C   UNL     1     -14.174  11.125  11.566  1.00  0.00    -0.000 C 
BRANCH   9  10
ATOM     10  C   UNL     1     -14.763  10.394  12.782  1.00  0.00    -0.000 C 
BRANCH  10  11
ATOM     11  C   UNL     1     -13.886  10.531  14.036  1.00  0.00    -0.003 C 
ATOM     12  C   UNL     1     -12.428  10.849  13.705  1.00  0.00     0.004 C 
ENDBRANCH  10  11
ENDBRANCH   9  10
ENDBRANCH   8   9
ENDBRANCH   7   8
ENDBRANCH   6   7
ENDBRANCH   5   6
ENDBRANCH   4   5
ENDBRANCH   3   4
ENDBRANCH   2   3
ENDBRANCH   1   2
BRANCH   1  13
ATOM     13  C   UNL     1     -21.897   4.343   8.743  1.00  0.00     0.000 C 
BRANCH  13  14
ATOM     14  C   UNL     1     -21.301   2.929   8.908  1.00  0.00     0.000 C 
BRANCH  14  15
ATOM     15  C   UNL     1     -20.649   2.407   7.615  1.00  0.00     0.000 C 
BRANCH  15  16
ATOM     16  C   UNL     1     -20.462   0.881   7.623  1.00  0.00     0.000 C 
BRANCH  16  17
ATOM     17  C   UNL     1     -20.637   0.272   9.026  1.00  0.00     0.000 C 
BRANCH  17  18
ATOM     18  C   UNL     1     -20.426  -1.251   9.045  1.00  0.00     0.000 C 
BRANCH  18  19
ATOM     19  C   UNL     1     -19.924  -1.760  10.407  1.00  0.00     0.000 C 
BRANCH  19  20
ATOM     20  C   UNL     1     -20.266  -0.804  11.565  1.00  0.00     0.006 C 
BRANCH  20  21
ATOM     21  C   UNL     1     -20.703  -1.503  12.862  1.00  0.00     0.053 C 
BRANCH  21  22
ATOM     22  C   UNL     1     -21.132  -0.526  13.914  1.00  0.00     0.041 C 
ATOM     23  O   UNL     1     -21.578  -0.938  15.018  1.00  0.00    -0.550 OA
ATOM     24  O   UNL     1     -21.083   0.839  13.659  1.00  0.00    -0.550 OA
ENDBRANCH  21  22
ENDBRANCH  20  21
ENDBRANCH  19  20
ENDBRANCH  18  19
ENDBRANCH  17  18
ENDBRANCH  16  17
ENDBRANCH  15  16
ENDBRANCH  14  15
ENDBRANCH  13  14
ENDBRANCH   1  13
TORSDOF 20
ENDMDL
