MODEL 1
REMARK VINA RESULT:    -4.496      0.000      0.000
REMARK INTER + INTRA:         -10.797
REMARK INTER:                  -8.701
REMARK INTRA:                  -2.096
REMARK UNBOUND:                -2.096
REMARK SMILES CCCCCCCCCCCCCCCCCC(=O)[O-]
REMARK SMILES IDX 10 1 11 2 12 3 13 4 14 5 15 6 16 7 17 8 18 9 19 10 20 11
REMARK SMILES IDX 9 12 8 13 7 14 6 15 5 16 4 17 3 18 2 19 1 20
REMARK H PARENT
REMARK Flexibility Score: inf
ROOT
ATOM      1  C   UNL     1     -11.103   2.879  20.282  1.00  0.00     0.000 C 
ENDROOT
BRANCH   1   2
ATOM      2  C   UNL     1     -12.613   3.128  20.440  1.00  0.00     0.000 C 
BRANCH   2   3
ATOM      3  C   UNL     1     -13.192   3.974  19.291  1.00  0.00     0.000 C 
BRANCH   3   4
ATOM      4  C   UNL     1     -12.120   4.812  18.575  1.00  0.00     0.000 C 
BRANCH   4   5
ATOM      5  C   UNL     1     -11.980   4.450  17.086  1.00  0.00     0.000 C 
BRANCH   5   6
ATOM      6  C   UNL     1     -12.716   3.149  16.723  1.00  0.00     0.000 C 
BRANCH   6   7
ATOM      7  C   UNL     1     -11.789   2.107  16.073  1.00  0.00     0.006 C 
BRANCH   7   8
ATOM      8  C   UNL     1     -12.572   0.927  15.478  1.00  0.00     0.053 C 
BRANCH   8   9
ATOM      9  C   UNL     1     -11.894   0.362  14.267  1.00  0.00     0.041 C 
ATOM     10  O   UNL     1     -10.673   0.591  14.061  1.00  0.00    -0.550 OA
ATOM     11  O   UNL     1     -12.618  -0.390  13.352  1.00  0.00    -0.550 OA
ENDBRANCH   8   9
ENDBRANCH   7   8
ENDBRANCH   6   7
ENDBRANCH   5   6
ENDBRANCH   4   5
ENDBRANCH   3   4
ENDBRANCH   2   3
ENDBRANCH   1   2
BRANCH   1  12
ATOM     12  C   UNL     1     -10.798   1.534  19.599  1.00  0.00     0.000 C 
BRANCH  12  13
ATOM     13  C   UNL     1      -9.297   1.197  19.611  1.00  0.00    -0.000 C 
BRANCH  13  14
ATOM     14  C   UNL     1      -9.028  -0.315  19.704  1.00  0.00    -0.000 C 
BRANCH  14  15
ATOM     15  C   UNL     1      -9.502  -0.919  21.043  1.00  0.00    -0.000 C 
BRANCH  15  16
ATOM     16  C   UNL     1      -8.420  -0.924  22.140  1.00  0.00    -0.000 C 
BRANCH  16  17
ATOM     17  C   UNL     1      -8.891  -0.424  23.518  1.00  0.00    -0.000 C 
BRANCH  17  18
ATOM     18  C   UNL     1      -9.932   0.715  23.479  1.00  0.00    -0.000 C 
BRANCH  18  19
ATOM     19  C   UNL     1     -11.342   0.323  23.953  1.00  0.00    -0.003 C 
ATOM     20  C   UNL     1     -12.384   0.377  22.837  1.00  0.00     0.004 C 
ENDBRANCH  18  19
ENDBRANCH  17  18
ENDBRANCH  16  17
ENDBRANCH  15  16
ENDBRANCH  14  15
ENDBRANCH  13  14
ENDBRANCH  12  13
ENDBRANCH   1  12
TORSDOF 16
ENDMDL
MODEL 2
REMARK VINA RESULT:    -4.456      2.817      4.366
REMARK INTER + INTRA:         -10.719
REMARK INTER:                  -8.215
REMARK INTRA:                  -2.504
REMARK UNBOUND:                -2.096
REMARK SMILES CCCCCCCCCCCCCCCCCC(=O)[O-]
REMARK SMILES IDX 10 1 11 2 12 3 13 4 14 5 15 6 16 7 17 8 18 9 19 10 20 11
REMARK SMILES IDX 9 12 8 13 7 14 6 15 5 16 4 17 3 18 2 19 1 20
REMARK H PARENT
REMARK Flexibility Score: inf
ROOT
ATOM      1  C   UNL     1     -12.199   2.985  20.559  1.00  0.00     0.000 C 
ENDROOT
BRANCH   1   2
ATOM      2  C   UNL     1     -11.716   4.376  20.112  1.00  0.00     0.000 C 
BRANCH   2   3
ATOM      3  C   UNL     1     -12.467   4.888  18.871  1.00  0.00     0.000 C 
BRANCH   3   4
ATOM      4  C   UNL     1     -11.519   5.291  17.729  1.00  0.00     0.000 C 
BRANCH   4   5
ATOM      5  C   UNL     1     -11.579   4.321  16.536  1.00  0.00     0.000 C 
BRANCH   5   6
ATOM      6  C   UNL     1     -12.593   3.184  16.751  1.00  0.00     0.000 C 
BRANCH   6   7
ATOM      7  C   UNL     1     -12.042   1.812  16.322  1.00  0.00     0.006 C 
BRANCH   7   8
ATOM      8  C   UNL     1     -10.909   1.939  15.295  1.00  0.00     0.053 C 
BRANCH   8   9
ATOM      9  C   UNL     1     -10.744   0.687  14.489  1.00  0.00     0.041 C 
ATOM     10  O   UNL     1      -9.640   0.081  14.480  1.00  0.00    -0.550 OA
ATOM     11  O   UNL     1     -11.799   0.207  13.724  1.00  0.00    -0.550 OA
ENDBRANCH   8   9
ENDBRANCH   7   8
ENDBRANCH   6   7
ENDBRANCH   5   6
ENDBRANCH   4   5
ENDBRANCH   3   4
ENDBRANCH   2   3
ENDBRANCH   1   2
BRANCH   1  12
ATOM     12  C   UNL     1     -11.281   1.855  20.061  1.00  0.00     0.000 C 
BRANCH  12  13
ATOM     13  C   UNL     1      -9.802   2.273  20.024  1.00  0.00    -0.000 C 
BRANCH  13  14
ATOM     14  C   UNL     1      -9.221   2.277  18.599  1.00  0.00    -0.000 C 
BRANCH  14  15
ATOM     15  C   UNL     1      -7.909   3.087  18.498  1.00  0.00    -0.000 C 
BRANCH  15  16
ATOM     16  C   UNL     1      -8.048   4.552  18.954  1.00  0.00    -0.000 C 
BRANCH  16  17
ATOM     17  C   UNL     1      -7.048   4.991  20.039  1.00  0.00    -0.000 C 
BRANCH  17  18
ATOM     18  C   UNL     1      -5.811   5.753  19.519  1.00  0.00    -0.000 C 
BRANCH  18  19
ATOM     19  C   UNL     1      -4.518   4.924  19.450  1.00  0.00    -0.003 C 
ATOM     20  C   UNL     1      -4.394   4.116  18.159  1.00  0.00     0.004 C 
ENDBRANCH  18  19
ENDBRANCH  17  18
ENDBRANCH  16  17
ENDBRANCH  15  16
ENDBRANCH  14  15
ENDBRANCH  13  14
ENDBRANCH  12  13
ENDBRANCH   1  12
TORSDOF 16
ENDMDL
MODEL 3
REMARK VINA RESULT:    -4.397      3.984      7.052
REMARK INTER + INTRA:         -10.605
REMARK INTER:                  -8.402
REMARK INTRA:                  -2.202
REMARK UNBOUND:                -2.096
REMARK SMILES CCCCCCCCCCCCCCCCCC(=O)[O-]
REMARK SMILES IDX 10 1 11 2 12 3 13 4 14 5 15 6 16 7 17 8 18 9 19 10 20 11
REMARK SMILES IDX 9 12 8 13 7 14 6 15 5 16 4 17 3 18 2 19 1 20
REMARK H PARENT
REMARK Flexibility Score: inf
ROOT
ATOM      1  C   UNL     1     -11.685   3.394  20.056  1.00  0.00     0.000 C 
ENDROOT
BRANCH   1   2
ATOM      2  C   UNL     1     -11.662   1.899  19.694  1.00  0.00     0.000 C 
BRANCH   2   3
ATOM      3  C   UNL     1     -10.256   1.412  19.298  1.00  0.00     0.000 C 
BRANCH   3   4
ATOM      4  C   UNL     1      -9.150   2.397  19.712  1.00  0.00     0.000 C 
BRANCH   4   5
ATOM      5  C   UNL     1      -8.329   2.905  18.514  1.00  0.00     0.000 C 
BRANCH   5   6
ATOM      6  C   UNL     1      -8.029   4.411  18.600  1.00  0.00     0.000 C 
BRANCH   6   7
ATOM      7  C   UNL     1      -6.847   4.727  19.534  1.00  0.00     0.006 C 
BRANCH   7   8
ATOM      8  C   UNL     1      -5.497   4.355  18.905  1.00  0.00     0.053 C 
BRANCH   8   9
ATOM      9  C   UNL     1      -4.942   5.472  18.075  1.00  0.00     0.041 C 
ATOM     10  O   UNL     1      -3.926   5.281  17.355  1.00  0.00    -0.550 OA
ATOM     11  O   UNL     1      -5.528   6.730  18.119  1.00  0.00    -0.550 OA
ENDBRANCH   8   9
ENDBRANCH   7   8
ENDBRANCH   6   7
ENDBRANCH   5   6
ENDBRANCH   4   5
ENDBRANCH   3   4
ENDBRANCH   2   3
ENDBRANCH   1   2
BRANCH   1  12
ATOM     12  C   UNL     1     -12.016   4.287  18.847  1.00  0.00     0.000 C 
BRANCH  12  13
ATOM     13  C   UNL     1     -13.099   3.673  17.943  1.00  0.00    -0.000 C 
BRANCH  13  14
ATOM     14  C   UNL     1     -12.555   3.252  16.566  1.00  0.00    -0.000 C 
BRANCH  14  15
ATOM     15  C   UNL     1     -11.108   3.735  16.329  1.00  0.00    -0.000 C 
BRANCH  15  16
ATOM     16  C   UNL     1     -10.320   2.869  15.328  1.00  0.00    -0.000 C 
BRANCH  16  17
ATOM     17  C   UNL     1     -10.320   1.360  15.636  1.00  0.00    -0.000 C 
BRANCH  17  18
ATOM     18  C   UNL     1     -10.795   0.457  14.478  1.00  0.00    -0.000 C 
BRANCH  18  19
ATOM     19  C   UNL     1     -12.322   0.333  14.335  1.00  0.00    -0.003 C 
ATOM     20  C   UNL     1     -12.756  -0.979  13.682  1.00  0.00     0.004 C 
ENDBRANCH  18  19
ENDBRANCH  17  18
ENDBRANCH  16  17
ENDBRANCH  15  16
ENDBRANCH  14  15
ENDBRANCH  13  14
ENDBRANCH  12  13
ENDBRANCH   1  12
TORSDOF 16
ENDMDL
MODEL 4
REMARK VINA RESULT:    -4.207      1.240      1.673
REMARK INTER + INTRA:         -10.239
REMARK INTER:                  -8.267
REMARK INTRA:                  -1.971
REMARK UNBOUND:                -2.096
REMARK SMILES CCCCCCCCCCCCCCCCCC(=O)[O-]
REMARK SMILES IDX 10 1 11 2 12 3 13 4 14 5 15 6 16 7 17 8 18 9 19 10 20 11
REMARK SMILES IDX 9 12 8 13 7 14 6 15 5 16 4 17 3 18 2 19 1 20
REMARK H PARENT
REMARK Flexibility Score: inf
ROOT
ATOM      1  C   UNL     1     -10.150   4.340  20.118  1.00  0.00     0.000 C 
ENDROOT
BRANCH   1   2
ATOM      2  C   UNL     1     -11.657   4.056  19.987  1.00  0.00     0.000 C 
BRANCH   2   3
ATOM      3  C   UNL     1     -12.264   4.678  18.717  1.00  0.00     0.000 C 
BRANCH   3   4
ATOM      4  C   UNL     1     -13.145   3.688  17.937  1.00  0.00     0.000 C 
BRANCH   4   5
ATOM      5  C   UNL     1     -12.350   2.876  16.899  1.00  0.00     0.000 C 
BRANCH   5   6
ATOM      6  C   UNL     1     -11.241   3.703  16.226  1.00  0.00     0.000 C 
BRANCH   6   7
ATOM      7  C   UNL     1     -10.148   2.823  15.593  1.00  0.00     0.006 C 
BRANCH   7   8
ATOM      8  C   UNL     1     -10.463   1.326  15.725  1.00  0.00     0.053 C 
BRANCH   8   9
ATOM      9  C   UNL     1     -10.406   0.625  14.402  1.00  0.00     0.041 C 
ATOM     10  O   UNL     1     -11.457   0.163  13.884  1.00  0.00    -0.550 OA
ATOM     11  O   UNL     1      -9.189   0.457  13.755  1.00  0.00    -0.550 OA
ENDBRANCH   8   9
ENDBRANCH   7   8
ENDBRANCH   6   7
ENDBRANCH   5   6
ENDBRANCH   4   5
ENDBRANCH   3   4
ENDBRANCH   2   3
ENDBRANCH   1   2
BRANCH   1  12
ATOM     12  C   UNL     1      -9.300   3.060  20.024  1.00  0.00     0.000 C 
BRANCH  12  13
ATOM     13  C   UNL     1     -10.144   1.818  19.693  1.00  0.00    -0.000 C 
BRANCH  13  14
ATOM     14  C   UNL     1      -9.353   0.506  19.838  1.00  0.00    -0.000 C 
BRANCH  14  15
ATOM     15  C   UNL     1      -9.870  -0.370  21.000  1.00  0.00    -0.000 C 
BRANCH  15  16
ATOM     16  C   UNL     1      -8.750  -0.989  21.858  1.00  0.00    -0.000 C 
BRANCH  16  17
ATOM     17  C   UNL     1      -8.726  -0.523  23.325  1.00  0.00    -0.000 C 
BRANCH  17  18
ATOM     18  C   UNL     1      -9.089   0.960  23.547  1.00  0.00    -0.000 C 
BRANCH  18  19
ATOM     19  C   UNL     1     -10.322   1.202  24.434  1.00  0.00    -0.003 C 
ATOM     20  C   UNL     1     -10.911  -0.089  25.002  1.00  0.00     0.004 C 
ENDBRANCH  18  19
ENDBRANCH  17  18
ENDBRANCH  16  17
ENDBRANCH  15  16
ENDBRANCH  14  15
ENDBRANCH  13  14
ENDBRANCH  12  13
ENDBRANCH   1  12
TORSDOF 16
ENDMDL
MODEL 5
REMARK VINA RESULT:    -4.205      1.554      3.426
REMARK INTER + INTRA:         -10.233
REMARK INTER:                  -7.697
REMARK INTRA:                  -2.536
REMARK UNBOUND:                -2.096
REMARK SMILES CCCCCCCCCCCCCCCCCC(=O)[O-]
REMARK SMILES IDX 10 1 11 2 12 3 13 4 14 5 15 6 16 7 17 8 18 9 19 10 20 11
REMARK SMILES IDX 9 12 8 13 7 14 6 15 5 16 4 17 3 18 2 19 1 20
REMARK H PARENT
REMARK Flexibility Score: inf
ROOT
ATOM      1  C   UNL     1     -13.621   2.902  21.221  1.00  0.00     0.000 C 
ENDROOT
BRANCH   1   2
ATOM      2  C   UNL     1     -13.830   4.095  20.272  1.00  0.00     0.000 C 
BRANCH   2   3
ATOM      3  C   UNL     1     -12.506   4.778  19.887  1.00  0.00     0.000 C 
BRANCH   3   4
ATOM      4  C   UNL     1     -12.296   4.848  18.366  1.00  0.00     0.000 C 
BRANCH   4   5
ATOM      5  C   UNL     1     -12.794   3.586  17.639  1.00  0.00     0.000 C 
BRANCH   5   6
ATOM      6  C   UNL     1     -12.008   3.299  16.349  1.00  0.00     0.000 C 
BRANCH   6   7
ATOM      7  C   UNL     1     -11.568   1.828  16.239  1.00  0.00     0.006 C 
BRANCH   7   8
ATOM      8  C   UNL     1     -12.558   0.988  15.419  1.00  0.00     0.053 C 
BRANCH   8   9
ATOM      9  C   UNL     1     -11.886   0.298  14.272  1.00  0.00     0.041 C 
ATOM     10  O   UNL     1     -10.699   0.589  13.965  1.00  0.00    -0.550 OA
ATOM     11  O   UNL     1     -12.579  -0.645  13.524  1.00  0.00    -0.550 OA
ENDBRANCH   8   9
ENDBRANCH   7   8
ENDBRANCH   6   7
ENDBRANCH   5   6
ENDBRANCH   4   5
ENDBRANCH   3   4
ENDBRANCH   2   3
ENDBRANCH   1   2
BRANCH   1  12
ATOM     12  C   UNL     1     -12.733   3.257  22.426  1.00  0.00     0.000 C 
BRANCH  12  13
ATOM     13  C   UNL     1     -11.814   2.096  22.841  1.00  0.00    -0.000 C 
BRANCH  13  14
ATOM     14  C   UNL     1     -12.093   0.806  22.049  1.00  0.00    -0.000 C 
BRANCH  14  15
ATOM     15  C   UNL     1     -10.923   0.420  21.117  1.00  0.00    -0.000 C 
BRANCH  15  16
ATOM     16  C   UNL     1     -10.890   1.218  19.800  1.00  0.00    -0.000 C 
BRANCH  16  17
ATOM     17  C   UNL     1      -9.488   1.674  19.354  1.00  0.00    -0.000 C 
BRANCH  17  18
ATOM     18  C   UNL     1      -9.166   3.158  19.629  1.00  0.00    -0.000 C 
BRANCH  18  19
ATOM     19  C   UNL     1      -8.135   3.786  18.676  1.00  0.00    -0.003 C 
ATOM     20  C   UNL     1      -8.767   4.718  17.642  1.00  0.00     0.004 C 
ENDBRANCH  18  19
ENDBRANCH  17  18
ENDBRANCH  16  17
ENDBRANCH  15  16
ENDBRANCH  14  15
ENDBRANCH  13  14
ENDBRANCH  12  13
ENDBRANCH   1  12
TORSDOF 16
ENDMDL
MODEL 6
REMARK VINA RESULT:    -4.202      3.769      5.830
REMARK INTER + INTRA:         -10.228
REMARK INTER:                  -7.254
REMARK INTRA:                  -2.975
REMARK UNBOUND:                -2.096
REMARK SMILES CCCCCCCCCCCCCCCCCC(=O)[O-]
REMARK SMILES IDX 10 1 11 2 12 3 13 4 14 5 15 6 16 7 17 8 18 9 19 10 20 11
REMARK SMILES IDX 9 12 8 13 7 14 6 15 5 16 4 17 3 18 2 19 1 20
REMARK H PARENT
REMARK Flexibility Score: inf
ROOT
ATOM      1  C   UNL     1     -13.102   3.815  18.224  1.00  0.00     0.000 C 
ENDROOT
BRANCH   1   2
ATOM      2  C   UNL     1     -12.156   4.640  19.113  1.00  0.00     0.000 C 
BRANCH   2   3
ATOM      3  C   UNL     1     -11.343   5.670  18.309  1.00  0.00     0.000 C 
BRANCH   3   4
ATOM      4  C   UNL     1      -9.879   5.758  18.770  1.00  0.00     0.000 C 
BRANCH   4   5
ATOM      5  C   UNL     1      -9.690   5.325  20.235  1.00  0.00     0.000 C 
BRANCH   5   6
ATOM      6  C   UNL     1      -8.250   4.881  20.539  1.00  0.00     0.000 C 
BRANCH   6   7
ATOM      7  C   UNL     1      -7.260   5.286  19.432  1.00  0.00     0.006 C 
BRANCH   7   8
ATOM      8  C   UNL     1      -6.335   4.128  19.032  1.00  0.00     0.053 C 
BRANCH   8   9
ATOM      9  C   UNL     1      -4.901   4.558  18.964  1.00  0.00     0.041 C 
ATOM     10  O   UNL     1      -4.135   4.072  18.090  1.00  0.00    -0.550 OA
ATOM     11  O   UNL     1      -4.404   5.471  19.884  1.00  0.00    -0.550 OA
ENDBRANCH   8   9
ENDBRANCH   7   8
ENDBRANCH   6   7
ENDBRANCH   5   6
ENDBRANCH   4   5
ENDBRANCH   3   4
ENDBRANCH   2   3
ENDBRANCH   1   2
BRANCH   1  12
ATOM     12  C   UNL     1     -12.561   3.640  16.793  1.00  0.00     0.000 C 
BRANCH  12  13
ATOM     13  C   UNL     1     -12.444   2.162  16.386  1.00  0.00    -0.000 C 
BRANCH  13  14
ATOM     14  C   UNL     1     -11.004   1.758  16.024  1.00  0.00    -0.000 C 
BRANCH  14  15
ATOM     15  C   UNL     1      -9.985   2.884  16.304  1.00  0.00    -0.000 C 
BRANCH  15  16
ATOM     16  C   UNL     1      -9.095   2.623  17.534  1.00  0.00    -0.000 C 
BRANCH  16  17
ATOM     17  C   UNL     1      -9.464   1.368  18.347  1.00  0.00    -0.000 C 
BRANCH  17  18
ATOM     18  C   UNL     1      -9.899   1.638  19.803  1.00  0.00    -0.000 C 
BRANCH  18  19
ATOM     19  C   UNL     1     -11.309   1.141  20.162  1.00  0.00    -0.003 C 
ATOM     20  C   UNL     1     -11.449   0.750  21.633  1.00  0.00     0.004 C 
ENDBRANCH  18  19
ENDBRANCH  17  18
ENDBRANCH  16  17
ENDBRANCH  15  16
ENDBRANCH  14  15
ENDBRANCH  13  14
ENDBRANCH  12  13
ENDBRANCH   1  12
TORSDOF 16
ENDMDL
MODEL 7
REMARK VINA RESULT:    -4.199      1.600      2.838
REMARK INTER + INTRA:         -10.222
REMARK INTER:                  -7.584
REMARK INTRA:                  -2.639
REMARK UNBOUND:                -2.096
REMARK SMILES CCCCCCCCCCCCCCCCCC(=O)[O-]
REMARK SMILES IDX 10 1 11 2 12 3 13 4 14 5 15 6 16 7 17 8 18 9 19 10 20 11
REMARK SMILES IDX 9 12 8 13 7 14 6 15 5 16 4 17 3 18 2 19 1 20
REMARK H PARENT
REMARK Flexibility Score: inf
ROOT
ATOM      1  C   UNL     1      -8.735   3.867  17.896  1.00  0.00     0.000 C 
ENDROOT
BRANCH   1   2
ATOM      2  C   UNL     1      -9.473   5.103  17.353  1.00  0.00     0.000 C 
BRANCH   2   3
ATOM      3  C   UNL     1     -10.872   5.270  17.971  1.00  0.00     0.000 C 
BRANCH   3   4
ATOM      4  C   UNL     1     -11.991   4.758  17.049  1.00  0.00     0.000 C 
BRANCH   4   5
ATOM      5  C   UNL     1     -12.695   3.508  17.606  1.00  0.00     0.000 C 
BRANCH   5   6
ATOM      6  C   UNL     1     -12.014   2.202  17.167  1.00  0.00     0.000 C 
BRANCH   6   7
ATOM      7  C   UNL     1     -11.452   2.279  15.736  1.00  0.00     0.006 C 
BRANCH   7   8
ATOM      8  C   UNL     1     -10.174   1.445  15.570  1.00  0.00     0.053 C 
BRANCH   8   9
ATOM      9  C   UNL     1     -10.245   0.550  14.370  1.00  0.00     0.041 C 
ATOM     10  O   UNL     1      -9.193   0.236  13.752  1.00  0.00    -0.550 OA
ATOM     11  O   UNL     1     -11.473   0.088  13.917  1.00  0.00    -0.550 OA
ENDBRANCH   8   9
ENDBRANCH   7   8
ENDBRANCH   6   7
ENDBRANCH   5   6
ENDBRANCH   4   5
ENDBRANCH   3   4
ENDBRANCH   2   3
ENDBRANCH   1   2
BRANCH   1  12
ATOM     12  C   UNL     1      -8.673   3.847  19.434  1.00  0.00     0.000 C 
BRANCH  12  13
ATOM     13  C   UNL     1      -9.456   2.670  20.038  1.00  0.00    -0.000 C 
BRANCH  13  14
ATOM     14  C   UNL     1     -10.245   3.065  21.299  1.00  0.00    -0.000 C 
BRANCH  14  15
ATOM     15  C   UNL     1     -11.631   2.388  21.364  1.00  0.00    -0.000 C 
BRANCH  15  16
ATOM     16  C   UNL     1     -11.716   1.069  20.574  1.00  0.00    -0.000 C 
BRANCH  16  17
ATOM     17  C   UNL     1     -11.374  -0.195  21.385  1.00  0.00    -0.000 C 
BRANCH  17  18
ATOM     18  C   UNL     1      -9.980  -0.796  21.101  1.00  0.00    -0.000 C 
BRANCH  18  19
ATOM     19  C   UNL     1      -8.921  -0.519  22.181  1.00  0.00    -0.003 C 
ATOM     20  C   UNL     1      -9.522  -0.006  23.489  1.00  0.00     0.004 C 
ENDBRANCH  18  19
ENDBRANCH  17  18
ENDBRANCH  16  17
ENDBRANCH  15  16
ENDBRANCH  14  15
ENDBRANCH  13  14
ENDBRANCH  12  13
ENDBRANCH   1  12
TORSDOF 16
ENDMDL
MODEL 8
REMARK VINA RESULT:    -4.112      1.433      2.404
REMARK INTER + INTRA:         -10.055
REMARK INTER:                  -7.567
REMARK INTRA:                  -2.488
REMARK UNBOUND:                -2.096
REMARK SMILES CCCCCCCCCCCCCCCCCC(=O)[O-]
REMARK SMILES IDX 10 1 11 2 12 3 13 4 14 5 15 6 16 7 17 8 18 9 19 10 20 11
REMARK SMILES IDX 9 12 8 13 7 14 6 15 5 16 4 17 3 18 2 19 1 20
REMARK H PARENT
REMARK Flexibility Score: inf
ROOT
ATOM      1  C   UNL     1     -11.926   1.074  21.349  1.00  0.00     0.000 C 
ENDROOT
BRANCH   1   2
ATOM      2  C   UNL     1     -11.059   2.329  21.150  1.00  0.00     0.000 C 
BRANCH   2   3
ATOM      3  C   UNL     1     -11.873   3.630  21.264  1.00  0.00     0.000 C 
BRANCH   3   4
ATOM      4  C   UNL     1     -13.383   3.401  21.085  1.00  0.00     0.000 C 
BRANCH   4   5
ATOM      5  C   UNL     1     -13.927   4.018  19.784  1.00  0.00     0.000 C 
BRANCH   5   6
ATOM      6  C   UNL     1     -12.809   4.407  18.802  1.00  0.00     0.000 C 
BRANCH   6   7
ATOM      7  C   UNL     1     -12.871   3.607  17.489  1.00  0.00     0.006 C 
BRANCH   7   8
ATOM      8  C   UNL     1     -11.893   2.424  17.486  1.00  0.00     0.053 C 
BRANCH   8   9
ATOM      9  C   UNL     1     -11.687   1.874  16.108  1.00  0.00     0.041 C 
ATOM     10  O   UNL     1     -10.705   2.252  15.416  1.00  0.00    -0.550 OA
ATOM     11  O   UNL     1     -12.595   0.967  15.577  1.00  0.00    -0.550 OA
ENDBRANCH   8   9
ENDBRANCH   7   8
ENDBRANCH   6   7
ENDBRANCH   5   6
ENDBRANCH   4   5
ENDBRANCH   3   4
ENDBRANCH   2   3
ENDBRANCH   1   2
BRANCH   1  12
ATOM     12  C   UNL     1     -11.110  -0.228  21.252  1.00  0.00     0.000 C 
BRANCH  12  13
ATOM     13  C   UNL     1      -9.598   0.035  21.145  1.00  0.00    -0.000 C 
BRANCH  13  14
ATOM     14  C   UNL     1      -8.765  -0.937  22.000  1.00  0.00    -0.000 C 
BRANCH  14  15
ATOM     15  C   UNL     1      -8.842  -0.613  23.508  1.00  0.00    -0.000 C 
BRANCH  15  16
ATOM     16  C   UNL     1      -8.810   0.895  23.821  1.00  0.00    -0.000 C 
BRANCH  16  17
ATOM     17  C   UNL     1     -10.019   1.418  24.618  1.00  0.00    -0.000 C 
BRANCH  17  18
ATOM     18  C   UNL     1     -11.085   0.355  24.960  1.00  0.00    -0.000 C 
BRANCH  18  19
ATOM     19  C   UNL     1     -12.529   0.881  25.029  1.00  0.00    -0.003 C 
ATOM     20  C   UNL     1     -13.549  -0.095  24.445  1.00  0.00     0.004 C 
ENDBRANCH  18  19
ENDBRANCH  17  18
ENDBRANCH  16  17
ENDBRANCH  15  16
ENDBRANCH  14  15
ENDBRANCH  13  14
ENDBRANCH  12  13
ENDBRANCH   1  12
TORSDOF 16
ENDMDL
MODEL 9
REMARK VINA RESULT:    -4.107      1.454      2.731
REMARK INTER + INTRA:         -10.045
REMARK INTER:                  -7.828
REMARK INTRA:                  -2.217
REMARK UNBOUND:                -2.096
REMARK SMILES CCCCCCCCCCCCCCCCCC(=O)[O-]
REMARK SMILES IDX 10 1 11 2 12 3 13 4 14 5 15 6 16 7 17 8 18 9 19 10 20 11
REMARK SMILES IDX 9 12 8 13 7 14 6 15 5 16 4 17 3 18 2 19 1 20
REMARK H PARENT
REMARK Flexibility Score: inf
ROOT
ATOM      1  C   UNL     1      -9.466   2.505  20.007  1.00  0.00     0.000 C 
ENDROOT
BRANCH   1   2
ATOM      2  C   UNL     1      -9.778   3.592  18.964  1.00  0.00     0.000 C 
BRANCH   2   3
ATOM      3  C   UNL     1     -11.246   4.051  19.015  1.00  0.00     0.000 C 
BRANCH   3   4
ATOM      4  C   UNL     1     -11.785   4.465  17.636  1.00  0.00     0.000 C 
BRANCH   4   5
ATOM      5  C   UNL     1     -12.879   3.515  17.117  1.00  0.00     0.000 C 
BRANCH   5   6
ATOM      6  C   UNL     1     -12.300   2.266  16.432  1.00  0.00     0.000 C 
BRANCH   6   7
ATOM      7  C   UNL     1     -11.017   2.568  15.638  1.00  0.00     0.006 C 
BRANCH   7   8
ATOM      8  C   UNL     1     -10.042   1.381  15.641  1.00  0.00     0.053 C 
BRANCH   8   9
ATOM      9  C   UNL     1     -10.153   0.566  14.389  1.00  0.00     0.041 C 
ATOM     10  O   UNL     1      -9.123   0.300  13.714  1.00  0.00    -0.550 OA
ATOM     11  O   UNL     1     -11.396   0.126  13.952  1.00  0.00    -0.550 OA
ENDBRANCH   8   9
ENDBRANCH   7   8
ENDBRANCH   6   7
ENDBRANCH   5   6
ENDBRANCH   4   5
ENDBRANCH   3   4
ENDBRANCH   2   3
ENDBRANCH   1   2
BRANCH   1  12
ATOM     12  C   UNL     1      -9.482   1.089  19.404  1.00  0.00     0.000 C 
BRANCH  12  13
ATOM     13  C   UNL     1      -9.463  -0.008  20.481  1.00  0.00    -0.000 C 
BRANCH  13  14
ATOM     14  C   UNL     1     -10.288   0.366  21.726  1.00  0.00    -0.000 C 
BRANCH  14  15
ATOM     15  C   UNL     1     -11.805   0.178  21.507  1.00  0.00    -0.000 C 
BRANCH  15  16
ATOM     16  C   UNL     1     -12.636   0.278  22.801  1.00  0.00    -0.000 C 
BRANCH  16  17
ATOM     17  C   UNL     1     -13.431   1.586  22.961  1.00  0.00    -0.000 C 
BRANCH  17  18
ATOM     18  C   UNL     1     -13.313   2.572  21.779  1.00  0.00    -0.000 C 
BRANCH  18  19
ATOM     19  C   UNL     1     -12.870   3.995  22.162  1.00  0.00    -0.003 C 
ATOM     20  C   UNL     1     -11.488   4.036  22.811  1.00  0.00     0.004 C 
ENDBRANCH  18  19
ENDBRANCH  17  18
ENDBRANCH  16  17
ENDBRANCH  15  16
ENDBRANCH  14  15
ENDBRANCH  13  14
ENDBRANCH  12  13
ENDBRANCH   1  12
TORSDOF 16
ENDMDL
