MODEL 1
REMARK VINA RESULT:    -3.635      0.000      0.000
REMARK INTER + INTRA:          -5.994
REMARK INTER:                  -5.547
REMARK INTRA:                  -0.447
REMARK UNBOUND:                -0.447
REMARK SMILES CCCCCCCCCCC(=O)[O-]
REMARK SMILES IDX 7 1 8 2 9 3 10 4 11 5 12 6 13 7 6 8 5 9 4 10 3 11 2 12 1 13
REMARK H PARENT
REMARK Flexibility Score: inf
ROOT
ATOM      1  C   UNL     1      -2.287  41.028  97.187  1.00  0.00     0.000 C 
ENDROOT
BRANCH   1   2
ATOM      2  C   UNL     1      -2.909  41.918  96.100  1.00  0.00     0.000 C 
BRANCH   2   3
ATOM      3  C   UNL     1      -2.991  43.395  96.520  1.00  0.00     0.006 C 
BRANCH   3   4
ATOM      4  C   UNL     1      -2.757  44.355  95.347  1.00  0.00     0.053 C 
BRANCH   4   5
ATOM      5  C   UNL     1      -1.878  45.490  95.769  1.00  0.00     0.041 C 
ATOM      6  O   UNL     1      -1.069  46.003  94.951  1.00  0.00    -0.550 OA
ATOM      7  O   UNL     1      -1.985  46.014  97.050  1.00  0.00    -0.550 OA
ENDBRANCH   4   5
ENDBRANCH   3   4
ENDBRANCH   2   3
ENDBRANCH   1   2
BRANCH   1   8
ATOM      8  C   UNL     1      -2.030  39.611  96.652  1.00  0.00     0.000 C 
BRANCH   8   9
ATOM      9  C   UNL     1      -1.250  39.609  95.327  1.00  0.00    -0.000 C 
BRANCH   9  10
ATOM     10  C   UNL     1      -1.035  38.195  94.768  1.00  0.00    -0.000 C 
BRANCH  10  11
ATOM     11  C   UNL     1      -1.454  38.119  93.291  1.00  0.00    -0.000 C 
BRANCH  11  12
ATOM     12  C   UNL     1      -1.488  39.498  92.616  1.00  0.00    -0.003 C 
ATOM     13  C   UNL     1      -1.191  39.432  91.118  1.00  0.00     0.004 C 
ENDBRANCH  11  12
ENDBRANCH  10  11
ENDBRANCH   9  10
ENDBRANCH   8   9
ENDBRANCH   1   8
TORSDOF 9
ENDMDL
MODEL 2
REMARK VINA RESULT:    -3.607     13.850     15.895
REMARK INTER + INTRA:          -5.952
REMARK INTER:                  -4.696
REMARK INTRA:                  -1.256
REMARK UNBOUND:                -0.447
REMARK SMILES CCCCCCCCCCC(=O)[O-]
REMARK SMILES IDX 7 1 8 2 9 3 10 4 11 5 12 6 13 7 6 8 5 9 4 10 3 11 2 12 1 13
REMARK H PARENT
REMARK Flexibility Score: inf
ROOT
ATOM      1  C   UNL     1      -7.657  31.933 105.795  1.00  0.00     0.000 C 
ENDROOT
BRANCH   1   2
ATOM      2  C   UNL     1      -7.207  31.290 104.474  1.00  0.00     0.000 C 
BRANCH   2   3
ATOM      3  C   UNL     1      -5.929  31.930 103.910  1.00  0.00     0.006 C 
BRANCH   3   4
ATOM      4  C   UNL     1      -4.871  30.890 103.518  1.00  0.00     0.053 C 
BRANCH   4   5
ATOM      5  C   UNL     1      -3.655  31.565 102.967  1.00  0.00     0.041 C 
ATOM      6  O   UNL     1      -3.049  31.071 101.979  1.00  0.00    -0.550 OA
ATOM      7  O   UNL     1      -3.218  32.766 103.511  1.00  0.00    -0.550 OA
ENDBRANCH   4   5
ENDBRANCH   3   4
ENDBRANCH   2   3
ENDBRANCH   1   2
BRANCH   1   8
ATOM      8  C   UNL     1      -8.028  30.858 106.828  1.00  0.00     0.000 C 
BRANCH   8   9
ATOM      9  C   UNL     1      -7.553  29.453 106.420  1.00  0.00    -0.000 C 
BRANCH   9  10
ATOM     10  C   UNL     1      -6.692  28.782 107.501  1.00  0.00    -0.000 C 
BRANCH  10  11
ATOM     11  C   UNL     1      -5.636  29.757 108.044  1.00  0.00    -0.000 C 
BRANCH  11  12
ATOM     12  C   UNL     1      -4.470  29.969 107.067  1.00  0.00    -0.003 C 
ATOM     13  C   UNL     1      -3.920  31.395 107.102  1.00  0.00     0.004 C 
ENDBRANCH  11  12
ENDBRANCH  10  11
ENDBRANCH   9  10
ENDBRANCH   8   9
ENDBRANCH   1   8
TORSDOF 9
ENDMDL
MODEL 3
REMARK VINA RESULT:    -3.447     17.082     17.813
REMARK INTER + INTRA:          -5.708
REMARK INTER:                  -4.741
REMARK INTRA:                  -0.967
REMARK UNBOUND:                -0.447
REMARK SMILES CCCCCCCCCCC(=O)[O-]
REMARK SMILES IDX 7 1 8 2 9 3 10 4 11 5 12 6 13 7 6 8 5 9 4 10 3 11 2 12 1 13
REMARK H PARENT
REMARK Flexibility Score: inf
ROOT
ATOM      1  C   UNL     1     -18.914  41.534  93.648  1.00  0.00     0.000 C 
ENDROOT
BRANCH   1   2
ATOM      2  C   UNL     1     -17.992  40.457  94.238  1.00  0.00     0.000 C 
BRANCH   2   3
ATOM      3  C   UNL     1     -17.399  40.864  95.596  1.00  0.00     0.006 C 
BRANCH   3   4
ATOM      4  C   UNL     1     -18.389  41.659  96.458  1.00  0.00     0.053 C 
BRANCH   4   5
ATOM      5  C   UNL     1     -18.951  40.793  97.541  1.00  0.00     0.041 C 
ATOM      6  O   UNL     1     -18.625  39.579  97.614  1.00  0.00    -0.550 OA
ATOM      7  O   UNL     1     -19.795  41.337  98.500  1.00  0.00    -0.550 OA
ENDBRANCH   4   5
ENDBRANCH   3   4
ENDBRANCH   2   3
ENDBRANCH   1   2
BRANCH   1   8
ATOM      8  C   UNL     1     -20.288  40.944  93.294  1.00  0.00     0.000 C 
BRANCH   8   9
ATOM      9  C   UNL     1     -20.553  39.598  93.989  1.00  0.00    -0.000 C 
BRANCH   9  10
ATOM     10  C   UNL     1     -21.009  38.505  93.011  1.00  0.00    -0.000 C 
BRANCH  10  11
ATOM     11  C   UNL     1     -19.879  37.498  92.749  1.00  0.00    -0.000 C 
BRANCH  11  12
ATOM     12  C   UNL     1     -19.541  37.364  91.256  1.00  0.00    -0.003 C 
ATOM     13  C   UNL     1     -19.195  38.703  90.604  1.00  0.00     0.004 C 
ENDBRANCH  11  12
ENDBRANCH  10  11
ENDBRANCH   9  10
ENDBRANCH   8   9
ENDBRANCH   1   8
TORSDOF 9
ENDMDL
MODEL 4
REMARK VINA RESULT:    -3.440     14.269     16.201
REMARK INTER + INTRA:          -5.697
REMARK INTER:                  -4.399
REMARK INTRA:                  -1.298
REMARK UNBOUND:                -0.447
REMARK SMILES CCCCCCCCCCC(=O)[O-]
REMARK SMILES IDX 7 1 8 2 9 3 10 4 11 5 12 6 13 7 6 8 5 9 4 10 3 11 2 12 1 13
REMARK H PARENT
REMARK Flexibility Score: inf
ROOT
ATOM      1  C   UNL     1      -5.872  29.025 107.536  1.00  0.00     0.000 C 
ENDROOT
BRANCH   1   2
ATOM      2  C   UNL     1      -5.817  29.947 108.763  1.00  0.00     0.000 C 
BRANCH   2   3
ATOM      3  C   UNL     1      -5.067  31.260 108.484  1.00  0.00     0.006 C 
BRANCH   3   4
ATOM      4  C   UNL     1      -4.042  31.125 107.349  1.00  0.00     0.053 C 
BRANCH   4   5
ATOM      5  C   UNL     1      -3.717  32.469 106.778  1.00  0.00     0.041 C 
ATOM      6  O   UNL     1      -4.580  33.386 106.784  1.00  0.00    -0.550 OA
ATOM      7  O   UNL     1      -2.445  32.726 106.284  1.00  0.00    -0.550 OA
ENDBRANCH   4   5
ENDBRANCH   3   4
ENDBRANCH   2   3
ENDBRANCH   1   2
BRANCH   1   8
ATOM      8  C   UNL     1      -7.309  28.905 107.006  1.00  0.00     0.000 C 
BRANCH   8   9
ATOM      9  C   UNL     1      -7.482  29.532 105.613  1.00  0.00    -0.000 C 
BRANCH   9  10
ATOM     10  C   UNL     1      -7.533  31.067 105.656  1.00  0.00    -0.000 C 
BRANCH  10  11
ATOM     11  C   UNL     1      -6.684  31.676 104.529  1.00  0.00    -0.000 C 
BRANCH  11  12
ATOM     12  C   UNL     1      -5.712  30.661 103.908  1.00  0.00    -0.003 C 
ATOM     13  C   UNL     1      -4.436  31.313 103.375  1.00  0.00     0.004 C 
ENDBRANCH  11  12
ENDBRANCH  10  11
ENDBRANCH   9  10
ENDBRANCH   8   9
ENDBRANCH   1   8
TORSDOF 9
ENDMDL
MODEL 5
REMARK VINA RESULT:    -3.434     17.206     18.332
REMARK INTER + INTRA:          -5.688
REMARK INTER:                  -4.679
REMARK INTRA:                  -1.008
REMARK UNBOUND:                -0.447
REMARK SMILES CCCCCCCCCCC(=O)[O-]
REMARK SMILES IDX 7 1 8 2 9 3 10 4 11 5 12 6 13 7 6 8 5 9 4 10 3 11 2 12 1 13
REMARK H PARENT
REMARK Flexibility Score: inf
ROOT
ATOM      1  C   UNL     1     -18.011  40.674  93.709  1.00  0.00     0.000 C 
ENDROOT
BRANCH   1   2
ATOM      2  C   UNL     1     -19.409  41.255  93.451  1.00  0.00     0.000 C 
BRANCH   2   3
ATOM      3  C   UNL     1     -20.395  40.208  92.907  1.00  0.00     0.006 C 
BRANCH   3   4
ATOM      4  C   UNL     1     -19.804  38.792  92.892  1.00  0.00     0.053 C 
BRANCH   4   5
ATOM      5  C   UNL     1     -19.608  38.323  91.485  1.00  0.00     0.041 C 
ATOM      6  O   UNL     1     -19.086  39.087  90.630  1.00  0.00    -0.550 OA
ATOM      7  O   UNL     1     -19.956  37.027  91.129  1.00  0.00    -0.550 OA
ENDBRANCH   4   5
ENDBRANCH   3   4
ENDBRANCH   2   3
ENDBRANCH   1   2
BRANCH   1   8
ATOM      8  C   UNL     1     -17.313  41.418  94.858  1.00  0.00     0.000 C 
BRANCH   8   9
ATOM      9  C   UNL     1     -17.625  40.809  96.235  1.00  0.00    -0.000 C 
BRANCH   9  10
ATOM     10  C   UNL     1     -18.670  41.618  97.019  1.00  0.00    -0.000 C 
BRANCH  10  11
ATOM     11  C   UNL     1     -19.460  40.713  97.976  1.00  0.00    -0.000 C 
BRANCH  11  12
ATOM     12  C   UNL     1     -19.666  39.298  97.415  1.00  0.00    -0.003 C 
ATOM     13  C   UNL     1     -20.897  39.191  96.515  1.00  0.00     0.004 C 
ENDBRANCH  11  12
ENDBRANCH  10  11
ENDBRANCH   9  10
ENDBRANCH   8   9
ENDBRANCH   1   8
TORSDOF 9
ENDMDL
MODEL 6
REMARK VINA RESULT:    -3.431     16.910     17.799
REMARK INTER + INTRA:          -5.684
REMARK INTER:                  -4.860
REMARK INTRA:                  -0.823
REMARK UNBOUND:                -0.447
REMARK SMILES CCCCCCCCCCC(=O)[O-]
REMARK SMILES IDX 7 1 8 2 9 3 10 4 11 5 12 6 13 7 6 8 5 9 4 10 3 11 2 12 1 13
REMARK H PARENT
REMARK Flexibility Score: inf
ROOT
ATOM      1  C   UNL     1     -20.348  40.995  93.373  1.00  0.00     0.000 C 
ENDROOT
BRANCH   1   2
ATOM      2  C   UNL     1     -20.572  39.867  92.355  1.00  0.00     0.000 C 
BRANCH   2   3
ATOM      3  C   UNL     1     -19.264  39.171  91.945  1.00  0.00     0.006 C 
BRANCH   3   4
ATOM      4  C   UNL     1     -19.257  38.748  90.470  1.00  0.00     0.053 C 
BRANCH   4   5
ATOM      5  C   UNL     1     -19.522  37.281  90.346  1.00  0.00     0.041 C 
ATOM      6  O   UNL     1     -19.860  36.611  91.357  1.00  0.00    -0.550 OA
ATOM      7  O   UNL     1     -19.446  36.663  89.105  1.00  0.00    -0.550 OA
ENDBRANCH   4   5
ENDBRANCH   3   4
ENDBRANCH   2   3
ENDBRANCH   1   2
BRANCH   1   8
ATOM      8  C   UNL     1     -18.847  41.255  93.580  1.00  0.00     0.000 C 
BRANCH   8   9
ATOM      9  C   UNL     1     -18.472  41.421  95.061  1.00  0.00    -0.000 C 
BRANCH   9  10
ATOM     10  C   UNL     1     -17.002  41.077  95.343  1.00  0.00    -0.000 C 
BRANCH  10  11
ATOM     11  C   UNL     1     -16.648  39.688  94.790  1.00  0.00    -0.000 C 
BRANCH  11  12
ATOM     12  C   UNL     1     -15.393  39.707  93.903  1.00  0.00    -0.003 C 
ATOM     13  C   UNL     1     -15.593  38.974  92.577  1.00  0.00     0.004 C 
ENDBRANCH  11  12
ENDBRANCH  10  11
ENDBRANCH   9  10
ENDBRANCH   8   9
ENDBRANCH   1   8
TORSDOF 9
ENDMDL
MODEL 7
REMARK VINA RESULT:    -3.401     17.476     18.580
REMARK INTER + INTRA:          -5.638
REMARK INTER:                  -4.841
REMARK INTRA:                  -0.797
REMARK UNBOUND:                -0.447
REMARK SMILES CCCCCCCCCCC(=O)[O-]
REMARK SMILES IDX 7 1 8 2 9 3 10 4 11 5 12 6 13 7 6 8 5 9 4 10 3 11 2 12 1 13
REMARK H PARENT
REMARK Flexibility Score: inf
ROOT
ATOM      1  C   UNL     1     -20.230  39.229  93.560  1.00  0.00     0.000 C 
ENDROOT
BRANCH   1   2
ATOM      2  C   UNL     1     -19.987  38.271  92.384  1.00  0.00     0.000 C 
BRANCH   2   3
ATOM      3  C   UNL     1     -19.110  38.894  91.285  1.00  0.00     0.006 C 
BRANCH   3   4
ATOM      4  C   UNL     1     -19.429  38.340  89.890  1.00  0.00     0.053 C 
BRANCH   4   5
ATOM      5  C   UNL     1     -19.144  36.873  89.833  1.00  0.00     0.041 C 
ATOM      6  O   UNL     1     -20.057  36.061  89.527  1.00  0.00    -0.550 OA
ATOM      7  O   UNL     1     -17.858  36.404  90.069  1.00  0.00    -0.550 OA
ENDBRANCH   4   5
ENDBRANCH   3   4
ENDBRANCH   2   3
ENDBRANCH   1   2
BRANCH   1   8
ATOM      8  C   UNL     1     -20.183  40.692  93.093  1.00  0.00     0.000 C 
BRANCH   8   9
ATOM      9  C   UNL     1     -19.264  41.563  93.964  1.00  0.00    -0.000 C 
BRANCH   9  10
ATOM     10  C   UNL     1     -17.848  40.981  94.099  1.00  0.00    -0.000 C 
BRANCH  10  11
ATOM     11  C   UNL     1     -17.329  41.132  95.537  1.00  0.00    -0.000 C 
BRANCH  11  12
ATOM     12  C   UNL     1     -18.429  41.559  96.521  1.00  0.00    -0.003 C 
ATOM     13  C   UNL     1     -18.839  40.437  97.475  1.00  0.00     0.004 C 
ENDBRANCH  11  12
ENDBRANCH  10  11
ENDBRANCH   9  10
ENDBRANCH   8   9
ENDBRANCH   1   8
TORSDOF 9
ENDMDL
MODEL 8
REMARK VINA RESULT:    -3.365     17.240     18.217
REMARK INTER + INTRA:          -5.583
REMARK INTER:                  -4.501
REMARK INTRA:                  -1.082
REMARK UNBOUND:                -0.447
REMARK SMILES CCCCCCCCCCC(=O)[O-]
REMARK SMILES IDX 7 1 8 2 9 3 10 4 11 5 12 6 13 7 6 8 5 9 4 10 3 11 2 12 1 13
REMARK H PARENT
REMARK Flexibility Score: inf
ROOT
ATOM      1  C   UNL     1     -20.948  39.099  93.868  1.00  0.00     0.000 C 
ENDROOT
BRANCH   1   2
ATOM      2  C   UNL     1     -20.472  39.963  92.691  1.00  0.00     0.000 C 
BRANCH   2   3
ATOM      3  C   UNL     1     -19.076  39.561  92.188  1.00  0.00     0.006 C 
BRANCH   3   4
ATOM      4  C   UNL     1     -19.095  39.049  90.742  1.00  0.00     0.053 C 
BRANCH   4   5
ATOM      5  C   UNL     1     -19.318  37.569  90.716  1.00  0.00     0.041 C 
ATOM      6  O   UNL     1     -19.681  37.003  89.651  1.00  0.00    -0.550 OA
ATOM      7  O   UNL     1     -19.075  36.809  91.852  1.00  0.00    -0.550 OA
ENDBRANCH   4   5
ENDBRANCH   3   4
ENDBRANCH   2   3
ENDBRANCH   1   2
BRANCH   1   8
ATOM      8  C   UNL     1     -19.781  38.771  94.813  1.00  0.00     0.000 C 
BRANCH   8   9
ATOM      9  C   UNL     1     -19.868  39.528  96.148  1.00  0.00    -0.000 C 
BRANCH   9  10
ATOM     10  C   UNL     1     -18.575  40.287  96.484  1.00  0.00    -0.000 C 
BRANCH  10  11
ATOM     11  C   UNL     1     -18.303  41.390  95.450  1.00  0.00    -0.000 C 
BRANCH  11  12
ATOM     12  C   UNL     1     -16.908  41.274  94.816  1.00  0.00    -0.003 C 
ATOM     13  C   UNL     1     -16.068  40.156  95.434  1.00  0.00     0.004 C 
ENDBRANCH  11  12
ENDBRANCH  10  11
ENDBRANCH   9  10
ENDBRANCH   8   9
ENDBRANCH   1   8
TORSDOF 9
ENDMDL
MODEL 9
REMARK VINA RESULT:    -3.364     14.251     16.313
REMARK INTER + INTRA:          -5.582
REMARK INTER:                  -4.214
REMARK INTRA:                  -1.368
REMARK UNBOUND:                -0.447
REMARK SMILES CCCCCCCCCCC(=O)[O-]
REMARK SMILES IDX 7 1 8 2 9 3 10 4 11 5 12 6 13 7 6 8 5 9 4 10 3 11 2 12 1 13
REMARK H PARENT
REMARK Flexibility Score: inf
ROOT
ATOM      1  C   UNL     1      -7.326  29.548 105.843  1.00  0.00     0.000 C 
ENDROOT
BRANCH   1   2
ATOM      2  C   UNL     1      -8.018  30.917 105.910  1.00  0.00     0.000 C 
BRANCH   2   3
ATOM      3  C   UNL     1      -7.387  31.947 104.959  1.00  0.00     0.006 C 
BRANCH   3   4
ATOM      4  C   UNL     1      -6.474  31.300 103.909  1.00  0.00     0.053 C 
BRANCH   4   5
ATOM      5  C   UNL     1      -5.126  31.950 103.919  1.00  0.00     0.041 C 
ATOM      6  O   UNL     1      -4.220  31.542 103.145  1.00  0.00    -0.550 OA
ATOM      7  O   UNL     1      -4.883  33.037 104.748  1.00  0.00    -0.550 OA
ENDBRANCH   4   5
ENDBRANCH   3   4
ENDBRANCH   2   3
ENDBRANCH   1   2
BRANCH   1   8
ATOM      8  C   UNL     1      -7.215  28.922 107.242  1.00  0.00     0.000 C 
BRANCH   8   9
ATOM      9  C   UNL     1      -5.798  29.027 107.829  1.00  0.00    -0.000 C 
BRANCH   9  10
ATOM     10  C   UNL     1      -4.798  29.663 106.853  1.00  0.00    -0.000 C 
BRANCH  10  11
ATOM     11  C   UNL     1      -4.097  30.871 107.495  1.00  0.00    -0.000 C 
BRANCH  11  12
ATOM     12  C   UNL     1      -4.934  31.514 108.611  1.00  0.00    -0.003 C 
ATOM     13  C   UNL     1      -5.659  32.779 108.153  1.00  0.00     0.004 C 
ENDBRANCH  11  12
ENDBRANCH  10  11
ENDBRANCH   9  10
ENDBRANCH   8   9
ENDBRANCH   1   8
TORSDOF 9
ENDMDL
