MODEL 1
REMARK VINA RESULT:    -5.822      0.000      0.000
REMARK INTER + INTRA:          -9.269
REMARK INTER:                  -8.034
REMARK INTRA:                  -1.234
REMARK UNBOUND:                -1.234
REMARK SMILES O=C([O-])[C@H]1O[C@@H](Oc2cc3oc(-c4ccccc4)cc(=O)c3c(O)c2O)[C@H](O)[C@H](O)[C@@H]1O
REMARK SMILES IDX 7 1 6 2 4 3 31 4 5 5 29 6 27 7 2 8 1 9 3 10 32 11 30 13
REMARK SMILES IDX 28 15 8 17 25 18 9 19 23 20 10 21 22 22 11 23 20 24 12 25
REMARK SMILES IDX 19 26 21 27 26 28 24 30 13 32 14 33 18 34 15 35 17 36 16 37
REMARK H PARENT 32 12 30 14 28 16 26 29 24 31
REMARK Flexibility Score: inf
ROOT
ATOM      1  O   UNL     1      23.263  40.346  14.640  1.00  0.00    -0.458 OA
ENDROOT
BRANCH   1   2
ATOM      2  C   UNL     1      23.820  39.101  14.209  1.00  0.00     0.339 C 
ATOM      3  C   UNL     1      25.162  40.022  12.461  1.00  0.00     0.199 C 
ATOM      4  C   UNL     1      24.231  39.451  11.360  1.00  0.00     0.180 C 
ATOM      5  O   UNL     1      25.128  39.267  13.668  1.00  0.00    -0.328 OA
ATOM      6  C   UNL     1      22.813  39.208  11.905  1.00  0.00     0.181 C 
ATOM      7  C   UNL     1      22.870  38.414  13.217  1.00  0.00     0.214 C 
BRANCH   3   8
ATOM      8  C   UNL     1      24.993  41.501  12.716  1.00  0.00     0.073 C 
ATOM      9  O   UNL     1      25.710  42.067  13.582  1.00  0.00    -0.547 OA
ATOM     10  O   UNL     1      24.058  42.254  12.015  1.00  0.00    -0.547 OA
ENDBRANCH   3   8
BRANCH   4  11
ATOM     11  O   UNL     1      24.758  38.241  10.875  1.00  0.00    -0.387 OA
ATOM     12  H   UNL     1      24.200  37.973  10.100  1.00  0.00     0.211 HD
ENDBRANCH   4  11
BRANCH   6  13
ATOM     13  O   UNL     1      22.033  38.517  10.963  1.00  0.00    -0.387 OA
ATOM     14  H   UNL     1      21.639  37.737  11.435  1.00  0.00     0.211 HD
ENDBRANCH   6  13
BRANCH   7  15
ATOM     15  O   UNL     1      23.314  37.099  12.988  1.00  0.00    -0.384 OA
ATOM     16  H   UNL     1      23.233  36.611  13.848  1.00  0.00     0.211 HD
ENDBRANCH   7  15
ENDBRANCH   1   2
BRANCH   1  17
ATOM     17  C   UNL     1      22.963  40.746  15.957  1.00  0.00     0.172 A 
ATOM     18  C   UNL     1      23.168  42.053  16.467  1.00  0.00     0.201 A 
ATOM     19  C   UNL     1      22.415  39.765  16.784  1.00  0.00     0.098 A 
ATOM     20  C   UNL     1      22.838  42.341  17.820  1.00  0.00     0.176 A 
ATOM     21  C   UNL     1      22.060  40.043  18.100  1.00  0.00     0.146 A 
ATOM     22  C   UNL     1      22.265  41.333  18.634  1.00  0.00     0.111 A 
ATOM     23  O   UNL     1      21.531  39.076  18.842  1.00  0.00    -0.456 OA
ATOM     24  C   UNL     1      21.880  41.547  19.976  1.00  0.00     0.197 A 
ATOM     25  C   UNL     1      21.167  39.243  20.111  1.00  0.00     0.138 A 
ATOM     26  C   UNL     1      21.328  40.500  20.714  1.00  0.00     0.100 A 
ATOM     27  O   UNL     1      22.017  42.672  20.529  1.00  0.00    -0.289 OA
BRANCH  18  28
ATOM     28  O   UNL     1      23.678  43.043  15.625  1.00  0.00    -0.502 OA
ATOM     29  H   UNL     1      23.986  42.892  14.676  1.00  0.00     0.293 HD
ENDBRANCH  18  28
BRANCH  20  30
ATOM     30  O   UNL     1      23.080  43.602  18.377  1.00  0.00    -0.504 OA
ATOM     31  H   UNL     1      22.577  43.991  19.161  1.00  0.00     0.293 HD
ENDBRANCH  20  30
BRANCH  25  32
ATOM     32  C   UNL     1      20.583  38.091  20.844  1.00  0.00     0.017 A 
ATOM     33  C   UNL     1      21.046  36.774  20.645  1.00  0.00     0.012 A 
ATOM     34  C   UNL     1      19.518  38.307  21.738  1.00  0.00     0.012 A 
ATOM     35  C   UNL     1      20.468  35.708  21.342  1.00  0.00     0.001 A 
ATOM     36  C   UNL     1      18.946  37.237  22.433  1.00  0.00     0.001 A 
ATOM     37  C   UNL     1      19.422  35.939  22.236  1.00  0.00     0.000 A 
ENDBRANCH  25  32
ENDBRANCH   1  17
TORSDOF 9
ENDMDL
MODEL 2
REMARK VINA RESULT:    -5.818      2.528      4.911
REMARK INTER + INTRA:          -9.264
REMARK INTER:                  -8.289
REMARK INTRA:                  -0.975
REMARK UNBOUND:                -1.234
REMARK SMILES O=C([O-])[C@H]1O[C@@H](Oc2cc3oc(-c4ccccc4)cc(=O)c3c(O)c2O)[C@H](O)[C@H](O)[C@@H]1O
REMARK SMILES IDX 7 1 6 2 4 3 31 4 5 5 29 6 27 7 2 8 1 9 3 10 32 11 30 13
REMARK SMILES IDX 28 15 8 17 25 18 9 19 23 20 10 21 22 22 11 23 20 24 12 25
REMARK SMILES IDX 19 26 21 27 26 28 24 30 13 32 14 33 18 34 15 35 17 36 16 37
REMARK H PARENT 32 12 30 14 28 16 26 29 24 31
REMARK Flexibility Score: inf
ROOT
ATOM      1  O   UNL     1      22.869  39.562  14.893  1.00  0.00    -0.458 OA
ENDROOT
BRANCH   1   2
ATOM      2  C   UNL     1      23.377  38.251  14.629  1.00  0.00     0.339 C 
ATOM      3  C   UNL     1      24.946  38.923  12.960  1.00  0.00     0.199 C 
ATOM      4  C   UNL     1      24.090  38.312  11.820  1.00  0.00     0.180 C 
ATOM      5  O   UNL     1      24.740  38.286  14.216  1.00  0.00    -0.328 OA
ATOM      6  C   UNL     1      22.611  38.208  12.232  1.00  0.00     0.181 C 
ATOM      7  C   UNL     1      22.482  37.536  13.606  1.00  0.00     0.214 C 
BRANCH   3   8
ATOM      8  C   UNL     1      24.857  40.427  13.069  1.00  0.00     0.073 C 
ATOM      9  O   UNL     1      25.503  41.022  13.971  1.00  0.00    -0.547 OA
ATOM     10  O   UNL     1      24.074  41.171  12.193  1.00  0.00    -0.547 OA
ENDBRANCH   3   8
BRANCH   4  11
ATOM     11  O   UNL     1      24.576  37.032  11.498  1.00  0.00    -0.387 OA
ATOM     12  H   UNL     1      23.934  36.376  11.876  1.00  0.00     0.211 HD
ENDBRANCH   4  11
BRANCH   6  13
ATOM     13  O   UNL     1      21.882  37.483  11.276  1.00  0.00    -0.387 OA
ATOM     14  H   UNL     1      21.205  36.953  11.774  1.00  0.00     0.211 HD
ENDBRANCH   6  13
BRANCH   7  15
ATOM     15  O   UNL     1      22.853  36.181  13.537  1.00  0.00    -0.384 OA
ATOM     16  H   UNL     1      23.729  36.143  13.072  1.00  0.00     0.211 HD
ENDBRANCH   7  15
ENDBRANCH   1   2
BRANCH   1  17
ATOM     17  C   UNL     1      22.495  40.108  16.137  1.00  0.00     0.172 A 
ATOM     18  C   UNL     1      21.307  39.774  16.836  1.00  0.00     0.201 A 
ATOM     19  C   UNL     1      23.385  41.026  16.694  1.00  0.00     0.098 A 
ATOM     20  C   UNL     1      21.025  40.398  18.082  1.00  0.00     0.176 A 
ATOM     21  C   UNL     1      23.134  41.619  17.927  1.00  0.00     0.146 A 
ATOM     22  C   UNL     1      21.955  41.312  18.638  1.00  0.00     0.111 A 
ATOM     23  O   UNL     1      24.021  42.478  18.420  1.00  0.00    -0.456 OA
ATOM     24  C   UNL     1      21.764  41.949  19.884  1.00  0.00     0.197 A 
ATOM     25  C   UNL     1      23.867  43.101  19.586  1.00  0.00     0.138 A 
ATOM     26  C   UNL     1      22.724  42.842  20.359  1.00  0.00     0.100 A 
ATOM     27  O   UNL     1      20.744  41.723  20.590  1.00  0.00    -0.289 OA
BRANCH  18  28
ATOM     28  O   UNL     1      20.438  38.825  16.295  1.00  0.00    -0.502 OA
ATOM     29  H   UNL     1      20.688  37.872  16.075  1.00  0.00     0.293 HD
ENDBRANCH  18  28
BRANCH  20  30
ATOM     30  O   UNL     1      19.837  40.140  18.775  1.00  0.00    -0.504 OA
ATOM     31  H   UNL     1      19.253  39.329  18.636  1.00  0.00     0.293 HD
ENDBRANCH  20  30
BRANCH  25  32
ATOM     32  C   UNL     1      24.924  44.040  20.039  1.00  0.00     0.017 A 
ATOM     33  C   UNL     1      24.979  45.372  19.581  1.00  0.00     0.012 A 
ATOM     34  C   UNL     1      25.920  43.586  20.924  1.00  0.00     0.012 A 
ATOM     35  C   UNL     1      25.994  46.229  20.018  1.00  0.00     0.001 A 
ATOM     36  C   UNL     1      26.931  44.449  21.358  1.00  0.00     0.001 A 
ATOM     37  C   UNL     1      26.967  45.769  20.906  1.00  0.00     0.000 A 
ENDBRANCH  25  32
ENDBRANCH   1  17
TORSDOF 9
ENDMDL
MODEL 3
REMARK VINA RESULT:    -5.755     13.497     15.440
REMARK INTER + INTRA:          -9.176
REMARK INTER:                  -7.920
REMARK INTRA:                  -1.257
REMARK UNBOUND:                -1.234
REMARK SMILES O=C([O-])[C@H]1O[C@@H](Oc2cc3oc(-c4ccccc4)cc(=O)c3c(O)c2O)[C@H](O)[C@H](O)[C@@H]1O
REMARK SMILES IDX 7 1 6 2 4 3 31 4 5 5 29 6 27 7 2 8 1 9 3 10 32 11 30 13
REMARK SMILES IDX 28 15 8 17 25 18 9 19 23 20 10 21 22 22 11 23 20 24 12 25
REMARK SMILES IDX 19 26 21 27 26 28 24 30 13 32 14 33 18 34 15 35 17 36 16 37
REMARK H PARENT 32 12 30 14 28 16 26 29 24 31
REMARK Flexibility Score: inf
ROOT
ATOM      1  O   UNL     1      15.890  42.387  30.242  1.00  0.00    -0.458 OA
ENDROOT
BRANCH   1   2
ATOM      2  C   UNL     1      15.230  41.379  29.471  1.00  0.00     0.339 C 
ATOM      3  C   UNL     1      14.046  42.888  28.049  1.00  0.00     0.199 C 
ATOM      4  C   UNL     1      12.695  42.582  28.743  1.00  0.00     0.180 C 
ATOM      5  O   UNL     1      14.977  41.814  28.138  1.00  0.00    -0.328 OA
ATOM      6  C   UNL     1      12.912  42.062  30.175  1.00  0.00     0.181 C 
ATOM      7  C   UNL     1      13.946  40.928  30.184  1.00  0.00     0.214 C 
BRANCH   3   8
ATOM      8  C   UNL     1      14.668  44.206  28.447  1.00  0.00     0.073 C 
ATOM      9  O   UNL     1      15.655  44.646  27.802  1.00  0.00    -0.547 OA
ATOM     10  O   UNL     1      14.172  44.947  29.514  1.00  0.00    -0.547 OA
ENDBRANCH   3   8
BRANCH   4  11
ATOM     11  O   UNL     1      11.988  41.619  28.000  1.00  0.00    -0.387 OA
ATOM     12  H   UNL     1      11.081  41.555  28.398  1.00  0.00     0.211 HD
ENDBRANCH   4  11
BRANCH   6  13
ATOM     13  O   UNL     1      11.702  41.608  30.726  1.00  0.00    -0.387 OA
ATOM     14  H   UNL     1      11.262  42.398  31.138  1.00  0.00     0.211 HD
ENDBRANCH   6  13
BRANCH   7  15
ATOM     15  O   UNL     1      13.439  39.784  29.541  1.00  0.00    -0.384 OA
ATOM     16  H   UNL     1      13.260  39.110  30.247  1.00  0.00     0.211 HD
ENDBRANCH   7  15
ENDBRANCH   1   2
BRANCH   1  17
ATOM     17  C   UNL     1      17.268  42.680  30.279  1.00  0.00     0.172 A 
ATOM     18  C   UNL     1      17.809  43.980  30.441  1.00  0.00     0.201 A 
ATOM     19  C   UNL     1      18.128  41.588  30.159  1.00  0.00     0.098 A 
ATOM     20  C   UNL     1      19.220  44.159  30.452  1.00  0.00     0.176 A 
ATOM     21  C   UNL     1      19.509  41.747  30.199  1.00  0.00     0.146 A 
ATOM     22  C   UNL     1      20.073  43.032  30.349  1.00  0.00     0.111 A 
ATOM     23  O   UNL     1      20.284  40.673  30.093  1.00  0.00    -0.456 OA
ATOM     24  C   UNL     1      21.482  43.122  30.384  1.00  0.00     0.197 A 
ATOM     25  C   UNL     1      21.614  40.725  30.113  1.00  0.00     0.138 A 
ATOM     26  C   UNL     1      22.252  41.965  30.268  1.00  0.00     0.100 A 
ATOM     27  O   UNL     1      22.068  44.229  30.526  1.00  0.00    -0.289 OA
BRANCH  18  28
ATOM     28  O   UNL     1      16.946  45.065  30.602  1.00  0.00    -0.502 OA
ATOM     29  H   UNL     1      16.929  45.883  30.010  1.00  0.00     0.293 HD
ENDBRANCH  18  28
BRANCH  20  30
ATOM     30  O   UNL     1      19.793  45.432  30.551  1.00  0.00    -0.504 OA
ATOM     31  H   UNL     1      20.221  45.808  31.385  1.00  0.00     0.293 HD
ENDBRANCH  20  30
BRANCH  25  32
ATOM     32  C   UNL     1      22.380  39.459  29.988  1.00  0.00     0.017 A 
ATOM     33  C   UNL     1      23.124  38.933  31.063  1.00  0.00     0.012 A 
ATOM     34  C   UNL     1      22.394  38.778  28.756  1.00  0.00     0.012 A 
ATOM     35  C   UNL     1      23.844  37.743  30.911  1.00  0.00     0.001 A 
ATOM     36  C   UNL     1      23.115  37.588  28.611  1.00  0.00     0.001 A 
ATOM     37  C   UNL     1      23.837  37.071  29.688  1.00  0.00     0.000 A 
ENDBRANCH  25  32
ENDBRANCH   1  17
TORSDOF 9
ENDMDL
MODEL 4
REMARK VINA RESULT:    -5.688      2.728      5.468
REMARK INTER + INTRA:          -9.084
REMARK INTER:                  -7.881
REMARK INTRA:                  -1.202
REMARK UNBOUND:                -1.234
REMARK SMILES O=C([O-])[C@H]1O[C@@H](Oc2cc3oc(-c4ccccc4)cc(=O)c3c(O)c2O)[C@H](O)[C@H](O)[C@@H]1O
REMARK SMILES IDX 7 1 6 2 4 3 31 4 5 5 29 6 27 7 2 8 1 9 3 10 32 11 30 13
REMARK SMILES IDX 28 15 8 17 25 18 9 19 23 20 10 21 22 22 11 23 20 24 12 25
REMARK SMILES IDX 19 26 21 27 26 28 24 30 13 32 14 33 18 34 15 35 17 36 16 37
REMARK H PARENT 32 12 30 14 28 16 26 29 24 31
REMARK Flexibility Score: inf
ROOT
ATOM      1  O   UNL     1      23.035  39.634  15.232  1.00  0.00    -0.458 OA
ENDROOT
BRANCH   1   2
ATOM      2  C   UNL     1      23.564  40.301  14.083  1.00  0.00     0.339 C 
ATOM      3  C   UNL     1      22.347  39.025  12.473  1.00  0.00     0.199 C 
ATOM      4  C   UNL     1      23.618  38.254  12.031  1.00  0.00     0.180 C 
ATOM      5  O   UNL     1      22.632  40.314  13.005  1.00  0.00    -0.328 OA
ATOM      6  C   UNL     1      24.679  38.249  13.145  1.00  0.00     0.181 C 
ATOM      7  C   UNL     1      24.905  39.671  13.678  1.00  0.00     0.214 C 
BRANCH   3   8
ATOM      8  C   UNL     1      21.421  38.237  13.370  1.00  0.00     0.073 C 
ATOM      9  O   UNL     1      20.336  38.753  13.745  1.00  0.00    -0.547 OA
ATOM     10  O   UNL     1      21.741  36.952  13.791  1.00  0.00    -0.547 OA
ENDBRANCH   3   8
BRANCH   4  11
ATOM     11  O   UNL     1      24.156  38.852  10.877  1.00  0.00    -0.387 OA
ATOM     12  H   UNL     1      23.457  38.804  10.173  1.00  0.00     0.211 HD
ENDBRANCH   4  11
BRANCH   6  13
ATOM     13  O   UNL     1      25.891  37.720  12.671  1.00  0.00    -0.387 OA
ATOM     14  H   UNL     1      26.279  38.398  12.058  1.00  0.00     0.211 HD
ENDBRANCH   6  13
BRANCH   7  15
ATOM     15  O   UNL     1      25.519  40.479  12.705  1.00  0.00    -0.384 OA
ATOM     16  H   UNL     1      24.879  40.564  11.952  1.00  0.00     0.211 HD
ENDBRANCH   7  15
ENDBRANCH   1   2
BRANCH   1  17
ATOM     17  C   UNL     1      22.681  40.202  16.472  1.00  0.00     0.172 A 
ATOM     18  C   UNL     1      21.499  39.891  17.191  1.00  0.00     0.201 A 
ATOM     19  C   UNL     1      23.587  41.120  17.005  1.00  0.00     0.098 A 
ATOM     20  C   UNL     1      21.238  40.536  18.431  1.00  0.00     0.176 A 
ATOM     21  C   UNL     1      23.357  41.735  18.231  1.00  0.00     0.146 A 
ATOM     22  C   UNL     1      22.183  41.450  18.961  1.00  0.00     0.111 A 
ATOM     23  O   UNL     1      24.257  42.592  18.700  1.00  0.00    -0.456 OA
ATOM     24  C   UNL     1      22.014  42.107  20.199  1.00  0.00     0.197 A 
ATOM     25  C   UNL     1      24.124  43.234  19.858  1.00  0.00     0.138 A 
ATOM     26  C   UNL     1      22.988  42.999  20.648  1.00  0.00     0.100 A 
ATOM     27  O   UNL     1      21.001  41.902  20.921  1.00  0.00    -0.289 OA
BRANCH  18  28
ATOM     28  O   UNL     1      20.615  38.941  16.675  1.00  0.00    -0.502 OA
ATOM     29  H   UNL     1      19.609  39.004  16.720  1.00  0.00     0.293 HD
ENDBRANCH  18  28
BRANCH  20  30
ATOM     30  O   UNL     1      20.057  40.300  19.142  1.00  0.00    -0.504 OA
ATOM     31  H   UNL     1      19.829  39.435  19.610  1.00  0.00     0.293 HD
ENDBRANCH  20  30
BRANCH  25  32
ATOM     32  C   UNL     1      25.195  44.170  20.283  1.00  0.00     0.017 A 
ATOM     33  C   UNL     1      25.219  45.514  19.857  1.00  0.00     0.012 A 
ATOM     34  C   UNL     1      26.236  43.702  21.107  1.00  0.00     0.012 A 
ATOM     35  C   UNL     1      26.248  46.368  20.266  1.00  0.00     0.001 A 
ATOM     36  C   UNL     1      27.261  44.562  21.514  1.00  0.00     0.001 A 
ATOM     37  C   UNL     1      27.266  45.894  21.095  1.00  0.00     0.000 A 
ENDBRANCH  25  32
ENDBRANCH   1  17
TORSDOF 9
ENDMDL
MODEL 5
REMARK VINA RESULT:    -5.629      3.130      7.240
REMARK INTER + INTRA:          -9.002
REMARK INTER:                  -7.731
REMARK INTRA:                  -1.271
REMARK UNBOUND:                -1.234
REMARK SMILES O=C([O-])[C@H]1O[C@@H](Oc2cc3oc(-c4ccccc4)cc(=O)c3c(O)c2O)[C@H](O)[C@H](O)[C@@H]1O
REMARK SMILES IDX 7 1 6 2 4 3 31 4 5 5 29 6 27 7 2 8 1 9 3 10 32 11 30 13
REMARK SMILES IDX 28 15 8 17 25 18 9 19 23 20 10 21 22 22 11 23 20 24 12 25
REMARK SMILES IDX 19 26 21 27 26 28 24 30 13 32 14 33 18 34 15 35 17 36 16 37
REMARK H PARENT 32 12 30 14 28 16 26 29 24 31
REMARK Flexibility Score: inf
ROOT
ATOM      1  O   UNL     1      21.531  40.799  16.027  1.00  0.00    -0.458 OA
ENDROOT
BRANCH   1   2
ATOM      2  C   UNL     1      21.459  40.459  17.414  1.00  0.00     0.339 C 
ATOM      3  C   UNL     1      21.862  42.665  18.233  1.00  0.00     0.199 C 
ATOM      4  C   UNL     1      23.295  42.298  18.697  1.00  0.00     0.180 C 
ATOM      5  O   UNL     1      20.982  41.546  18.201  1.00  0.00    -0.328 OA
ATOM      6  C   UNL     1      23.843  41.096  17.909  1.00  0.00     0.181 C 
ATOM      7  C   UNL     1      22.823  39.948  17.902  1.00  0.00     0.214 C 
BRANCH   3   8
ATOM      8  C   UNL     1      21.806  43.463  16.951  1.00  0.00     0.073 C 
ATOM      9  O   UNL     1      20.694  43.863  16.519  1.00  0.00    -0.547 OA
ATOM     10  O   UNL     1      22.960  43.765  16.237  1.00  0.00    -0.547 OA
ENDBRANCH   3   8
BRANCH   4  11
ATOM     11  O   UNL     1      23.284  41.990  20.070  1.00  0.00    -0.387 OA
ATOM     12  H   UNL     1      22.345  42.081  20.379  1.00  0.00     0.211 HD
ENDBRANCH   4  11
BRANCH   6  13
ATOM     13  O   UNL     1      25.056  40.653  18.463  1.00  0.00    -0.387 OA
ATOM     14  H   UNL     1      24.862  39.796  18.926  1.00  0.00     0.211 HD
ENDBRANCH   6  13
BRANCH   7  15
ATOM     15  O   UNL     1      22.677  39.401  19.189  1.00  0.00    -0.384 OA
ATOM     16  H   UNL     1      22.748  38.415  19.095  1.00  0.00     0.211 HD
ENDBRANCH   7  15
ENDBRANCH   1   2
BRANCH   1  17
ATOM     17  C   UNL     1      21.999  39.999  14.965  1.00  0.00     0.172 A 
ATOM     18  C   UNL     1      23.002  40.392  14.044  1.00  0.00     0.201 A 
ATOM     19  C   UNL     1      21.422  38.734  14.853  1.00  0.00     0.098 A 
ATOM     20  C   UNL     1      23.389  39.505  13.002  1.00  0.00     0.176 A 
ATOM     21  C   UNL     1      21.813  37.846  13.857  1.00  0.00     0.146 A 
ATOM     22  C   UNL     1      22.802  38.217  12.921  1.00  0.00     0.111 A 
ATOM     23  O   UNL     1      21.240  36.648  13.801  1.00  0.00    -0.456 OA
ATOM     24  C   UNL     1      23.154  37.267  11.937  1.00  0.00     0.197 A 
ATOM     25  C   UNL     1      21.543  35.734  12.882  1.00  0.00     0.138 A 
ATOM     26  C   UNL     1      22.524  36.023  11.921  1.00  0.00     0.100 A 
ATOM     27  O   UNL     1      24.035  37.512  11.070  1.00  0.00    -0.289 OA
BRANCH  18  28
ATOM     28  O   UNL     1      23.607  41.643  14.183  1.00  0.00    -0.502 OA
ATOM     29  H   UNL     1      23.759  42.116  15.062  1.00  0.00     0.293 HD
ENDBRANCH  18  28
BRANCH  20  30
ATOM     30  O   UNL     1      24.333  39.877  12.038  1.00  0.00    -0.504 OA
ATOM     31  H   UNL     1      25.154  40.434  12.222  1.00  0.00     0.293 HD
ENDBRANCH  20  30
BRANCH  25  32
ATOM     32  C   UNL     1      20.839  34.427  12.917  1.00  0.00     0.017 A 
ATOM     33  C   UNL     1      20.265  33.925  14.103  1.00  0.00     0.012 A 
ATOM     34  C   UNL     1      20.768  33.647  11.747  1.00  0.00     0.012 A 
ATOM     35  C   UNL     1      19.618  32.685  14.106  1.00  0.00     0.001 A 
ATOM     36  C   UNL     1      20.119  32.409  11.758  1.00  0.00     0.001 A 
ATOM     37  C   UNL     1      19.543  31.929  12.936  1.00  0.00     0.000 A 
ENDBRANCH  25  32
ENDBRANCH   1  17
TORSDOF 9
ENDMDL
MODEL 6
REMARK VINA RESULT:    -5.600      4.107      4.938
REMARK INTER + INTRA:          -8.962
REMARK INTER:                  -7.785
REMARK INTRA:                  -1.177
REMARK UNBOUND:                -1.234
REMARK SMILES O=C([O-])[C@H]1O[C@@H](Oc2cc3oc(-c4ccccc4)cc(=O)c3c(O)c2O)[C@H](O)[C@H](O)[C@@H]1O
REMARK SMILES IDX 7 1 6 2 4 3 31 4 5 5 29 6 27 7 2 8 1 9 3 10 32 11 30 13
REMARK SMILES IDX 28 15 8 17 25 18 9 19 23 20 10 21 22 22 11 23 20 24 12 25
REMARK SMILES IDX 19 26 21 27 26 28 24 30 13 32 14 33 18 34 15 35 17 36 16 37
REMARK H PARENT 32 12 30 14 28 16 26 29 24 31
REMARK Flexibility Score: inf
ROOT
ATOM      1  O   UNL     1      23.000  40.693  14.467  1.00  0.00    -0.458 OA
ENDROOT
BRANCH   1   2
ATOM      2  C   UNL     1      24.091  39.785  14.646  1.00  0.00     0.339 C 
ATOM      3  C   UNL     1      25.094  40.178  12.516  1.00  0.00     0.199 C 
ATOM      4  C   UNL     1      24.643  38.796  11.979  1.00  0.00     0.180 C 
ATOM      5  O   UNL     1      25.249  40.204  13.931  1.00  0.00    -0.328 OA
ATOM      6  C   UNL     1      23.419  38.273  12.750  1.00  0.00     0.181 C 
ATOM      7  C   UNL     1      23.660  38.362  14.264  1.00  0.00     0.214 C 
BRANCH   3   8
ATOM      8  C   UNL     1      24.268  41.341  12.018  1.00  0.00     0.073 C 
ATOM      9  O   UNL     1      24.667  42.517  12.222  1.00  0.00    -0.547 OA
ATOM     10  O   UNL     1      23.072  41.140  11.339  1.00  0.00    -0.547 OA
ENDBRANCH   3   8
BRANCH   4  11
ATOM     11  O   UNL     1      25.699  37.874  12.099  1.00  0.00    -0.387 OA
ATOM     12  H   UNL     1      25.858  37.496  11.195  1.00  0.00     0.211 HD
ENDBRANCH   4  11
BRANCH   6  13
ATOM     13  O   UNL     1      23.137  36.945  12.389  1.00  0.00    -0.387 OA
ATOM     14  H   UNL     1      22.261  36.957  11.920  1.00  0.00     0.211 HD
ENDBRANCH   6  13
BRANCH   7  15
ATOM     15  O   UNL     1      24.657  37.454  14.665  1.00  0.00    -0.384 OA
ATOM     16  H   UNL     1      25.485  37.980  14.813  1.00  0.00     0.211 HD
ENDBRANCH   7  15
ENDBRANCH   1   2
BRANCH   1  17
ATOM     17  C   UNL     1      22.786  41.923  15.119  1.00  0.00     0.172 A 
ATOM     18  C   UNL     1      21.963  42.965  14.620  1.00  0.00     0.201 A 
ATOM     19  C   UNL     1      23.433  42.087  16.344  1.00  0.00     0.098 A 
ATOM     20  C   UNL     1      21.829  44.172  15.360  1.00  0.00     0.176 A 
ATOM     21  C   UNL     1      23.285  43.251  17.091  1.00  0.00     0.146 A 
ATOM     22  C   UNL     1      22.480  44.306  16.611  1.00  0.00     0.111 A 
ATOM     23  O   UNL     1      23.913  43.351  18.257  1.00  0.00    -0.456 OA
ATOM     24  C   UNL     1      22.372  45.459  17.420  1.00  0.00     0.197 A 
ATOM     25  C   UNL     1      23.839  44.426  19.039  1.00  0.00     0.138 A 
ATOM     26  C   UNL     1      23.051  45.516  18.638  1.00  0.00     0.100 A 
ATOM     27  O   UNL     1      21.665  46.443  17.074  1.00  0.00    -0.289 OA
BRANCH  18  28
ATOM     28  O   UNL     1      21.284  42.782  13.414  1.00  0.00    -0.502 OA
ATOM     29  H   UNL     1      21.508  42.078  12.726  1.00  0.00     0.293 HD
ENDBRANCH  18  28
BRANCH  20  30
ATOM     30  O   UNL     1      21.074  45.245  14.874  1.00  0.00    -0.504 OA
ATOM     31  H   UNL     1      20.112  45.430  15.118  1.00  0.00     0.293 HD
ENDBRANCH  20  30
BRANCH  25  32
ATOM     32  C   UNL     1      24.583  44.427  20.324  1.00  0.00     0.017 A 
ATOM     33  C   UNL     1      24.056  45.027  21.486  1.00  0.00     0.012 A 
ATOM     34  C   UNL     1      25.863  43.844  20.383  1.00  0.00     0.012 A 
ATOM     35  C   UNL     1      24.786  45.021  22.679  1.00  0.00     0.001 A 
ATOM     36  C   UNL     1      26.587  43.841  21.580  1.00  0.00     0.001 A 
ATOM     37  C   UNL     1      26.048  44.427  22.727  1.00  0.00     0.000 A 
ENDBRANCH  25  32
ENDBRANCH   1  17
TORSDOF 9
ENDMDL
MODEL 7
REMARK VINA RESULT:    -5.528      1.084      2.020
REMARK INTER + INTRA:          -8.862
REMARK INTER:                  -8.030
REMARK INTRA:                  -0.832
REMARK UNBOUND:                -1.234
REMARK SMILES O=C([O-])[C@H]1O[C@@H](Oc2cc3oc(-c4ccccc4)cc(=O)c3c(O)c2O)[C@H](O)[C@H](O)[C@@H]1O
REMARK SMILES IDX 7 1 6 2 4 3 31 4 5 5 29 6 27 7 2 8 1 9 3 10 32 11 30 13
REMARK SMILES IDX 28 15 8 17 25 18 9 19 23 20 10 21 22 22 11 23 20 24 12 25
REMARK SMILES IDX 19 26 21 27 26 28 24 30 13 32 14 33 18 34 15 35 17 36 16 37
REMARK H PARENT 32 12 30 14 28 16 26 29 24 31
REMARK Flexibility Score: inf
ROOT
ATOM      1  O   UNL     1      22.817  40.571  14.286  1.00  0.00    -0.458 OA
ENDROOT
BRANCH   1   2
ATOM      2  C   UNL     1      23.915  39.923  13.639  1.00  0.00     0.339 C 
ATOM      3  C   UNL     1      22.743  39.400  11.625  1.00  0.00     0.199 C 
ATOM      4  C   UNL     1      22.672  37.893  11.984  1.00  0.00     0.180 C 
ATOM      5  O   UNL     1      23.852  40.065  12.222  1.00  0.00    -0.328 OA
ATOM      6  C   UNL     1      22.783  37.679  13.503  1.00  0.00     0.181 C 
ATOM      7  C   UNL     1      23.985  38.450  14.068  1.00  0.00     0.214 C 
BRANCH   3   8
ATOM      8  C   UNL     1      21.452  40.154  11.839  1.00  0.00     0.073 C 
ATOM      9  O   UNL     1      21.390  41.374  11.535  1.00  0.00    -0.547 OA
ATOM     10  O   UNL     1      20.328  39.529  12.367  1.00  0.00    -0.547 OA
ENDBRANCH   3   8
BRANCH   4  11
ATOM     11  O   UNL     1      23.713  37.203  11.338  1.00  0.00    -0.387 OA
ATOM     12  H   UNL     1      23.988  36.464  11.941  1.00  0.00     0.211 HD
ENDBRANCH   4  11
BRANCH   6  13
ATOM     13  O   UNL     1      22.910  36.312  13.802  1.00  0.00    -0.387 OA
ATOM     14  H   UNL     1      22.034  35.892  13.595  1.00  0.00     0.211 HD
ENDBRANCH   6  13
BRANCH   7  15
ATOM     15  O   UNL     1      25.194  37.893  13.614  1.00  0.00    -0.384 OA
ATOM     16  H   UNL     1      25.489  38.435  12.836  1.00  0.00     0.211 HD
ENDBRANCH   7  15
ENDBRANCH   1   2
BRANCH   1  17
ATOM     17  C   UNL     1      22.690  40.893  15.652  1.00  0.00     0.172 A 
ATOM     18  C   UNL     1      23.052  42.141  16.220  1.00  0.00     0.201 A 
ATOM     19  C   UNL     1      22.156  39.897  16.468  1.00  0.00     0.098 A 
ATOM     20  C   UNL     1      22.890  42.352  17.617  1.00  0.00     0.176 A 
ATOM     21  C   UNL     1      21.965  40.102  17.831  1.00  0.00     0.146 A 
ATOM     22  C   UNL     1      22.327  41.331  18.422  1.00  0.00     0.111 A 
ATOM     23  O   UNL     1      21.441  39.124  18.562  1.00  0.00    -0.456 OA
ATOM     24  C   UNL     1      22.104  41.474  19.810  1.00  0.00     0.197 A 
ATOM     25  C   UNL     1      21.227  39.223  19.872  1.00  0.00     0.138 A 
ATOM     26  C   UNL     1      21.550  40.418  20.533  1.00  0.00     0.100 A 
ATOM     27  O   UNL     1      22.387  42.542  20.416  1.00  0.00    -0.289 OA
BRANCH  18  28
ATOM     28  O   UNL     1      23.548  43.151  15.394  1.00  0.00    -0.502 OA
ATOM     29  H   UNL     1      24.047  42.998  14.530  1.00  0.00     0.293 HD
ENDBRANCH  18  28
BRANCH  20  30
ATOM     30  O   UNL     1      23.289  43.548  18.226  1.00  0.00    -0.504 OA
ATOM     31  H   UNL     1      24.160  43.681  18.717  1.00  0.00     0.293 HD
ENDBRANCH  20  30
BRANCH  25  32
ATOM     32  C   UNL     1      20.633  38.066  20.587  1.00  0.00     0.017 A 
ATOM     33  C   UNL     1      19.571  38.224  21.501  1.00  0.00     0.012 A 
ATOM     34  C   UNL     1      21.160  36.778  20.378  1.00  0.00     0.012 A 
ATOM     35  C   UNL     1      19.040  37.116  22.168  1.00  0.00     0.001 A 
ATOM     36  C   UNL     1      20.623  35.673  21.047  1.00  0.00     0.001 A 
ATOM     37  C   UNL     1      19.563  35.842  21.940  1.00  0.00     0.000 A 
ENDBRANCH  25  32
ENDBRANCH   1  17
TORSDOF 9
ENDMDL
MODEL 8
REMARK VINA RESULT:    -5.431     12.988     14.474
REMARK INTER + INTRA:          -8.730
REMARK INTER:                  -7.472
REMARK INTRA:                  -1.257
REMARK UNBOUND:                -1.234
REMARK SMILES O=C([O-])[C@H]1O[C@@H](Oc2cc3oc(-c4ccccc4)cc(=O)c3c(O)c2O)[C@H](O)[C@H](O)[C@@H]1O
REMARK SMILES IDX 7 1 6 2 4 3 31 4 5 5 29 6 27 7 2 8 1 9 3 10 32 11 30 13
REMARK SMILES IDX 28 15 8 17 25 18 9 19 23 20 10 21 22 22 11 23 20 24 12 25
REMARK SMILES IDX 19 26 21 27 26 28 24 30 13 32 14 33 18 34 15 35 17 36 16 37
REMARK H PARENT 32 12 30 14 28 16 26 29 24 31
REMARK Flexibility Score: inf
ROOT
ATOM      1  O   UNL     1      21.162  37.991  29.228  1.00  0.00    -0.458 OA
ENDROOT
BRANCH   1   2
ATOM      2  C   UNL     1      20.739  36.818  29.928  1.00  0.00     0.339 C 
ATOM      3  C   UNL     1      22.934  36.032  30.444  1.00  0.00     0.199 C 
ATOM      4  C   UNL     1      22.834  34.883  29.408  1.00  0.00     0.180 C 
ATOM      5  O   UNL     1      21.667  36.446  30.944  1.00  0.00    -0.328 OA
ATOM      6  C   UNL     1      21.807  35.213  28.311  1.00  0.00     0.181 C 
ATOM      7  C   UNL     1      20.483  35.675  28.935  1.00  0.00     0.214 C 
BRANCH   3   8
ATOM      8  C   UNL     1      23.773  37.205  29.994  1.00  0.00     0.073 C 
ATOM      9  O   UNL     1      24.141  38.063  30.838  1.00  0.00    -0.547 OA
ATOM     10  O   UNL     1      24.148  37.359  28.665  1.00  0.00    -0.547 OA
ENDBRANCH   3   8
BRANCH   4  11
ATOM     11  O   UNL     1      22.456  33.693  30.057  1.00  0.00    -0.387 OA
ATOM     12  H   UNL     1      23.241  33.086  30.026  1.00  0.00     0.211 HD
ENDBRANCH   4  11
BRANCH   6  13
ATOM     13  O   UNL     1      21.584  34.095  27.490  1.00  0.00    -0.387 OA
ATOM     14  H   UNL     1      21.226  34.439  26.629  1.00  0.00     0.211 HD
ENDBRANCH   6  13
BRANCH   7  15
ATOM     15  O   UNL     1      19.849  34.614  29.605  1.00  0.00    -0.384 OA
ATOM     16  H   UNL     1      20.005  34.750  30.576  1.00  0.00     0.211 HD
ENDBRANCH   7  15
ENDBRANCH   1   2
BRANCH   1  17
ATOM     17  C   UNL     1      20.721  39.316  29.421  1.00  0.00     0.172 A 
ATOM     18  C   UNL     1      21.563  40.457  29.385  1.00  0.00     0.201 A 
ATOM     19  C   UNL     1      19.355  39.479  29.648  1.00  0.00     0.098 A 
ATOM     20  C   UNL     1      21.010  41.747  29.605  1.00  0.00     0.176 A 
ATOM     21  C   UNL     1      18.797  40.740  29.835  1.00  0.00     0.146 A 
ATOM     22  C   UNL     1      19.615  41.889  29.814  1.00  0.00     0.111 A 
ATOM     23  O   UNL     1      17.488  40.841  30.035  1.00  0.00    -0.456 OA
ATOM     24  C   UNL     1      18.985  43.138  30.008  1.00  0.00     0.197 A 
ATOM     25  C   UNL     1      16.864  42.001  30.231  1.00  0.00     0.138 A 
ATOM     26  C   UNL     1      17.606  43.192  30.214  1.00  0.00     0.100 A 
ATOM     27  O   UNL     1      19.638  44.216  29.993  1.00  0.00    -0.289 OA
BRANCH  18  28
ATOM     28  O   UNL     1      22.924  40.294  29.117  1.00  0.00    -0.502 OA
ATOM     29  H   UNL     1      23.538  41.022  28.785  1.00  0.00     0.293 HD
ENDBRANCH  18  28
BRANCH  20  30
ATOM     30  O   UNL     1      21.816  42.891  29.635  1.00  0.00    -0.504 OA
ATOM     31  H   UNL     1      22.399  43.205  28.874  1.00  0.00     0.293 HD
ENDBRANCH  20  30
BRANCH  25  32
ATOM     32  C   UNL     1      15.395  41.995  30.443  1.00  0.00     0.017 A 
ATOM     33  C   UNL     1      14.665  40.792  30.542  1.00  0.00     0.012 A 
ATOM     34  C   UNL     1      14.701  43.217  30.515  1.00  0.00     0.012 A 
ATOM     35  C   UNL     1      13.279  40.819  30.731  1.00  0.00     0.001 A 
ATOM     36  C   UNL     1      13.315  43.236  30.706  1.00  0.00     0.001 A 
ATOM     37  C   UNL     1      12.606  42.039  30.815  1.00  0.00     0.000 A 
ENDBRANCH  25  32
ENDBRANCH   1  17
TORSDOF 9
ENDMDL
