MODEL 1
REMARK VINA RESULT:    14.315      0.000      0.000
REMARK INTER + INTRA:          36.152
REMARK INTER:                  36.074
REMARK INTRA:                   0.079
REMARK UNBOUND:                 0.079
REMARK SMILES CCCCCCCCCCCCCCCCCCCCCCCCCCCC(=O)[O-]
REMARK SMILES IDX 15 1 16 2 17 3 18 4 19 5 20 6 21 7 22 8 23 9 24 10 25 11
REMARK SMILES IDX 26 12 27 13 28 14 29 15 30 16 14 17 13 18 12 19 11 20 10 21
REMARK SMILES IDX 9 22 8 23 7 24 6 25 5 26 4 27 3 28 2 29 1 30
REMARK H PARENT
REMARK Flexibility Score: inf
ROOT
ATOM      1  C   UNL     1     -15.381  61.169  -2.897  1.00  0.00     0.000 C 
ENDROOT
BRANCH   1   2
ATOM      2  C   UNL     1     -16.316  62.231  -2.288  1.00  0.00     0.000 C 
BRANCH   2   3
ATOM      3  C   UNL     1     -16.419  62.129  -0.758  1.00  0.00     0.000 C 
BRANCH   3   4
ATOM      4  C   UNL     1     -17.445  63.109  -0.159  1.00  0.00     0.000 C 
BRANCH   4   5
ATOM      5  C   UNL     1     -17.232  64.588  -0.529  1.00  0.00     0.000 C 
BRANCH   5   6
ATOM      6  C   UNL     1     -18.547  65.370  -0.670  1.00  0.00     0.000 C 
BRANCH   6   7
ATOM      7  C   UNL     1     -19.702  64.613   0.004  1.00  0.00     0.000 C 
BRANCH   7   8
ATOM      8  C   UNL     1     -20.043  63.292  -0.702  1.00  0.00     0.000 C 
BRANCH   8   9
ATOM      9  C   UNL     1     -20.250  63.468  -2.216  1.00  0.00     0.000 C 
BRANCH   9  10
ATOM     10  C   UNL     1     -19.818  62.227  -3.017  1.00  0.00     0.000 C 
BRANCH  10  11
ATOM     11  C   UNL     1     -20.100  60.913  -2.268  1.00  0.00     0.000 C 
BRANCH  11  12
ATOM     12  C   UNL     1     -20.463  59.754  -3.216  1.00  0.00     0.006 C 
BRANCH  12  13
ATOM     13  C   UNL     1     -21.761  59.974  -4.010  1.00  0.00     0.053 C 
BRANCH  13  14
ATOM     14  C   UNL     1     -21.641  59.498  -5.426  1.00  0.00     0.041 C 
ATOM     15  O   UNL     1     -22.592  59.668  -6.233  1.00  0.00    -0.550 OA
ATOM     16  O   UNL     1     -20.494  58.834  -5.842  1.00  0.00    -0.550 OA
ENDBRANCH  13  14
ENDBRANCH  12  13
ENDBRANCH  11  12
ENDBRANCH  10  11
ENDBRANCH   9  10
ENDBRANCH   8   9
ENDBRANCH   7   8
ENDBRANCH   6   7
ENDBRANCH   5   6
ENDBRANCH   4   5
ENDBRANCH   3   4
ENDBRANCH   2   3
ENDBRANCH   1   2
BRANCH   1  17
ATOM     17  C   UNL     1     -14.462  60.439  -1.893  1.00  0.00     0.000 C 
BRANCH  17  18
ATOM     18  C   UNL     1     -13.015  60.963  -1.814  1.00  0.00     0.000 C 
BRANCH  18  19
ATOM     19  C   UNL     1     -12.648  61.884  -2.989  1.00  0.00     0.000 C 
BRANCH  19  20
ATOM     20  C   UNL     1     -12.977  61.267  -4.359  1.00  0.00     0.000 C 
BRANCH  20  21
ATOM     21  C   UNL     1     -13.664  62.243  -5.338  1.00  0.00     0.000 C 
BRANCH  21  22
ATOM     22  C   UNL     1     -12.810  62.501  -6.592  1.00  0.00    -0.000 C 
BRANCH  22  23
ATOM     23  C   UNL     1     -13.378  63.618  -7.488  1.00  0.00    -0.000 C 
BRANCH  23  24
ATOM     24  C   UNL     1     -13.897  63.149  -8.860  1.00  0.00    -0.000 C 
BRANCH  24  25
ATOM     25  C   UNL     1     -12.778  62.620  -9.777  1.00  0.00    -0.000 C 
BRANCH  25  26
ATOM     26  C   UNL     1     -11.896  61.565  -9.092  1.00  0.00    -0.000 C 
BRANCH  26  27
ATOM     27  C   UNL     1     -11.876  60.226  -9.851  1.00  0.00    -0.000 C 
BRANCH  27  28
ATOM     28  C   UNL     1     -12.397  59.056  -8.993  1.00  0.00    -0.000 C 
BRANCH  28  29
ATOM     29  C   UNL     1     -13.661  58.386  -9.559  1.00  0.00    -0.003 C 
ATOM     30  C   UNL     1     -14.943  58.831  -8.858  1.00  0.00     0.004 C 
ENDBRANCH  28  29
ENDBRANCH  27  28
ENDBRANCH  26  27
ENDBRANCH  25  26
ENDBRANCH  24  25
ENDBRANCH  23  24
ENDBRANCH  22  23
ENDBRANCH  21  22
ENDBRANCH  20  21
ENDBRANCH  19  20
ENDBRANCH  18  19
ENDBRANCH  17  18
ENDBRANCH   1  17
TORSDOF 26
ENDMDL
MODEL 2
REMARK VINA RESULT:    14.391      1.862      2.135
REMARK INTER + INTRA:          36.343
REMARK INTER:                  35.577
REMARK INTRA:                   0.766
REMARK UNBOUND:                 0.079
REMARK SMILES CCCCCCCCCCCCCCCCCCCCCCCCCCCC(=O)[O-]
REMARK SMILES IDX 15 1 16 2 17 3 18 4 19 5 20 6 21 7 22 8 23 9 24 10 25 11
REMARK SMILES IDX 26 12 27 13 28 14 29 15 30 16 14 17 13 18 12 19 11 20 10 21
REMARK SMILES IDX 9 22 8 23 7 24 6 25 5 26 4 27 3 28 2 29 1 30
REMARK H PARENT
REMARK Flexibility Score: inf
ROOT
ATOM      1  C   UNL     1     -15.501  61.154  -2.751  1.00  0.00     0.000 C 
ENDROOT
BRANCH   1   2
ATOM      2  C   UNL     1     -16.626  62.036  -2.175  1.00  0.00     0.000 C 
BRANCH   2   3
ATOM      3  C   UNL     1     -16.369  62.457  -0.719  1.00  0.00     0.000 C 
BRANCH   3   4
ATOM      4  C   UNL     1     -17.512  63.303  -0.129  1.00  0.00     0.000 C 
BRANCH   4   5
ATOM      5  C   UNL     1     -17.875  64.565  -0.933  1.00  0.00     0.000 C 
BRANCH   5   6
ATOM      6  C   UNL     1     -19.369  64.916  -0.861  1.00  0.00     0.000 C 
BRANCH   6   7
ATOM      7  C   UNL     1     -20.047  64.164   0.294  1.00  0.00     0.000 C 
BRANCH   7   8
ATOM      8  C   UNL     1     -20.189  62.658   0.025  1.00  0.00     0.000 C 
BRANCH   8   9
ATOM      9  C   UNL     1     -20.471  62.348  -1.456  1.00  0.00     0.000 C 
BRANCH   9  10
ATOM     10  C   UNL     1     -20.251  60.864  -1.798  1.00  0.00     0.000 C 
BRANCH  10  11
ATOM     11  C   UNL     1     -21.070  60.411  -3.020  1.00  0.00     0.000 C 
BRANCH  11  12
ATOM     12  C   UNL     1     -22.540  60.112  -2.672  1.00  0.00     0.006 C 
BRANCH  12  13
ATOM     13  C   UNL     1     -23.017  60.743  -1.354  1.00  0.00     0.053 C 
BRANCH  13  14
ATOM     14  C   UNL     1     -24.508  60.700  -1.216  1.00  0.00     0.041 C 
ATOM     15  O   UNL     1     -25.055  61.065  -0.143  1.00  0.00    -0.550 OA
ATOM     16  O   UNL     1     -25.289  60.219  -2.259  1.00  0.00    -0.550 OA
ENDBRANCH  13  14
ENDBRANCH  12  13
ENDBRANCH  11  12
ENDBRANCH  10  11
ENDBRANCH   9  10
ENDBRANCH   8   9
ENDBRANCH   7   8
ENDBRANCH   6   7
ENDBRANCH   5   6
ENDBRANCH   4   5
ENDBRANCH   3   4
ENDBRANCH   2   3
ENDBRANCH   1   2
BRANCH   1  17
ATOM     17  C   UNL     1     -14.505  60.588  -1.714  1.00  0.00     0.000 C 
BRANCH  17  18
ATOM     18  C   UNL     1     -13.089  61.195  -1.755  1.00  0.00     0.000 C 
BRANCH  18  19
ATOM     19  C   UNL     1     -12.915  62.233  -2.875  1.00  0.00     0.000 C 
BRANCH  19  20
ATOM     20  C   UNL     1     -12.864  61.600  -4.276  1.00  0.00     0.000 C 
BRANCH  20  21
ATOM     21  C   UNL     1     -13.833  62.243  -5.292  1.00  0.00     0.000 C 
BRANCH  21  22
ATOM     22  C   UNL     1     -13.093  62.821  -6.511  1.00  0.00    -0.000 C 
BRANCH  22  23
ATOM     23  C   UNL     1     -13.992  63.699  -7.401  1.00  0.00    -0.000 C 
BRANCH  23  24
ATOM     24  C   UNL     1     -14.213  63.165  -8.829  1.00  0.00    -0.000 C 
BRANCH  24  25
ATOM     25  C   UNL     1     -12.902  62.765  -9.530  1.00  0.00    -0.000 C 
BRANCH  25  26
ATOM     26  C   UNL     1     -12.112  61.701  -8.753  1.00  0.00    -0.000 C 
BRANCH  26  27
ATOM     27  C   UNL     1     -11.876  60.420  -9.575  1.00  0.00    -0.000 C 
BRANCH  27  28
ATOM     28  C   UNL     1     -12.487  59.172  -8.906  1.00  0.00    -0.000 C 
BRANCH  28  29
ATOM     29  C   UNL     1     -13.578  58.489  -9.746  1.00  0.00    -0.003 C 
ATOM     30  C   UNL     1     -14.829  58.141  -8.939  1.00  0.00     0.004 C 
ENDBRANCH  28  29
ENDBRANCH  27  28
ENDBRANCH  26  27
ENDBRANCH  25  26
ENDBRANCH  24  25
ENDBRANCH  23  24
ENDBRANCH  22  23
ENDBRANCH  21  22
ENDBRANCH  20  21
ENDBRANCH  19  20
ENDBRANCH  18  19
ENDBRANCH  17  18
ENDBRANCH   1  17
TORSDOF 26
ENDMDL
MODEL 3
REMARK VINA RESULT:    14.769      4.912     10.683
REMARK INTER + INTRA:          37.296
REMARK INTER:                  37.707
REMARK INTRA:                  -0.411
REMARK UNBOUND:                 0.079
REMARK SMILES CCCCCCCCCCCCCCCCCCCCCCCCCCCC(=O)[O-]
REMARK SMILES IDX 15 1 16 2 17 3 18 4 19 5 20 6 21 7 22 8 23 9 24 10 25 11
REMARK SMILES IDX 26 12 27 13 28 14 29 15 30 16 14 17 13 18 12 19 11 20 10 21
REMARK SMILES IDX 9 22 8 23 7 24 6 25 5 26 4 27 3 28 2 29 1 30
REMARK H PARENT
REMARK Flexibility Score: inf
ROOT
ATOM      1  C   UNL     1     -21.338  60.043  -3.353  1.00  0.00     0.000 C 
ENDROOT
BRANCH   1   2
ATOM      2  C   UNL     1     -20.491  60.496  -2.149  1.00  0.00     0.000 C 
BRANCH   2   3
ATOM      3  C   UNL     1     -19.519  61.636  -2.496  1.00  0.00     0.000 C 
BRANCH   3   4
ATOM      4  C   UNL     1     -20.235  62.895  -3.020  1.00  0.00     0.000 C 
BRANCH   4   5
ATOM      5  C   UNL     1     -19.963  64.182  -2.221  1.00  0.00     0.000 C 
BRANCH   5   6
ATOM      6  C   UNL     1     -20.193  64.014  -0.711  1.00  0.00     0.000 C 
BRANCH   6   7
ATOM      7  C   UNL     1     -19.079  63.161  -0.085  1.00  0.00     0.000 C 
BRANCH   7   8
ATOM      8  C   UNL     1     -17.675  63.730  -0.341  1.00  0.00     0.000 C 
BRANCH   8   9
ATOM      9  C   UNL     1     -16.600  62.632  -0.429  1.00  0.00     0.000 C 
BRANCH   9  10
ATOM     10  C   UNL     1     -16.585  61.933  -1.799  1.00  0.00     0.000 C 
BRANCH  10  11
ATOM     11  C   UNL     1     -15.180  61.450  -2.200  1.00  0.00     0.000 C 
BRANCH  11  12
ATOM     12  C   UNL     1     -14.934  59.973  -1.840  1.00  0.00     0.006 C 
BRANCH  12  13
ATOM     13  C   UNL     1     -13.648  59.727  -1.034  1.00  0.00     0.053 C 
BRANCH  13  14
ATOM     14  C   UNL     1     -12.703  60.886  -1.115  1.00  0.00     0.041 C 
ATOM     15  O   UNL     1     -12.234  61.396  -0.063  1.00  0.00    -0.550 OA
ATOM     16  O   UNL     1     -12.370  61.427  -2.351  1.00  0.00    -0.550 OA
ENDBRANCH  13  14
ENDBRANCH  12  13
ENDBRANCH  11  12
ENDBRANCH  10  11
ENDBRANCH   9  10
ENDBRANCH   8   9
ENDBRANCH   7   8
ENDBRANCH   6   7
ENDBRANCH   5   6
ENDBRANCH   4   5
ENDBRANCH   3   4
ENDBRANCH   2   3
ENDBRANCH   1   2
BRANCH   1  17
ATOM     17  C   UNL     1     -20.565  59.862  -4.679  1.00  0.00     0.000 C 
BRANCH  17  18
ATOM     18  C   UNL     1     -21.356  59.202  -5.824  1.00  0.00     0.000 C 
BRANCH  18  19
ATOM     19  C   UNL     1     -22.805  59.706  -5.918  1.00  0.00     0.000 C 
BRANCH  19  20
ATOM     20  C   UNL     1     -23.744  58.703  -6.609  1.00  0.00     0.000 C 
BRANCH  20  21
ATOM     21  C   UNL     1     -25.100  59.304  -7.037  1.00  0.00     0.000 C 
BRANCH  21  22
ATOM     22  C   UNL     1     -25.980  58.280  -7.775  1.00  0.00    -0.000 C 
BRANCH  22  23
ATOM     23  C   UNL     1     -26.005  56.902  -7.088  1.00  0.00    -0.000 C 
BRANCH  23  24
ATOM     24  C   UNL     1     -27.331  56.131  -7.227  1.00  0.00    -0.000 C 
BRANCH  24  25
ATOM     25  C   UNL     1     -27.700  55.336  -5.960  1.00  0.00    -0.000 C 
BRANCH  25  26
ATOM     26  C   UNL     1     -27.778  56.219  -4.705  1.00  0.00    -0.000 C 
BRANCH  26  27
ATOM     27  C   UNL     1     -29.006  57.147  -4.710  1.00  0.00    -0.000 C 
BRANCH  27  28
ATOM     28  C   UNL     1     -29.080  58.031  -3.449  1.00  0.00    -0.000 C 
BRANCH  28  29
ATOM     29  C   UNL     1     -28.350  59.377  -3.591  1.00  0.00    -0.003 C 
ATOM     30  C   UNL     1     -27.131  59.499  -2.678  1.00  0.00     0.004 C 
ENDBRANCH  28  29
ENDBRANCH  27  28
ENDBRANCH  26  27
ENDBRANCH  25  26
ENDBRANCH  24  25
ENDBRANCH  23  24
ENDBRANCH  22  23
ENDBRANCH  21  22
ENDBRANCH  20  21
ENDBRANCH  19  20
ENDBRANCH  18  19
ENDBRANCH  17  18
ENDBRANCH   1  17
TORSDOF 26
ENDMDL
MODEL 4
REMARK VINA RESULT:    14.936      3.353      9.425
REMARK INTER + INTRA:          37.716
REMARK INTER:                  36.672
REMARK INTRA:                   1.044
REMARK UNBOUND:                 0.079
REMARK SMILES CCCCCCCCCCCCCCCCCCCCCCCCCCCC(=O)[O-]
REMARK SMILES IDX 15 1 16 2 17 3 18 4 19 5 20 6 21 7 22 8 23 9 24 10 25 11
REMARK SMILES IDX 26 12 27 13 28 14 29 15 30 16 14 17 13 18 12 19 11 20 10 21
REMARK SMILES IDX 9 22 8 23 7 24 6 25 5 26 4 27 3 28 2 29 1 30
REMARK H PARENT
REMARK Flexibility Score: inf
ROOT
ATOM      1  C   UNL     1     -18.559  63.829  -0.210  1.00  0.00     0.000 C 
ENDROOT
BRANCH   1   2
ATOM      2  C   UNL     1     -17.124  63.284  -0.334  1.00  0.00     0.000 C 
BRANCH   2   3
ATOM      3  C   UNL     1     -17.014  62.109  -1.319  1.00  0.00     0.000 C 
BRANCH   3   4
ATOM      4  C   UNL     1     -15.629  62.012  -1.984  1.00  0.00     0.000 C 
BRANCH   4   5
ATOM      5  C   UNL     1     -14.892  60.677  -1.772  1.00  0.00     0.000 C 
BRANCH   5   6
ATOM      6  C   UNL     1     -13.452  60.857  -1.267  1.00  0.00     0.000 C 
BRANCH   6   7
ATOM      7  C   UNL     1     -12.554  61.420  -2.379  1.00  0.00     0.000 C 
BRANCH   7   8
ATOM      8  C   UNL     1     -13.323  61.716  -3.675  1.00  0.00     0.000 C 
BRANCH   8   9
ATOM      9  C   UNL     1     -12.538  61.305  -4.934  1.00  0.00     0.000 C 
BRANCH   9  10
ATOM     10  C   UNL     1     -12.579  62.383  -6.030  1.00  0.00     0.000 C 
BRANCH  10  11
ATOM     11  C   UNL     1     -12.618  61.785  -7.447  1.00  0.00     0.000 C 
BRANCH  11  12
ATOM     12  C   UNL     1     -12.027  62.730  -8.509  1.00  0.00     0.006 C 
BRANCH  12  13
ATOM     13  C   UNL     1     -13.011  63.120  -9.624  1.00  0.00     0.053 C 
BRANCH  13  14
ATOM     14  C   UNL     1     -14.422  63.203  -9.125  1.00  0.00     0.041 C 
ATOM     15  O   UNL     1     -14.652  63.283  -7.890  1.00  0.00    -0.550 OA
ATOM     16  O   UNL     1     -15.481  63.155 -10.022  1.00  0.00    -0.550 OA
ENDBRANCH  13  14
ENDBRANCH  12  13
ENDBRANCH  11  12
ENDBRANCH  10  11
ENDBRANCH   9  10
ENDBRANCH   8   9
ENDBRANCH   7   8
ENDBRANCH   6   7
ENDBRANCH   5   6
ENDBRANCH   4   5
ENDBRANCH   3   4
ENDBRANCH   2   3
ENDBRANCH   1   2
BRANCH   1  17
ATOM     17  C   UNL     1     -19.670  62.909  -0.765  1.00  0.00     0.000 C 
BRANCH  17  18
ATOM     18  C   UNL     1     -19.931  63.022  -2.279  1.00  0.00     0.000 C 
BRANCH  18  19
ATOM     19  C   UNL     1     -19.743  61.689  -3.020  1.00  0.00     0.000 C 
BRANCH  19  20
ATOM     20  C   UNL     1     -20.792  60.634  -2.629  1.00  0.00     0.000 C 
BRANCH  20  21
ATOM     21  C   UNL     1     -21.103  59.614  -3.745  1.00  0.00     0.000 C 
BRANCH  21  22
ATOM     22  C   UNL     1     -22.115  60.163  -4.766  1.00  0.00    -0.000 C 
BRANCH  22  23
ATOM     23  C   UNL     1     -22.042  59.450  -6.129  1.00  0.00    -0.000 C 
BRANCH  23  24
ATOM     24  C   UNL     1     -23.198  58.472  -6.413  1.00  0.00    -0.000 C 
BRANCH  24  25
ATOM     25  C   UNL     1     -24.344  59.114  -7.218  1.00  0.00    -0.000 C 
BRANCH  25  26
ATOM     26  C   UNL     1     -25.703  58.447  -6.954  1.00  0.00    -0.000 C 
BRANCH  26  27
ATOM     27  C   UNL     1     -25.604  56.912  -6.878  1.00  0.00    -0.000 C 
BRANCH  27  28
ATOM     28  C   UNL     1     -26.946  56.221  -7.193  1.00  0.00    -0.000 C 
BRANCH  28  29
ATOM     29  C   UNL     1     -28.030  56.456  -6.129  1.00  0.00    -0.003 C 
ATOM     30  C   UNL     1     -27.762  55.712  -4.822  1.00  0.00     0.004 C 
ENDBRANCH  28  29
ENDBRANCH  27  28
ENDBRANCH  26  27
ENDBRANCH  25  26
ENDBRANCH  24  25
ENDBRANCH  23  24
ENDBRANCH  22  23
ENDBRANCH  21  22
ENDBRANCH  20  21
ENDBRANCH  19  20
ENDBRANCH  18  19
ENDBRANCH  17  18
ENDBRANCH   1  17
TORSDOF 26
ENDMDL
MODEL 5
REMARK VINA RESULT:    15.316      5.178     11.599
REMARK INTER + INTRA:          38.675
REMARK INTER:                  39.754
REMARK INTRA:                  -1.079
REMARK UNBOUND:                 0.079
REMARK SMILES CCCCCCCCCCCCCCCCCCCCCCCCCCCC(=O)[O-]
REMARK SMILES IDX 15 1 16 2 17 3 18 4 19 5 20 6 21 7 22 8 23 9 24 10 25 11
REMARK SMILES IDX 26 12 27 13 28 14 29 15 30 16 14 17 13 18 12 19 11 20 10 21
REMARK SMILES IDX 9 22 8 23 7 24 6 25 5 26 4 27 3 28 2 29 1 30
REMARK H PARENT
REMARK Flexibility Score: inf
ROOT
ATOM      1  C   UNL     1     -20.606  59.831  -4.673  1.00  0.00     0.000 C 
ENDROOT
BRANCH   1   2
ATOM      2  C   UNL     1     -21.500  60.278  -3.501  1.00  0.00     0.000 C 
BRANCH   2   3
ATOM      3  C   UNL     1     -20.694  60.710  -2.265  1.00  0.00     0.000 C 
BRANCH   3   4
ATOM      4  C   UNL     1     -19.718  61.864  -2.559  1.00  0.00     0.000 C 
BRANCH   4   5
ATOM      5  C   UNL     1     -20.258  63.273  -2.254  1.00  0.00     0.000 C 
BRANCH   5   6
ATOM      6  C   UNL     1     -20.379  63.558  -0.749  1.00  0.00     0.000 C 
BRANCH   6   7
ATOM      7  C   UNL     1     -19.148  64.327  -0.243  1.00  0.00     0.000 C 
BRANCH   7   8
ATOM      8  C   UNL     1     -17.846  63.887  -0.929  1.00  0.00     0.000 C 
BRANCH   8   9
ATOM      9  C   UNL     1     -17.217  62.650  -0.263  1.00  0.00     0.000 C 
BRANCH   9  10
ATOM     10  C   UNL     1     -16.965  61.509  -1.264  1.00  0.00     0.000 C 
BRANCH  10  11
ATOM     11  C   UNL     1     -16.067  61.940  -2.438  1.00  0.00     0.000 C 
BRANCH  11  12
ATOM     12  C   UNL     1     -14.577  61.642  -2.187  1.00  0.00     0.006 C 
BRANCH  12  13
ATOM     13  C   UNL     1     -14.318  60.354  -1.390  1.00  0.00     0.053 C 
BRANCH  13  14
ATOM     14  C   UNL     1     -12.880  60.218  -0.991  1.00  0.00     0.041 C 
ATOM     15  O   UNL     1     -12.562  59.508  -0.002  1.00  0.00    -0.550 OA
ATOM     16  O   UNL     1     -11.897  60.907  -1.690  1.00  0.00    -0.550 OA
ENDBRANCH  13  14
ENDBRANCH  12  13
ENDBRANCH  11  12
ENDBRANCH  10  11
ENDBRANCH   9  10
ENDBRANCH   8   9
ENDBRANCH   7   8
ENDBRANCH   6   7
ENDBRANCH   5   6
ENDBRANCH   4   5
ENDBRANCH   3   4
ENDBRANCH   2   3
ENDBRANCH   1   2
BRANCH   1  17
ATOM     17  C   UNL     1     -21.335  59.105  -5.825  1.00  0.00     0.000 C 
BRANCH  17  18
ATOM     18  C   UNL     1     -22.741  59.638  -6.162  1.00  0.00     0.000 C 
BRANCH  18  19
ATOM     19  C   UNL     1     -23.608  58.609  -6.905  1.00  0.00     0.000 C 
BRANCH  19  20
ATOM     20  C   UNL     1     -25.112  58.922  -6.820  1.00  0.00     0.000 C 
BRANCH  20  21
ATOM     21  C   UNL     1     -26.013  57.857  -7.481  1.00  0.00     0.000 C 
BRANCH  21  22
ATOM     22  C   UNL     1     -26.320  56.687  -6.529  1.00  0.00    -0.000 C 
BRANCH  22  23
ATOM     23  C   UNL     1     -27.820  56.554  -6.204  1.00  0.00    -0.000 C 
BRANCH  23  24
ATOM     24  C   UNL     1     -28.147  56.371  -4.710  1.00  0.00    -0.000 C 
BRANCH  24  25
ATOM     25  C   UNL     1     -29.075  57.469  -4.158  1.00  0.00    -0.000 C 
BRANCH  25  26
ATOM     26  C   UNL     1     -28.306  58.695  -3.644  1.00  0.00    -0.000 C 
BRANCH  26  27
ATOM     27  C   UNL     1     -28.643  59.034  -2.180  1.00  0.00    -0.000 C 
BRANCH  27  28
ATOM     28  C   UNL     1     -29.719  58.098  -1.593  1.00  0.00    -0.000 C 
BRANCH  28  29
ATOM     29  C   UNL     1     -29.964  58.301  -0.089  1.00  0.00    -0.003 C 
ATOM     30  C   UNL     1     -31.218  59.121   0.210  1.00  0.00     0.004 C 
ENDBRANCH  28  29
ENDBRANCH  27  28
ENDBRANCH  26  27
ENDBRANCH  25  26
ENDBRANCH  24  25
ENDBRANCH  23  24
ENDBRANCH  22  23
ENDBRANCH  21  22
ENDBRANCH  20  21
ENDBRANCH  19  20
ENDBRANCH  18  19
ENDBRANCH  17  18
ENDBRANCH   1  17
TORSDOF 26
ENDMDL
MODEL 6
REMARK VINA RESULT:    15.411      5.480      9.694
REMARK INTER + INTRA:          38.913
REMARK INTER:                  37.794
REMARK INTRA:                   1.120
REMARK UNBOUND:                 0.079
REMARK SMILES CCCCCCCCCCCCCCCCCCCCCCCCCCCC(=O)[O-]
REMARK SMILES IDX 15 1 16 2 17 3 18 4 19 5 20 6 21 7 22 8 23 9 24 10 25 11
REMARK SMILES IDX 26 12 27 13 28 14 29 15 30 16 14 17 13 18 12 19 11 20 10 21
REMARK SMILES IDX 9 22 8 23 7 24 6 25 5 26 4 27 3 28 2 29 1 30
REMARK H PARENT
REMARK Flexibility Score: inf
ROOT
ATOM      1  C   UNL     1     -21.413  58.983  -5.748  1.00  0.00     0.000 C 
ENDROOT
BRANCH   1   2
ATOM      2  C   UNL     1     -22.689  58.517  -6.474  1.00  0.00     0.000 C 
BRANCH   2   3
ATOM      3  C   UNL     1     -23.884  59.457  -6.246  1.00  0.00     0.000 C 
BRANCH   3   4
ATOM      4  C   UNL     1     -25.143  59.027  -7.021  1.00  0.00     0.000 C 
BRANCH   4   5
ATOM      5  C   UNL     1     -25.330  57.506  -7.172  1.00  0.00     0.000 C 
BRANCH   5   6
ATOM      6  C   UNL     1     -26.782  57.054  -6.957  1.00  0.00     0.000 C 
BRANCH   6   7
ATOM      7  C   UNL     1     -26.850  55.928  -5.914  1.00  0.00     0.000 C 
BRANCH   7   8
ATOM      8  C   UNL     1     -27.968  56.136  -4.882  1.00  0.00     0.000 C 
BRANCH   8   9
ATOM      9  C   UNL     1     -28.172  57.619  -4.525  1.00  0.00     0.000 C 
BRANCH   9  10
ATOM     10  C   UNL     1     -29.342  57.833  -3.548  1.00  0.00     0.000 C 
BRANCH  10  11
ATOM     11  C   UNL     1     -28.889  58.435  -2.206  1.00  0.00     0.000 C 
BRANCH  11  12
ATOM     12  C   UNL     1     -30.004  59.233  -1.505  1.00  0.00     0.006 C 
BRANCH  12  13
ATOM     13  C   UNL     1     -30.528  58.581  -0.215  1.00  0.00     0.053 C 
BRANCH  13  14
ATOM     14  C   UNL     1     -31.327  59.539   0.615  1.00  0.00     0.041 C 
ATOM     15  O   UNL     1     -31.740  59.198   1.754  1.00  0.00    -0.550 OA
ATOM     16  O   UNL     1     -31.648  60.794   0.112  1.00  0.00    -0.550 OA
ENDBRANCH  13  14
ENDBRANCH  12  13
ENDBRANCH  11  12
ENDBRANCH  10  11
ENDBRANCH   9  10
ENDBRANCH   8   9
ENDBRANCH   7   8
ENDBRANCH   6   7
ENDBRANCH   5   6
ENDBRANCH   4   5
ENDBRANCH   3   4
ENDBRANCH   2   3
ENDBRANCH   1   2
BRANCH   1  17
ATOM     17  C   UNL     1     -21.639  59.936  -4.553  1.00  0.00     0.000 C 
BRANCH  17  18
ATOM     18  C   UNL     1     -20.386  60.260  -3.716  1.00  0.00     0.000 C 
BRANCH  18  19
ATOM     19  C   UNL     1     -20.697  61.127  -2.486  1.00  0.00     0.000 C 
BRANCH  19  20
ATOM     20  C   UNL     1     -19.683  62.265  -2.283  1.00  0.00     0.000 C 
BRANCH  20  21
ATOM     21  C   UNL     1     -20.252  63.488  -1.533  1.00  0.00     0.000 C 
BRANCH  21  22
ATOM     22  C   UNL     1     -19.420  63.842  -0.288  1.00  0.00    -0.000 C 
BRANCH  22  23
ATOM     23  C   UNL     1     -18.229  62.891  -0.069  1.00  0.00    -0.000 C 
BRANCH  23  24
ATOM     24  C   UNL     1     -17.443  62.531  -1.344  1.00  0.00    -0.000 C 
BRANCH  24  25
ATOM     25  C   UNL     1     -15.921  62.480  -1.117  1.00  0.00    -0.000 C 
BRANCH  25  26
ATOM     26  C   UNL     1     -15.270  61.226  -1.723  1.00  0.00    -0.000 C 
BRANCH  26  27
ATOM     27  C   UNL     1     -14.390  61.547  -2.945  1.00  0.00    -0.000 C 
BRANCH  27  28
ATOM     28  C   UNL     1     -12.890  61.591  -2.593  1.00  0.00    -0.000 C 
BRANCH  28  29
ATOM     29  C   UNL     1     -12.433  60.442  -1.678  1.00  0.00    -0.003 C 
ATOM     30  C   UNL     1     -13.100  60.467  -0.304  1.00  0.00     0.004 C 
ENDBRANCH  28  29
ENDBRANCH  27  28
ENDBRANCH  26  27
ENDBRANCH  25  26
ENDBRANCH  24  25
ENDBRANCH  23  24
ENDBRANCH  22  23
ENDBRANCH  21  22
ENDBRANCH  20  21
ENDBRANCH  19  20
ENDBRANCH  18  19
ENDBRANCH  17  18
ENDBRANCH   1  17
TORSDOF 26
ENDMDL
MODEL 7
REMARK VINA RESULT:    15.425      4.073      8.049
REMARK INTER + INTRA:          38.949
REMARK INTER:                  39.055
REMARK INTRA:                  -0.106
REMARK UNBOUND:                 0.079
REMARK SMILES CCCCCCCCCCCCCCCCCCCCCCCCCCCC(=O)[O-]
REMARK SMILES IDX 15 1 16 2 17 3 18 4 19 5 20 6 21 7 22 8 23 9 24 10 25 11
REMARK SMILES IDX 26 12 27 13 28 14 29 15 30 16 14 17 13 18 12 19 11 20 10 21
REMARK SMILES IDX 9 22 8 23 7 24 6 25 5 26 4 27 3 28 2 29 1 30
REMARK H PARENT
REMARK Flexibility Score: inf
ROOT
ATOM      1  C   UNL     1     -19.625  61.689  -2.755  1.00  0.00     0.000 C 
ENDROOT
BRANCH   1   2
ATOM      2  C   UNL     1     -20.714  60.767  -2.175  1.00  0.00     0.000 C 
BRANCH   2   3
ATOM      3  C   UNL     1     -21.454  59.962  -3.255  1.00  0.00     0.000 C 
BRANCH   3   4
ATOM      4  C   UNL     1     -20.743  59.996  -4.621  1.00  0.00     0.000 C 
BRANCH   4   5
ATOM      5  C   UNL     1     -21.450  59.220  -5.746  1.00  0.00     0.000 C 
BRANCH   5   6
ATOM      6  C   UNL     1     -22.924  59.617  -5.919  1.00  0.00     0.000 C 
BRANCH   6   7
ATOM      7  C   UNL     1     -23.734  58.450  -6.506  1.00  0.00     0.000 C 
BRANCH   7   8
ATOM      8  C   UNL     1     -24.907  58.919  -7.381  1.00  0.00     0.000 C 
BRANCH   8   9
ATOM      9  C   UNL     1     -26.155  58.033  -7.217  1.00  0.00     0.000 C 
BRANCH   9  10
ATOM     10  C   UNL     1     -25.834  56.534  -7.353  1.00  0.00     0.000 C 
BRANCH  10  11
ATOM     11  C   UNL     1     -26.829  55.646  -6.586  1.00  0.00     0.000 C 
BRANCH  11  12
ATOM     12  C   UNL     1     -28.025  56.438  -6.026  1.00  0.00     0.006 C 
BRANCH  12  13
ATOM     13  C   UNL     1     -28.020  56.588  -4.496  1.00  0.00     0.053 C 
BRANCH  13  14
ATOM     14  C   UNL     1     -28.684  57.856  -4.053  1.00  0.00     0.041 C 
ATOM     15  O   UNL     1     -29.938  57.914  -3.955  1.00  0.00    -0.550 OA
ATOM     16  O   UNL     1     -27.918  58.984  -3.785  1.00  0.00    -0.550 OA
ENDBRANCH  13  14
ENDBRANCH  12  13
ENDBRANCH  11  12
ENDBRANCH  10  11
ENDBRANCH   9  10
ENDBRANCH   8   9
ENDBRANCH   7   8
ENDBRANCH   6   7
ENDBRANCH   5   6
ENDBRANCH   4   5
ENDBRANCH   3   4
ENDBRANCH   2   3
ENDBRANCH   1   2
BRANCH   1  17
ATOM     17  C   UNL     1     -20.085  63.123  -3.104  1.00  0.00     0.000 C 
BRANCH  17  18
ATOM     18  C   UNL     1     -19.691  64.212  -2.087  1.00  0.00     0.000 C 
BRANCH  18  19
ATOM     19  C   UNL     1     -20.711  64.363  -0.948  1.00  0.00     0.000 C 
BRANCH  19  20
ATOM     20  C   UNL     1     -20.751  63.143  -0.013  1.00  0.00     0.000 C 
BRANCH  20  21
ATOM     21  C   UNL     1     -19.362  62.682   0.478  1.00  0.00     0.000 C 
BRANCH  21  22
ATOM     22  C   UNL     1     -18.230  63.563  -0.079  1.00  0.00    -0.000 C 
BRANCH  22  23
ATOM     23  C   UNL     1     -16.881  62.826  -0.164  1.00  0.00    -0.000 C 
BRANCH  23  24
ATOM     24  C   UNL     1     -16.375  62.560  -1.594  1.00  0.00    -0.000 C 
BRANCH  24  25
ATOM     25  C   UNL     1     -15.642  61.212  -1.732  1.00  0.00    -0.000 C 
BRANCH  25  26
ATOM     26  C   UNL     1     -14.674  61.180  -2.925  1.00  0.00    -0.000 C 
BRANCH  26  27
ATOM     27  C   UNL     1     -13.360  61.931  -2.642  1.00  0.00    -0.000 C 
BRANCH  27  28
ATOM     28  C   UNL     1     -12.259  61.002  -2.091  1.00  0.00    -0.000 C 
BRANCH  28  29
ATOM     29  C   UNL     1     -12.763  60.000  -1.039  1.00  0.00    -0.003 C 
ATOM     30  C   UNL     1     -12.593  60.498   0.396  1.00  0.00     0.004 C 
ENDBRANCH  28  29
ENDBRANCH  27  28
ENDBRANCH  26  27
ENDBRANCH  25  26
ENDBRANCH  24  25
ENDBRANCH  23  24
ENDBRANCH  22  23
ENDBRANCH  21  22
ENDBRANCH  20  21
ENDBRANCH  19  20
ENDBRANCH  18  19
ENDBRANCH  17  18
ENDBRANCH   1  17
TORSDOF 26
ENDMDL
MODEL 8
REMARK VINA RESULT:    16.003      3.349      5.934
REMARK INTER + INTRA:          40.405
REMARK INTER:                  41.347
REMARK INTRA:                  -0.942
REMARK UNBOUND:                 0.079
REMARK SMILES CCCCCCCCCCCCCCCCCCCCCCCCCCCC(=O)[O-]
REMARK SMILES IDX 15 1 16 2 17 3 18 4 19 5 20 6 21 7 22 8 23 9 24 10 25 11
REMARK SMILES IDX 26 12 27 13 28 14 29 15 30 16 14 17 13 18 12 19 11 20 10 21
REMARK SMILES IDX 9 22 8 23 7 24 6 25 5 26 4 27 3 28 2 29 1 30
REMARK H PARENT
REMARK Flexibility Score: inf
ROOT
ATOM      1  C   UNL     1     -19.483  62.803  -1.582  1.00  0.00     0.000 C 
ENDROOT
BRANCH   1   2
ATOM      2  C   UNL     1     -20.194  61.499  -1.174  1.00  0.00     0.000 C 
BRANCH   2   3
ATOM      3  C   UNL     1     -21.265  61.060  -2.187  1.00  0.00     0.000 C 
BRANCH   3   4
ATOM      4  C   UNL     1     -20.691  60.211  -3.336  1.00  0.00     0.000 C 
BRANCH   4   5
ATOM      5  C   UNL     1     -21.550  60.171  -4.612  1.00  0.00     0.000 C 
BRANCH   5   6
ATOM      6  C   UNL     1     -21.076  59.118  -5.626  1.00  0.00     0.000 C 
BRANCH   6   7
ATOM      7  C   UNL     1     -22.263  58.564  -6.427  1.00  0.00     0.000 C 
BRANCH   7   8
ATOM      8  C   UNL     1     -23.602  59.208  -6.034  1.00  0.00     0.000 C 
BRANCH   8   9
ATOM      9  C   UNL     1     -24.675  59.051  -7.126  1.00  0.00     0.000 C 
BRANCH   9  10
ATOM     10  C   UNL     1     -25.306  57.648  -7.133  1.00  0.00     0.000 C 
BRANCH  10  11
ATOM     11  C   UNL     1     -26.760  57.651  -6.629  1.00  0.00     0.000 C 
BRANCH  11  12
ATOM     12  C   UNL     1     -27.208  56.276  -6.098  1.00  0.00     0.006 C 
BRANCH  12  13
ATOM     13  C   UNL     1     -27.826  56.316  -4.691  1.00  0.00     0.053 C 
BRANCH  13  14
ATOM     14  C   UNL     1     -28.756  57.477  -4.518  1.00  0.00     0.041 C 
ATOM     15  O   UNL     1     -29.880  57.478  -5.085  1.00  0.00    -0.550 OA
ATOM     16  O   UNL     1     -28.365  58.575  -3.761  1.00  0.00    -0.550 OA
ENDBRANCH  13  14
ENDBRANCH  12  13
ENDBRANCH  11  12
ENDBRANCH  10  11
ENDBRANCH   9  10
ENDBRANCH   8   9
ENDBRANCH   7   8
ENDBRANCH   6   7
ENDBRANCH   5   6
ENDBRANCH   4   5
ENDBRANCH   3   4
ENDBRANCH   2   3
ENDBRANCH   1   2
BRANCH   1  17
ATOM     17  C   UNL     1     -18.337  63.253  -0.648  1.00  0.00     0.000 C 
BRANCH  17  18
ATOM     18  C   UNL     1     -17.066  62.383  -0.688  1.00  0.00     0.000 C 
BRANCH  18  19
ATOM     19  C   UNL     1     -16.210  62.632  -1.940  1.00  0.00     0.000 C 
BRANCH  19  20
ATOM     20  C   UNL     1     -15.503  61.363  -2.445  1.00  0.00     0.000 C 
BRANCH  20  21
ATOM     21  C   UNL     1     -14.151  61.081  -1.757  1.00  0.00     0.000 C 
BRANCH  21  22
ATOM     22  C   UNL     1     -13.017  61.948  -2.333  1.00  0.00    -0.000 C 
BRANCH  22  23
ATOM     23  C   UNL     1     -12.447  61.394  -3.652  1.00  0.00    -0.000 C 
BRANCH  23  24
ATOM     24  C   UNL     1     -13.273  61.729  -4.908  1.00  0.00    -0.000 C 
BRANCH  24  25
ATOM     25  C   UNL     1     -12.439  61.694  -6.202  1.00  0.00    -0.000 C 
BRANCH  25  26
ATOM     26  C   UNL     1     -12.968  62.657  -7.277  1.00  0.00    -0.000 C 
BRANCH  26  27
ATOM     27  C   UNL     1     -12.025  62.768  -8.488  1.00  0.00    -0.000 C 
BRANCH  27  28
ATOM     28  C   UNL     1     -12.310  61.691  -9.555  1.00  0.00    -0.000 C 
BRANCH  28  29
ATOM     29  C   UNL     1     -13.690  61.028  -9.414  1.00  0.00    -0.003 C 
ATOM     30  C   UNL     1     -14.832  61.899  -9.935  1.00  0.00     0.004 C 
ENDBRANCH  28  29
ENDBRANCH  27  28
ENDBRANCH  26  27
ENDBRANCH  25  26
ENDBRANCH  24  25
ENDBRANCH  23  24
ENDBRANCH  22  23
ENDBRANCH  21  22
ENDBRANCH  20  21
ENDBRANCH  19  20
ENDBRANCH  18  19
ENDBRANCH  17  18
ENDBRANCH   1  17
TORSDOF 26
ENDMDL
MODEL 9
REMARK VINA RESULT:    16.099      4.784     11.344
REMARK INTER + INTRA:          40.647
REMARK INTER:                  42.216
REMARK INTRA:                  -1.569
REMARK UNBOUND:                 0.079
REMARK SMILES CCCCCCCCCCCCCCCCCCCCCCCCCCCC(=O)[O-]
REMARK SMILES IDX 15 1 16 2 17 3 18 4 19 5 20 6 21 7 22 8 23 9 24 10 25 11
REMARK SMILES IDX 26 12 27 13 28 14 29 15 30 16 14 17 13 18 12 19 11 20 10 21
REMARK SMILES IDX 9 22 8 23 7 24 6 25 5 26 4 27 3 28 2 29 1 30
REMARK H PARENT
REMARK Flexibility Score: inf
ROOT
ATOM      1  C   UNL     1     -22.489  58.711  -6.292  1.00  0.00     0.000 C 
ENDROOT
BRANCH   1   2
ATOM      2  C   UNL     1     -21.299  59.407  -5.603  1.00  0.00     0.000 C 
BRANCH   2   3
ATOM      3  C   UNL     1     -21.735  60.382  -4.498  1.00  0.00     0.000 C 
BRANCH   3   4
ATOM      4  C   UNL     1     -21.019  60.128  -3.158  1.00  0.00     0.000 C 
BRANCH   4   5
ATOM      5  C   UNL     1     -19.989  61.198  -2.754  1.00  0.00     0.000 C 
BRANCH   5   6
ATOM      6  C   UNL     1     -20.168  61.693  -1.310  1.00  0.00     0.000 C 
BRANCH   6   7
ATOM      7  C   UNL     1     -20.777  63.103  -1.293  1.00  0.00     0.000 C 
BRANCH   7   8
ATOM      8  C   UNL     1     -20.140  64.015  -0.233  1.00  0.00     0.000 C 
BRANCH   8   9
ATOM      9  C   UNL     1     -18.657  64.309  -0.521  1.00  0.00     0.000 C 
BRANCH   9  10
ATOM     10  C   UNL     1     -17.751  63.101  -0.225  1.00  0.00     0.000 C 
BRANCH  10  11
ATOM     11  C   UNL     1     -16.836  62.744  -1.410  1.00  0.00     0.000 C 
BRANCH  11  12
ATOM     12  C   UNL     1     -15.726  61.748  -1.025  1.00  0.00     0.006 C 
BRANCH  12  13
ATOM     13  C   UNL     1     -14.957  61.168  -2.223  1.00  0.00     0.053 C 
BRANCH  13  14
ATOM     14  C   UNL     1     -13.480  61.128  -1.978  1.00  0.00     0.041 C 
ATOM     15  O   UNL     1     -12.704  61.839  -2.669  1.00  0.00    -0.550 OA
ATOM     16  O   UNL     1     -12.958  60.276  -1.012  1.00  0.00    -0.550 OA
ENDBRANCH  13  14
ENDBRANCH  12  13
ENDBRANCH  11  12
ENDBRANCH  10  11
ENDBRANCH   9  10
ENDBRANCH   8   9
ENDBRANCH   7   8
ENDBRANCH   6   7
ENDBRANCH   5   6
ENDBRANCH   4   5
ENDBRANCH   3   4
ENDBRANCH   2   3
ENDBRANCH   1   2
BRANCH   1  17
ATOM     17  C   UNL     1     -23.765  59.570  -6.440  1.00  0.00     0.000 C 
BRANCH  17  18
ATOM     18  C   UNL     1     -24.974  58.858  -7.077  1.00  0.00     0.000 C 
BRANCH  18  19
ATOM     19  C   UNL     1     -24.988  57.345  -6.807  1.00  0.00     0.000 C 
BRANCH  19  20
ATOM     20  C   UNL     1     -25.928  56.576  -7.751  1.00  0.00     0.000 C 
BRANCH  20  21
ATOM     21  C   UNL     1     -27.225  56.080  -7.078  1.00  0.00     0.000 C 
BRANCH  21  22
ATOM     22  C   UNL     1     -27.102  56.035  -5.545  1.00  0.00    -0.000 C 
BRANCH  22  23
ATOM     23  C   UNL     1     -28.463  55.916  -4.835  1.00  0.00    -0.000 C 
BRANCH  23  24
ATOM     24  C   UNL     1     -29.176  57.254  -4.567  1.00  0.00    -0.000 C 
BRANCH  24  25
ATOM     25  C   UNL     1     -28.596  58.014  -3.359  1.00  0.00    -0.000 C 
BRANCH  25  26
ATOM     26  C   UNL     1     -27.778  59.249  -3.770  1.00  0.00    -0.000 C 
BRANCH  26  27
ATOM     27  C   UNL     1     -27.105  59.938  -2.570  1.00  0.00    -0.000 C 
BRANCH  27  28
ATOM     28  C   UNL     1     -26.378  58.938  -1.649  1.00  0.00    -0.000 C 
BRANCH  28  29
ATOM     29  C   UNL     1     -25.413  59.600  -0.652  1.00  0.00    -0.003 C 
ATOM     30  C   UNL     1     -24.639  60.773  -1.253  1.00  0.00     0.004 C 
ENDBRANCH  28  29
ENDBRANCH  27  28
ENDBRANCH  26  27
ENDBRANCH  25  26
ENDBRANCH  24  25
ENDBRANCH  23  24
ENDBRANCH  22  23
ENDBRANCH  21  22
ENDBRANCH  20  21
ENDBRANCH  19  20
ENDBRANCH  18  19
ENDBRANCH  17  18
ENDBRANCH   1  17
TORSDOF 26
ENDMDL
