MODEL 1
REMARK VINA RESULT:    -5.188      0.000      0.000
REMARK INTER + INTRA:          -5.340
REMARK INTER:                  -5.340
REMARK INTRA:                   0.000
REMARK UNBOUND:                 0.000
REMARK SMILES CC1(C)[C@H]2CC[C@]1(C)[C@@H](O)C2
REMARK SMILES IDX 1 1 2 2 4 3 5 4 6 5 7 6 9 7 11 8 8 9 3 10 10 11
REMARK H PARENT 10 12
REMARK Flexibility Score: inf
ROOT
ATOM      1  C   UNL     1     118.755 118.184 120.807  1.00  0.00     0.012 C 
ATOM      2  C   UNL     1     118.532 118.283 119.267  1.00  0.00    -0.025 C 
ATOM      3  C   UNL     1     119.809 118.602 118.474  1.00  0.00    -0.002 C 
ATOM      4  C   UNL     1     119.297 118.761 117.022  1.00  0.00     0.005 C 
ATOM      5  C   UNL     1     117.916 119.422 117.216  1.00  0.00     0.010 C 
ATOM      6  C   UNL     1     117.824 119.564 118.762  1.00  0.00    -0.001 C 
ATOM      7  C   UNL     1     118.812 120.712 119.134  1.00  0.00     0.121 C 
ATOM      8  C   UNL     1     120.188 120.026 118.958  1.00  0.00     0.036 C 
ATOM      9  C   UNL     1     116.385 119.779 119.256  1.00  0.00     0.015 C 
ATOM     10  C   UNL     1     117.852 116.940 118.854  1.00  0.00     0.012 C 
ENDROOT
BRANCH   7  11
ATOM     11  O   UNL     1     118.618 121.164 120.450  1.00  0.00    -0.393 OA
ATOM     12  H   UNL     1     118.187 122.055 120.380  1.00  0.00     0.210 HD
ENDBRANCH   7  11
TORSDOF 1
ENDMDL
MODEL 2
REMARK VINA RESULT:    -5.187      1.408      2.418
REMARK INTER + INTRA:          -5.339
REMARK INTER:                  -5.339
REMARK INTRA:                   0.000
REMARK UNBOUND:                 0.000
REMARK SMILES CC1(C)[C@H]2CC[C@]1(C)[C@@H](O)C2
REMARK SMILES IDX 1 1 2 2 4 3 5 4 6 5 7 6 9 7 11 8 8 9 3 10 10 11
REMARK H PARENT 10 12
REMARK Flexibility Score: inf
ROOT
ATOM      1  C   UNL     1     118.322 119.331 120.877  1.00  0.00     0.012 C 
ATOM      2  C   UNL     1     118.290 119.296 119.318  1.00  0.00    -0.025 C 
ATOM      3  C   UNL     1     118.354 117.878 118.729  1.00  0.00    -0.002 C 
ATOM      4  C   UNL     1     118.429 118.129 117.203  1.00  0.00     0.005 C 
ATOM      5  C   UNL     1     119.283 119.411 117.109  1.00  0.00     0.010 C 
ATOM      6  C   UNL     1     119.594 119.720 118.601  1.00  0.00    -0.001 C 
ATOM      7  C   UNL     1     120.634 118.644 119.041  1.00  0.00     0.121 C 
ATOM      8  C   UNL     1     119.757 117.372 119.154  1.00  0.00     0.036 C 
ATOM      9  C   UNL     1     120.048 121.170 118.826  1.00  0.00     0.015 C 
ATOM     10  C   UNL     1     117.014 120.094 118.906  1.00  0.00     0.012 C 
ENDROOT
BRANCH   7  11
ATOM     11  O   UNL     1     121.240 118.970 120.265  1.00  0.00    -0.393 OA
ATOM     12  H   UNL     1     122.075 118.436 120.315  1.00  0.00     0.210 HD
ENDBRANCH   7  11
TORSDOF 1
ENDMDL
MODEL 3
REMARK VINA RESULT:    -5.187      1.712      3.213
REMARK INTER + INTRA:          -5.339
REMARK INTER:                  -5.339
REMARK INTRA:                   0.000
REMARK UNBOUND:                 0.000
REMARK SMILES CC1(C)[C@H]2CC[C@]1(C)[C@@H](O)C2
REMARK SMILES IDX 1 1 2 2 4 3 5 4 6 5 7 6 9 7 11 8 8 9 3 10 10 11
REMARK H PARENT 10 12
REMARK Flexibility Score: inf
ROOT
ATOM      1  C   UNL     1     118.908 119.461 120.813  1.00  0.00     0.012 C 
ATOM      2  C   UNL     1     119.112 119.376 119.269  1.00  0.00    -0.025 C 
ATOM      3  C   UNL     1     117.819 119.092 118.488  1.00  0.00    -0.002 C 
ATOM      4  C   UNL     1     118.311 118.939 117.028  1.00  0.00     0.005 C 
ATOM      5  C   UNL     1     119.680 118.249 117.199  1.00  0.00     0.010 C 
ATOM      6  C   UNL     1     119.788 118.087 118.741  1.00  0.00    -0.001 C 
ATOM      7  C   UNL     1     118.781 116.955 119.112  1.00  0.00     0.121 C 
ATOM      8  C   UNL     1     117.416 117.670 118.960  1.00  0.00     0.036 C 
ATOM      9  C   UNL     1     121.227 117.837 119.216  1.00  0.00     0.015 C 
ATOM     10  C   UNL     1     119.814 120.710 118.863  1.00  0.00     0.012 C 
ENDROOT
BRANCH   7  11
ATOM     11  O   UNL     1     118.980 116.484 120.421  1.00  0.00    -0.393 OA
ATOM     12  H   UNL     1     119.816 116.908 120.747  1.00  0.00     0.210 HD
ENDBRANCH   7  11
TORSDOF 1
ENDMDL
MODEL 4
REMARK VINA RESULT:    -5.167      1.371      2.269
REMARK INTER + INTRA:          -5.318
REMARK INTER:                  -5.318
REMARK INTRA:                   0.000
REMARK UNBOUND:                 0.000
REMARK SMILES CC1(C)[C@H]2CC[C@]1(C)[C@@H](O)C2
REMARK SMILES IDX 1 1 2 2 4 3 5 4 6 5 7 6 9 7 11 8 8 9 3 10 10 11
REMARK H PARENT 10 12
REMARK Flexibility Score: inf
ROOT
ATOM      1  C   UNL     1     119.460 118.730 120.809  1.00  0.00     0.012 C 
ATOM      2  C   UNL     1     119.375 118.502 119.269  1.00  0.00    -0.025 C 
ATOM      3  C   UNL     1     119.080 119.780 118.468  1.00  0.00    -0.002 C 
ATOM      4  C   UNL     1     118.931 119.265 117.016  1.00  0.00     0.005 C 
ATOM      5  C   UNL     1     118.251 117.893 117.208  1.00  0.00     0.010 C 
ATOM      6  C   UNL     1     118.091 117.808 118.752  1.00  0.00    -0.001 C 
ATOM      7  C   UNL     1     116.952 118.812 119.109  1.00  0.00     0.121 C 
ATOM      8  C   UNL     1     117.656 120.179 118.935  1.00  0.00     0.036 C 
ATOM      9  C   UNL     1     117.853 116.374 119.249  1.00  0.00     0.015 C 
ATOM     10  C   UNL     1     120.714 117.804 118.873  1.00  0.00     0.012 C 
ENDROOT
BRANCH   7  11
ATOM     11  O   UNL     1     116.483 118.629 120.420  1.00  0.00    -0.393 OA
ATOM     12  H   UNL     1     115.651 118.092 120.348  1.00  0.00     0.210 HD
ENDBRANCH   7  11
TORSDOF 1
ENDMDL
MODEL 5
REMARK VINA RESULT:    -5.013      1.209      2.561
REMARK INTER + INTRA:          -5.160
REMARK INTER:                  -5.160
REMARK INTRA:                   0.000
REMARK UNBOUND:                 0.000
REMARK SMILES CC1(C)[C@H]2CC[C@]1(C)[C@@H](O)C2
REMARK SMILES IDX 1 1 2 2 4 3 5 4 6 5 7 6 9 7 11 8 8 9 3 10 10 11
REMARK H PARENT 10 12
REMARK Flexibility Score: inf
ROOT
ATOM      1  C   UNL     1     119.169 121.227 119.477  1.00  0.00     0.012 C 
ATOM      2  C   UNL     1     119.532 119.742 119.166  1.00  0.00    -0.025 C 
ATOM      3  C   UNL     1     119.514 119.400 117.668  1.00  0.00    -0.002 C 
ATOM      4  C   UNL     1     119.782 117.876 117.647  1.00  0.00     0.005 C 
ATOM      5  C   UNL     1     119.045 117.381 118.909  1.00  0.00     0.010 C 
ATOM      6  C   UNL     1     118.439 118.693 119.483  1.00  0.00    -0.001 C 
ATOM      7  C   UNL     1     117.269 119.067 118.522  1.00  0.00     0.121 C 
ATOM      8  C   UNL     1     118.025 119.583 117.273  1.00  0.00     0.036 C 
ATOM      9  C   UNL     1     118.033 118.566 120.959  1.00  0.00     0.015 C 
ATOM     10  C   UNL     1     120.912 119.495 119.853  1.00  0.00     0.012 C 
ENDROOT
BRANCH   7  11
ATOM     11  O   UNL     1     116.434 120.053 119.071  1.00  0.00    -0.393 OA
ATOM     12  H   UNL     1     115.632 120.098 118.489  1.00  0.00     0.210 HD
ENDBRANCH   7  11
TORSDOF 1
ENDMDL
MODEL 6
REMARK VINA RESULT:    -4.828      1.399      3.098
REMARK INTER + INTRA:          -4.969
REMARK INTER:                  -4.969
REMARK INTRA:                   0.000
REMARK UNBOUND:                 0.000
REMARK SMILES CC1(C)[C@H]2CC[C@]1(C)[C@@H](O)C2
REMARK SMILES IDX 1 1 2 2 4 3 5 4 6 5 7 6 9 7 11 8 8 9 3 10 10 11
REMARK H PARENT 10 12
REMARK Flexibility Score: inf
ROOT
ATOM      1  C   UNL     1     120.020 120.473 118.131  1.00  0.00     0.012 C 
ATOM      2  C   UNL     1     119.223 119.139 118.258  1.00  0.00    -0.025 C 
ATOM      3  C   UNL     1     117.981 119.242 119.157  1.00  0.00    -0.002 C 
ATOM      4  C   UNL     1     117.456 117.786 119.208  1.00  0.00     0.005 C 
ATOM      5  C   UNL     1     118.755 116.954 119.198  1.00  0.00     0.010 C 
ATOM      6  C   UNL     1     119.858 118.048 119.153  1.00  0.00    -0.001 C 
ATOM      7  C   UNL     1     119.869 118.688 120.576  1.00  0.00     0.121 C 
ATOM      8  C   UNL     1     118.574 119.538 120.560  1.00  0.00     0.036 C 
ATOM      9  C   UNL     1     121.219 117.504 118.692  1.00  0.00     0.015 C 
ATOM     10  C   UNL     1     118.906 118.698 116.794  1.00  0.00     0.012 C 
ENDROOT
BRANCH   7  11
ATOM     11  O   UNL     1     121.010 119.479 120.787  1.00  0.00    -0.393 OA
ATOM     12  H   UNL     1     121.357 119.715 119.887  1.00  0.00     0.210 HD
ENDBRANCH   7  11
TORSDOF 1
ENDMDL
MODEL 7
REMARK VINA RESULT:    -4.788      1.616      2.823
REMARK INTER + INTRA:          -4.928
REMARK INTER:                  -4.928
REMARK INTRA:                   0.000
REMARK UNBOUND:                 0.000
REMARK SMILES CC1(C)[C@H]2CC[C@]1(C)[C@@H](O)C2
REMARK SMILES IDX 1 1 2 2 4 3 5 4 6 5 7 6 9 7 11 8 8 9 3 10 10 11
REMARK H PARENT 10 12
REMARK Flexibility Score: inf
ROOT
ATOM      1  C   UNL     1     120.451 117.610 118.310  1.00  0.00     0.012 C 
ATOM      2  C   UNL     1     119.099 118.385 118.375  1.00  0.00    -0.025 C 
ATOM      3  C   UNL     1     119.155 119.659 119.232  1.00  0.00    -0.002 C 
ATOM      4  C   UNL     1     117.689 120.156 119.228  1.00  0.00     0.005 C 
ATOM      5  C   UNL     1     116.882 118.842 119.244  1.00  0.00     0.010 C 
ATOM      6  C   UNL     1     117.997 117.760 119.265  1.00  0.00    -0.001 C 
ATOM      7  C   UNL     1     118.601 117.812 120.703  1.00  0.00     0.121 C 
ATOM      8  C   UNL     1     119.426 119.122 120.662  1.00  0.00     0.036 C 
ATOM      9  C   UNL     1     117.492 116.373 118.840  1.00  0.00     0.015 C 
ATOM     10  C   UNL     1     118.689 118.640 116.891  1.00  0.00     0.012 C 
ENDROOT
BRANCH   7  11
ATOM     11  O   UNL     1     119.407 116.695 120.975  1.00  0.00    -0.393 OA
ATOM     12  H   UNL     1     118.902 116.135 121.619  1.00  0.00     0.210 HD
ENDBRANCH   7  11
TORSDOF 1
ENDMDL
MODEL 8
REMARK VINA RESULT:    -4.785      1.290      2.344
REMARK INTER + INTRA:          -4.925
REMARK INTER:                  -4.925
REMARK INTRA:                   0.000
REMARK UNBOUND:                 0.000
REMARK SMILES CC1(C)[C@H]2CC[C@]1(C)[C@@H](O)C2
REMARK SMILES IDX 1 1 2 2 4 3 5 4 6 5 7 6 9 7 11 8 8 9 3 10 10 11
REMARK H PARENT 10 12
REMARK Flexibility Score: inf
ROOT
ATOM      1  C   UNL     1     117.512 117.130 118.200  1.00  0.00     0.012 C 
ATOM      2  C   UNL     1     118.331 118.454 118.296  1.00  0.00    -0.025 C 
ATOM      3  C   UNL     1     119.604 118.335 119.147  1.00  0.00    -0.002 C 
ATOM      4  C   UNL     1     120.150 119.784 119.177  1.00  0.00     0.005 C 
ATOM      5  C   UNL     1     118.862 120.633 119.216  1.00  0.00     0.010 C 
ATOM      6  C   UNL     1     117.744 119.553 119.214  1.00  0.00    -0.001 C 
ATOM      7  C   UNL     1     117.780 118.913 120.636  1.00  0.00     0.121 C 
ATOM      8  C   UNL     1     119.061 118.047 120.572  1.00  0.00     0.036 C 
ATOM      9  C   UNL     1     116.374 120.114 118.805  1.00  0.00     0.015 C 
ATOM     10  C   UNL     1     118.597 118.891 116.821  1.00  0.00     0.012 C 
ENDROOT
BRANCH   7  11
ATOM     11  O   UNL     1     116.638 118.137 120.891  1.00  0.00    -0.393 OA
ATOM     12  H   UNL     1     116.777 117.272 120.425  1.00  0.00     0.210 HD
ENDBRANCH   7  11
TORSDOF 1
ENDMDL
MODEL 9
REMARK VINA RESULT:    -4.764      1.650      3.140
REMARK INTER + INTRA:          -4.903
REMARK INTER:                  -4.903
REMARK INTRA:                   0.000
REMARK UNBOUND:                 0.000
REMARK SMILES CC1(C)[C@H]2CC[C@]1(C)[C@@H](O)C2
REMARK SMILES IDX 1 1 2 2 4 3 5 4 6 5 7 6 9 7 11 8 8 9 3 10 10 11
REMARK H PARENT 10 12
REMARK Flexibility Score: inf
ROOT
ATOM      1  C   UNL     1     117.836 116.939 118.698  1.00  0.00     0.012 C 
ATOM      2  C   UNL     1     118.438 118.215 119.363  1.00  0.00    -0.025 C 
ATOM      3  C   UNL     1     117.662 119.503 119.048  1.00  0.00    -0.002 C 
ATOM      4  C   UNL     1     118.519 120.608 119.713  1.00  0.00     0.005 C 
ATOM      5  C   UNL     1     119.959 120.098 119.499  1.00  0.00     0.010 C 
ATOM      6  C   UNL     1     119.736 118.767 118.726  1.00  0.00    -0.001 C 
ATOM      7  C   UNL     1     119.301 119.188 117.289  1.00  0.00     0.121 C 
ATOM      8  C   UNL     1     117.848 119.673 117.517  1.00  0.00     0.036 C 
ATOM      9  C   UNL     1     120.959 117.838 118.773  1.00  0.00     0.015 C 
ATOM     10  C   UNL     1     118.529 117.891 120.887  1.00  0.00     0.012 C 
ENDROOT
BRANCH   7  11
ATOM     11  O   UNL     1     119.356 118.112 116.388  1.00  0.00    -0.393 OA
ATOM     12  H   UNL     1     120.313 117.990 116.156  1.00  0.00     0.210 HD
ENDBRANCH   7  11
TORSDOF 1
ENDMDL
