MODEL 1
REMARK VINA RESULT:    -4.812      0.000      0.000
REMARK INTER + INTRA:          -6.706
REMARK INTER:                  -6.640
REMARK INTRA:                  -0.066
REMARK UNBOUND:                -0.066
REMARK SMILES CCCCc1cccc(O)c1CCCC
REMARK SMILES IDX 5 1 11 2 9 3 8 4 7 5 6 6 4 7 3 8 2 9 1 10 12 11 13 12 14 13
REMARK SMILES IDX 15 14 10 15
REMARK H PARENT 10 16
REMARK Flexibility Score: inf
ROOT
ATOM      1  C   UNL     1      12.037 -11.377 -27.044  1.00  0.00    -0.041 A 
ATOM      2  C   UNL     1      12.167 -12.661 -26.440  1.00  0.00    -0.003 A 
ATOM      3  C   UNL     1      11.628 -12.868 -25.149  1.00  0.00     0.119 A 
ATOM      4  C   UNL     1      10.986 -11.822 -24.475  1.00  0.00     0.046 A 
ATOM      5  C   UNL     1      10.862 -10.571 -25.071  1.00  0.00     0.004 A 
ATOM      6  C   UNL     1      11.375 -10.351 -26.346  1.00  0.00     0.004 A 
ENDROOT
BRANCH   1   7
ATOM      7  C   UNL     1      12.501 -11.080 -28.456  1.00  0.00     0.036 C 
BRANCH   7   8
ATOM      8  C   UNL     1      11.376 -11.346 -29.462  1.00  0.00     0.004 C 
BRANCH   8   9
ATOM      9  C   UNL     1      10.504 -12.525 -29.013  1.00  0.00    -0.003 C 
ATOM     10  C   UNL     1       9.518 -12.927 -30.106  1.00  0.00     0.004 C 
ENDBRANCH   8   9
ENDBRANCH   7   8
ENDBRANCH   1   7
BRANCH   2  11
ATOM     11  C   UNL     1      12.891 -13.802 -27.135  1.00  0.00     0.040 C 
BRANCH  11  12
ATOM     12  C   UNL     1      14.333 -13.982 -26.621  1.00  0.00     0.005 C 
BRANCH  12  13
ATOM     13  C   UNL     1      15.341 -12.973 -27.195  1.00  0.00    -0.003 C 
ATOM     14  C   UNL     1      15.357 -11.650 -26.429  1.00  0.00     0.004 C 
ENDBRANCH  12  13
ENDBRANCH  11  12
ENDBRANCH   2  11
BRANCH   3  15
ATOM     15  O   UNL     1      11.726 -14.116 -24.534  1.00  0.00    -0.508 OA
ATOM     16  H   UNL     1      10.925 -14.567 -24.109  1.00  0.00     0.293 HD
ENDBRANCH   3  15
TORSDOF 7
ENDMDL
MODEL 2
REMARK VINA RESULT:    -4.800      1.228      4.005
REMARK INTER + INTRA:          -6.689
REMARK INTER:                  -6.782
REMARK INTRA:                   0.093
REMARK UNBOUND:                -0.066
REMARK SMILES CCCCc1cccc(O)c1CCCC
REMARK SMILES IDX 5 1 11 2 9 3 8 4 7 5 6 6 4 7 3 8 2 9 1 10 12 11 13 12 14 13
REMARK SMILES IDX 15 14 10 15
REMARK H PARENT 10 16
REMARK Flexibility Score: inf
ROOT
ATOM      1  C   UNL     1      13.020 -11.402 -26.852  1.00  0.00    -0.041 A 
ATOM      2  C   UNL     1      12.602 -12.763 -26.907  1.00  0.00    -0.003 A 
ATOM      3  C   UNL     1      13.582 -13.782 -26.885  1.00  0.00     0.119 A 
ATOM      4  C   UNL     1      14.942 -13.453 -26.821  1.00  0.00     0.046 A 
ATOM      5  C   UNL     1      15.342 -12.122 -26.767  1.00  0.00     0.004 A 
ATOM      6  C   UNL     1      14.392 -11.105 -26.775  1.00  0.00     0.004 A 
ENDROOT
BRANCH   1   7
ATOM      7  C   UNL     1      12.045 -10.243 -26.782  1.00  0.00     0.036 C 
BRANCH   7   8
ATOM      8  C   UNL     1      10.731 -10.683 -26.127  1.00  0.00     0.004 C 
BRANCH   8   9
ATOM      9  C   UNL     1      10.686 -10.269 -24.651  1.00  0.00    -0.003 C 
ATOM     10  C   UNL     1      11.062 -11.434 -23.741  1.00  0.00     0.004 C 
ENDBRANCH   8   9
ENDBRANCH   7   8
ENDBRANCH   1   7
BRANCH   2  11
ATOM     11  C   UNL     1      11.135 -13.146 -27.015  1.00  0.00     0.040 C 
BRANCH  11  12
ATOM     12  C   UNL     1      10.744 -13.582 -28.440  1.00  0.00     0.005 C 
BRANCH  12  13
ATOM     13  C   UNL     1      10.261 -12.436 -29.345  1.00  0.00    -0.003 C 
ATOM     14  C   UNL     1      11.411 -11.642 -29.963  1.00  0.00     0.004 C 
ENDBRANCH  12  13
ENDBRANCH  11  12
ENDBRANCH   2  11
BRANCH   3  15
ATOM     15  O   UNL     1      13.206 -15.125 -26.924  1.00  0.00    -0.508 OA
ATOM     16  H   UNL     1      12.391 -15.436 -27.440  1.00  0.00     0.293 HD
ENDBRANCH   3  15
TORSDOF 7
ENDMDL
MODEL 3
REMARK VINA RESULT:    -4.767      1.217      4.044
REMARK INTER + INTRA:          -6.644
REMARK INTER:                  -6.849
REMARK INTRA:                   0.205
REMARK UNBOUND:                -0.066
REMARK SMILES CCCCc1cccc(O)c1CCCC
REMARK SMILES IDX 5 1 11 2 9 3 8 4 7 5 6 6 4 7 3 8 2 9 1 10 12 11 13 12 14 13
REMARK SMILES IDX 15 14 10 15
REMARK H PARENT 10 16
REMARK Flexibility Score: inf
ROOT
ATOM      1  C   UNL     1      12.228 -11.512 -27.713  1.00  0.00    -0.041 A 
ATOM      2  C   UNL     1      11.733 -12.663 -27.034  1.00  0.00    -0.003 A 
ATOM      3  C   UNL     1      10.802 -13.499 -27.693  1.00  0.00     0.119 A 
ATOM      4  C   UNL     1      10.369 -13.191 -28.988  1.00  0.00     0.046 A 
ATOM      5  C   UNL     1      10.857 -12.067 -29.645  1.00  0.00     0.004 A 
ATOM      6  C   UNL     1      11.783 -11.238 -29.019  1.00  0.00     0.004 A 
ENDROOT
BRANCH   1   7
ATOM      7  C   UNL     1      13.292 -10.605 -27.128  1.00  0.00     0.036 C 
BRANCH   7   8
ATOM      8  C   UNL     1      14.158 -11.368 -26.120  1.00  0.00     0.004 C 
BRANCH   8   9
ATOM      9  C   UNL     1      15.477 -11.819 -26.758  1.00  0.00    -0.003 C 
ATOM     10  C   UNL     1      15.431 -13.299 -27.128  1.00  0.00     0.004 C 
ENDBRANCH   8   9
ENDBRANCH   7   8
ENDBRANCH   1   7
BRANCH   2  11
ATOM     11  C   UNL     1      12.159 -12.998 -25.614  1.00  0.00     0.040 C 
BRANCH  11  12
ATOM     12  C   UNL     1      11.058 -12.688 -24.581  1.00  0.00     0.005 C 
BRANCH  12  13
ATOM     13  C   UNL     1      11.121 -11.267 -23.995  1.00  0.00    -0.003 C 
ATOM     14  C   UNL     1      10.557 -10.209 -24.942  1.00  0.00     0.004 C 
ENDBRANCH  12  13
ENDBRANCH  11  12
ENDBRANCH   2  11
BRANCH   3  15
ATOM     15  O   UNL     1      10.308 -14.640 -27.061  1.00  0.00    -0.508 OA
ATOM     16  H   UNL     1       9.876 -15.395 -27.582  1.00  0.00     0.293 HD
ENDBRANCH   3  15
TORSDOF 7
ENDMDL
MODEL 4
REMARK VINA RESULT:    -4.342      1.852      3.981
REMARK INTER + INTRA:          -6.058
REMARK INTER:                  -5.694
REMARK INTRA:                  -0.364
REMARK UNBOUND:                -0.066
REMARK SMILES CCCCc1cccc(O)c1CCCC
REMARK SMILES IDX 5 1 11 2 9 3 8 4 7 5 6 6 4 7 3 8 2 9 1 10 12 11 13 12 14 13
REMARK SMILES IDX 15 14 10 15
REMARK H PARENT 10 16
REMARK Flexibility Score: inf
ROOT
ATOM      1  C   UNL     1      11.823 -12.750 -26.974  1.00  0.00    -0.041 A 
ATOM      2  C   UNL     1      12.559 -11.575 -27.300  1.00  0.00    -0.003 A 
ATOM      3  C   UNL     1      12.299 -10.922 -28.527  1.00  0.00     0.119 A 
ATOM      4  C   UNL     1      11.339 -11.432 -29.409  1.00  0.00     0.046 A 
ATOM      5  C   UNL     1      10.623 -12.579 -29.084  1.00  0.00     0.004 A 
ATOM      6  C   UNL     1      10.856 -13.230 -27.876  1.00  0.00     0.004 A 
ENDROOT
BRANCH   1   7
ATOM      7  C   UNL     1      11.965 -13.471 -25.648  1.00  0.00     0.036 C 
BRANCH   7   8
ATOM      8  C   UNL     1      10.888 -13.004 -24.662  1.00  0.00     0.004 C 
BRANCH   8   9
ATOM      9  C   UNL     1      11.270 -11.663 -24.025  1.00  0.00    -0.003 C 
ATOM     10  C   UNL     1      10.584 -10.501 -24.737  1.00  0.00     0.004 C 
ENDBRANCH   8   9
ENDBRANCH   7   8
ENDBRANCH   1   7
BRANCH   2  11
ATOM     11  C   UNL     1      13.633 -11.022 -26.377  1.00  0.00     0.040 C 
BRANCH  11  12
ATOM     12  C   UNL     1      15.040 -11.533 -26.740  1.00  0.00     0.005 C 
BRANCH  12  13
ATOM     13  C   UNL     1      15.091 -13.015 -27.149  1.00  0.00    -0.003 C 
ATOM     14  C   UNL     1      16.511 -13.582 -27.149  1.00  0.00     0.004 C 
ENDBRANCH  12  13
ENDBRANCH  11  12
ENDBRANCH   2  11
BRANCH   3  15
ATOM     15  O   UNL     1      12.993  -9.761 -28.870  1.00  0.00    -0.508 OA
ATOM     16  H   UNL     1      13.319  -9.107 -28.169  1.00  0.00     0.293 HD
ENDBRANCH   3  15
TORSDOF 7
ENDMDL
MODEL 5
REMARK VINA RESULT:    -4.289      1.155      2.165
REMARK INTER + INTRA:          -5.985
REMARK INTER:                  -5.516
REMARK INTRA:                  -0.468
REMARK UNBOUND:                -0.066
REMARK SMILES CCCCc1cccc(O)c1CCCC
REMARK SMILES IDX 5 1 11 2 9 3 8 4 7 5 6 6 4 7 3 8 2 9 1 10 12 11 13 12 14 13
REMARK SMILES IDX 15 14 10 15
REMARK H PARENT 10 16
REMARK Flexibility Score: inf
ROOT
ATOM      1  C   UNL     1      11.140 -11.649 -26.720  1.00  0.00    -0.041 A 
ATOM      2  C   UNL     1      11.208 -12.966 -26.180  1.00  0.00    -0.003 A 
ATOM      3  C   UNL     1      11.130 -13.136 -24.778  1.00  0.00     0.119 A 
ATOM      4  C   UNL     1      10.998 -12.024 -23.938  1.00  0.00     0.046 A 
ATOM      5  C   UNL     1      10.931 -10.741 -24.472  1.00  0.00     0.004 A 
ATOM      6  C   UNL     1      10.994 -10.554 -25.850  1.00  0.00     0.004 A 
ENDROOT
BRANCH   1   7
ATOM      7  C   UNL     1      11.127 -11.369 -28.210  1.00  0.00     0.036 C 
BRANCH   7   8
ATOM      8  C   UNL     1      12.498 -10.870 -28.678  1.00  0.00     0.004 C 
BRANCH   8   9
ATOM      9  C   UNL     1      13.080  -9.852 -27.689  1.00  0.00    -0.003 C 
ATOM     10  C   UNL     1      12.881  -8.424 -28.189  1.00  0.00     0.004 C 
ENDBRANCH   8   9
ENDBRANCH   7   8
ENDBRANCH   1   7
BRANCH   2  11
ATOM     11  C   UNL     1      11.389 -14.186 -27.068  1.00  0.00     0.040 C 
BRANCH  11  12
ATOM     12  C   UNL     1      12.862 -14.416 -27.458  1.00  0.00     0.005 C 
BRANCH  12  13
ATOM     13  C   UNL     1      13.879 -13.910 -26.421  1.00  0.00    -0.003 C 
ATOM     14  C   UNL     1      14.886 -12.922 -27.011  1.00  0.00     0.004 C 
ENDBRANCH  12  13
ENDBRANCH  11  12
ENDBRANCH   2  11
BRANCH   3  15
ATOM     15  O   UNL     1      11.180 -14.413 -24.218  1.00  0.00    -0.508 OA
ATOM     16  H   UNL     1      10.491 -14.728 -23.546  1.00  0.00     0.293 HD
ENDBRANCH   3  15
TORSDOF 7
ENDMDL
MODEL 6
REMARK VINA RESULT:    -4.215      1.700      3.928
REMARK INTER + INTRA:          -5.883
REMARK INTER:                  -5.644
REMARK INTRA:                  -0.239
REMARK UNBOUND:                -0.066
REMARK SMILES CCCCc1cccc(O)c1CCCC
REMARK SMILES IDX 5 1 11 2 9 3 8 4 7 5 6 6 4 7 3 8 2 9 1 10 12 11 13 12 14 13
REMARK SMILES IDX 15 14 10 15
REMARK H PARENT 10 16
REMARK Flexibility Score: inf
ROOT
ATOM      1  C   UNL     1      12.375 -12.996 -26.954  1.00  0.00    -0.041 A 
ATOM      2  C   UNL     1      12.655 -11.599 -26.902  1.00  0.00    -0.003 A 
ATOM      3  C   UNL     1      14.002 -11.173 -26.840  1.00  0.00     0.119 A 
ATOM      4  C   UNL     1      15.040 -12.112 -26.821  1.00  0.00     0.046 A 
ATOM      5  C   UNL     1      14.759 -13.473 -26.873  1.00  0.00     0.004 A 
ATOM      6  C   UNL     1      13.441 -13.913 -26.946  1.00  0.00     0.004 A 
ENDROOT
BRANCH   1   7
ATOM      7  C   UNL     1      10.973 -13.549 -27.109  1.00  0.00     0.036 C 
BRANCH   7   8
ATOM      8  C   UNL     1      10.661 -13.824 -28.585  1.00  0.00     0.004 C 
BRANCH   8   9
ATOM      9  C   UNL     1      10.097 -12.574 -29.270  1.00  0.00    -0.003 C 
ATOM     10  C   UNL     1      11.191 -11.813 -30.013  1.00  0.00     0.004 C 
ENDBRANCH   8   9
ENDBRANCH   7   8
ENDBRANCH   1   7
BRANCH   2  11
ATOM     11  C   UNL     1      11.545 -10.561 -26.884  1.00  0.00     0.040 C 
BRANCH  11  12
ATOM     12  C   UNL     1      10.979 -10.330 -25.469  1.00  0.00     0.005 C 
BRANCH  12  13
ATOM     13  C   UNL     1      11.387 -11.399 -24.440  1.00  0.00    -0.003 C 
ATOM     14  C   UNL     1      10.659 -11.245 -23.105  1.00  0.00     0.004 C 
ENDBRANCH  12  13
ENDBRANCH  11  12
ENDBRANCH   2  11
BRANCH   3  15
ATOM     15  O   UNL     1      14.311  -9.813 -26.802  1.00  0.00    -0.508 OA
ATOM     16  H   UNL     1      14.009  -9.176 -27.530  1.00  0.00     0.293 HD
ENDBRANCH   3  15
TORSDOF 7
ENDMDL
MODEL 7
REMARK VINA RESULT:    -4.154      1.957      3.538
REMARK INTER + INTRA:          -5.798
REMARK INTER:                  -5.274
REMARK INTRA:                  -0.524
REMARK UNBOUND:                -0.066
REMARK SMILES CCCCc1cccc(O)c1CCCC
REMARK SMILES IDX 5 1 11 2 9 3 8 4 7 5 6 6 4 7 3 8 2 9 1 10 12 11 13 12 14 13
REMARK SMILES IDX 15 14 10 15
REMARK H PARENT 10 16
REMARK Flexibility Score: inf
ROOT
ATOM      1  C   UNL     1      12.047 -11.218 -27.914  1.00  0.00    -0.041 A 
ATOM      2  C   UNL     1      11.640 -12.316 -27.102  1.00  0.00    -0.003 A 
ATOM      3  C   UNL     1      10.774 -13.290 -27.651  1.00  0.00     0.119 A 
ATOM      4  C   UNL     1      10.318 -13.168 -28.968  1.00  0.00     0.046 A 
ATOM      5  C   UNL     1      10.719 -12.094 -29.756  1.00  0.00     0.004 A 
ATOM      6  C   UNL     1      11.581 -11.131 -29.238  1.00  0.00     0.004 A 
ENDROOT
BRANCH   1   7
ATOM      7  C   UNL     1      13.039 -10.172 -27.448  1.00  0.00     0.036 C 
BRANCH   7   8
ATOM      8  C   UNL     1      12.568  -8.767 -27.842  1.00  0.00     0.004 C 
BRANCH   8   9
ATOM      9  C   UNL     1      13.721  -7.945 -28.428  1.00  0.00    -0.003 C 
ATOM     10  C   UNL     1      13.347  -6.469 -28.531  1.00  0.00     0.004 C 
ENDBRANCH   8   9
ENDBRANCH   7   8
ENDBRANCH   1   7
BRANCH   2  11
ATOM     11  C   UNL     1      12.091 -12.452 -25.656  1.00  0.00     0.040 C 
BRANCH  11  12
ATOM     12  C   UNL     1      13.173 -13.534 -25.478  1.00  0.00     0.005 C 
BRANCH  12  13
ATOM     13  C   UNL     1      13.959 -13.862 -26.759  1.00  0.00    -0.003 C 
ATOM     14  C   UNL     1      15.160 -12.940 -26.971  1.00  0.00     0.004 C 
ENDBRANCH  12  13
ENDBRANCH  11  12
ENDBRANCH   2  11
BRANCH   3  15
ATOM     15  O   UNL     1      10.367 -14.384 -26.887  1.00  0.00    -0.508 OA
ATOM     16  H   UNL     1       9.446 -14.430 -26.467  1.00  0.00     0.293 HD
ENDBRANCH   3  15
TORSDOF 7
ENDMDL
MODEL 8
REMARK VINA RESULT:    -4.107      1.463      4.289
REMARK INTER + INTRA:          -5.733
REMARK INTER:                  -5.252
REMARK INTRA:                  -0.480
REMARK UNBOUND:                -0.066
REMARK SMILES CCCCc1cccc(O)c1CCCC
REMARK SMILES IDX 5 1 11 2 9 3 8 4 7 5 6 6 4 7 3 8 2 9 1 10 12 11 13 12 14 13
REMARK SMILES IDX 15 14 10 15
REMARK H PARENT 10 16
REMARK Flexibility Score: inf
ROOT
ATOM      1  C   UNL     1      12.130 -12.735 -26.317  1.00  0.00    -0.041 A 
ATOM      2  C   UNL     1      12.076 -11.506 -27.035  1.00  0.00    -0.003 A 
ATOM      3  C   UNL     1      11.523 -10.367 -26.405  1.00  0.00     0.119 A 
ATOM      4  C   UNL     1      11.027 -10.454 -25.098  1.00  0.00     0.046 A 
ATOM      5  C   UNL     1      11.083 -11.657 -24.402  1.00  0.00     0.004 A 
ATOM      6  C   UNL     1      11.636 -12.786 -25.001  1.00  0.00     0.004 A 
ENDROOT
BRANCH   1   7
ATOM      7  C   UNL     1      12.782 -13.985 -26.871  1.00  0.00     0.036 C 
BRANCH   7   8
ATOM      8  C   UNL     1      14.221 -14.117 -26.358  1.00  0.00     0.004 C 
BRANCH   8   9
ATOM      9  C   UNL     1      15.189 -13.299 -27.221  1.00  0.00    -0.003 C 
ATOM     10  C   UNL     1      15.458 -11.931 -26.601  1.00  0.00     0.004 C 
ENDBRANCH   8   9
ENDBRANCH   7   8
ENDBRANCH   1   7
BRANCH   2  11
ATOM     11  C   UNL     1      12.573 -11.394 -28.467  1.00  0.00     0.040 C 
BRANCH  11  12
ATOM     12  C   UNL     1      11.440 -11.562 -29.498  1.00  0.00     0.005 C 
BRANCH  12  13
ATOM     13  C   UNL     1      10.298 -12.486 -29.041  1.00  0.00    -0.003 C 
ATOM     14  C   UNL     1       9.448 -12.999 -30.203  1.00  0.00     0.004 C 
ENDBRANCH  12  13
ENDBRANCH  11  12
ENDBRANCH   2  11
BRANCH   3  15
ATOM     15  O   UNL     1      11.467  -9.145 -27.076  1.00  0.00    -0.508 OA
ATOM     16  H   UNL     1      11.780  -8.284 -26.644  1.00  0.00     0.293 HD
ENDBRANCH   3  15
TORSDOF 7
ENDMDL
MODEL 9
REMARK VINA RESULT:    -3.829      1.002      3.264
REMARK INTER + INTRA:          -5.350
REMARK INTER:                  -5.390
REMARK INTRA:                   0.040
REMARK UNBOUND:                -0.066
REMARK SMILES CCCCc1cccc(O)c1CCCC
REMARK SMILES IDX 5 1 11 2 9 3 8 4 7 5 6 6 4 7 3 8 2 9 1 10 12 11 13 12 14 13
REMARK SMILES IDX 15 14 10 15
REMARK H PARENT 10 16
REMARK Flexibility Score: inf
ROOT
ATOM      1  C   UNL     1      11.982 -11.466 -26.201  1.00  0.00    -0.041 A 
ATOM      2  C   UNL     1      11.840 -12.856 -25.921  1.00  0.00    -0.003 A 
ATOM      3  C   UNL     1      11.205 -13.251 -24.720  1.00  0.00     0.119 A 
ATOM      4  C   UNL     1      10.736 -12.288 -23.819  1.00  0.00     0.046 A 
ATOM      5  C   UNL     1      10.877 -10.932 -24.100  1.00  0.00     0.004 A 
ATOM      6  C   UNL     1      11.487 -10.523 -25.282  1.00  0.00     0.004 A 
ENDROOT
BRANCH   1   7
ATOM      7  C   UNL     1      12.566 -10.943 -27.498  1.00  0.00     0.036 C 
BRANCH   7   8
ATOM      8  C   UNL     1      13.980 -10.396 -27.271  1.00  0.00     0.004 C 
BRANCH   8   9
ATOM      9  C   UNL     1      14.769 -11.293 -26.310  1.00  0.00    -0.003 C 
ATOM     10  C   UNL     1      15.330 -12.514 -27.033  1.00  0.00     0.004 C 
ENDBRANCH   8   9
ENDBRANCH   7   8
ENDBRANCH   1   7
BRANCH   2  11
ATOM     11  C   UNL     1      12.374 -13.921 -26.864  1.00  0.00     0.040 C 
BRANCH  11  12
ATOM     12  C   UNL     1      11.339 -14.336 -27.928  1.00  0.00     0.005 C 
BRANCH  12  13
ATOM     13  C   UNL     1      10.270 -13.271 -28.223  1.00  0.00    -0.003 C 
ATOM     14  C   UNL     1      10.584 -12.446 -29.471  1.00  0.00     0.004 C 
ENDBRANCH  12  13
ENDBRANCH  11  12
ENDBRANCH   2  11
BRANCH   3  15
ATOM     15  O   UNL     1      11.038 -14.603 -24.422  1.00  0.00    -0.508 OA
ATOM     16  H   UNL     1      10.270 -15.143 -24.803  1.00  0.00     0.293 HD
ENDBRANCH   3  15
TORSDOF 7
ENDMDL
