MODEL 1
REMARK VINA RESULT:    -4.024      0.000      0.000
REMARK INTER + INTRA:          -9.539
REMARK INTER:                  -7.318
REMARK INTRA:                  -2.221
REMARK UNBOUND:                -2.221
REMARK SMILES CCCCCC=CCC=CCCCCCCCC(=O)[O-]
REMARK SMILES IDX 11 1 12 2 13 3 14 4 15 5 16 6 17 7 18 8 19 9 20 10 10 11
REMARK SMILES IDX 9 12 8 13 7 14 6 15 5 16 4 17 3 18 2 19 1 20
REMARK H PARENT
REMARK Flexibility Score: inf
ROOT
ATOM      1  C   UNL     1      11.961  24.542  78.086  1.00  0.00     0.027 C 
ENDROOT
BRANCH   1   2
ATOM      2  C   UNL     1      11.497  23.099  78.364  1.00  0.00     0.004 C 
BRANCH   2   3
ATOM      3  C   UNL     1      11.891  22.560  79.750  1.00  0.00     0.000 C 
BRANCH   3   4
ATOM      4  C   UNL     1      12.745  21.285  79.677  1.00  0.00     0.000 C 
BRANCH   4   5
ATOM      5  C   UNL     1      13.464  21.186  78.323  1.00  0.00     0.000 C 
BRANCH   5   6
ATOM      6  C   UNL     1      14.482  20.036  78.273  1.00  0.00     0.006 C 
BRANCH   6   7
ATOM      7  C   UNL     1      14.082  18.851  79.163  1.00  0.00     0.053 C 
BRANCH   7   8
ATOM      8  C   UNL     1      13.708  17.672  78.323  1.00  0.00     0.041 C 
ATOM      9  O   UNL     1      13.129  16.682  78.843  1.00  0.00    -0.550 OA
ATOM     10  O   UNL     1      14.049  17.643  76.975  1.00  0.00    -0.550 OA
ENDBRANCH   7   8
ENDBRANCH   6   7
ENDBRANCH   5   6
ENDBRANCH   4   5
ENDBRANCH   3   4
ENDBRANCH   2   3
ENDBRANCH   1   2
BRANCH   1  11
ATOM     11  C   UNL     1      12.753  25.130  79.223  1.00  0.00    -0.031 C 
ATOM     12  C   UNL     1      12.556  26.386  79.648  1.00  0.00    -0.027 C 
BRANCH  12  13
ATOM     13  C   UNL     1      13.326  26.944  80.813  1.00  0.00     0.054 C 
BRANCH  13  14
ATOM     14  C   UNL     1      12.430  27.142  82.010  1.00  0.00    -0.027 C 
ATOM     15  C   UNL     1      12.272  26.220  82.976  1.00  0.00    -0.031 C 
BRANCH  15  16
ATOM     16  C   UNL     1      12.913  24.855  82.957  1.00  0.00     0.027 C 
BRANCH  16  17
ATOM     17  C   UNL     1      14.272  24.884  83.672  1.00  0.00     0.004 C 
BRANCH  17  18
ATOM     18  C   UNL     1      15.349  24.062  82.942  1.00  0.00     0.000 C 
BRANCH  18  19
ATOM     19  C   UNL     1      15.006  23.695  81.488  1.00  0.00    -0.003 C 
ATOM     20  C   UNL     1      15.980  22.688  80.881  1.00  0.00     0.004 C 
ENDBRANCH  18  19
ENDBRANCH  17  18
ENDBRANCH  16  17
ENDBRANCH  15  16
ENDBRANCH  13  14
ENDBRANCH  12  13
ENDBRANCH   1  11
TORSDOF 14
ENDMDL
MODEL 2
REMARK VINA RESULT:    -3.810      2.723      4.538
REMARK INTER + INTRA:          -9.150
REMARK INTER:                  -6.265
REMARK INTRA:                  -2.885
REMARK UNBOUND:                -2.221
REMARK SMILES CCCCCC=CCC=CCCCCCCCC(=O)[O-]
REMARK SMILES IDX 11 1 12 2 13 3 14 4 15 5 16 6 17 7 18 8 19 9 20 10 10 11
REMARK SMILES IDX 9 12 8 13 7 14 6 15 5 16 4 17 3 18 2 19 1 20
REMARK H PARENT
REMARK Flexibility Score: inf
ROOT
ATOM      1  C   UNL     1      15.899  23.873  80.386  1.00  0.00     0.027 C 
ENDROOT
BRANCH   1   2
ATOM      2  C   UNL     1      15.189  23.138  79.234  1.00  0.00     0.004 C 
BRANCH   2   3
ATOM      3  C   UNL     1      14.804  21.681  79.550  1.00  0.00     0.000 C 
BRANCH   3   4
ATOM      4  C   UNL     1      13.378  21.328  79.103  1.00  0.00     0.000 C 
BRANCH   4   5
ATOM      5  C   UNL     1      12.340  21.899  80.082  1.00  0.00     0.000 C 
BRANCH   5   6
ATOM      6  C   UNL     1      11.634  23.151  79.537  1.00  0.00     0.006 C 
BRANCH   6   7
ATOM      7  C   UNL     1      11.427  23.100  78.018  1.00  0.00     0.053 C 
BRANCH   7   8
ATOM      8  C   UNL     1      11.861  24.385  77.390  1.00  0.00     0.041 C 
ATOM      9  O   UNL     1      11.114  25.398  77.436  1.00  0.00    -0.550 OA
ATOM     10  O   UNL     1      13.070  24.451  76.705  1.00  0.00    -0.550 OA
ENDBRANCH   7   8
ENDBRANCH   6   7
ENDBRANCH   5   6
ENDBRANCH   4   5
ENDBRANCH   3   4
ENDBRANCH   2   3
ENDBRANCH   1   2
BRANCH   1  11
ATOM     11  C   UNL     1      14.999  24.113  81.569  1.00  0.00    -0.031 C 
ATOM     12  C   UNL     1      15.384  24.865  82.611  1.00  0.00    -0.027 C 
BRANCH  12  13
ATOM     13  C   UNL     1      14.457  25.129  83.764  1.00  0.00     0.054 C 
BRANCH  13  14
ATOM     14  C   UNL     1      13.015  24.964  83.352  1.00  0.00    -0.027 C 
ATOM     15  C   UNL     1      12.245  25.983  82.933  1.00  0.00    -0.031 C 
BRANCH  15  16
ATOM     16  C   UNL     1      12.698  27.420  82.880  1.00  0.00     0.027 C 
BRANCH  16  17
ATOM     17  C   UNL     1      12.675  27.944  81.436  1.00  0.00     0.004 C 
BRANCH  17  18
ATOM     18  C   UNL     1      12.639  26.815  80.391  1.00  0.00     0.000 C 
BRANCH  18  19
ATOM     19  C   UNL     1      13.800  26.830  79.383  1.00  0.00    -0.003 C 
ATOM     20  C   UNL     1      15.052  27.519  79.925  1.00  0.00     0.004 C 
ENDBRANCH  18  19
ENDBRANCH  17  18
ENDBRANCH  16  17
ENDBRANCH  15  16
ENDBRANCH  13  14
ENDBRANCH  12  13
ENDBRANCH   1  11
TORSDOF 14
ENDMDL
MODEL 3
REMARK VINA RESULT:    -3.785      1.089      2.204
REMARK INTER + INTRA:          -9.103
REMARK INTER:                  -6.492
REMARK INTRA:                  -2.611
REMARK UNBOUND:                -2.221
REMARK SMILES CCCCCC=CCC=CCCCCCCCC(=O)[O-]
REMARK SMILES IDX 11 1 12 2 13 3 14 4 15 5 16 6 17 7 18 8 19 9 20 10 10 11
REMARK SMILES IDX 9 12 8 13 7 14 6 15 5 16 4 17 3 18 2 19 1 20
REMARK H PARENT
REMARK Flexibility Score: inf
ROOT
ATOM      1  C   UNL     1      12.660  26.862  78.677  1.00  0.00     0.027 C 
ENDROOT
BRANCH   1   2
ATOM      2  C   UNL     1      12.811  25.531  77.918  1.00  0.00     0.004 C 
BRANCH   2   3
ATOM      3  C   UNL     1      11.518  24.703  77.820  1.00  0.00     0.000 C 
BRANCH   3   4
ATOM      4  C   UNL     1      11.759  23.193  77.969  1.00  0.00     0.000 C 
BRANCH   4   5
ATOM      5  C   UNL     1      11.749  22.781  79.449  1.00  0.00     0.000 C 
BRANCH   5   6
ATOM      6  C   UNL     1      12.589  21.524  79.722  1.00  0.00     0.006 C 
BRANCH   6   7
ATOM      7  C   UNL     1      13.477  21.134  78.533  1.00  0.00     0.053 C 
BRANCH   7   8
ATOM      8  C   UNL     1      13.753  19.665  78.548  1.00  0.00     0.041 C 
ATOM      9  O   UNL     1      14.103  19.097  79.616  1.00  0.00    -0.550 OA
ATOM     10  O   UNL     1      13.676  18.931  77.369  1.00  0.00    -0.550 OA
ENDBRANCH   7   8
ENDBRANCH   6   7
ENDBRANCH   5   6
ENDBRANCH   4   5
ENDBRANCH   3   4
ENDBRANCH   2   3
ENDBRANCH   1   2
BRANCH   1  11
ATOM     11  C   UNL     1      12.511  26.674  80.163  1.00  0.00    -0.031 C 
ATOM     12  C   UNL     1      13.025  27.546  81.042  1.00  0.00    -0.027 C 
BRANCH  12  13
ATOM     13  C   UNL     1      12.830  27.366  82.522  1.00  0.00     0.054 C 
BRANCH  13  14
ATOM     14  C   UNL     1      12.281  25.996  82.835  1.00  0.00    -0.027 C 
ATOM     15  C   UNL     1      13.014  25.015  83.392  1.00  0.00    -0.031 C 
BRANCH  15  16
ATOM     16  C   UNL     1      14.482  25.135  83.715  1.00  0.00     0.027 C 
BRANCH  16  17
ATOM     17  C   UNL     1      15.309  24.170  82.853  1.00  0.00     0.004 C 
BRANCH  17  18
ATOM     18  C   UNL     1      14.629  23.834  81.513  1.00  0.00     0.000 C 
BRANCH  18  19
ATOM     19  C   UNL     1      15.389  24.316  80.265  1.00  0.00    -0.003 C 
ATOM     20  C   UNL     1      16.169  25.607  80.503  1.00  0.00     0.004 C 
ENDBRANCH  18  19
ENDBRANCH  17  18
ENDBRANCH  16  17
ENDBRANCH  15  16
ENDBRANCH  13  14
ENDBRANCH  12  13
ENDBRANCH   1  11
TORSDOF 14
ENDMDL
MODEL 4
REMARK VINA RESULT:    -3.782      4.067      8.065
REMARK INTER + INTRA:          -9.099
REMARK INTER:                  -7.472
REMARK INTRA:                  -1.627
REMARK UNBOUND:                -2.221
REMARK SMILES CCCCCC=CCC=CCCCCCCCC(=O)[O-]
REMARK SMILES IDX 11 1 12 2 13 3 14 4 15 5 16 6 17 7 18 8 19 9 20 10 10 11
REMARK SMILES IDX 9 12 8 13 7 14 6 15 5 16 4 17 3 18 2 19 1 20
REMARK H PARENT
REMARK Flexibility Score: inf
ROOT
ATOM      1  C   UNL     1      11.860  22.293  79.868  1.00  0.00     0.027 C 
ENDROOT
BRANCH   1   2
ATOM      2  C   UNL     1      12.622  23.322  80.724  1.00  0.00     0.004 C 
BRANCH   2   3
ATOM      3  C   UNL     1      13.479  24.312  79.916  1.00  0.00     0.000 C 
BRANCH   3   4
ATOM      4  C   UNL     1      14.978  24.210  80.239  1.00  0.00     0.000 C 
BRANCH   4   5
ATOM      5  C   UNL     1      15.196  23.592  81.629  1.00  0.00     0.000 C 
BRANCH   5   6
ATOM      6  C   UNL     1      15.507  24.643  82.705  1.00  0.00     0.006 C 
BRANCH   6   7
ATOM      7  C   UNL     1      14.365  24.811  83.716  1.00  0.00     0.053 C 
BRANCH   7   8
ATOM      8  C   UNL     1      13.448  25.911  83.288  1.00  0.00     0.041 C 
ATOM      9  O   UNL     1      12.201  25.734  83.287  1.00  0.00    -0.550 OA
ATOM     10  O   UNL     1      13.973  27.118  82.839  1.00  0.00    -0.550 OA
ENDBRANCH   7   8
ENDBRANCH   6   7
ENDBRANCH   5   6
ENDBRANCH   4   5
ENDBRANCH   3   4
ENDBRANCH   2   3
ENDBRANCH   1   2
BRANCH   1  11
ATOM     11  C   UNL     1      12.771  21.472  78.994  1.00  0.00    -0.031 C 
ATOM     12  C   UNL     1      13.605  20.556  79.506  1.00  0.00    -0.027 C 
BRANCH  12  13
ATOM     13  C   UNL     1      14.477  19.714  78.616  1.00  0.00     0.054 C 
BRANCH  13  14
ATOM     14  C   UNL     1      14.064  18.264  78.666  1.00  0.00    -0.027 C 
ATOM     15  C   UNL     1      13.319  17.674  77.714  1.00  0.00    -0.031 C 
BRANCH  15  16
ATOM     16  C   UNL     1      12.751  18.394  76.517  1.00  0.00     0.027 C 
BRANCH  16  17
ATOM     17  C   UNL     1      13.625  18.158  75.276  1.00  0.00     0.004 C 
BRANCH  17  18
ATOM     18  C   UNL     1      12.798  17.920  74.000  1.00  0.00     0.000 C 
BRANCH  18  19
ATOM     19  C   UNL     1      11.469  18.692  73.938  1.00  0.00    -0.003 C 
ATOM     20  C   UNL     1      10.277  17.801  73.596  1.00  0.00     0.004 C 
ENDBRANCH  18  19
ENDBRANCH  17  18
ENDBRANCH  16  17
ENDBRANCH  15  16
ENDBRANCH  13  14
ENDBRANCH  12  13
ENDBRANCH   1  11
TORSDOF 14
ENDMDL
MODEL 5
REMARK VINA RESULT:    -3.729      4.344      7.341
REMARK INTER + INTRA:          -9.002
REMARK INTER:                  -6.316
REMARK INTRA:                  -2.687
REMARK UNBOUND:                -2.221
REMARK SMILES CCCCCC=CCC=CCCCCCCCC(=O)[O-]
REMARK SMILES IDX 11 1 12 2 13 3 14 4 15 5 16 6 17 7 18 8 19 9 20 10 10 11
REMARK SMILES IDX 9 12 8 13 7 14 6 15 5 16 4 17 3 18 2 19 1 20
REMARK H PARENT
REMARK Flexibility Score: inf
ROOT
ATOM      1  C   UNL     1      16.218  24.110  81.859  1.00  0.00     0.027 C 
ENDROOT
BRANCH   1   2
ATOM      2  C   UNL     1      15.419  25.249  82.519  1.00  0.00     0.004 C 
BRANCH   2   3
ATOM      3  C   UNL     1      14.536  24.807  83.699  1.00  0.00     0.000 C 
BRANCH   3   4
ATOM      4  C   UNL     1      13.053  25.156  83.501  1.00  0.00     0.000 C 
BRANCH   4   5
ATOM      5  C   UNL     1      12.767  25.515  82.035  1.00  0.00     0.000 C 
BRANCH   5   6
ATOM      6  C   UNL     1      12.155  26.916  81.874  1.00  0.00     0.006 C 
BRANCH   6   7
ATOM      7  C   UNL     1      12.283  27.767  83.145  1.00  0.00     0.053 C 
BRANCH   7   8
ATOM      8  C   UNL     1      13.397  28.753  83.001  1.00  0.00     0.041 C 
ATOM      9  O   UNL     1      13.226  29.811  82.340  1.00  0.00    -0.550 OA
ATOM     10  O   UNL     1      14.644  28.479  83.553  1.00  0.00    -0.550 OA
ENDBRANCH   7   8
ENDBRANCH   6   7
ENDBRANCH   5   6
ENDBRANCH   4   5
ENDBRANCH   3   4
ENDBRANCH   2   3
ENDBRANCH   1   2
BRANCH   1  11
ATOM     11  C   UNL     1      15.337  23.009  81.331  1.00  0.00    -0.031 C 
ATOM     12  C   UNL     1      14.666  23.131  80.177  1.00  0.00    -0.027 C 
BRANCH  12  13
ATOM     13  C   UNL     1      13.825  22.005  79.643  1.00  0.00     0.054 C 
BRANCH  13  14
ATOM     14  C   UNL     1      12.373  22.190  80.011  1.00  0.00    -0.027 C 
ATOM     15  C   UNL     1      11.445  22.647  79.152  1.00  0.00    -0.031 C 
BRANCH  15  16
ATOM     16  C   UNL     1      11.743  23.089  77.741  1.00  0.00     0.027 C 
BRANCH  16  17
ATOM     17  C   UNL     1      11.437  24.584  77.565  1.00  0.00     0.004 C 
BRANCH  17  18
ATOM     18  C   UNL     1      12.265  25.478  78.504  1.00  0.00     0.000 C 
BRANCH  18  19
ATOM     19  C   UNL     1      13.557  26.042  77.888  1.00  0.00    -0.003 C 
ATOM     20  C   UNL     1      14.555  26.529  78.935  1.00  0.00     0.004 C 
ENDBRANCH  18  19
ENDBRANCH  17  18
ENDBRANCH  16  17
ENDBRANCH  15  16
ENDBRANCH  13  14
ENDBRANCH  12  13
ENDBRANCH   1  11
TORSDOF 14
ENDMDL
MODEL 6
REMARK VINA RESULT:    -3.667      2.391      4.888
REMARK INTER + INTRA:          -8.889
REMARK INTER:                  -7.409
REMARK INTRA:                  -1.480
REMARK UNBOUND:                -2.221
REMARK SMILES CCCCCC=CCC=CCCCCCCCC(=O)[O-]
REMARK SMILES IDX 11 1 12 2 13 3 14 4 15 5 16 6 17 7 18 8 19 9 20 10 10 11
REMARK SMILES IDX 9 12 8 13 7 14 6 15 5 16 4 17 3 18 2 19 1 20
REMARK H PARENT
REMARK Flexibility Score: inf
ROOT
ATOM      1  C   UNL     1      15.243  18.781  79.574  1.00  0.00     0.027 C 
ENDROOT
BRANCH   1   2
ATOM      2  C   UNL     1      14.085  17.768  79.640  1.00  0.00     0.004 C 
BRANCH   2   3
ATOM      3  C   UNL     1      13.637  17.223  78.271  1.00  0.00     0.000 C 
BRANCH   3   4
ATOM      4  C   UNL     1      14.753  17.263  77.216  1.00  0.00     0.000 C 
BRANCH   4   5
ATOM      5  C   UNL     1      14.364  18.178  76.044  1.00  0.00     0.000 C 
BRANCH   5   6
ATOM      6  C   UNL     1      12.905  18.653  76.119  1.00  0.00     0.006 C 
BRANCH   6   7
ATOM      7  C   UNL     1      12.110  18.328  74.847  1.00  0.00     0.053 C 
BRANCH   7   8
ATOM      8  C   UNL     1      11.603  19.584  74.215  1.00  0.00     0.041 C 
ATOM      9  O   UNL     1      11.493  20.638  74.897  1.00  0.00    -0.550 OA
ATOM     10  O   UNL     1      11.199  19.579  72.884  1.00  0.00    -0.550 OA
ENDBRANCH   7   8
ENDBRANCH   6   7
ENDBRANCH   5   6
ENDBRANCH   4   5
ENDBRANCH   3   4
ENDBRANCH   2   3
ENDBRANCH   1   2
BRANCH   1  11
ATOM     11  C   UNL     1      14.776  20.183  79.282  1.00  0.00    -0.031 C 
ATOM     12  C   UNL     1      13.475  20.487  79.172  1.00  0.00    -0.027 C 
BRANCH  12  13
ATOM     13  C   UNL     1      13.025  21.899  78.922  1.00  0.00     0.054 C 
BRANCH  13  14
ATOM     14  C   UNL     1      12.161  22.402  80.053  1.00  0.00    -0.027 C 
ATOM     15  C   UNL     1      12.555  23.354  80.917  1.00  0.00    -0.031 C 
BRANCH  15  16
ATOM     16  C   UNL     1      13.921  23.993  80.908  1.00  0.00     0.027 C 
BRANCH  16  17
ATOM     17  C   UNL     1      14.069  24.977  82.079  1.00  0.00     0.004 C 
BRANCH  17  18
ATOM     18  C   UNL     1      12.932  24.854  83.108  1.00  0.00     0.000 C 
BRANCH  18  19
ATOM     19  C   UNL     1      12.130  26.146  83.341  1.00  0.00    -0.003 C 
ATOM     20  C   UNL     1      12.255  27.142  82.190  1.00  0.00     0.004 C 
ENDBRANCH  18  19
ENDBRANCH  17  18
ENDBRANCH  16  17
ENDBRANCH  15  16
ENDBRANCH  13  14
ENDBRANCH  12  13
ENDBRANCH   1  11
TORSDOF 14
ENDMDL
MODEL 7
REMARK VINA RESULT:    -3.657      3.998      6.516
REMARK INTER + INTRA:          -8.872
REMARK INTER:                  -6.030
REMARK INTRA:                  -2.842
REMARK UNBOUND:                -2.221
REMARK SMILES CCCCCC=CCC=CCCCCCCCC(=O)[O-]
REMARK SMILES IDX 11 1 12 2 13 3 14 4 15 5 16 6 17 7 18 8 19 9 20 10 10 11
REMARK SMILES IDX 9 12 8 13 7 14 6 15 5 16 4 17 3 18 2 19 1 20
REMARK H PARENT
REMARK Flexibility Score: inf
ROOT
ATOM      1  C   UNL     1      16.235  25.514  80.105  1.00  0.00     0.027 C 
ENDROOT
BRANCH   1   2
ATOM      2  C   UNL     1      16.556  24.718  81.384  1.00  0.00     0.004 C 
BRANCH   2   3
ATOM      3  C   UNL     1      15.444  23.752  81.830  1.00  0.00     0.000 C 
BRANCH   3   4
ATOM      4  C   UNL     1      15.126  23.854  83.329  1.00  0.00     0.000 C 
BRANCH   4   5
ATOM      5  C   UNL     1      14.062  24.932  83.590  1.00  0.00     0.000 C 
BRANCH   5   6
ATOM      6  C   UNL     1      12.869  24.836  82.628  1.00  0.00     0.006 C 
BRANCH   6   7
ATOM      7  C   UNL     1      12.628  26.137  81.851  1.00  0.00     0.053 C 
BRANCH   7   8
ATOM      8  C   UNL     1      12.246  27.239  82.786  1.00  0.00     0.041 C 
ATOM      9  O   UNL     1      12.994  28.243  82.923  1.00  0.00    -0.550 OA
ATOM     10  O   UNL     1      11.088  27.133  83.550  1.00  0.00    -0.550 OA
ENDBRANCH   7   8
ENDBRANCH   6   7
ENDBRANCH   5   6
ENDBRANCH   4   5
ENDBRANCH   3   4
ENDBRANCH   2   3
ENDBRANCH   1   2
BRANCH   1  11
ATOM     11  C   UNL     1      15.194  24.844  79.247  1.00  0.00    -0.031 C 
ATOM     12  C   UNL     1      14.958  25.235  77.986  1.00  0.00    -0.027 C 
BRANCH  12  13
ATOM     13  C   UNL     1      13.945  24.528  77.129  1.00  0.00     0.054 C 
BRANCH  13  14
ATOM     14  C   UNL     1      12.590  25.182  77.238  1.00  0.00    -0.027 C 
ATOM     15  C   UNL     1      11.503  24.555  77.721  1.00  0.00    -0.031 C 
BRANCH  15  16
ATOM     16  C   UNL     1      11.482  23.111  78.155  1.00  0.00     0.027 C 
BRANCH  16  17
ATOM     17  C   UNL     1      11.789  22.990  79.655  1.00  0.00     0.004 C 
BRANCH  17  18
ATOM     18  C   UNL     1      12.624  21.743  79.995  1.00  0.00     0.000 C 
BRANCH  18  19
ATOM     19  C   UNL     1      13.580  21.283  78.881  1.00  0.00    -0.003 C 
ATOM     20  C   UNL     1      15.007  21.053  79.376  1.00  0.00     0.004 C 
ENDBRANCH  18  19
ENDBRANCH  17  18
ENDBRANCH  16  17
ENDBRANCH  15  16
ENDBRANCH  13  14
ENDBRANCH  12  13
ENDBRANCH   1  11
TORSDOF 14
ENDMDL
MODEL 8
REMARK VINA RESULT:    -3.648      4.102      7.370
REMARK INTER + INTRA:          -8.854
REMARK INTER:                  -6.881
REMARK INTRA:                  -1.973
REMARK UNBOUND:                -2.221
REMARK SMILES CCCCCC=CCC=CCCCCCCCC(=O)[O-]
REMARK SMILES IDX 11 1 12 2 13 3 14 4 15 5 16 6 17 7 18 8 19 9 20 10 10 11
REMARK SMILES IDX 9 12 8 13 7 14 6 15 5 16 4 17 3 18 2 19 1 20
REMARK H PARENT
REMARK Flexibility Score: inf
ROOT
ATOM      1  C   UNL     1      12.729  23.262  77.709  1.00  0.00     0.027 C 
ENDROOT
BRANCH   1   2
ATOM      2  C   UNL     1      11.775  22.625  78.737  1.00  0.00     0.004 C 
BRANCH   2   3
ATOM      3  C   UNL     1      12.389  22.417  80.133  1.00  0.00     0.000 C 
BRANCH   3   4
ATOM      4  C   UNL     1      13.857  22.861  80.214  1.00  0.00     0.000 C 
BRANCH   4   5
ATOM      5  C   UNL     1      14.066  23.851  81.370  1.00  0.00     0.000 C 
BRANCH   5   6
ATOM      6  C   UNL     1      12.966  24.921  81.444  1.00  0.00     0.006 C 
BRANCH   6   7
ATOM      7  C   UNL     1      12.618  25.315  82.885  1.00  0.00     0.053 C 
BRANCH   7   8
ATOM      8  C   UNL     1      11.990  26.671  82.918  1.00  0.00     0.041 C 
ATOM      9  O   UNL     1      11.125  26.948  83.790  1.00  0.00    -0.550 OA
ATOM     10  O   UNL     1      12.320  27.614  81.950  1.00  0.00    -0.550 OA
ENDBRANCH   7   8
ENDBRANCH   6   7
ENDBRANCH   5   6
ENDBRANCH   4   5
ENDBRANCH   3   4
ENDBRANCH   2   3
ENDBRANCH   1   2
BRANCH   1  11
ATOM     11  C   UNL     1      13.126  22.310  76.612  1.00  0.00    -0.031 C 
ATOM     12  C   UNL     1      12.222  21.770  75.782  1.00  0.00    -0.027 C 
BRANCH  12  13
ATOM     13  C   UNL     1      12.640  20.855  74.665  1.00  0.00     0.054 C 
BRANCH  13  14
ATOM     14  C   UNL     1      11.905  19.539  74.736  1.00  0.00    -0.027 C 
ATOM     15  C   UNL     1      12.305  18.509  75.503  1.00  0.00    -0.031 C 
BRANCH  15  16
ATOM     16  C   UNL     1      13.562  18.512  76.336  1.00  0.00     0.027 C 
BRANCH  16  17
ATOM     17  C   UNL     1      13.292  17.923  77.729  1.00  0.00     0.004 C 
BRANCH  17  18
ATOM     18  C   UNL     1      13.809  18.820  78.867  1.00  0.00     0.000 C 
BRANCH  18  19
ATOM     19  C   UNL     1      14.958  19.765  78.474  1.00  0.00    -0.003 C 
ATOM     20  C   UNL     1      15.973  19.969  79.596  1.00  0.00     0.004 C 
ENDBRANCH  18  19
ENDBRANCH  17  18
ENDBRANCH  16  17
ENDBRANCH  15  16
ENDBRANCH  13  14
ENDBRANCH  12  13
ENDBRANCH   1  11
TORSDOF 14
ENDMDL
MODEL 9
REMARK VINA RESULT:    -3.645      1.433      3.037
REMARK INTER + INTRA:          -8.850
REMARK INTER:                  -6.145
REMARK INTRA:                  -2.705
REMARK UNBOUND:                -2.221
REMARK SMILES CCCCCC=CCC=CCCCCCCCC(=O)[O-]
REMARK SMILES IDX 11 1 12 2 13 3 14 4 15 5 16 6 17 7 18 8 19 9 20 10 10 11
REMARK SMILES IDX 9 12 8 13 7 14 6 15 5 16 4 17 3 18 2 19 1 20
REMARK H PARENT
REMARK Flexibility Score: inf
ROOT
ATOM      1  C   UNL     1      14.088  25.176  77.793  1.00  0.00     0.027 C 
ENDROOT
BRANCH   1   2
ATOM      2  C   UNL     1      12.603  24.830  78.015  1.00  0.00     0.004 C 
BRANCH   2   3
ATOM      3  C   UNL     1      12.295  23.322  78.017  1.00  0.00     0.000 C 
BRANCH   3   4
ATOM      4  C   UNL     1      11.634  22.848  79.320  1.00  0.00     0.000 C 
BRANCH   4   5
ATOM      5  C   UNL     1      12.503  21.792  80.020  1.00  0.00     0.000 C 
BRANCH   5   6
ATOM      6  C   UNL     1      13.691  21.333  79.160  1.00  0.00     0.006 C 
BRANCH   6   7
ATOM      7  C   UNL     1      13.781  19.806  79.041  1.00  0.00     0.053 C 
BRANCH   7   8
ATOM      8  C   UNL     1      13.488  19.375  77.640  1.00  0.00     0.041 C 
ATOM      9  O   UNL     1      13.416  20.227  76.716  1.00  0.00    -0.550 OA
ATOM     10  O   UNL     1      13.238  18.035  77.362  1.00  0.00    -0.550 OA
ENDBRANCH   7   8
ENDBRANCH   6   7
ENDBRANCH   5   6
ENDBRANCH   4   5
ENDBRANCH   3   4
ENDBRANCH   2   3
ENDBRANCH   1   2
BRANCH   1  11
ATOM     11  C   UNL     1      14.959  24.787  78.958  1.00  0.00    -0.031 C 
ATOM     12  C   UNL     1      15.722  25.682  79.601  1.00  0.00    -0.027 C 
BRANCH  12  13
ATOM     13  C   UNL     1      16.553  25.285  80.789  1.00  0.00     0.054 C 
BRANCH  13  14
ATOM     14  C   UNL     1      16.159  23.919  81.296  1.00  0.00    -0.027 C 
ATOM     15  C   UNL     1      15.408  23.727  82.395  1.00  0.00    -0.031 C 
BRANCH  15  16
ATOM     16  C   UNL     1      14.919  24.837  83.291  1.00  0.00     0.027 C 
BRANCH  16  17
ATOM     17  C   UNL     1      13.386  24.816  83.394  1.00  0.00     0.004 C 
BRANCH  17  18
ATOM     18  C   UNL     1      12.693  25.061  82.043  1.00  0.00     0.000 C 
BRANCH  18  19
ATOM     19  C   UNL     1      12.715  26.522  81.562  1.00  0.00    -0.003 C 
ATOM     20  C   UNL     1      12.170  27.501  82.599  1.00  0.00     0.004 C 
ENDBRANCH  18  19
ENDBRANCH  17  18
ENDBRANCH  16  17
ENDBRANCH  15  16
ENDBRANCH  13  14
ENDBRANCH  12  13
ENDBRANCH   1  11
TORSDOF 14
ENDMDL
