MODEL 1
REMARK VINA RESULT:    -4.386      0.000      0.000
REMARK INTER + INTRA:          -5.002
REMARK INTER:                  -4.771
REMARK INTRA:                  -0.231
REMARK UNBOUND:                -0.231
REMARK SMILES O=C([O-])c1ccccc1O
REMARK SMILES IDX 4 1 9 2 5 3 8 4 6 5 7 6 2 7 1 8 3 9 10 10
REMARK H PARENT 10 11
REMARK Flexibility Score: inf
ROOT
ATOM      1  C   UNL     1     139.194 127.041 128.694  1.00  0.00     0.039 A 
ATOM      2  C   UNL     1     138.291 126.615 127.689  1.00  0.00     0.124 A 
ATOM      3  C   UNL     1     140.325 126.250 128.973  1.00  0.00     0.014 A 
ATOM      4  C   UNL     1     138.569 125.456 126.953  1.00  0.00     0.047 A 
ATOM      5  C   UNL     1     140.577 125.085 128.244  1.00  0.00     0.001 A 
ATOM      6  C   UNL     1     139.705 124.695 127.229  1.00  0.00     0.004 A 
ENDROOT
BRANCH   1   7
ATOM      7  C   UNL     1     139.015 128.308 129.438  1.00  0.00     0.075 C 
ATOM      8  O   UNL     1     137.971 128.501 130.114  1.00  0.00    -0.545 OA
ATOM      9  O   UNL     1     140.019 129.268 129.459  1.00  0.00    -0.545 OA
ENDBRANCH   1   7
BRANCH   2  10
ATOM     10  O   UNL     1     137.097 127.287 127.416  1.00  0.00    -0.507 OA
ATOM     11  H   UNL     1     136.890 128.214 127.761  1.00  0.00     0.293 HD
ENDBRANCH   2  10
TORSDOF 2
ENDMDL
MODEL 2
REMARK VINA RESULT:    -4.277      1.486      2.047
REMARK INTER + INTRA:          -4.883
REMARK INTER:                  -4.634
REMARK INTRA:                  -0.249
REMARK UNBOUND:                -0.231
REMARK SMILES O=C([O-])c1ccccc1O
REMARK SMILES IDX 4 1 9 2 5 3 8 4 6 5 7 6 2 7 1 8 3 9 10 10
REMARK H PARENT 10 11
REMARK Flexibility Score: inf
ROOT
ATOM      1  C   UNL     1     139.074 126.299 127.442  1.00  0.00     0.039 A 
ATOM      2  C   UNL     1     139.491 126.453 126.096  1.00  0.00     0.124 A 
ATOM      3  C   UNL     1     139.548 125.197 128.180  1.00  0.00     0.014 A 
ATOM      4  C   UNL     1     140.410 125.549 125.547  1.00  0.00     0.047 A 
ATOM      5  C   UNL     1     140.447 124.293 127.611  1.00  0.00     0.001 A 
ATOM      6  C   UNL     1     140.885 124.474 126.300  1.00  0.00     0.004 A 
ENDROOT
BRANCH   1   7
ATOM      7  C   UNL     1     138.188 127.274 128.114  1.00  0.00     0.075 C 
ATOM      8  O   UNL     1     137.147 127.686 127.536  1.00  0.00    -0.545 OA
ATOM      9  O   UNL     1     138.448 127.695 129.412  1.00  0.00    -0.545 OA
ENDBRANCH   1   7
BRANCH   2  10
ATOM     10  O   UNL     1     138.996 127.460 125.265  1.00  0.00    -0.507 OA
ATOM     11  H   UNL     1     139.062 128.444 125.484  1.00  0.00     0.293 HD
ENDBRANCH   2  10
TORSDOF 2
ENDMDL
MODEL 3
REMARK VINA RESULT:    -4.246      1.734      2.728
REMARK INTER + INTRA:          -4.850
REMARK INTER:                  -4.600
REMARK INTRA:                  -0.250
REMARK UNBOUND:                -0.231
REMARK SMILES O=C([O-])c1ccccc1O
REMARK SMILES IDX 4 1 9 2 5 3 8 4 6 5 7 6 2 7 1 8 3 9 10 10
REMARK H PARENT 10 11
REMARK Flexibility Score: inf
ROOT
ATOM      1  C   UNL     1     139.395 126.362 127.020  1.00  0.00     0.039 A 
ATOM      2  C   UNL     1     139.727 125.519 128.110  1.00  0.00     0.124 A 
ATOM      3  C   UNL     1     139.791 125.985 125.723  1.00  0.00     0.014 A 
ATOM      4  C   UNL     1     140.383 124.303 127.873  1.00  0.00     0.047 A 
ATOM      5  C   UNL     1     140.463 124.780 125.505  1.00  0.00     0.001 A 
ATOM      6  C   UNL     1     140.749 123.936 126.577  1.00  0.00     0.004 A 
ENDROOT
BRANCH   1   7
ATOM      7  C   UNL     1     138.614 127.607 127.189  1.00  0.00     0.075 C 
ATOM      8  O   UNL     1     138.770 128.565 126.386  1.00  0.00    -0.545 OA
ATOM      9  O   UNL     1     137.653 127.715 128.186  1.00  0.00    -0.545 OA
ENDBRANCH   1   7
BRANCH   2  10
ATOM     10  O   UNL     1     139.459 125.863 129.437  1.00  0.00    -0.507 OA
ATOM     11  H   UNL     1     140.097 125.680 130.199  1.00  0.00     0.293 HD
ENDBRANCH   2  10
TORSDOF 2
ENDMDL
MODEL 4
REMARK VINA RESULT:    -4.226     14.328     16.036
REMARK INTER + INTRA:          -4.828
REMARK INTER:                  -4.585
REMARK INTRA:                  -0.243
REMARK UNBOUND:                -0.231
REMARK SMILES O=C([O-])c1ccccc1O
REMARK SMILES IDX 4 1 9 2 5 3 8 4 6 5 7 6 2 7 1 8 3 9 10 10
REMARK H PARENT 10 11
REMARK Flexibility Score: inf
ROOT
ATOM      1  C   UNL     1     128.413 137.420 131.737  1.00  0.00     0.039 A 
ATOM      2  C   UNL     1     128.188 138.722 132.250  1.00  0.00     0.124 A 
ATOM      3  C   UNL     1     127.913 137.095 130.461  1.00  0.00     0.014 A 
ATOM      4  C   UNL     1     127.531 139.675 131.460  1.00  0.00     0.047 A 
ATOM      5  C   UNL     1     127.242 138.050 129.695  1.00  0.00     0.001 A 
ATOM      6  C   UNL     1     127.060 139.341 130.190  1.00  0.00     0.004 A 
ENDROOT
BRANCH   1   7
ATOM      7  C   UNL     1     129.188 136.399 132.476  1.00  0.00     0.075 C 
ATOM      8  O   UNL     1     129.027 135.176 132.220  1.00  0.00    -0.545 OA
ATOM      9  O   UNL     1     130.150 136.771 133.407  1.00  0.00    -0.545 OA
ENDBRANCH   1   7
BRANCH   2  10
ATOM     10  O   UNL     1     128.564 139.097 133.542  1.00  0.00    -0.507 OA
ATOM     11  H   UNL     1     128.511 140.047 133.883  1.00  0.00     0.293 HD
ENDBRANCH   2  10
TORSDOF 2
ENDMDL
MODEL 5
REMARK VINA RESULT:    -4.164      2.901      4.010
REMARK INTER + INTRA:          -4.760
REMARK INTER:                  -4.515
REMARK INTRA:                  -0.245
REMARK UNBOUND:                -0.231
REMARK SMILES O=C([O-])c1ccccc1O
REMARK SMILES IDX 4 1 9 2 5 3 8 4 6 5 7 6 2 7 1 8 3 9 10 10
REMARK H PARENT 10 11
REMARK Flexibility Score: inf
ROOT
ATOM      1  C   UNL     1     140.159 124.642 126.097  1.00  0.00     0.039 A 
ATOM      2  C   UNL     1     140.230 125.488 124.961  1.00  0.00     0.124 A 
ATOM      3  C   UNL     1     140.871 123.428 126.088  1.00  0.00     0.014 A 
ATOM      4  C   UNL     1     141.052 125.133 123.883  1.00  0.00     0.047 A 
ATOM      5  C   UNL     1     141.670 123.079 124.996  1.00  0.00     0.001 A 
ATOM      6  C   UNL     1     141.768 123.935 123.900  1.00  0.00     0.004 A 
ENDROOT
BRANCH   1   7
ATOM      7  C   UNL     1     139.393 125.005 127.310  1.00  0.00     0.075 C 
ATOM      8  O   UNL     1     139.963 125.033 128.433  1.00  0.00    -0.545 OA
ATOM      9  O   UNL     1     138.060 125.387 127.222  1.00  0.00    -0.545 OA
ENDBRANCH   1   7
BRANCH   2  10
ATOM     10  O   UNL     1     139.481 126.660 124.848  1.00  0.00    -0.507 OA
ATOM     11  H   UNL     1     138.810 126.961 125.542  1.00  0.00     0.293 HD
ENDBRANCH   2  10
TORSDOF 2
ENDMDL
MODEL 6
REMARK VINA RESULT:    -4.090      2.794      3.997
REMARK INTER + INTRA:          -4.680
REMARK INTER:                  -4.459
REMARK INTRA:                  -0.221
REMARK UNBOUND:                -0.231
REMARK SMILES O=C([O-])c1ccccc1O
REMARK SMILES IDX 4 1 9 2 5 3 8 4 6 5 7 6 2 7 1 8 3 9 10 10
REMARK H PARENT 10 11
REMARK Flexibility Score: inf
ROOT
ATOM      1  C   UNL     1     139.779 125.601 126.969  1.00  0.00     0.039 A 
ATOM      2  C   UNL     1     139.260 126.736 126.296  1.00  0.00     0.124 A 
ATOM      3  C   UNL     1     139.726 125.560 128.375  1.00  0.00     0.014 A 
ATOM      4  C   UNL     1     138.652 127.761 127.033  1.00  0.00     0.047 A 
ATOM      5  C   UNL     1     139.135 126.600 129.097  1.00  0.00     0.001 A 
ATOM      6  C   UNL     1     138.590 127.694 128.425  1.00  0.00     0.004 A 
ENDROOT
BRANCH   1   7
ATOM      7  C   UNL     1     140.341 124.438 126.247  1.00  0.00     0.075 C 
ATOM      8  O   UNL     1     140.947 123.534 126.880  1.00  0.00    -0.545 OA
ATOM      9  O   UNL     1     140.149 124.290 124.879  1.00  0.00    -0.545 OA
ENDBRANCH   1   7
BRANCH   2  10
ATOM     10  O   UNL     1     139.359 126.901 124.913  1.00  0.00    -0.507 OA
ATOM     11  H   UNL     1     138.709 126.492 124.256  1.00  0.00     0.293 HD
ENDBRANCH   2  10
TORSDOF 2
ENDMDL
MODEL 7
REMARK VINA RESULT:    -3.988     14.233     15.799
REMARK INTER + INTRA:          -4.568
REMARK INTER:                  -4.353
REMARK INTRA:                  -0.215
REMARK UNBOUND:                -0.231
REMARK SMILES O=C([O-])c1ccccc1O
REMARK SMILES IDX 4 1 9 2 5 3 8 4 6 5 7 6 2 7 1 8 3 9 10 10
REMARK H PARENT 10 11
REMARK Flexibility Score: inf
ROOT
ATOM      1  C   UNL     1     128.539 137.452 131.817  1.00  0.00     0.039 A 
ATOM      2  C   UNL     1     127.787 137.276 130.628  1.00  0.00     0.124 A 
ATOM      3  C   UNL     1     128.572 138.724 132.419  1.00  0.00     0.014 A 
ATOM      4  C   UNL     1     127.045 138.347 130.112  1.00  0.00     0.047 A 
ATOM      5  C   UNL     1     127.843 139.787 131.881  1.00  0.00     0.001 A 
ATOM      6  C   UNL     1     127.073 139.596 130.734  1.00  0.00     0.004 A 
ENDROOT
BRANCH   1   7
ATOM      7  C   UNL     1     129.261 136.339 132.471  1.00  0.00     0.075 C 
ATOM      8  O   UNL     1     129.000 135.147 132.160  1.00  0.00    -0.545 OA
ATOM      9  O   UNL     1     130.281 136.590 133.381  1.00  0.00    -0.545 OA
ENDBRANCH   1   7
BRANCH   2  10
ATOM     10  O   UNL     1     127.779 136.076 129.914  1.00  0.00    -0.507 OA
ATOM     11  H   UNL     1     127.319 135.238 130.241  1.00  0.00     0.293 HD
ENDBRANCH   2  10
TORSDOF 2
ENDMDL
MODEL 8
REMARK VINA RESULT:    -3.902     15.012     16.300
REMARK INTER + INTRA:          -4.475
REMARK INTER:                  -4.400
REMARK INTRA:                  -0.076
REMARK UNBOUND:                -0.231
REMARK SMILES O=C([O-])c1ccccc1O
REMARK SMILES IDX 4 1 9 2 5 3 8 4 6 5 7 6 2 7 1 8 3 9 10 10
REMARK H PARENT 10 11
REMARK Flexibility Score: inf
ROOT
ATOM      1  C   UNL     1     127.960 138.275 131.469  1.00  0.00     0.039 A 
ATOM      2  C   UNL     1     128.558 138.245 132.755  1.00  0.00     0.124 A 
ATOM      3  C   UNL     1     128.034 137.126 130.658  1.00  0.00     0.014 A 
ATOM      4  C   UNL     1     129.151 137.064 133.217  1.00  0.00     0.047 A 
ATOM      5  C   UNL     1     128.649 135.962 131.125  1.00  0.00     0.001 A 
ATOM      6  C   UNL     1     129.198 135.928 132.407  1.00  0.00     0.004 A 
ENDROOT
BRANCH   1   7
ATOM      7  C   UNL     1     127.228 139.455 130.961  1.00  0.00     0.075 C 
ATOM      8  O   UNL     1     127.845 140.367 130.350  1.00  0.00    -0.545 OA
ATOM      9  O   UNL     1     125.847 139.544 131.086  1.00  0.00    -0.545 OA
ENDBRANCH   1   7
BRANCH   2  10
ATOM     10  O   UNL     1     128.614 139.368 133.583  1.00  0.00    -0.507 OA
ATOM     11  H   UNL     1     128.487 140.313 133.248  1.00  0.00     0.293 HD
ENDBRANCH   2  10
TORSDOF 2
ENDMDL
MODEL 9
REMARK VINA RESULT:    -3.895     14.699     16.068
REMARK INTER + INTRA:          -4.468
REMARK INTER:                  -4.239
REMARK INTRA:                  -0.229
REMARK UNBOUND:                -0.231
REMARK SMILES O=C([O-])c1ccccc1O
REMARK SMILES IDX 4 1 9 2 5 3 8 4 6 5 7 6 2 7 1 8 3 9 10 10
REMARK H PARENT 10 11
REMARK Flexibility Score: inf
ROOT
ATOM      1  C   UNL     1     128.681 138.225 131.727  1.00  0.00     0.039 A 
ATOM      2  C   UNL     1     127.427 138.755 131.332  1.00  0.00     0.124 A 
ATOM      3  C   UNL     1     129.217 137.138 131.010  1.00  0.00     0.014 A 
ATOM      4  C   UNL     1     126.777 138.234 130.206  1.00  0.00     0.047 A 
ATOM      5  C   UNL     1     128.546 136.616 129.902  1.00  0.00     0.001 A 
ATOM      6  C   UNL     1     127.333 137.169 129.495  1.00  0.00     0.004 A 
ENDROOT
BRANCH   1   7
ATOM      7  C   UNL     1     129.468 138.796 132.842  1.00  0.00     0.075 C 
ATOM      8  O   UNL     1     130.424 138.143 133.340  1.00  0.00    -0.545 OA
ATOM      9  O   UNL     1     129.215 140.079 133.309  1.00  0.00    -0.545 OA
ENDBRANCH   1   7
BRANCH   2  10
ATOM     10  O   UNL     1     126.780 139.767 132.045  1.00  0.00    -0.507 OA
ATOM     11  H   UNL     1     126.574 139.707 133.032  1.00  0.00     0.293 HD
ENDBRANCH   2  10
TORSDOF 2
ENDMDL
