MODEL 1
REMARK VINA RESULT:    -5.445      0.000      0.000
REMARK INTER + INTRA:          -9.003
REMARK INTER:                  -8.470
REMARK INTRA:                  -0.533
REMARK UNBOUND:                -0.533
REMARK SMILES COc1cc(CNC(=O)CCCCC=CC(C)C)ccc1O
REMARK SMILES IDX 11 1 12 2 13 3 14 4 15 5 16 6 17 7 18 8 10 9 8 10 9 11 7 12
REMARK SMILES IDX 6 14 5 15 4 16 19 17 3 18 20 19 21 20 2 21 1 22 22 23
REMARK H PARENT 7 13 22 24
REMARK Flexibility Score: inf
ROOT
ATOM      1  C   UNL     1     115.158 257.466 338.580  1.00  0.00     0.010 C 
ENDROOT
BRANCH   1   2
ATOM      2  C   UNL     1     114.426 258.744 338.134  1.00  0.00     0.005 C 
BRANCH   2   3
ATOM      3  C   UNL     1     113.037 258.441 337.550  1.00  0.00     0.027 C 
BRANCH   3   4
ATOM      4  C   UNL     1     112.952 258.760 336.081  1.00  0.00    -0.031 C 
ATOM      5  C   UNL     1     113.626 258.047 335.167  1.00  0.00    -0.028 C 
BRANCH   5   6
ATOM      6  C   UNL     1     113.530 258.369 333.693  1.00  0.00     0.005 C 
ATOM      7  C   UNL     1     112.148 257.989 333.149  1.00  0.00     0.012 C 
ATOM      8  C   UNL     1     114.629 257.640 332.913  1.00  0.00     0.012 C 
ENDBRANCH   5   6
ENDBRANCH   3   4
ENDBRANCH   2   3
ENDBRANCH   1   2
BRANCH   1   9
ATOM      9  C   UNL     1     116.489 257.773 339.279  1.00  0.00     0.100 C 
BRANCH   9  10
ATOM     10  C   UNL     1     116.823 256.744 340.318  1.00  0.00     0.220 C 
ATOM     11  O   UNL     1     117.863 256.045 340.185  1.00  0.00    -0.275 OA
ATOM     12  N   UNL     1     115.945 256.531 341.433  1.00  0.00    -0.352 N 
ATOM     13  H   UNL     1     115.063 257.088 341.499  1.00  0.00     0.163 HD
BRANCH  12  14
ATOM     14  C   UNL     1     116.223 255.544 342.473  1.00  0.00     0.151 C 
BRANCH  14  15
ATOM     15  C   UNL     1     115.075 255.471 343.443  1.00  0.00    -0.025 A 
ATOM     16  C   UNL     1     115.073 256.279 344.590  1.00  0.00     0.056 A 
ATOM     17  C   UNL     1     114.015 254.579 343.225  1.00  0.00     0.009 A 
ATOM     18  C   UNL     1     114.014 256.206 345.517  1.00  0.00     0.160 A 
ATOM     19  C   UNL     1     112.963 254.502 344.139  1.00  0.00     0.050 A 
ATOM     20  C   UNL     1     112.956 255.310 345.282  1.00  0.00     0.157 A 
BRANCH  18  21
ATOM     21  O   UNL     1     113.984 257.002 346.674  1.00  0.00    -0.493 OA
ATOM     22  C   UNL     1     115.078 257.779 347.150  1.00  0.00     0.278 C 
ENDBRANCH  18  21
BRANCH  20  23
ATOM     23  O   UNL     1     111.888 255.206 346.173  1.00  0.00    -0.504 OA
ATOM     24  H   UNL     1     111.284 255.990 346.385  1.00  0.00     0.293 HD
ENDBRANCH  20  23
ENDBRANCH  14  15
ENDBRANCH  12  14
ENDBRANCH   9  10
ENDBRANCH   1   9
TORSDOF 10
ENDMDL
MODEL 2
REMARK VINA RESULT:    -5.326      2.796     10.546
REMARK INTER + INTRA:          -8.817
REMARK INTER:                  -8.314
REMARK INTRA:                  -0.503
REMARK UNBOUND:                -0.533
REMARK SMILES COc1cc(CNC(=O)CCCCC=CC(C)C)ccc1O
REMARK SMILES IDX 11 1 12 2 13 3 14 4 15 5 16 6 17 7 18 8 10 9 8 10 9 11 7 12
REMARK SMILES IDX 6 14 5 15 4 16 19 17 3 18 20 19 21 20 2 21 1 22 22 23
REMARK H PARENT 7 13 22 24
REMARK Flexibility Score: inf
ROOT
ATOM      1  C   UNL     1     115.347 257.466 347.135  1.00  0.00     0.010 C 
ENDROOT
BRANCH   1   2
ATOM      2  C   UNL     1     115.496 258.948 347.520  1.00  0.00     0.005 C 
BRANCH   2   3
ATOM      3  C   UNL     1     116.811 259.224 348.265  1.00  0.00     0.027 C 
BRANCH   3   4
ATOM      4  C   UNL     1     116.582 259.848 349.616  1.00  0.00    -0.031 C 
ATOM      5  C   UNL     1     116.242 259.110 350.683  1.00  0.00    -0.028 C 
BRANCH   5   6
ATOM      6  C   UNL     1     116.020 259.743 352.038  1.00  0.00     0.005 C 
ATOM      7  C   UNL     1     117.138 259.342 353.007  1.00  0.00     0.012 C 
ATOM      8  C   UNL     1     114.655 259.337 352.602  1.00  0.00     0.012 C 
ENDBRANCH   5   6
ENDBRANCH   3   4
ENDBRANCH   2   3
ENDBRANCH   1   2
BRANCH   1   9
ATOM      9  C   UNL     1     114.043 257.189 346.377  1.00  0.00     0.100 C 
BRANCH   9  10
ATOM     10  C   UNL     1     114.209 256.097 345.361  1.00  0.00     0.220 C 
ATOM     11  O   UNL     1     113.719 254.959 345.592  1.00  0.00    -0.275 OA
ATOM     12  N   UNL     1     114.952 256.337 344.157  1.00  0.00    -0.352 N 
ATOM     13  H   UNL     1     115.390 257.273 344.008  1.00  0.00     0.163 HD
BRANCH  12  14
ATOM     14  C   UNL     1     115.142 255.310 343.137  1.00  0.00     0.151 C 
BRANCH  14  15
ATOM     15  C   UNL     1     116.218 255.729 342.171  1.00  0.00    -0.025 A 
ATOM     16  C   UNL     1     115.880 256.446 341.013  1.00  0.00     0.056 A 
ATOM     17  C   UNL     1     117.557 255.384 342.403  1.00  0.00     0.009 A 
ATOM     18  C   UNL     1     116.874 256.826 340.089  1.00  0.00     0.160 A 
ATOM     19  C   UNL     1     118.547 255.759 341.493  1.00  0.00     0.050 A 
ATOM     20  C   UNL     1     118.214 256.477 340.339  1.00  0.00     0.157 A 
BRANCH  18  21
ATOM     21  O   UNL     1     116.568 257.544 338.922  1.00  0.00    -0.493 OA
ATOM     22  C   UNL     1     115.250 257.897 338.512  1.00  0.00     0.278 C 
ENDBRANCH  18  21
BRANCH  20  23
ATOM     23  O   UNL     1     119.229 256.834 339.453  1.00  0.00    -0.504 OA
ATOM     24  H   UNL     1     119.279 257.753 339.030  1.00  0.00     0.293 HD
ENDBRANCH  20  23
ENDBRANCH  14  15
ENDBRANCH  12  14
ENDBRANCH   9  10
ENDBRANCH   1   9
TORSDOF 10
ENDMDL
MODEL 3
REMARK VINA RESULT:    -4.867      4.151      7.305
REMARK INTER + INTRA:          -8.103
REMARK INTER:                  -7.565
REMARK INTRA:                  -0.538
REMARK UNBOUND:                -0.533
REMARK SMILES COc1cc(CNC(=O)CCCCC=CC(C)C)ccc1O
REMARK SMILES IDX 11 1 12 2 13 3 14 4 15 5 16 6 17 7 18 8 10 9 8 10 9 11 7 12
REMARK SMILES IDX 6 14 5 15 4 16 19 17 3 18 20 19 21 20 2 21 1 22 22 23
REMARK H PARENT 7 13 22 24
REMARK Flexibility Score: inf
ROOT
ATOM      1  C   UNL     1     113.821 254.957 344.402  1.00  0.00     0.010 C 
ENDROOT
BRANCH   1   2
ATOM      2  C   UNL     1     114.625 255.914 343.504  1.00  0.00     0.005 C 
BRANCH   2   3
ATOM      3  C   UNL     1     115.950 255.293 343.035  1.00  0.00     0.027 C 
BRANCH   3   4
ATOM      4  C   UNL     1     116.537 256.022 341.856  1.00  0.00    -0.031 C 
ATOM      5  C   UNL     1     117.843 255.946 341.561  1.00  0.00    -0.028 C 
BRANCH   5   6
ATOM      6  C   UNL     1     118.423 256.676 340.371  1.00  0.00     0.005 C 
ATOM      7  C   UNL     1     119.250 257.882 340.833  1.00  0.00     0.012 C 
ATOM      8  C   UNL     1     117.307 257.126 339.423  1.00  0.00     0.012 C 
ENDBRANCH   5   6
ENDBRANCH   3   4
ENDBRANCH   2   3
ENDBRANCH   1   2
BRANCH   1   9
ATOM      9  C   UNL     1     114.063 255.219 345.894  1.00  0.00     0.100 C 
BRANCH   9  10
ATOM     10  C   UNL     1     114.003 256.682 346.220  1.00  0.00     0.220 C 
ATOM     11  O   UNL     1     112.954 257.331 345.960  1.00  0.00    -0.275 OA
ATOM     12  N   UNL     1     115.143 257.344 346.787  1.00  0.00    -0.352 N 
ATOM     13  H   UNL     1     116.018 256.798 346.951  1.00  0.00     0.163 HD
BRANCH  12  14
ATOM     14  C   UNL     1     115.137 258.765 347.124  1.00  0.00     0.151 C 
BRANCH  14  15
ATOM     15  C   UNL     1     115.848 258.994 348.430  1.00  0.00    -0.025 A 
ATOM     16  C   UNL     1     115.131 259.441 349.551  1.00  0.00     0.056 A 
ATOM     17  C   UNL     1     117.232 258.791 348.532  1.00  0.00     0.009 A 
ATOM     18  C   UNL     1     115.788 259.679 350.774  1.00  0.00     0.160 A 
ATOM     19  C   UNL     1     117.889 259.025 349.742  1.00  0.00     0.050 A 
ATOM     20  C   UNL     1     117.176 259.466 350.862  1.00  0.00     0.157 A 
BRANCH  18  21
ATOM     21  O   UNL     1     115.098 260.125 351.913  1.00  0.00    -0.493 OA
ATOM     22  C   UNL     1     114.465 259.271 352.861  1.00  0.00     0.278 C 
ENDBRANCH  18  21
BRANCH  20  23
ATOM     23  O   UNL     1     117.866 259.688 352.054  1.00  0.00    -0.504 OA
ATOM     24  H   UNL     1     118.237 260.597 352.301  1.00  0.00     0.293 HD
ENDBRANCH  20  23
ENDBRANCH  14  15
ENDBRANCH  12  14
ENDBRANCH   9  10
ENDBRANCH   1   9
TORSDOF 10
ENDMDL
MODEL 4
REMARK VINA RESULT:    -3.690      1.103      1.782
REMARK INTER + INTRA:          -6.273
REMARK INTER:                  -5.681
REMARK INTRA:                  -0.592
REMARK UNBOUND:                -0.533
REMARK SMILES COc1cc(CNC(=O)CCCCC=CC(C)C)ccc1O
REMARK SMILES IDX 11 1 12 2 13 3 14 4 15 5 16 6 17 7 18 8 10 9 8 10 9 11 7 12
REMARK SMILES IDX 6 14 5 15 4 16 19 17 3 18 20 19 21 20 2 21 1 22 22 23
REMARK H PARENT 7 13 22 24
REMARK Flexibility Score: inf
ROOT
ATOM      1  C   UNL     1     117.513 257.389 339.324  1.00  0.00     0.010 C 
ENDROOT
BRANCH   1   2
ATOM      2  C   UNL     1     116.034 257.123 338.991  1.00  0.00     0.005 C 
BRANCH   2   3
ATOM      3  C   UNL     1     115.150 258.351 339.261  1.00  0.00     0.027 C 
BRANCH   3   4
ATOM      4  C   UNL     1     114.594 258.943 337.993  1.00  0.00    -0.031 C 
ATOM      5  C   UNL     1     113.549 258.390 337.358  1.00  0.00    -0.028 C 
BRANCH   5   6
ATOM      6  C   UNL     1     112.992 258.994 336.089  1.00  0.00     0.005 C 
ATOM      7  C   UNL     1     112.826 257.917 335.010  1.00  0.00     0.012 C 
ATOM      8  C   UNL     1     113.905 260.117 335.585  1.00  0.00     0.012 C 
ENDBRANCH   5   6
ENDBRANCH   3   4
ENDBRANCH   2   3
ENDBRANCH   1   2
BRANCH   1   9
ATOM      9  C   UNL     1     117.766 257.458 340.835  1.00  0.00     0.100 C 
BRANCH   9  10
ATOM     10  C   UNL     1     117.360 256.190 341.527  1.00  0.00     0.220 C 
ATOM     11  O   UNL     1     118.133 255.194 341.496  1.00  0.00    -0.275 OA
ATOM     12  N   UNL     1     116.088 256.099 342.184  1.00  0.00    -0.352 N 
ATOM     13  H   UNL     1     115.443 256.921 342.157  1.00  0.00     0.163 HD
BRANCH  12  14
ATOM     14  C   UNL     1     115.646 254.890 342.872  1.00  0.00     0.151 C 
BRANCH  14  15
ATOM     15  C   UNL     1     114.546 255.218 343.846  1.00  0.00    -0.025 A 
ATOM     16  C   UNL     1     114.802 256.068 344.932  1.00  0.00     0.056 A 
ATOM     17  C   UNL     1     113.270 254.657 343.693  1.00  0.00     0.009 A 
ATOM     18  C   UNL     1     113.786 256.367 345.864  1.00  0.00     0.160 A 
ATOM     19  C   UNL     1     112.260 254.949 344.612  1.00  0.00     0.050 A 
ATOM     20  C   UNL     1     112.510 255.800 345.694  1.00  0.00     0.157 A 
BRANCH  18  21
ATOM     21  O   UNL     1     114.011 257.215 346.960  1.00  0.00    -0.493 OA
ATOM     22  C   UNL     1     115.185 257.998 347.150  1.00  0.00     0.278 C 
ENDBRANCH  18  21
BRANCH  20  23
ATOM     23  O   UNL     1     111.476 256.070 346.591  1.00  0.00    -0.504 OA
ATOM     24  H   UNL     1     111.115 257.005 346.732  1.00  0.00     0.293 HD
ENDBRANCH  20  23
ENDBRANCH  14  15
ENDBRANCH  12  14
ENDBRANCH   9  10
ENDBRANCH   1   9
TORSDOF 10
ENDMDL
MODEL 5
REMARK VINA RESULT:    -3.320      2.524      9.268
REMARK INTER + INTRA:          -5.696
REMARK INTER:                  -5.245
REMARK INTRA:                  -0.451
REMARK UNBOUND:                -0.533
REMARK SMILES COc1cc(CNC(=O)CCCCC=CC(C)C)ccc1O
REMARK SMILES IDX 11 1 12 2 13 3 14 4 15 5 16 6 17 7 18 8 10 9 8 10 9 11 7 12
REMARK SMILES IDX 6 14 5 15 4 16 19 17 3 18 20 19 21 20 2 21 1 22 22 23
REMARK H PARENT 7 13 22 24
REMARK Flexibility Score: inf
ROOT
ATOM      1  C   UNL     1     114.583 255.374 343.044  1.00  0.00     0.010 C 
ENDROOT
BRANCH   1   2
ATOM      2  C   UNL     1     113.739 256.071 344.125  1.00  0.00     0.005 C 
BRANCH   2   3
ATOM      3  C   UNL     1     114.238 255.755 345.543  1.00  0.00     0.027 C 
BRANCH   3   4
ATOM      4  C   UNL     1     114.386 256.994 346.386  1.00  0.00    -0.031 C 
ATOM      5  C   UNL     1     115.479 257.209 347.134  1.00  0.00    -0.028 C 
BRANCH   5   6
ATOM      6  C   UNL     1     115.623 258.459 347.972  1.00  0.00     0.005 C 
ATOM      7  C   UNL     1     115.414 259.710 347.111  1.00  0.00     0.012 C 
ATOM      8  C   UNL     1     117.000 258.497 348.643  1.00  0.00     0.012 C 
ENDBRANCH   5   6
ENDBRANCH   3   4
ENDBRANCH   2   3
ENDBRANCH   1   2
BRANCH   1   9
ATOM      9  C   UNL     1     115.998 255.957 342.944  1.00  0.00     0.100 C 
BRANCH   9  10
ATOM     10  C   UNL     1     116.454 256.072 341.519  1.00  0.00     0.220 C 
ATOM     11  O   UNL     1     117.526 255.510 341.166  1.00  0.00    -0.275 OA
ATOM     12  N   UNL     1     115.698 256.847 340.578  1.00  0.00    -0.352 N 
ATOM     13  H   UNL     1     114.838 257.344 340.903  1.00  0.00     0.163 HD
BRANCH  12  14
ATOM     14  C   UNL     1     116.097 256.990 339.181  1.00  0.00     0.151 C 
BRANCH  14  15
ATOM     15  C   UNL     1     115.030 257.716 338.406  1.00  0.00    -0.025 A 
ATOM     16  C   UNL     1     114.570 257.194 337.188  1.00  0.00     0.056 A 
ATOM     17  C   UNL     1     114.509 258.929 338.878  1.00  0.00     0.009 A 
ATOM     18  C   UNL     1     113.587 257.875 336.442  1.00  0.00     0.160 A 
ATOM     19  C   UNL     1     113.534 259.608 338.145  1.00  0.00     0.050 A 
ATOM     20  C   UNL     1     113.070 259.088 336.932  1.00  0.00     0.157 A 
BRANCH  18  21
ATOM     21  O   UNL     1     113.105 257.377 335.220  1.00  0.00    -0.493 OA
ATOM     22  C   UNL     1     113.350 257.975 333.951  1.00  0.00     0.278 C 
ENDBRANCH  18  21
BRANCH  20  23
ATOM     23  O   UNL     1     112.095 259.793 336.226  1.00  0.00    -0.504 OA
ATOM     24  H   UNL     1     111.980 259.699 335.225  1.00  0.00     0.293 HD
ENDBRANCH  20  23
ENDBRANCH  14  15
ENDBRANCH  12  14
ENDBRANCH   9  10
ENDBRANCH   1   9
TORSDOF 10
ENDMDL
MODEL 6
REMARK VINA RESULT:    -3.305      5.293     10.686
REMARK INTER + INTRA:          -5.674
REMARK INTER:                  -4.959
REMARK INTRA:                  -0.715
REMARK UNBOUND:                -0.533
REMARK SMILES COc1cc(CNC(=O)CCCCC=CC(C)C)ccc1O
REMARK SMILES IDX 11 1 12 2 13 3 14 4 15 5 16 6 17 7 18 8 10 9 8 10 9 11 7 12
REMARK SMILES IDX 6 14 5 15 4 16 19 17 3 18 20 19 21 20 2 21 1 22 22 23
REMARK H PARENT 7 13 22 24
REMARK Flexibility Score: inf
ROOT
ATOM      1  C   UNL     1     117.825 259.206 347.974  1.00  0.00     0.010 C 
ENDROOT
BRANCH   1   2
ATOM      2  C   UNL     1     117.783 258.800 349.458  1.00  0.00     0.005 C 
BRANCH   2   3
ATOM      3  C   UNL     1     117.283 259.942 350.356  1.00  0.00     0.027 C 
BRANCH   3   4
ATOM      4  C   UNL     1     116.448 259.442 351.505  1.00  0.00    -0.031 C 
ATOM      5  C   UNL     1     115.239 259.957 351.773  1.00  0.00    -0.028 C 
BRANCH   5   6
ATOM      6  C   UNL     1     114.404 259.444 352.923  1.00  0.00     0.005 C 
ATOM      7  C   UNL     1     114.633 257.942 353.125  1.00  0.00     0.012 C 
ATOM      8  C   UNL     1     112.918 259.728 352.675  1.00  0.00     0.012 C 
ENDBRANCH   5   6
ENDBRANCH   3   4
ENDBRANCH   2   3
ENDBRANCH   1   2
BRANCH   1   9
ATOM      9  C   UNL     1     116.658 260.125 347.589  1.00  0.00     0.100 C 
BRANCH   9  10
ATOM     10  C   UNL     1     115.363 259.373 347.501  1.00  0.00     0.220 C 
ATOM     11  O   UNL     1     114.278 259.987 347.687  1.00  0.00    -0.275 OA
ATOM     12  N   UNL     1     115.362 257.961 347.245  1.00  0.00    -0.352 N 
ATOM     13  H   UNL     1     116.275 257.463 347.141  1.00  0.00     0.163 HD
BRANCH  12  14
ATOM     14  C   UNL     1     114.131 257.182 347.148  1.00  0.00     0.151 C 
BRANCH  14  15
ATOM     15  C   UNL     1     114.123 256.376 345.877  1.00  0.00    -0.025 A 
ATOM     16  C   UNL     1     114.921 256.769 344.792  1.00  0.00     0.056 A 
ATOM     17  C   UNL     1     113.301 255.247 345.756  1.00  0.00     0.009 A 
ATOM     18  C   UNL     1     114.907 256.035 343.589  1.00  0.00     0.160 A 
ATOM     19  C   UNL     1     113.283 254.515 344.568  1.00  0.00     0.050 A 
ATOM     20  C   UNL     1     114.081 254.901 343.486  1.00  0.00     0.157 A 
BRANCH  18  21
ATOM     21  O   UNL     1     115.695 256.402 342.486  1.00  0.00    -0.493 OA
ATOM     22  C   UNL     1     117.000 255.896 342.220  1.00  0.00     0.278 C 
ENDBRANCH  18  21
BRANCH  20  23
ATOM     23  O   UNL     1     114.037 254.145 342.314  1.00  0.00    -0.504 OA
ATOM     24  H   UNL     1     113.399 254.359 341.558  1.00  0.00     0.293 HD
ENDBRANCH  20  23
ENDBRANCH  14  15
ENDBRANCH  12  14
ENDBRANCH   9  10
ENDBRANCH   1   9
TORSDOF 10
ENDMDL
