MODEL 1
REMARK VINA RESULT:    -7.192      0.000      0.000
REMARK INTER + INTRA:          -7.402
REMARK INTER:                  -7.402
REMARK INTRA:                   0.000
REMARK UNBOUND:                 0.000
REMARK SMILES C=C1CCC[C@@]2(C)C[C@@]3(O)OC(=O)C(C)=C3C[C@@H]12
REMARK SMILES IDX 15 1 14 2 16 3 17 4 18 5 2 6 1 7 3 8 4 9 5 10 6 11 8 12 9 13
REMARK SMILES IDX 11 14 12 15 13 16 7 17 10 18
REMARK H PARENT 10 19
REMARK Flexibility Score: inf
ROOT
ATOM      1  C   UNL     1       4.752   1.647 -21.499  1.00  0.00     0.052 C 
ATOM      2  C   UNL     1       5.019   1.338 -22.940  1.00  0.00     0.040 C 
ATOM      3  C   UNL     1       4.954   0.137 -23.514  1.00  0.00     0.012 C 
ATOM      4  C   UNL     1       4.491  -1.116 -22.837  1.00  0.00     0.047 C 
ATOM      5  C   UNL     1       4.364  -2.298 -23.833  1.00  0.00     0.025 C 
ATOM      6  C   UNL     1       3.667  -3.448 -23.121  1.00  0.00    -0.073 C 
ATOM      7  C   UNL     1       4.381  -4.394 -22.493  1.00  0.00     0.008 C 
ATOM      8  C   UNL     1       2.158  -3.479 -23.028  1.00  0.00     0.031 C 
ATOM      9  C   UNL     1       1.506  -2.401 -23.900  1.00  0.00     0.005 C 
ATOM     10  C   UNL     1       2.163  -2.377 -25.280  1.00  0.00     0.008 C 
ATOM     11  C   UNL     1       3.675  -1.958 -25.232  1.00  0.00    -0.019 C 
ATOM     12  C   UNL     1       3.786  -0.434 -25.600  1.00  0.00     0.092 C 
ATOM     13  C   UNL     1       5.027   0.249 -25.008  1.00  0.00     0.235 C 
ATOM     14  O   UNL     1       5.022   1.659 -25.236  1.00  0.00    -0.426 OA
ATOM     15  C   UNL     1       5.054   2.304 -24.015  1.00  0.00     0.336 C 
ATOM     16  O   UNL     1       5.065   3.556 -23.880  1.00  0.00    -0.246 OA
ATOM     17  C   UNL     1       4.398  -2.774 -26.336  1.00  0.00     0.012 C 
ENDROOT
BRANCH  13  18
ATOM     18  O   UNL     1       6.223  -0.311 -25.478  1.00  0.00    -0.353 OA
ATOM     19  H   UNL     1       6.495  -0.997 -24.813  1.00  0.00     0.215 HD
ENDBRANCH  13  18
TORSDOF 1
ENDMDL
MODEL 2
REMARK VINA RESULT:    -7.008      1.902      3.224
REMARK INTER + INTRA:          -7.213
REMARK INTER:                  -7.213
REMARK INTRA:                   0.000
REMARK UNBOUND:                 0.000
REMARK SMILES C=C1CCC[C@@]2(C)C[C@@]3(O)OC(=O)C(C)=C3C[C@@H]12
REMARK SMILES IDX 15 1 14 2 16 3 17 4 18 5 2 6 1 7 3 8 4 9 5 10 6 11 8 12 9 13
REMARK SMILES IDX 11 14 12 15 13 16 7 17 10 18
REMARK H PARENT 10 19
REMARK Flexibility Score: inf
ROOT
ATOM      1  C   UNL     1       4.868   2.646 -24.608  1.00  0.00     0.052 C 
ATOM      2  C   UNL     1       5.008   1.895 -23.320  1.00  0.00     0.040 C 
ATOM      3  C   UNL     1       4.456   0.718 -23.029  1.00  0.00     0.012 C 
ATOM      4  C   UNL     1       3.676  -0.127 -23.988  1.00  0.00     0.047 C 
ATOM      5  C   UNL     1       3.329  -1.514 -23.388  1.00  0.00     0.025 C 
ATOM      6  C   UNL     1       2.757  -2.383 -24.497  1.00  0.00    -0.073 C 
ATOM      7  C   UNL     1       1.434  -2.435 -24.710  1.00  0.00     0.008 C 
ATOM      8  C   UNL     1       3.685  -3.120 -25.437  1.00  0.00     0.031 C 
ATOM      9  C   UNL     1       5.144  -3.053 -24.974  1.00  0.00     0.005 C 
ATOM     10  C   UNL     1       5.231  -3.335 -23.475  1.00  0.00     0.008 C 
ATOM     11  C   UNL     1       4.510  -2.247 -22.603  1.00  0.00    -0.019 C 
ATOM     12  C   UNL     1       5.588  -1.239 -22.065  1.00  0.00     0.092 C 
ATOM     13  C   UNL     1       5.023   0.156 -21.759  1.00  0.00     0.235 C 
ATOM     14  O   UNL     1       6.050   1.085 -21.413  1.00  0.00    -0.426 OA
ATOM     15  C   UNL     1       6.019   2.133 -22.313  1.00  0.00     0.336 C 
ATOM     16  O   UNL     1       6.800   3.120 -22.272  1.00  0.00    -0.246 OA
ATOM     17  C   UNL     1       3.892  -2.988 -21.388  1.00  0.00     0.012 C 
ENDROOT
BRANCH  13  18
ATOM     18  O   UNL     1       4.040   0.129 -20.760  1.00  0.00    -0.353 OA
ATOM     19  H   UNL     1       4.251   0.871 -20.135  1.00  0.00     0.215 HD
ENDBRANCH  13  18
TORSDOF 1
ENDMDL
MODEL 3
REMARK VINA RESULT:    -6.768      2.586      5.360
REMARK INTER + INTRA:          -6.966
REMARK INTER:                  -6.966
REMARK INTRA:                   0.000
REMARK UNBOUND:                 0.000
REMARK SMILES C=C1CCC[C@@]2(C)C[C@@]3(O)OC(=O)C(C)=C3C[C@@H]12
REMARK SMILES IDX 15 1 14 2 16 3 17 4 18 5 2 6 1 7 3 8 4 9 5 10 6 11 8 12 9 13
REMARK SMILES IDX 11 14 12 15 13 16 7 17 10 18
REMARK H PARENT 10 19
REMARK Flexibility Score: inf
ROOT
ATOM      1  C   UNL     1       2.149  -2.438 -23.677  1.00  0.00     0.052 C 
ATOM      2  C   UNL     1       3.218  -1.927 -22.761  1.00  0.00     0.040 C 
ATOM      3  C   UNL     1       4.025  -0.892 -22.991  1.00  0.00     0.012 C 
ATOM      4  C   UNL     1       3.935   0.024 -24.172  1.00  0.00     0.047 C 
ATOM      5  C   UNL     1       4.902   1.229 -24.045  1.00  0.00     0.025 C 
ATOM      6  C   UNL     1       4.576   2.219 -25.153  1.00  0.00    -0.073 C 
ATOM      7  C   UNL     1       5.218   2.162 -26.330  1.00  0.00     0.008 C 
ATOM      8  C   UNL     1       3.452   3.215 -24.973  1.00  0.00     0.031 C 
ATOM      9  C   UNL     1       2.918   3.226 -23.537  1.00  0.00     0.005 C 
ATOM     10  C   UNL     1       4.081   3.234 -22.546  1.00  0.00     0.008 C 
ATOM     11  C   UNL     1       4.954   1.931 -22.613  1.00  0.00    -0.019 C 
ATOM     12  C   UNL     1       4.506   0.967 -21.456  1.00  0.00     0.092 C 
ATOM     13  C   UNL     1       4.783  -0.514 -21.753  1.00  0.00     0.235 C 
ATOM     14  O   UNL     1       4.234  -1.372 -20.752  1.00  0.00    -0.426 OA
ATOM     15  C   UNL     1       3.336  -2.233 -21.352  1.00  0.00     0.336 C 
ATOM     16  O   UNL     1       2.688  -3.118 -20.734  1.00  0.00    -0.246 OA
ATOM     17  C   UNL     1       6.420   2.362 -22.342  1.00  0.00     0.012 C 
ENDROOT
BRANCH  13  18
ATOM     18  O   UNL     1       6.149  -0.781 -21.921  1.00  0.00    -0.353 OA
ATOM     19  H   UNL     1       6.639  -0.006 -21.539  1.00  0.00     0.215 HD
ENDBRANCH  13  18
TORSDOF 1
ENDMDL
MODEL 4
REMARK VINA RESULT:    -6.664      1.588      3.271
REMARK INTER + INTRA:          -6.858
REMARK INTER:                  -6.858
REMARK INTRA:                   0.000
REMARK UNBOUND:                 0.000
REMARK SMILES C=C1CCC[C@@]2(C)C[C@@]3(O)OC(=O)C(C)=C3C[C@@H]12
REMARK SMILES IDX 15 1 14 2 16 3 17 4 18 5 2 6 1 7 3 8 4 9 5 10 6 11 8 12 9 13
REMARK SMILES IDX 11 14 12 15 13 16 7 17 10 18
REMARK H PARENT 10 19
REMARK Flexibility Score: inf
ROOT
ATOM      1  C   UNL     1       3.192   0.057 -27.125  1.00  0.00     0.052 C 
ATOM      2  C   UNL     1       3.824   0.597 -25.879  1.00  0.00     0.040 C 
ATOM      3  C   UNL     1       3.712   0.086 -24.653  1.00  0.00     0.012 C 
ATOM      4  C   UNL     1       3.016  -1.196 -24.316  1.00  0.00     0.047 C 
ATOM      5  C   UNL     1       3.224  -1.594 -22.831  1.00  0.00     0.025 C 
ATOM      6  C   UNL     1       2.696  -3.007 -22.639  1.00  0.00    -0.073 C 
ATOM      7  C   UNL     1       1.430  -3.215 -22.245  1.00  0.00     0.008 C 
ATOM      8  C   UNL     1       3.564  -4.196 -22.988  1.00  0.00     0.031 C 
ATOM      9  C   UNL     1       5.007  -3.782 -23.296  1.00  0.00     0.005 C 
ATOM     10  C   UNL     1       5.501  -2.786 -22.249  1.00  0.00     0.008 C 
ATOM     11  C   UNL     1       4.709  -1.430 -22.270  1.00  0.00    -0.019 C 
ATOM     12  C   UNL     1       5.543  -0.373 -23.080  1.00  0.00     0.092 C 
ATOM     13  C   UNL     1       4.683   0.731 -23.710  1.00  0.00     0.235 C 
ATOM     14  O   UNL     1       5.450   1.588 -24.556  1.00  0.00    -0.426 OA
ATOM     15  C   UNL     1       4.920   1.539 -25.831  1.00  0.00     0.336 C 
ATOM     16  O   UNL     1       5.373   2.192 -26.808  1.00  0.00    -0.246 OA
ATOM     17  C   UNL     1       4.616  -0.946 -20.798  1.00  0.00     0.012 C 
ENDROOT
BRANCH  13  18
ATOM     18  O   UNL     1       3.996   1.489 -22.751  1.00  0.00    -0.353 OA
ATOM     19  H   UNL     1       3.336   0.880 -22.328  1.00  0.00     0.215 HD
ENDBRANCH  13  18
TORSDOF 1
ENDMDL
MODEL 5
REMARK VINA RESULT:    -6.629      2.984      4.742
REMARK INTER + INTRA:          -6.823
REMARK INTER:                  -6.823
REMARK INTRA:                   0.000
REMARK UNBOUND:                 0.000
REMARK SMILES C=C1CCC[C@@]2(C)C[C@@]3(O)OC(=O)C(C)=C3C[C@@H]12
REMARK SMILES IDX 15 1 14 2 16 3 17 4 18 5 2 6 1 7 3 8 4 9 5 10 6 11 8 12 9 13
REMARK SMILES IDX 11 14 12 15 13 16 7 17 10 18
REMARK H PARENT 10 19
REMARK Flexibility Score: inf
ROOT
ATOM      1  C   UNL     1       4.250  -1.278 -20.749  1.00  0.00     0.052 C 
ATOM      2  C   UNL     1       3.279  -1.978 -21.649  1.00  0.00     0.040 C 
ATOM      3  C   UNL     1       3.070  -1.718 -22.939  1.00  0.00     0.012 C 
ATOM      4  C   UNL     1       3.855  -0.740 -23.757  1.00  0.00     0.047 C 
ATOM      5  C   UNL     1       3.478  -0.809 -25.260  1.00  0.00     0.025 C 
ATOM      6  C   UNL     1       4.478   0.030 -26.040  1.00  0.00    -0.073 C 
ATOM      7  C   UNL     1       4.226   1.321 -26.305  1.00  0.00     0.008 C 
ATOM      8  C   UNL     1       5.814  -0.557 -26.439  1.00  0.00     0.031 C 
ATOM      9  C   UNL     1       5.881  -2.064 -26.172  1.00  0.00     0.005 C 
ATOM     10  C   UNL     1       4.600  -2.740 -26.659  1.00  0.00     0.008 C 
ATOM     11  C   UNL     1       3.324  -2.275 -25.871  1.00  0.00    -0.019 C 
ATOM     12  C   UNL     1       2.992  -3.351 -24.774  1.00  0.00     0.092 C 
ATOM     13  C   UNL     1       2.224  -2.781 -23.573  1.00  0.00     0.235 C 
ATOM     14  O   UNL     1       2.067  -3.746 -22.532  1.00  0.00    -0.426 OA
ATOM     15  C   UNL     1       2.658  -3.257 -21.383  1.00  0.00     0.336 C 
ATOM     16  O   UNL     1       2.683  -3.874 -20.286  1.00  0.00    -0.246 OA
ATOM     17  C   UNL     1       2.155  -2.251 -26.891  1.00  0.00     0.012 C 
ENDROOT
BRANCH  13  18
ATOM     18  O   UNL     1       0.976  -2.255 -23.935  1.00  0.00    -0.353 OA
ATOM     19  H   UNL     1       0.889  -2.380 -24.916  1.00  0.00     0.215 HD
ENDBRANCH  13  18
TORSDOF 1
ENDMDL
MODEL 6
REMARK VINA RESULT:    -6.582      6.178      8.307
REMARK INTER + INTRA:          -6.774
REMARK INTER:                  -6.774
REMARK INTRA:                   0.000
REMARK UNBOUND:                 0.000
REMARK SMILES C=C1CCC[C@@]2(C)C[C@@]3(O)OC(=O)C(C)=C3C[C@@H]12
REMARK SMILES IDX 15 1 14 2 16 3 17 4 18 5 2 6 1 7 3 8 4 9 5 10 6 11 8 12 9 13
REMARK SMILES IDX 11 14 12 15 13 16 7 17 10 18
REMARK H PARENT 10 19
REMARK Flexibility Score: inf
ROOT
ATOM      1  C   UNL     1       5.863   9.631 -25.358  1.00  0.00     0.052 C 
ATOM      2  C   UNL     1       5.794   9.125 -23.950  1.00  0.00     0.040 C 
ATOM      3  C   UNL     1       5.005   8.150 -23.500  1.00  0.00     0.012 C 
ATOM      4  C   UNL     1       4.113   7.303 -24.353  1.00  0.00     0.047 C 
ATOM      5  C   UNL     1       3.469   6.145 -23.546  1.00  0.00     0.025 C 
ATOM      6  C   UNL     1       2.783   5.206 -24.526  1.00  0.00    -0.073 C 
ATOM      7  C   UNL     1       1.486   5.367 -24.831  1.00  0.00     0.008 C 
ATOM      8  C   UNL     1       3.583   4.142 -25.244  1.00  0.00     0.031 C 
ATOM      9  C   UNL     1       5.004   4.018 -24.686  1.00  0.00     0.005 C 
ATOM     10  C   UNL     1       4.969   4.014 -23.159  1.00  0.00     0.008 C 
ATOM     11  C   UNL     1       4.444   5.364 -22.553  1.00  0.00    -0.019 C 
ATOM     12  C   UNL     1       5.679   6.233 -22.118  1.00  0.00     0.092 C 
ATOM     13  C   UNL     1       5.392   7.741 -22.110  1.00  0.00     0.235 C 
ATOM     14  O   UNL     1       6.569   8.508 -21.854  1.00  0.00    -0.426 OA
ATOM     15  C   UNL     1       6.788   9.353 -22.924  1.00  0.00     0.336 C 
ATOM     16  O   UNL     1       7.748  10.164 -22.997  1.00  0.00    -0.246 OA
ATOM     17  C   UNL     1       3.638   4.997 -21.279  1.00  0.00     0.012 C 
ENDROOT
BRANCH  13  18
ATOM     18  O   UNL     1       4.382   8.091 -21.203  1.00  0.00    -0.353 OA
ATOM     19  H   UNL     1       4.598   7.635 -20.348  1.00  0.00     0.215 HD
ENDBRANCH  13  18
TORSDOF 1
ENDMDL
MODEL 7
REMARK VINA RESULT:    -6.563      6.185      9.772
REMARK INTER + INTRA:          -6.755
REMARK INTER:                  -6.755
REMARK INTRA:                   0.000
REMARK UNBOUND:                 0.000
REMARK SMILES C=C1CCC[C@@]2(C)C[C@@]3(O)OC(=O)C(C)=C3C[C@@H]12
REMARK SMILES IDX 15 1 14 2 16 3 17 4 18 5 2 6 1 7 3 8 4 9 5 10 6 11 8 12 9 13
REMARK SMILES IDX 11 14 12 15 13 16 7 17 10 18
REMARK H PARENT 10 19
REMARK Flexibility Score: inf
ROOT
ATOM      1  C   UNL     1       2.727   4.515 -24.121  1.00  0.00     0.052 C 
ATOM      2  C   UNL     1       3.731   5.062 -23.154  1.00  0.00     0.040 C 
ATOM      3  C   UNL     1       4.442   6.180 -23.301  1.00  0.00     0.012 C 
ATOM      4  C   UNL     1       4.283   7.157 -24.425  1.00  0.00     0.047 C 
ATOM      5  C   UNL     1       5.132   8.436 -24.203  1.00  0.00     0.025 C 
ATOM      6  C   UNL     1       4.731   9.461 -25.252  1.00  0.00    -0.073 C 
ATOM      7  C   UNL     1       5.392   9.540 -26.417  1.00  0.00     0.008 C 
ATOM      8  C   UNL     1       3.517  10.336 -25.033  1.00  0.00     0.031 C 
ATOM      9  C   UNL     1       2.964  10.204 -23.610  1.00  0.00     0.005 C 
ATOM     10  C   UNL     1       4.107  10.256 -22.597  1.00  0.00     0.008 C 
ATOM     11  C   UNL     1       5.098   9.045 -22.729  1.00  0.00    -0.019 C 
ATOM     12  C   UNL     1       4.726   7.971 -21.644  1.00  0.00     0.092 C 
ATOM     13  C   UNL     1       5.143   6.545 -22.027  1.00  0.00     0.235 C 
ATOM     14  O   UNL     1       4.663   5.577 -21.094  1.00  0.00    -0.426 OA
ATOM     15  C   UNL     1       3.857   4.678 -21.765  1.00  0.00     0.336 C 
ATOM     16  O   UNL     1       3.286   3.699 -21.217  1.00  0.00    -0.246 OA
ATOM     17  C   UNL     1       6.513   9.591 -22.401  1.00  0.00     0.012 C 
ENDROOT
BRANCH  13  18
ATOM     18  O   UNL     1       6.530   6.416 -22.185  1.00  0.00    -0.353 OA
ATOM     19  H   UNL     1       6.875   7.319 -22.414  1.00  0.00     0.215 HD
ENDBRANCH  13  18
TORSDOF 1
ENDMDL
MODEL 8
REMARK VINA RESULT:    -6.520      6.164      9.899
REMARK INTER + INTRA:          -6.711
REMARK INTER:                  -6.711
REMARK INTRA:                   0.000
REMARK UNBOUND:                 0.000
REMARK SMILES C=C1CCC[C@@]2(C)C[C@@]3(O)OC(=O)C(C)=C3C[C@@H]12
REMARK SMILES IDX 15 1 14 2 16 3 17 4 18 5 2 6 1 7 3 8 4 9 5 10 6 11 8 12 9 13
REMARK SMILES IDX 11 14 12 15 13 16 7 17 10 18
REMARK H PARENT 10 19
REMARK Flexibility Score: inf
ROOT
ATOM      1  C   UNL     1       5.488   5.581 -21.897  1.00  0.00     0.052 C 
ATOM      2  C   UNL     1       4.247   5.762 -22.715  1.00  0.00     0.040 C 
ATOM      3  C   UNL     1       3.812   6.903 -23.247  1.00  0.00     0.012 C 
ATOM      4  C   UNL     1       4.552   8.205 -23.212  1.00  0.00     0.047 C 
ATOM      5  C   UNL     1       3.857   9.288 -24.078  1.00  0.00     0.025 C 
ATOM      6  C   UNL     1       4.789  10.486 -24.179  1.00  0.00    -0.073 C 
ATOM      7  C   UNL     1       4.698  11.498 -23.304  1.00  0.00     0.008 C 
ATOM      8  C   UNL     1       5.896  10.500 -25.210  1.00  0.00     0.031 C 
ATOM      9  C   UNL     1       5.775   9.336 -26.199  1.00  0.00     0.005 C 
ATOM     10  C   UNL     1       4.328   9.196 -26.668  1.00  0.00     0.008 C 
ATOM     11  C   UNL     1       3.341   8.809 -25.509  1.00  0.00    -0.019 C 
ATOM     12  C   UNL     1       3.083   7.260 -25.567  1.00  0.00     0.092 C 
ATOM     13  C   UNL     1       2.690   6.656 -24.211  1.00  0.00     0.235 C 
ATOM     14  O   UNL     1       2.606   5.232 -24.265  1.00  0.00    -0.426 OA
ATOM     15  C   UNL     1       3.500   4.701 -23.355  1.00  0.00     0.336 C 
ATOM     16  O   UNL     1       3.658   3.467 -23.160  1.00  0.00    -0.246 OA
ATOM     17  C   UNL     1       2.001   9.533 -25.805  1.00  0.00     0.012 C 
ENDROOT
BRANCH  13  18
ATOM     18  O   UNL     1       1.496   7.191 -23.711  1.00  0.00    -0.353 OA
ATOM     19  H   UNL     1       1.616   8.177 -23.681  1.00  0.00     0.215 HD
ENDBRANCH  13  18
TORSDOF 1
ENDMDL
MODEL 9
REMARK VINA RESULT:    -6.452      7.246      9.954
REMARK INTER + INTRA:          -6.641
REMARK INTER:                  -6.641
REMARK INTRA:                   0.000
REMARK UNBOUND:                 0.000
REMARK SMILES C=C1CCC[C@@]2(C)C[C@@]3(O)OC(=O)C(C)=C3C[C@@H]12
REMARK SMILES IDX 15 1 14 2 16 3 17 4 18 5 2 6 1 7 3 8 4 9 5 10 6 11 8 12 9 13
REMARK SMILES IDX 11 14 12 15 13 16 7 17 10 18
REMARK H PARENT 10 19
REMARK Flexibility Score: inf
ROOT
ATOM      1  C   UNL     1       1.756   7.513 -27.104  1.00  0.00     0.052 C 
ATOM      2  C   UNL     1       2.335   6.726 -25.968  1.00  0.00     0.040 C 
ATOM      3  C   UNL     1       3.412   7.050 -25.253  1.00  0.00     0.012 C 
ATOM      4  C   UNL     1       4.183   8.327 -25.388  1.00  0.00     0.047 C 
ATOM      5  C   UNL     1       5.266   8.468 -24.287  1.00  0.00     0.025 C 
ATOM      6  C   UNL     1       5.828   9.880 -24.351  1.00  0.00    -0.073 C 
ATOM      7  C   UNL     1       6.915  10.149 -25.090  1.00  0.00     0.008 C 
ATOM      8  C   UNL     1       5.106  11.015 -23.661  1.00  0.00     0.031 C 
ATOM      9  C   UNL     1       3.967  10.513 -22.768  1.00  0.00     0.005 C 
ATOM     10  C   UNL     1       4.440   9.322 -21.936  1.00  0.00     0.008 C 
ATOM     11  C   UNL     1       4.812   8.072 -22.810  1.00  0.00    -0.019 C 
ATOM     12  C   UNL     1       3.597   7.075 -22.803  1.00  0.00     0.092 C 
ATOM     13  C   UNL     1       3.539   6.173 -24.043  1.00  0.00     0.235 C 
ATOM     14  O   UNL     1       2.349   5.385 -24.077  1.00  0.00    -0.426 OA
ATOM     15  C   UNL     1       1.654   5.684 -25.233  1.00  0.00     0.336 C 
ATOM     16  O   UNL     1       0.561   5.148 -25.556  1.00  0.00    -0.246 OA
ATOM     17  C   UNL     1       6.009   7.378 -22.108  1.00  0.00     0.012 C 
ENDROOT
BRANCH  13  18
ATOM     18  O   UNL     1       4.667   5.348 -24.159  1.00  0.00    -0.353 OA
ATOM     19  H   UNL     1       4.379   4.543 -24.664  1.00  0.00     0.215 HD
ENDBRANCH  13  18
TORSDOF 1
ENDMDL
