MODEL 1
REMARK VINA RESULT:    -4.389      0.000      0.000
REMARK INTER + INTRA:          -6.093
REMARK INTER:                  -5.928
REMARK INTRA:                  -0.165
REMARK UNBOUND:                -0.165
REMARK SMILES [NH3+]CCCC[C@H]([NH3+])C(=O)[O-]
REMARK SMILES IDX 4 1 3 2 2 3 1 4 5 8 6 9 7 10 8 14 9 15 10 16
REMARK H PARENT 1 5 1 6 1 7 7 11 7 12 7 13
REMARK Flexibility Score: inf
ROOT
ATOM      1  C   UNL     1     129.333 127.672 123.493  1.00  0.00     0.012 C 
ENDROOT
BRANCH   1   2
ATOM      2  C   UNL     1     129.705 127.695 122.004  1.00  0.00     0.061 C 
BRANCH   2   3
ATOM      3  C   UNL     1     128.974 126.608 121.195  1.00  0.00     0.258 C 
BRANCH   3   4
ATOM      4  N   UNL     1     128.253 127.165 120.050  1.00  0.00    -0.358 N 
ATOM      5  H   UNL     1     128.746 128.010 119.681  1.00  0.00     0.344 HD
ATOM      6  H   UNL     1     127.275 127.411 120.321  1.00  0.00     0.344 HD
ATOM      7  H   UNL     1     128.212 126.445 119.292  1.00  0.00     0.344 HD
ENDBRANCH   3   4
ENDBRANCH   2   3
ENDBRANCH   1   2
BRANCH   1   8
ATOM      8  C   UNL     1     128.319 126.556 123.788  1.00  0.00     0.072 C 
BRANCH   8   9
ATOM      9  C   UNL     1     128.513 125.946 125.193  1.00  0.00     0.227 C 
BRANCH   9  10
ATOM     10  N   UNL     1     127.852 124.639 125.280  1.00  0.00    -0.350 N 
ATOM     11  H   UNL     1     126.934 124.671 124.778  1.00  0.00     0.345 HD
ATOM     12  H   UNL     1     127.686 124.374 126.278  1.00  0.00     0.345 HD
ATOM     13  H   UNL     1     128.447 123.909 124.824  1.00  0.00     0.345 HD
ENDBRANCH   9  10
BRANCH   9  14
ATOM     14  C   UNL     1     127.978 126.865 126.261  1.00  0.00     0.099 C 
ATOM     15  O   UNL     1     126.738 126.942 126.466  1.00  0.00    -0.544 OA
ATOM     16  O   UNL     1     128.849 127.630 127.029  1.00  0.00    -0.544 OA
ENDBRANCH   9  14
ENDBRANCH   8   9
ENDBRANCH   1   8
TORSDOF 7
ENDMDL
MODEL 2
REMARK VINA RESULT:    -3.590     21.102     22.300
REMARK INTER + INTRA:          -5.015
REMARK INTER:                  -4.501
REMARK INTRA:                  -0.514
REMARK UNBOUND:                -0.165
REMARK SMILES [NH3+]CCCC[C@H]([NH3+])C(=O)[O-]
REMARK SMILES IDX 4 1 3 2 2 3 1 4 5 8 6 9 7 10 8 14 9 15 10 16
REMARK H PARENT 1 5 1 6 1 7 7 11 7 12 7 13
REMARK Flexibility Score: inf
ROOT
ATOM      1  C   UNL     1     113.336 116.175 109.486  1.00  0.00     0.012 C 
ENDROOT
BRANCH   1   2
ATOM      2  C   UNL     1     114.469 115.735 110.424  1.00  0.00     0.061 C 
BRANCH   2   3
ATOM      3  C   UNL     1     113.947 115.153 111.749  1.00  0.00     0.258 C 
BRANCH   3   4
ATOM      4  N   UNL     1     113.845 116.171 112.796  1.00  0.00    -0.358 N 
ATOM      5  H   UNL     1     114.749 116.255 113.315  1.00  0.00     0.344 HD
ATOM      6  H   UNL     1     113.072 115.935 113.459  1.00  0.00     0.344 HD
ATOM      7  H   UNL     1     113.627 117.093 112.353  1.00  0.00     0.344 HD
ENDBRANCH   3   4
ENDBRANCH   2   3
ENDBRANCH   1   2
BRANCH   1   8
ATOM      8  C   UNL     1     113.419 117.682 109.196  1.00  0.00     0.072 C 
BRANCH   8   9
ATOM      9  C   UNL     1     112.648 118.521 110.238  1.00  0.00     0.227 C 
BRANCH   9  10
ATOM     10  N   UNL     1     111.570 119.277 109.591  1.00  0.00    -0.350 N 
ATOM     11  H   UNL     1     110.648 119.004 110.002  1.00  0.00     0.345 HD
ATOM     12  H   UNL     1     111.554 119.091 108.561  1.00  0.00     0.345 HD
ATOM     13  H   UNL     1     111.708 120.302 109.753  1.00  0.00     0.345 HD
ENDBRANCH   9  10
BRANCH   9  14
ATOM     14  C   UNL     1     113.573 119.464 110.965  1.00  0.00     0.099 C 
ATOM     15  O   UNL     1     113.510 120.703 110.749  1.00  0.00    -0.544 OA
ATOM     16  O   UNL     1     114.497 118.972 111.879  1.00  0.00    -0.544 OA
ENDBRANCH   9  14
ENDBRANCH   8   9
ENDBRANCH   1   8
TORSDOF 7
ENDMDL
MODEL 3
REMARK VINA RESULT:    -3.590     20.166     21.200
REMARK INTER + INTRA:          -5.014
REMARK INTER:                  -4.592
REMARK INTRA:                  -0.422
REMARK UNBOUND:                -0.165
REMARK SMILES [NH3+]CCCC[C@H]([NH3+])C(=O)[O-]
REMARK SMILES IDX 4 1 3 2 2 3 1 4 5 8 6 9 7 10 8 14 9 15 10 16
REMARK H PARENT 1 5 1 6 1 7 7 11 7 12 7 13
REMARK Flexibility Score: inf
ROOT
ATOM      1  C   UNL     1     114.358 115.161 111.418  1.00  0.00     0.012 C 
ENDROOT
BRANCH   1   2
ATOM      2  C   UNL     1     113.446 115.317 110.193  1.00  0.00     0.061 C 
BRANCH   2   3
ATOM      3  C   UNL     1     113.872 116.483 109.284  1.00  0.00     0.258 C 
BRANCH   3   4
ATOM      4  N   UNL     1     112.987 117.641 109.422  1.00  0.00    -0.358 N 
ATOM      5  H   UNL     1     113.395 118.338 110.086  1.00  0.00     0.344 HD
ATOM      6  H   UNL     1     112.043 117.340 109.755  1.00  0.00     0.344 HD
ATOM      7  H   UNL     1     112.875 118.096 108.487  1.00  0.00     0.344 HD
ENDBRANCH   3   4
ENDBRANCH   2   3
ENDBRANCH   1   2
BRANCH   1   8
ATOM      8  C   UNL     1     113.767 115.884 112.638  1.00  0.00     0.072 C 
BRANCH   8   9
ATOM      9  C   UNL     1     114.845 116.623 113.459  1.00  0.00     0.227 C 
BRANCH   9  10
ATOM     10  N   UNL     1     114.697 116.322 114.888  1.00  0.00    -0.350 N 
ATOM     11  H   UNL     1     114.738 117.207 115.443  1.00  0.00     0.345 HD
ATOM     12  H   UNL     1     115.458 115.680 115.211  1.00  0.00     0.345 HD
ATOM     13  H   UNL     1     113.769 115.871 115.061  1.00  0.00     0.345 HD
ENDBRANCH   9  10
BRANCH   9  14
ATOM     14  C   UNL     1     114.769 118.112 113.236  1.00  0.00     0.099 C 
ATOM     15  O   UNL     1     115.160 118.906 114.132  1.00  0.00    -0.544 OA
ATOM     16  O   UNL     1     114.272 118.617 112.041  1.00  0.00    -0.544 OA
ENDBRANCH   9  14
ENDBRANCH   8   9
ENDBRANCH   1   8
TORSDOF 7
ENDMDL
MODEL 4
REMARK VINA RESULT:    -3.578     21.591     22.749
REMARK INTER + INTRA:          -4.998
REMARK INTER:                  -4.505
REMARK INTRA:                  -0.492
REMARK UNBOUND:                -0.165
REMARK SMILES [NH3+]CCCC[C@H]([NH3+])C(=O)[O-]
REMARK SMILES IDX 4 1 3 2 2 3 1 4 5 8 6 9 7 10 8 14 9 15 10 16
REMARK H PARENT 1 5 1 6 1 7 7 11 7 12 7 13
REMARK Flexibility Score: inf
ROOT
ATOM      1  C   UNL     1     113.267 116.089 109.472  1.00  0.00     0.012 C 
ENDROOT
BRANCH   1   2
ATOM      2  C   UNL     1     113.848 115.184 110.568  1.00  0.00     0.061 C 
BRANCH   2   3
ATOM      3  C   UNL     1     114.658 115.969 111.614  1.00  0.00     0.258 C 
BRANCH   3   4
ATOM      4  N   UNL     1     113.799 116.605 112.614  1.00  0.00    -0.358 N 
ATOM      5  H   UNL     1     113.102 117.233 112.152  1.00  0.00     0.344 HD
ATOM      6  H   UNL     1     114.375 117.150 113.295  1.00  0.00     0.344 HD
ATOM      7  H   UNL     1     113.283 115.863 113.140  1.00  0.00     0.344 HD
ENDBRANCH   3   4
ENDBRANCH   2   3
ENDBRANCH   1   2
BRANCH   1   8
ATOM      8  C   UNL     1     114.281 117.166 109.056  1.00  0.00     0.072 C 
BRANCH   8   9
ATOM      9  C   UNL     1     113.600 118.507 108.705  1.00  0.00     0.227 C 
BRANCH   9  10
ATOM     10  N   UNL     1     114.606 119.519 108.364  1.00  0.00    -0.350 N 
ATOM     11  H   UNL     1     114.133 120.401 108.060  1.00  0.00     0.345 HD
ATOM     12  H   UNL     1     115.226 119.179 107.594  1.00  0.00     0.345 HD
ATOM     13  H   UNL     1     115.189 119.736 109.206  1.00  0.00     0.345 HD
ENDBRANCH   9  10
BRANCH   9  14
ATOM     14  C   UNL     1     112.744 118.994 109.846  1.00  0.00     0.099 C 
ATOM     15  O   UNL     1     113.245 119.149 110.990  1.00  0.00    -0.544 OA
ATOM     16  O   UNL     1     111.399 119.280 109.641  1.00  0.00    -0.544 OA
ENDBRANCH   9  14
ENDBRANCH   8   9
ENDBRANCH   1   8
TORSDOF 7
ENDMDL
MODEL 5
REMARK VINA RESULT:    -3.557     14.269     15.618
REMARK INTER + INTRA:          -4.970
REMARK INTER:                  -4.431
REMARK INTRA:                  -0.538
REMARK UNBOUND:                -0.165
REMARK SMILES [NH3+]CCCC[C@H]([NH3+])C(=O)[O-]
REMARK SMILES IDX 4 1 3 2 2 3 1 4 5 8 6 9 7 10 8 14 9 15 10 16
REMARK H PARENT 1 5 1 6 1 7 7 11 7 12 7 13
REMARK Flexibility Score: inf
ROOT
ATOM      1  C   UNL     1     120.317 126.691 109.011  1.00  0.00     0.012 C 
ENDROOT
BRANCH   1   2
ATOM      2  C   UNL     1     119.933 127.954 109.795  1.00  0.00     0.061 C 
BRANCH   2   3
ATOM      3  C   UNL     1     118.900 127.672 110.899  1.00  0.00     0.258 C 
BRANCH   3   4
ATOM      4  N   UNL     1     119.507 127.653 112.231  1.00  0.00    -0.358 N 
ATOM      5  H   UNL     1     120.545 127.543 112.159  1.00  0.00     0.344 HD
ATOM      6  H   UNL     1     119.104 126.877 112.803  1.00  0.00     0.344 HD
ATOM      7  H   UNL     1     119.299 128.558 112.712  1.00  0.00     0.344 HD
ENDBRANCH   3   4
ENDBRANCH   2   3
ENDBRANCH   1   2
BRANCH   1   8
ATOM      8  C   UNL     1     121.844 126.534 108.938  1.00  0.00     0.072 C 
BRANCH   8   9
ATOM      9  C   UNL     1     122.559 127.207 110.130  1.00  0.00     0.227 C 
BRANCH   9  10
ATOM     10  N   UNL     1     123.806 127.842 109.688  1.00  0.00    -0.350 N 
ATOM     11  H   UNL     1     124.600 127.520 110.287  1.00  0.00     0.345 HD
ATOM     12  H   UNL     1     123.731 128.884 109.748  1.00  0.00     0.345 HD
ATOM     13  H   UNL     1     124.012 127.568 108.699  1.00  0.00     0.345 HD
ENDBRANCH   9  10
BRANCH   9  14
ATOM     14  C   UNL     1     122.849 126.208 111.221  1.00  0.00     0.099 C 
ATOM     15  O   UNL     1     122.072 126.106 112.207  1.00  0.00    -0.544 OA
ATOM     16  O   UNL     1     123.970 125.391 111.143  1.00  0.00    -0.544 OA
ENDBRANCH   9  14
ENDBRANCH   8   9
ENDBRANCH   1   8
TORSDOF 7
ENDMDL
MODEL 6
REMARK VINA RESULT:    -3.546     16.674     18.208
REMARK INTER + INTRA:          -4.955
REMARK INTER:                  -4.456
REMARK INTRA:                  -0.499
REMARK UNBOUND:                -0.165
REMARK SMILES [NH3+]CCCC[C@H]([NH3+])C(=O)[O-]
REMARK SMILES IDX 4 1 3 2 2 3 1 4 5 8 6 9 7 10 8 14 9 15 10 16
REMARK H PARENT 1 5 1 6 1 7 7 11 7 12 7 13
REMARK Flexibility Score: inf
ROOT
ATOM      1  C   UNL     1     126.618 116.068 109.487  1.00  0.00     0.012 C 
ENDROOT
BRANCH   1   2
ATOM      2  C   UNL     1     126.422 117.400 110.225  1.00  0.00     0.061 C 
BRANCH   2   3
ATOM      3  C   UNL     1     127.164 117.444 111.573  1.00  0.00     0.258 C 
BRANCH   3   4
ATOM      4  N   UNL     1     126.487 116.653 112.602  1.00  0.00    -0.358 N 
ATOM      5  H   UNL     1     125.580 117.100 112.869  1.00  0.00     0.344 HD
ATOM      6  H   UNL     1     127.098 116.552 113.443  1.00  0.00     0.344 HD
ATOM      7  H   UNL     1     126.291 115.699 112.222  1.00  0.00     0.344 HD
ENDBRANCH   3   4
ENDBRANCH   2   3
ENDBRANCH   1   2
BRANCH   1   8
ATOM      8  C   UNL     1     125.264 115.439 109.122  1.00  0.00     0.072 C 
BRANCH   8   9
ATOM      9  C   UNL     1     124.899 114.258 110.047  1.00  0.00     0.227 C 
BRANCH   9  10
ATOM     10  N   UNL     1     124.559 113.072 109.253  1.00  0.00    -0.350 N 
ATOM     11  H   UNL     1     124.981 113.150 108.299  1.00  0.00     0.345 HD
ATOM     12  H   UNL     1     123.521 112.974 109.161  1.00  0.00     0.345 HD
ATOM     13  H   UNL     1     124.945 112.215 109.712  1.00  0.00     0.345 HD
ENDBRANCH   9  10
BRANCH   9  14
ATOM     14  C   UNL     1     123.752 114.616 110.956  1.00  0.00     0.099 C 
ATOM     15  O   UNL     1     123.926 115.424 111.906  1.00  0.00    -0.544 OA
ATOM     16  O   UNL     1     122.494 114.062 110.749  1.00  0.00    -0.544 OA
ENDBRANCH   9  14
ENDBRANCH   8   9
ENDBRANCH   1   8
TORSDOF 7
ENDMDL
MODEL 7
REMARK VINA RESULT:    -3.507     16.205     17.836
REMARK INTER + INTRA:          -4.902
REMARK INTER:                  -4.373
REMARK INTRA:                  -0.529
REMARK UNBOUND:                -0.165
REMARK SMILES [NH3+]CCCC[C@H]([NH3+])C(=O)[O-]
REMARK SMILES IDX 4 1 3 2 2 3 1 4 5 8 6 9 7 10 8 14 9 15 10 16
REMARK H PARENT 1 5 1 6 1 7 7 11 7 12 7 13
REMARK Flexibility Score: inf
ROOT
ATOM      1  C   UNL     1     126.768 117.580 110.227  1.00  0.00     0.012 C 
ENDROOT
BRANCH   1   2
ATOM      2  C   UNL     1     127.149 117.371 111.700  1.00  0.00     0.061 C 
BRANCH   2   3
ATOM      3  C   UNL     1     125.981 117.662 112.659  1.00  0.00     0.258 C 
BRANCH   3   4
ATOM      4  N   UNL     1     125.649 116.505 113.491  1.00  0.00    -0.358 N 
ATOM      5  H   UNL     1     124.668 116.191 113.308  1.00  0.00     0.344 HD
ATOM      6  H   UNL     1     125.766 116.739 114.503  1.00  0.00     0.344 HD
ATOM      7  H   UNL     1     126.300 115.721 113.258  1.00  0.00     0.344 HD
ENDBRANCH   3   4
ENDBRANCH   2   3
ENDBRANCH   1   2
BRANCH   1   8
ATOM      8  C   UNL     1     126.800 116.250 109.458  1.00  0.00     0.072 C 
BRANCH   8   9
ATOM      9  C   UNL     1     125.384 115.738 109.115  1.00  0.00     0.227 C 
BRANCH   9  10
ATOM     10  N   UNL     1     124.391 116.797 109.328  1.00  0.00    -0.350 N 
ATOM     11  H   UNL     1     124.499 117.197 110.289  1.00  0.00     0.345 HD
ATOM     12  H   UNL     1     123.421 116.421 109.221  1.00  0.00     0.345 HD
ATOM     13  H   UNL     1     124.540 117.568 108.636  1.00  0.00     0.345 HD
ENDBRANCH   9  10
BRANCH   9  14
ATOM     14  C   UNL     1     125.031 114.527 109.939  1.00  0.00     0.099 C 
ATOM     15  O   UNL     1     125.035 113.383 109.415  1.00  0.00    -0.544 OA
ATOM     16  O   UNL     1     124.705 114.665 111.283  1.00  0.00    -0.544 OA
ENDBRANCH   9  14
ENDBRANCH   8   9
ENDBRANCH   1   8
TORSDOF 7
ENDMDL
MODEL 8
REMARK VINA RESULT:    -3.490     14.326     15.171
REMARK INTER + INTRA:          -4.879
REMARK INTER:                  -4.364
REMARK INTRA:                  -0.515
REMARK UNBOUND:                -0.165
REMARK SMILES [NH3+]CCCC[C@H]([NH3+])C(=O)[O-]
REMARK SMILES IDX 4 1 3 2 2 3 1 4 5 8 6 9 7 10 8 14 9 15 10 16
REMARK H PARENT 1 5 1 6 1 7 7 11 7 12 7 13
REMARK Flexibility Score: inf
ROOT
ATOM      1  C   UNL     1     121.744 126.777 109.104  1.00  0.00     0.012 C 
ENDROOT
BRANCH   1   2
ATOM      2  C   UNL     1     123.171 127.179 109.502  1.00  0.00     0.061 C 
BRANCH   2   3
ATOM      3  C   UNL     1     124.041 125.969 109.885  1.00  0.00     0.258 C 
BRANCH   3   4
ATOM      4  N   UNL     1     123.235 124.815 110.287  1.00  0.00    -0.358 N 
ATOM      5  H   UNL     1     123.599 124.405 111.178  1.00  0.00     0.344 HD
ATOM      6  H   UNL     1     123.236 124.091 109.534  1.00  0.00     0.344 HD
ATOM      7  H   UNL     1     122.249 125.127 110.442  1.00  0.00     0.344 HD
ENDBRANCH   3   4
ENDBRANCH   2   3
ENDBRANCH   1   2
BRANCH   1   8
ATOM      8  C   UNL     1     120.705 127.588 109.894  1.00  0.00     0.072 C 
BRANCH   8   9
ATOM      9  C   UNL     1     119.963 126.727 110.939  1.00  0.00     0.227 C 
BRANCH   9  10
ATOM     10  N   UNL     1     118.570 127.168 111.070  1.00  0.00    -0.350 N 
ATOM     11  H   UNL     1     118.086 126.605 111.807  1.00  0.00     0.345 HD
ATOM     12  H   UNL     1     118.060 127.054 110.163  1.00  0.00     0.345 HD
ATOM     13  H   UNL     1     118.541 128.174 111.357  1.00  0.00     0.345 HD
ENDBRANCH   9  10
BRANCH   9  14
ATOM     14  C   UNL     1     120.650 126.789 112.279  1.00  0.00     0.099 C 
ATOM     15  O   UNL     1     121.624 126.030 112.526  1.00  0.00    -0.544 OA
ATOM     16  O   UNL     1     120.217 127.687 113.248  1.00  0.00    -0.544 OA
ENDBRANCH   9  14
ENDBRANCH   8   9
ENDBRANCH   1   8
TORSDOF 7
ENDMDL
MODEL 9
REMARK VINA RESULT:    -3.472     20.986     22.071
REMARK INTER + INTRA:          -4.854
REMARK INTER:                  -4.670
REMARK INTRA:                  -0.185
REMARK UNBOUND:                -0.165
REMARK SMILES [NH3+]CCCC[C@H]([NH3+])C(=O)[O-]
REMARK SMILES IDX 4 1 3 2 2 3 1 4 5 8 6 9 7 10 8 14 9 15 10 16
REMARK H PARENT 1 5 1 6 1 7 7 11 7 12 7 13
REMARK Flexibility Score: inf
ROOT
ATOM      1  C   UNL     1     113.611 116.310 109.154  1.00  0.00     0.012 C 
ENDROOT
BRANCH   1   2
ATOM      2  C   UNL     1     113.008 117.668 109.542  1.00  0.00     0.061 C 
BRANCH   2   3
ATOM      3  C   UNL     1     113.675 118.842 108.804  1.00  0.00     0.258 C 
BRANCH   3   4
ATOM      4  N   UNL     1     114.378 118.407 107.596  1.00  0.00    -0.358 N 
ATOM      5  H   UNL     1     113.714 117.946 106.932  1.00  0.00     0.344 HD
ATOM      6  H   UNL     1     115.152 117.750 107.842  1.00  0.00     0.344 HD
ATOM      7  H   UNL     1     114.794 119.243 107.125  1.00  0.00     0.344 HD
ENDBRANCH   3   4
ENDBRANCH   2   3
ENDBRANCH   1   2
BRANCH   1   8
ATOM      8  C   UNL     1     113.930 115.475 110.404  1.00  0.00     0.072 C 
BRANCH   8   9
ATOM      9  C   UNL     1     114.555 116.325 111.532  1.00  0.00     0.227 C 
BRANCH   9  10
ATOM     10  N   UNL     1     116.019 116.297 111.443  1.00  0.00    -0.350 N 
ATOM     11  H   UNL     1     116.418 115.821 112.285  1.00  0.00     0.345 HD
ATOM     12  H   UNL     1     116.405 117.268 111.385  1.00  0.00     0.345 HD
ATOM     13  H   UNL     1     116.313 115.759 110.594  1.00  0.00     0.345 HD
ENDBRANCH   9  10
BRANCH   9  14
ATOM     14  C   UNL     1     114.113 115.836 112.887  1.00  0.00     0.099 C 
ATOM     15  O   UNL     1     113.491 114.747 112.994  1.00  0.00    -0.544 OA
ATOM     16  O   UNL     1     114.391 116.582 114.026  1.00  0.00    -0.544 OA
ENDBRANCH   9  14
ENDBRANCH   8   9
ENDBRANCH   1   8
TORSDOF 7
ENDMDL
