MODEL 1
REMARK VINA RESULT:    -5.083      0.000      0.000
REMARK INTER + INTRA:          -6.629
REMARK INTER:                  -6.272
REMARK INTRA:                  -0.357
REMARK UNBOUND:                -0.357
REMARK SMILES O=c1c(O)c(-c2cc(O)c(O)c(O)c2)oc2cc(O)cc(O)c12
REMARK SMILES IDX 5 1 3 2 2 3 1 4 23 5 21 6 20 7 18 8 17 9 16 10 15 11 6 12
REMARK SMILES IDX 7 13 8 14 14 15 10 16 12 17 9 18 11 20 13 22 4 24 22 26
REMARK SMILES IDX 19 28
REMARK H PARENT 9 19 11 21 13 23 4 25 22 27 19 29
REMARK Flexibility Score: inf
ROOT
ATOM      1  C   UNL     1      16.569  36.332  14.128  1.00  0.00     0.180 A 
ATOM      2  C   UNL     1      17.353  36.637  15.256  1.00  0.00     0.208 A 
ATOM      3  C   UNL     1      17.547  35.651  16.236  1.00  0.00     0.238 A 
ATOM      4  O   UNL     1      18.203  35.946  17.268  1.00  0.00    -0.285 OA
ATOM      5  C   UNL     1      16.971  34.369  16.069  1.00  0.00     0.111 A 
ATOM      6  C   UNL     1      17.136  33.281  16.979  1.00  0.00     0.134 A 
ATOM      7  C   UNL     1      16.414  32.098  16.780  1.00  0.00     0.093 A 
ATOM      8  C   UNL     1      15.584  31.940  15.668  1.00  0.00     0.123 A 
ATOM      9  C   UNL     1      15.461  32.974  14.742  1.00  0.00     0.094 A 
ATOM     10  C   UNL     1      16.141  34.179  14.933  1.00  0.00     0.146 A 
ATOM     11  O   UNL     1      15.989  35.142  14.032  1.00  0.00    -0.452 OA
ENDROOT
BRANCH   1  12
ATOM     12  C   UNL     1      16.339  37.312  13.041  1.00  0.00     0.029 A 
ATOM     13  C   UNL     1      15.254  38.202  13.078  1.00  0.00     0.062 A 
ATOM     14  C   UNL     1      15.059  39.142  12.058  1.00  0.00     0.162 A 
ATOM     15  C   UNL     1      17.254  37.395  11.983  1.00  0.00     0.062 A 
ATOM     16  C   UNL     1      15.973  39.201  10.979  1.00  0.00     0.200 A 
ATOM     17  C   UNL     1      17.070  38.327  10.954  1.00  0.00     0.162 A 
BRANCH  14  18
ATOM     18  O   UNL     1      13.957  39.993  12.160  1.00  0.00    -0.504 OA
ATOM     19  H   UNL     1      13.016  39.733  11.903  1.00  0.00     0.293 HD
ENDBRANCH  14  18
BRANCH  16  20
ATOM     20  O   UNL     1      15.831  40.106   9.924  1.00  0.00    -0.502 OA
ATOM     21  H   UNL     1      15.478  39.859   9.010  1.00  0.00     0.293 HD
ENDBRANCH  16  20
BRANCH  17  22
ATOM     22  O   UNL     1      17.976  38.391   9.897  1.00  0.00    -0.504 OA
ATOM     23  H   UNL     1      18.662  37.662   9.740  1.00  0.00     0.293 HD
ENDBRANCH  17  22
ENDBRANCH   1  12
BRANCH   2  24
ATOM     24  O   UNL     1      17.894  37.916  15.411  1.00  0.00    -0.502 OA
ATOM     25  H   UNL     1      17.457  38.625  15.988  1.00  0.00     0.293 HD
ENDBRANCH   2  24
BRANCH   6  26
ATOM     26  O   UNL     1      18.011  33.301  18.069  1.00  0.00    -0.507 OA
ATOM     27  H   UNL     1      17.934  33.928  18.856  1.00  0.00     0.293 HD
ENDBRANCH   6  26
BRANCH   8  28
ATOM     28  O   UNL     1      14.880  30.754  15.469  1.00  0.00    -0.508 OA
ATOM     29  H   UNL     1      14.130  30.471  16.090  1.00  0.00     0.293 HD
ENDBRANCH   8  28
TORSDOF 7
ENDMDL
MODEL 2
REMARK VINA RESULT:    -5.017      0.149      1.766
REMARK INTER + INTRA:          -6.547
REMARK INTER:                  -6.179
REMARK INTRA:                  -0.368
REMARK UNBOUND:                -0.357
REMARK SMILES O=c1c(O)c(-c2cc(O)c(O)c(O)c2)oc2cc(O)cc(O)c12
REMARK SMILES IDX 5 1 3 2 2 3 1 4 23 5 21 6 20 7 18 8 17 9 16 10 15 11 6 12
REMARK SMILES IDX 7 13 8 14 14 15 10 16 12 17 9 18 11 20 13 22 4 24 22 26
REMARK SMILES IDX 19 28
REMARK H PARENT 9 19 11 21 13 23 4 25 22 27 19 29
REMARK Flexibility Score: inf
ROOT
ATOM      1  C   UNL     1      16.729  36.288  14.142  1.00  0.00     0.180 A 
ATOM      2  C   UNL     1      17.547  36.560  15.254  1.00  0.00     0.208 A 
ATOM      3  C   UNL     1      17.730  35.563  16.225  1.00  0.00     0.238 A 
ATOM      4  O   UNL     1      18.418  35.830  17.243  1.00  0.00    -0.285 OA
ATOM      5  C   UNL     1      17.107  34.301  16.065  1.00  0.00     0.111 A 
ATOM      6  C   UNL     1      17.255  33.204  16.965  1.00  0.00     0.134 A 
ATOM      7  C   UNL     1      16.489  32.047  16.776  1.00  0.00     0.093 A 
ATOM      8  C   UNL     1      15.629  31.924  15.682  1.00  0.00     0.123 A 
ATOM      9  C   UNL     1      15.522  32.966  14.765  1.00  0.00     0.094 A 
ATOM     10  C   UNL     1      16.246  34.147  14.947  1.00  0.00     0.146 A 
ATOM     11  O   UNL     1      16.107  35.119  14.054  1.00  0.00    -0.452 OA
ENDROOT
BRANCH   1  12
ATOM     12  C   UNL     1      16.508  37.282  13.066  1.00  0.00     0.029 A 
ATOM     13  C   UNL     1      17.376  37.371  11.966  1.00  0.00     0.062 A 
ATOM     14  C   UNL     1      17.146  38.296  10.940  1.00  0.00     0.162 A 
ATOM     15  C   UNL     1      15.380  38.110  13.113  1.00  0.00     0.062 A 
ATOM     16  C   UNL     1      16.018  39.148  11.009  1.00  0.00     0.200 A 
ATOM     17  C   UNL     1      15.138  39.043  12.097  1.00  0.00     0.162 A 
BRANCH  14  18
ATOM     18  O   UNL     1      18.053  38.330   9.879  1.00  0.00    -0.504 OA
ATOM     19  H   UNL     1      17.798  38.181   8.913  1.00  0.00     0.293 HD
ENDBRANCH  14  18
BRANCH  16  20
ATOM     20  O   UNL     1      15.735  40.100  10.027  1.00  0.00    -0.502 OA
ATOM     21  H   UNL     1      14.889  40.651   9.998  1.00  0.00     0.293 HD
ENDBRANCH  16  20
BRANCH  17  22
ATOM     22  O   UNL     1      14.021  39.875  12.161  1.00  0.00    -0.504 OA
ATOM     23  H   UNL     1      13.593  40.122  13.045  1.00  0.00     0.293 HD
ENDBRANCH  17  22
ENDBRANCH   1  12
BRANCH   2  24
ATOM     24  O   UNL     1      18.134  37.819  15.403  1.00  0.00    -0.502 OA
ATOM     25  H   UNL     1      18.099  38.336  16.273  1.00  0.00     0.293 HD
ENDBRANCH   2  24
BRANCH   6  26
ATOM     26  O   UNL     1      18.154  33.189  18.035  1.00  0.00    -0.507 OA
ATOM     27  H   UNL     1      17.956  33.545  18.958  1.00  0.00     0.293 HD
ENDBRANCH   6  26
BRANCH   8  28
ATOM     28  O   UNL     1      14.882  30.763  15.494  1.00  0.00    -0.508 OA
ATOM     29  H   UNL     1      13.873  30.791  15.400  1.00  0.00     0.293 HD
ENDBRANCH   8  28
TORSDOF 7
ENDMDL
MODEL 3
REMARK VINA RESULT:    -4.986      1.329      7.202
REMARK INTER + INTRA:          -6.509
REMARK INTER:                  -6.159
REMARK INTRA:                  -0.350
REMARK UNBOUND:                -0.357
REMARK SMILES O=c1c(O)c(-c2cc(O)c(O)c(O)c2)oc2cc(O)cc(O)c12
REMARK SMILES IDX 5 1 3 2 2 3 1 4 23 5 21 6 20 7 18 8 17 9 16 10 15 11 6 12
REMARK SMILES IDX 7 13 8 14 14 15 10 16 12 17 9 18 11 20 13 22 4 24 22 26
REMARK SMILES IDX 19 28
REMARK H PARENT 9 19 11 21 13 23 4 25 22 27 19 29
REMARK Flexibility Score: inf
ROOT
ATOM      1  C   UNL     1      17.120  35.166  13.735  1.00  0.00     0.180 A 
ATOM      2  C   UNL     1      18.081  35.128  12.708  1.00  0.00     0.208 A 
ATOM      3  C   UNL     1      18.109  36.166  11.764  1.00  0.00     0.238 A 
ATOM      4  O   UNL     1      18.934  36.099  10.817  1.00  0.00    -0.285 OA
ATOM      5  C   UNL     1      17.188  37.237  11.867  1.00  0.00     0.111 A 
ATOM      6  C   UNL     1      17.153  38.362  10.989  1.00  0.00     0.134 A 
ATOM      7  C   UNL     1      16.117  39.297  11.106  1.00  0.00     0.093 A 
ATOM      8  C   UNL     1      15.153  39.182  12.111  1.00  0.00     0.123 A 
ATOM      9  C   UNL     1      15.213  38.120  13.009  1.00  0.00     0.094 A 
ATOM     10  C   UNL     1      16.214  37.151  12.895  1.00  0.00     0.146 A 
ATOM     11  O   UNL     1      16.230  36.150  13.767  1.00  0.00    -0.452 OA
ENDROOT
BRANCH   1  12
ATOM     12  C   UNL     1      17.044  34.120  14.782  1.00  0.00     0.029 A 
ATOM     13  C   UNL     1      17.897  34.140  15.897  1.00  0.00     0.062 A 
ATOM     14  C   UNL     1      17.801  33.161  16.894  1.00  0.00     0.162 A 
ATOM     15  C   UNL     1      16.064  33.123  14.689  1.00  0.00     0.062 A 
ATOM     16  C   UNL     1      16.826  32.141  16.780  1.00  0.00     0.200 A 
ATOM     17  C   UNL     1      15.960  32.134  15.676  1.00  0.00     0.162 A 
BRANCH  14  18
ATOM     18  O   UNL     1      18.683  33.243  17.973  1.00  0.00    -0.504 OA
ATOM     19  H   UNL     1      18.757  32.545  18.698  1.00  0.00     0.293 HD
ENDBRANCH  14  18
BRANCH  16  20
ATOM     20  O   UNL     1      16.684  31.129  17.731  1.00  0.00    -0.502 OA
ATOM     21  H   UNL     1      16.952  31.221  18.700  1.00  0.00     0.293 HD
ENDBRANCH  16  20
BRANCH  17  22
ATOM     22  O   UNL     1      14.992  31.137  15.568  1.00  0.00    -0.504 OA
ATOM     23  H   UNL     1      14.792  30.505  16.334  1.00  0.00     0.293 HD
ENDBRANCH  17  22
ENDBRANCH   1  12
BRANCH   2  24
ATOM     24  O   UNL     1      18.965  34.050  12.613  1.00  0.00    -0.502 OA
ATOM     25  H   UNL     1      19.073  33.510  11.764  1.00  0.00     0.293 HD
ENDBRANCH   2  24
BRANCH   6  26
ATOM     26  O   UNL     1      18.119  38.621  10.013  1.00  0.00    -0.507 OA
ATOM     27  H   UNL     1      18.581  39.509   9.883  1.00  0.00     0.293 HD
ENDBRANCH   6  26
BRANCH   8  28
ATOM     28  O   UNL     1      14.134  40.124  12.229  1.00  0.00    -0.508 OA
ATOM     29  H   UNL     1      13.511  40.332  11.457  1.00  0.00     0.293 HD
ENDBRANCH   8  28
TORSDOF 7
ENDMDL
MODEL 4
REMARK VINA RESULT:    -4.755      1.190      1.339
REMARK INTER + INTRA:          -6.223
REMARK INTER:                  -5.911
REMARK INTRA:                  -0.312
REMARK UNBOUND:                -0.357
REMARK SMILES O=c1c(O)c(-c2cc(O)c(O)c(O)c2)oc2cc(O)cc(O)c12
REMARK SMILES IDX 5 1 3 2 2 3 1 4 23 5 21 6 20 7 18 8 17 9 16 10 15 11 6 12
REMARK SMILES IDX 7 13 8 14 14 15 10 16 12 17 9 18 11 20 13 22 4 24 22 26
REMARK SMILES IDX 19 28
REMARK H PARENT 9 19 11 21 13 23 4 25 22 27 19 29
REMARK Flexibility Score: inf
ROOT
ATOM      1  C   UNL     1      17.267  35.280  14.507  1.00  0.00     0.180 A 
ATOM      2  C   UNL     1      18.309  35.418  15.441  1.00  0.00     0.208 A 
ATOM      3  C   UNL     1      18.522  34.396  16.380  1.00  0.00     0.238 A 
ATOM      4  O   UNL     1      19.420  34.549  17.247  1.00  0.00    -0.285 OA
ATOM      5  C   UNL     1      17.701  33.242  16.363  1.00  0.00     0.111 A 
ATOM      6  C   UNL     1      17.852  32.127  17.241  1.00  0.00     0.134 A 
ATOM      7  C   UNL     1      16.902  31.098  17.221  1.00  0.00     0.093 A 
ATOM      8  C   UNL     1      15.844  31.113  16.309  1.00  0.00     0.123 A 
ATOM      9  C   UNL     1      15.722  32.167  15.407  1.00  0.00     0.094 A 
ATOM     10  C   UNL     1      16.633  33.226  15.428  1.00  0.00     0.146 A 
ATOM     11  O   UNL     1      16.474  34.216  14.558  1.00  0.00    -0.452 OA
ENDROOT
BRANCH   1  12
ATOM     12  C   UNL     1      16.997  36.304  13.471  1.00  0.00     0.029 A 
ATOM     13  C   UNL     1      15.955  37.233  13.616  1.00  0.00     0.062 A 
ATOM     14  C   UNL     1      15.723  38.214  12.644  1.00  0.00     0.162 A 
ATOM     15  C   UNL     1      17.834  36.388  12.351  1.00  0.00     0.062 A 
ATOM     16  C   UNL     1      16.557  38.274  11.501  1.00  0.00     0.200 A 
ATOM     17  C   UNL     1      17.612  37.360  11.367  1.00  0.00     0.162 A 
BRANCH  14  18
ATOM     18  O   UNL     1      14.667  39.102  12.855  1.00  0.00    -0.504 OA
ATOM     19  H   UNL     1      13.707  38.908  12.611  1.00  0.00     0.293 HD
ENDBRANCH  14  18
BRANCH  16  20
ATOM     20  O   UNL     1      16.375  39.218  10.489  1.00  0.00    -0.502 OA
ATOM     21  H   UNL     1      16.111  40.180  10.652  1.00  0.00     0.293 HD
ENDBRANCH  16  20
BRANCH  17  22
ATOM     22  O   UNL     1      18.440  37.425  10.248  1.00  0.00    -0.504 OA
ATOM     23  H   UNL     1      19.360  37.000  10.242  1.00  0.00     0.293 HD
ENDBRANCH  17  22
ENDBRANCH   1  12
BRANCH   2  24
ATOM     24  O   UNL     1      19.093  36.574  15.454  1.00  0.00    -0.502 OA
ATOM     25  H   UNL     1      18.875  37.373  16.038  1.00  0.00     0.293 HD
ENDBRANCH   2  24
BRANCH   6  26
ATOM     26  O   UNL     1      18.923  31.969  18.125  1.00  0.00    -0.507 OA
ATOM     27  H   UNL     1      19.820  31.577  17.878  1.00  0.00     0.293 HD
ENDBRANCH   6  26
BRANCH   8  28
ATOM     28  O   UNL     1      14.912  30.077  16.285  1.00  0.00    -0.508 OA
ATOM     29  H   UNL     1      15.085  29.220  15.774  1.00  0.00     0.293 HD
ENDBRANCH   8  28
TORSDOF 7
ENDMDL
MODEL 5
REMARK VINA RESULT:    -4.709      2.162      6.760
REMARK INTER + INTRA:          -6.167
REMARK INTER:                  -5.816
REMARK INTRA:                  -0.351
REMARK UNBOUND:                -0.357
REMARK SMILES O=c1c(O)c(-c2cc(O)c(O)c(O)c2)oc2cc(O)cc(O)c12
REMARK SMILES IDX 5 1 3 2 2 3 1 4 23 5 21 6 20 7 18 8 17 9 16 10 15 11 6 12
REMARK SMILES IDX 7 13 8 14 14 15 10 16 12 17 9 18 11 20 13 22 4 24 22 26
REMARK SMILES IDX 19 28
REMARK H PARENT 9 19 11 21 13 23 4 25 22 27 19 29
REMARK Flexibility Score: inf
ROOT
ATOM      1  C   UNL     1      17.007  35.491  13.681  1.00  0.00     0.180 A 
ATOM      2  C   UNL     1      16.950  36.743  14.317  1.00  0.00     0.208 A 
ATOM      3  C   UNL     1      17.518  37.858  13.679  1.00  0.00     0.238 A 
ATOM      4  O   UNL     1      17.513  38.965  14.277  1.00  0.00    -0.285 OA
ATOM      5  C   UNL     1      18.121  37.709  12.406  1.00  0.00     0.111 A 
ATOM      6  C   UNL     1      18.692  38.776  11.650  1.00  0.00     0.134 A 
ATOM      7  C   UNL     1      19.376  38.492  10.461  1.00  0.00     0.093 A 
ATOM      8  C   UNL     1      19.454  37.187   9.970  1.00  0.00     0.123 A 
ATOM      9  C   UNL     1      18.850  36.146  10.670  1.00  0.00     0.094 A 
ATOM     10  C   UNL     1      18.191  36.393  11.877  1.00  0.00     0.146 A 
ATOM     11  O   UNL     1      17.636  35.371  12.518  1.00  0.00    -0.452 OA
ENDROOT
BRANCH   1  12
ATOM     12  C   UNL     1      16.409  34.275  14.280  1.00  0.00     0.029 A 
ATOM     13  C   UNL     1      15.035  34.007  14.170  1.00  0.00     0.062 A 
ATOM     14  C   UNL     1      14.483  32.843  14.718  1.00  0.00     0.162 A 
ATOM     15  C   UNL     1      17.237  33.344  14.920  1.00  0.00     0.062 A 
ATOM     16  C   UNL     1      15.322  31.920  15.387  1.00  0.00     0.200 A 
ATOM     17  C   UNL     1      16.698  32.177  15.478  1.00  0.00     0.162 A 
BRANCH  14  18
ATOM     18  O   UNL     1      13.109  32.643  14.571  1.00  0.00    -0.504 OA
ATOM     19  H   UNL     1      12.664  31.737  14.585  1.00  0.00     0.293 HD
ENDBRANCH  14  18
BRANCH  16  20
ATOM     20  O   UNL     1      14.835  30.746  15.966  1.00  0.00    -0.502 OA
ATOM     21  H   UNL     1      15.095  29.817  15.669  1.00  0.00     0.293 HD
ENDBRANCH  16  20
BRANCH  17  22
ATOM     22  O   UNL     1      17.527  31.264  16.127  1.00  0.00    -0.504 OA
ATOM     23  H   UNL     1      18.432  31.535  16.493  1.00  0.00     0.293 HD
ENDBRANCH  17  22
ENDBRANCH   1  12
BRANCH   2  24
ATOM     24  O   UNL     1      16.370  36.863  15.583  1.00  0.00    -0.502 OA
ATOM     25  H   UNL     1      15.399  36.639  15.759  1.00  0.00     0.293 HD
ENDBRANCH   2  24
BRANCH   6  26
ATOM     26  O   UNL     1      18.590  40.125  12.004  1.00  0.00    -0.507 OA
ATOM     27  H   UNL     1      18.662  40.896  11.357  1.00  0.00     0.293 HD
ENDBRANCH   6  26
BRANCH   8  28
ATOM     28  O   UNL     1      20.125  36.915   8.779  1.00  0.00    -0.508 OA
ATOM     29  H   UNL     1      21.015  36.431   8.771  1.00  0.00     0.293 HD
ENDBRANCH   8  28
TORSDOF 7
ENDMDL
MODEL 6
REMARK VINA RESULT:    -4.669      2.244      6.933
REMARK INTER + INTRA:          -6.118
REMARK INTER:                  -5.773
REMARK INTRA:                  -0.345
REMARK UNBOUND:                -0.357
REMARK SMILES O=c1c(O)c(-c2cc(O)c(O)c(O)c2)oc2cc(O)cc(O)c12
REMARK SMILES IDX 5 1 3 2 2 3 1 4 23 5 21 6 20 7 18 8 17 9 16 10 15 11 6 12
REMARK SMILES IDX 7 13 8 14 14 15 10 16 12 17 9 18 11 20 13 22 4 24 22 26
REMARK SMILES IDX 19 28
REMARK H PARENT 9 19 11 21 13 23 4 25 22 27 19 29
REMARK Flexibility Score: inf
ROOT
ATOM      1  C   UNL     1      17.222  35.431  13.706  1.00  0.00     0.180 A 
ATOM      2  C   UNL     1      17.228  36.648  14.412  1.00  0.00     0.208 A 
ATOM      3  C   UNL     1      17.777  37.786  13.800  1.00  0.00     0.238 A 
ATOM      4  O   UNL     1      17.829  38.859  14.456  1.00  0.00    -0.285 OA
ATOM      5  C   UNL     1      18.300  37.698  12.487  1.00  0.00     0.111 A 
ATOM      6  C   UNL     1      18.844  38.796  11.756  1.00  0.00     0.134 A 
ATOM      7  C   UNL     1      19.450  38.567  10.514  1.00  0.00     0.093 A 
ATOM      8  C   UNL     1      19.473  37.290   9.950  1.00  0.00     0.123 A 
ATOM      9  C   UNL     1      18.892  36.222  10.629  1.00  0.00     0.094 A 
ATOM     10  C   UNL     1      18.312  36.413  11.885  1.00  0.00     0.146 A 
ATOM     11  O   UNL     1      17.778  35.366  12.502  1.00  0.00    -0.452 OA
ENDROOT
BRANCH   1  12
ATOM     12  C   UNL     1      16.638  34.194  14.275  1.00  0.00     0.029 A 
ATOM     13  C   UNL     1      17.434  33.253  14.948  1.00  0.00     0.062 A 
ATOM     14  C   UNL     1      16.869  32.099  15.505  1.00  0.00     0.162 A 
ATOM     15  C   UNL     1      15.255  33.984  14.193  1.00  0.00     0.062 A 
ATOM     16  C   UNL     1      15.474  31.881  15.394  1.00  0.00     0.200 A 
ATOM     17  C   UNL     1      14.676  32.832  14.741  1.00  0.00     0.162 A 
BRANCH  14  18
ATOM     18  O   UNL     1      17.722  31.207  16.158  1.00  0.00    -0.504 OA
ATOM     19  H   UNL     1      17.499  30.746  17.028  1.00  0.00     0.293 HD
ENDBRANCH  14  18
BRANCH  16  20
ATOM     20  O   UNL     1      14.849  30.747  15.915  1.00  0.00    -0.502 OA
ATOM     21  H   UNL     1      14.827  30.512  16.897  1.00  0.00     0.293 HD
ENDBRANCH  16  20
BRANCH  17  22
ATOM     22  O   UNL     1      13.302  32.624  14.640  1.00  0.00    -0.504 OA
ATOM     23  H   UNL     1      12.869  32.349  13.766  1.00  0.00     0.293 HD
ENDBRANCH  17  22
ENDBRANCH   1  12
BRANCH   2  24
ATOM     24  O   UNL     1      16.727  36.707  15.715  1.00  0.00    -0.502 OA
ATOM     25  H   UNL     1      16.726  35.906  16.334  1.00  0.00     0.293 HD
ENDBRANCH   2  24
BRANCH   6  26
ATOM     26  O   UNL     1      18.790  40.125  12.188  1.00  0.00    -0.507 OA
ATOM     27  H   UNL     1      19.140  40.456  13.075  1.00  0.00     0.293 HD
ENDBRANCH   6  26
BRANCH   8  28
ATOM     28  O   UNL     1      20.066  37.073   8.707  1.00  0.00    -0.508 OA
ATOM     29  H   UNL     1      19.928  36.208   8.198  1.00  0.00     0.293 HD
ENDBRANCH   8  28
TORSDOF 7
ENDMDL
MODEL 7
REMARK VINA RESULT:    -4.643      1.766      3.201
REMARK INTER + INTRA:          -6.086
REMARK INTER:                  -5.822
REMARK INTRA:                  -0.264
REMARK UNBOUND:                -0.357
REMARK SMILES O=c1c(O)c(-c2cc(O)c(O)c(O)c2)oc2cc(O)cc(O)c12
REMARK SMILES IDX 5 1 3 2 2 3 1 4 23 5 21 6 20 7 18 8 17 9 16 10 15 11 6 12
REMARK SMILES IDX 7 13 8 14 14 15 10 16 12 17 9 18 11 20 13 22 4 24 22 26
REMARK SMILES IDX 19 28
REMARK H PARENT 9 19 11 21 13 23 4 25 22 27 19 29
REMARK Flexibility Score: inf
ROOT
ATOM      1  C   UNL     1      16.563  34.395  14.359  1.00  0.00     0.180 A 
ATOM      2  C   UNL     1      15.399  33.608  14.435  1.00  0.00     0.208 A 
ATOM      3  C   UNL     1      15.376  32.510  15.309  1.00  0.00     0.238 A 
ATOM      4  O   UNL     1      14.353  31.778  15.333  1.00  0.00    -0.285 OA
ATOM      5  C   UNL     1      16.509  32.221  16.108  1.00  0.00     0.111 A 
ATOM      6  C   UNL     1      16.582  31.158  17.058  1.00  0.00     0.134 A 
ATOM      7  C   UNL     1      17.797  30.886  17.699  1.00  0.00     0.093 A 
ATOM      8  C   UNL     1      18.924  31.680  17.472  1.00  0.00     0.123 A 
ATOM      9  C   UNL     1      18.847  32.757  16.592  1.00  0.00     0.094 A 
ATOM     10  C   UNL     1      17.658  33.031  15.911  1.00  0.00     0.146 A 
ATOM     11  O   UNL     1      17.630  34.061  15.073  1.00  0.00    -0.452 OA
ENDROOT
BRANCH   1  12
ATOM     12  C   UNL     1      16.653  35.583  13.479  1.00  0.00     0.029 A 
ATOM     13  C   UNL     1      15.909  36.744  13.740  1.00  0.00     0.062 A 
ATOM     14  C   UNL     1      16.020  37.871  12.917  1.00  0.00     0.162 A 
ATOM     15  C   UNL     1      17.543  35.572  12.397  1.00  0.00     0.062 A 
ATOM     16  C   UNL     1      16.901  37.843  11.809  1.00  0.00     0.200 A 
ATOM     17  C   UNL     1      17.662  36.691  11.562  1.00  0.00     0.162 A 
BRANCH  14  18
ATOM     18  O   UNL     1      15.247  38.989  13.237  1.00  0.00    -0.504 OA
ATOM     19  H   UNL     1      14.238  38.998  13.237  1.00  0.00     0.293 HD
ENDBRANCH  14  18
BRANCH  16  20
ATOM     20  O   UNL     1      17.051  38.927  10.942  1.00  0.00    -0.502 OA
ATOM     21  H   UNL     1      16.423  39.133  10.179  1.00  0.00     0.293 HD
ENDBRANCH  16  20
BRANCH  17  22
ATOM     22  O   UNL     1      18.538  36.665  10.478  1.00  0.00    -0.504 OA
ATOM     23  H   UNL     1      18.842  35.793  10.061  1.00  0.00     0.293 HD
ENDBRANCH  17  22
ENDBRANCH   1  12
BRANCH   2  24
ATOM     24  O   UNL     1      14.301  33.897  13.621  1.00  0.00    -0.502 OA
ATOM     25  H   UNL     1      14.203  34.779  13.133  1.00  0.00     0.293 HD
ENDBRANCH   2  24
BRANCH   6  26
ATOM     26  O   UNL     1      15.492  30.365  17.426  1.00  0.00    -0.507 OA
ATOM     27  H   UNL     1      14.606  30.721  17.753  1.00  0.00     0.293 HD
ENDBRANCH   6  26
BRANCH   8  28
ATOM     28  O   UNL     1      20.125  31.411  18.125  1.00  0.00    -0.508 OA
ATOM     29  H   UNL     1      20.156  31.215  19.119  1.00  0.00     0.293 HD
ENDBRANCH   8  28
TORSDOF 7
ENDMDL
MODEL 8
REMARK VINA RESULT:    -4.490      2.701      2.855
REMARK INTER + INTRA:          -5.896
REMARK INTER:                  -5.644
REMARK INTRA:                  -0.252
REMARK UNBOUND:                -0.357
REMARK SMILES O=c1c(O)c(-c2cc(O)c(O)c(O)c2)oc2cc(O)cc(O)c12
REMARK SMILES IDX 5 1 3 2 2 3 1 4 23 5 21 6 20 7 18 8 17 9 16 10 15 11 6 12
REMARK SMILES IDX 7 13 8 14 14 15 10 16 12 17 9 18 11 20 13 22 4 24 22 26
REMARK SMILES IDX 19 28
REMARK H PARENT 9 19 11 21 13 23 4 25 22 27 19 29
REMARK Flexibility Score: inf
ROOT
ATOM      1  C   UNL     1      17.945  35.563  13.201  1.00  0.00     0.180 A 
ATOM      2  C   UNL     1      18.789  34.904  14.113  1.00  0.00     0.208 A 
ATOM      3  C   UNL     1      18.258  33.880  14.914  1.00  0.00     0.238 A 
ATOM      4  O   UNL     1      19.004  33.332  15.766  1.00  0.00    -0.285 OA
ATOM      5  C   UNL     1      16.896  33.518  14.783  1.00  0.00     0.111 A 
ATOM      6  C   UNL     1      16.262  32.469  15.515  1.00  0.00     0.134 A 
ATOM      7  C   UNL     1      14.879  32.284  15.400  1.00  0.00     0.093 A 
ATOM      8  C   UNL     1      14.118  33.068  14.529  1.00  0.00     0.123 A 
ATOM      9  C   UNL     1      14.737  34.055  13.766  1.00  0.00     0.094 A 
ATOM     10  C   UNL     1      16.109  34.287  13.886  1.00  0.00     0.146 A 
ATOM     11  O   UNL     1      16.658  35.244  13.148  1.00  0.00    -0.452 OA
ENDROOT
BRANCH   1  12
ATOM     12  C   UNL     1      18.438  36.634  12.305  1.00  0.00     0.029 A 
ATOM     13  C   UNL     1      18.801  37.895  12.805  1.00  0.00     0.062 A 
ATOM     14  C   UNL     1      19.290  38.894  11.954  1.00  0.00     0.162 A 
ATOM     15  C   UNL     1      18.603  36.369  10.939  1.00  0.00     0.062 A 
ATOM     16  C   UNL     1      19.427  38.627  10.571  1.00  0.00     0.200 A 
ATOM     17  C   UNL     1      19.086  37.360  10.075  1.00  0.00     0.162 A 
BRANCH  14  18
ATOM     18  O   UNL     1      19.628  40.124  12.522  1.00  0.00    -0.504 OA
ATOM     19  H   UNL     1      19.174  40.516  13.334  1.00  0.00     0.293 HD
ENDBRANCH  14  18
BRANCH  16  20
ATOM     20  O   UNL     1      19.897  39.581   9.666  1.00  0.00    -0.502 OA
ATOM     21  H   UNL     1      19.935  39.443   8.666  1.00  0.00     0.293 HD
ENDBRANCH  16  20
BRANCH  17  22
ATOM     22  O   UNL     1      19.231  37.092   8.715  1.00  0.00    -0.504 OA
ATOM     23  H   UNL     1      19.767  36.298   8.384  1.00  0.00     0.293 HD
ENDBRANCH  17  22
ENDBRANCH   1  12
BRANCH   2  24
ATOM     24  O   UNL     1      20.125  35.292  14.241  1.00  0.00    -0.502 OA
ATOM     25  H   UNL     1      20.636  35.204  15.111  1.00  0.00     0.293 HD
ENDBRANCH   2  24
BRANCH   6  26
ATOM     26  O   UNL     1      16.944  31.571  16.341  1.00  0.00    -0.507 OA
ATOM     27  H   UNL     1      17.464  31.830  17.166  1.00  0.00     0.293 HD
ENDBRANCH   6  26
BRANCH   8  28
ATOM     28  O   UNL     1      12.744  32.867  14.409  1.00  0.00    -0.508 OA
ATOM     29  H   UNL     1      12.152  32.753  15.224  1.00  0.00     0.293 HD
ENDBRANCH   8  28
TORSDOF 7
ENDMDL
MODEL 9
REMARK VINA RESULT:    -4.290      1.852      6.794
REMARK INTER + INTRA:          -5.650
REMARK INTER:                  -5.285
REMARK INTRA:                  -0.365
REMARK UNBOUND:                -0.357
REMARK SMILES O=c1c(O)c(-c2cc(O)c(O)c(O)c2)oc2cc(O)cc(O)c12
REMARK SMILES IDX 5 1 3 2 2 3 1 4 23 5 21 6 20 7 18 8 17 9 16 10 15 11 6 12
REMARK SMILES IDX 7 13 8 14 14 15 10 16 12 17 9 18 11 20 13 22 4 24 22 26
REMARK SMILES IDX 19 28
REMARK H PARENT 9 19 11 21 13 23 4 25 22 27 19 29
REMARK Flexibility Score: inf
ROOT
ATOM      1  C   UNL     1      17.069  35.051  14.709  1.00  0.00     0.180 A 
ATOM      2  C   UNL     1      16.981  35.981  15.760  1.00  0.00     0.208 A 
ATOM      3  C   UNL     1      16.763  37.334  15.455  1.00  0.00     0.238 A 
ATOM      4  O   UNL     1      16.739  38.169  16.396  1.00  0.00    -0.285 OA
ATOM      5  C   UNL     1      16.620  37.738  14.105  1.00  0.00     0.111 A 
ATOM      6  C   UNL     1      16.356  39.076  13.683  1.00  0.00     0.134 A 
ATOM      7  C   UNL     1      16.362  39.383  12.317  1.00  0.00     0.093 A 
ATOM      8  C   UNL     1      16.559  38.388  11.356  1.00  0.00     0.123 A 
ATOM      9  C   UNL     1      16.759  37.069  11.756  1.00  0.00     0.094 A 
ATOM     10  C   UNL     1      16.793  36.738  13.113  1.00  0.00     0.146 A 
ATOM     11  O   UNL     1      16.995  35.470  13.451  1.00  0.00    -0.452 OA
ENDROOT
BRANCH   1  12
ATOM     12  C   UNL     1      17.273  33.604  14.953  1.00  0.00     0.029 A 
ATOM     13  C   UNL     1      16.191  32.746  15.206  1.00  0.00     0.062 A 
ATOM     14  C   UNL     1      16.391  31.376  15.412  1.00  0.00     0.162 A 
ATOM     15  C   UNL     1      18.565  33.067  14.872  1.00  0.00     0.062 A 
ATOM     16  C   UNL     1      17.703  30.846  15.355  1.00  0.00     0.200 A 
ATOM     17  C   UNL     1      18.781  31.699  15.079  1.00  0.00     0.162 A 
BRANCH  14  18
ATOM     18  O   UNL     1      15.268  30.585  15.661  1.00  0.00    -0.504 OA
ATOM     19  H   UNL     1      14.847  29.970  14.979  1.00  0.00     0.293 HD
ENDBRANCH  14  18
BRANCH  16  20
ATOM     20  O   UNL     1      17.974  29.491  15.561  1.00  0.00    -0.502 OA
ATOM     21  H   UNL     1      18.571  29.138  16.295  1.00  0.00     0.293 HD
ENDBRANCH  16  20
BRANCH  17  22
ATOM     22  O   UNL     1      20.072  31.176  15.013  1.00  0.00    -0.504 OA
ATOM     23  H   UNL     1      20.407  30.691  14.188  1.00  0.00     0.293 HD
ENDBRANCH  17  22
ENDBRANCH   1  12
BRANCH   2  24
ATOM     24  O   UNL     1      17.147  35.564  17.083  1.00  0.00    -0.502 OA
ATOM     25  H   UNL     1      17.776  36.031  17.725  1.00  0.00     0.293 HD
ENDBRANCH   2  24
BRANCH   6  26
ATOM     26  O   UNL     1      16.055  40.125  14.557  1.00  0.00    -0.507 OA
ATOM     27  H   UNL     1      15.996  41.096  14.289  1.00  0.00     0.293 HD
ENDBRANCH   6  26
BRANCH   8  28
ATOM     28  O   UNL     1      16.550  38.700   9.998  1.00  0.00    -0.508 OA
ATOM     29  H   UNL     1      16.117  39.549   9.652  1.00  0.00     0.293 HD
ENDBRANCH   8  28
TORSDOF 7
ENDMDL
