MODEL 1
REMARK VINA RESULT:    -3.225      0.000      0.000
REMARK INTER + INTRA:          -3.508
REMARK INTER:                  -3.508
REMARK INTRA:                   0.000
REMARK UNBOUND:                 0.000
REMARK SMILES Oc1cccc(O)c1O
REMARK SMILES IDX 4 1 5 2 6 3 8 4 2 5 3 6 7 7 1 9 9 11
REMARK H PARENT 7 8 1 10 9 12
REMARK Flexibility Score: inf
ROOT
ATOM      1  C   UNL     1     133.062 118.169 109.177  1.00  0.00     0.008 A 
ATOM      2  C   UNL     1     132.282 119.310 108.987  1.00  0.00     0.050 A 
ATOM      3  C   UNL     1     131.513 119.462 107.827  1.00  0.00     0.161 A 
ATOM      4  C   UNL     1     131.529 118.445 106.839  1.00  0.00     0.200 A 
ATOM      5  C   UNL     1     132.322 117.297 107.042  1.00  0.00     0.161 A 
ATOM      6  C   UNL     1     133.082 117.167 108.208  1.00  0.00     0.050 A 
ENDROOT
BRANCH   3   7
ATOM      7  O   UNL     1     130.754 120.627 107.699  1.00  0.00    -0.504 OA
ATOM      8  H   UNL     1     130.856 121.289 106.944  1.00  0.00     0.293 HD
ENDBRANCH   3   7
BRANCH   5   9
ATOM      9  O   UNL     1     132.366 116.275 106.094  1.00  0.00    -0.504 OA
ATOM     10  H   UNL     1     133.233 115.823 105.826  1.00  0.00     0.293 HD
ENDBRANCH   5   9
BRANCH   4  11
ATOM     11  O   UNL     1     130.784 118.539 105.661  1.00  0.00    -0.502 OA
ATOM     12  H   UNL     1     129.796 118.744 105.629  1.00  0.00     0.293 HD
ENDBRANCH   4  11
TORSDOF 3
ENDMDL
MODEL 2
REMARK VINA RESULT:    -3.214     17.937     19.521
REMARK INTER + INTRA:          -3.496
REMARK INTER:                  -3.496
REMARK INTRA:                   0.000
REMARK UNBOUND:                 0.000
REMARK SMILES Oc1cccc(O)c1O
REMARK SMILES IDX 4 1 5 2 6 3 8 4 2 5 3 6 7 7 1 9 9 11
REMARK H PARENT 7 8 1 10 9 12
REMARK Flexibility Score: inf
ROOT
ATOM      1  C   UNL     1     115.908 130.698 109.175  1.00  0.00     0.008 A 
ATOM      2  C   UNL     1     116.729 129.588 108.976  1.00  0.00     0.050 A 
ATOM      3  C   UNL     1     117.517 129.482 107.823  1.00  0.00     0.161 A 
ATOM      4  C   UNL     1     117.477 130.514 106.852  1.00  0.00     0.200 A 
ATOM      5  C   UNL     1     116.643 131.630 107.063  1.00  0.00     0.161 A 
ATOM      6  C   UNL     1     115.865 131.715 108.222  1.00  0.00     0.050 A 
ENDROOT
BRANCH   3   7
ATOM      7  O   UNL     1     118.316 128.345 107.686  1.00  0.00    -0.504 OA
ATOM      8  H   UNL     1     118.479 127.869 106.811  1.00  0.00     0.293 HD
ENDBRANCH   3   7
BRANCH   5   9
ATOM      9  O   UNL     1     116.575 132.666 106.132  1.00  0.00    -0.504 OA
ATOM     10  H   UNL     1     115.855 132.708 105.421  1.00  0.00     0.293 HD
ENDBRANCH   5   9
BRANCH   4  11
ATOM     11  O   UNL     1     118.239 130.465 105.682  1.00  0.00    -0.502 OA
ATOM     12  H   UNL     1     118.278 129.669 105.062  1.00  0.00     0.293 HD
ENDBRANCH   4  11
TORSDOF 3
ENDMDL
MODEL 3
REMARK VINA RESULT:    -3.211     17.974     19.396
REMARK INTER + INTRA:          -3.492
REMARK INTER:                  -3.492
REMARK INTRA:                   0.000
REMARK UNBOUND:                 0.000
REMARK SMILES Oc1cccc(O)c1O
REMARK SMILES IDX 4 1 5 2 6 3 8 4 2 5 3 6 7 7 1 9 9 11
REMARK H PARENT 7 8 1 10 9 12
REMARK Flexibility Score: inf
ROOT
ATOM      1  C   UNL     1     115.907 130.759 109.221  1.00  0.00     0.008 A 
ATOM      2  C   UNL     1     115.858 131.771 108.261  1.00  0.00     0.050 A 
ATOM      3  C   UNL     1     116.623 131.682 107.092  1.00  0.00     0.161 A 
ATOM      4  C   UNL     1     117.455 130.552 106.886  1.00  0.00     0.200 A 
ATOM      5  C   UNL     1     117.497 129.537 107.862  1.00  0.00     0.161 A 
ATOM      6  C   UNL     1     116.723 129.646 109.022  1.00  0.00     0.050 A 
ENDROOT
BRANCH   3   7
ATOM      7  O   UNL     1     116.528 132.728 106.173  1.00  0.00    -0.504 OA
ATOM      8  H   UNL     1     116.993 133.618 106.277  1.00  0.00     0.293 HD
ENDBRANCH   3   7
BRANCH   5   9
ATOM      9  O   UNL     1     118.302 128.410 107.697  1.00  0.00    -0.504 OA
ATOM     10  H   UNL     1     117.950 127.547 107.298  1.00  0.00     0.293 HD
ENDBRANCH   5   9
BRANCH   4  11
ATOM     11  O   UNL     1     118.242 130.406 105.741  1.00  0.00    -0.502 OA
ATOM     12  H   UNL     1     118.204 129.608 105.123  1.00  0.00     0.293 HD
ENDBRANCH   4  11
TORSDOF 3
ENDMDL
MODEL 4
REMARK VINA RESULT:    -3.204      0.085      2.826
REMARK INTER + INTRA:          -3.484
REMARK INTER:                  -3.484
REMARK INTRA:                   0.000
REMARK UNBOUND:                 0.000
REMARK SMILES Oc1cccc(O)c1O
REMARK SMILES IDX 4 1 5 2 6 3 8 4 2 5 3 6 7 7 1 9 9 11
REMARK H PARENT 7 8 1 10 9 12
REMARK Flexibility Score: inf
ROOT
ATOM      1  C   UNL     1     132.970 118.103 109.238  1.00  0.00     0.008 A 
ATOM      2  C   UNL     1     133.037 117.116 108.254  1.00  0.00     0.050 A 
ATOM      3  C   UNL     1     132.329 117.259 107.054  1.00  0.00     0.161 A 
ATOM      4  C   UNL     1     131.539 118.417 106.841  1.00  0.00     0.200 A 
ATOM      5  C   UNL     1     131.479 119.406 107.843  1.00  0.00     0.161 A 
ATOM      6  C   UNL     1     132.195 119.244 109.033  1.00  0.00     0.050 A 
ENDROOT
BRANCH   3   7
ATOM      7  O   UNL     1     132.438 116.235 106.111  1.00  0.00    -0.504 OA
ATOM      8  H   UNL     1     132.410 115.251 106.336  1.00  0.00     0.293 HD
ENDBRANCH   3   7
BRANCH   5   9
ATOM      9  O   UNL     1     130.714 120.560 107.673  1.00  0.00    -0.504 OA
ATOM     10  H   UNL     1     130.996 121.310 107.052  1.00  0.00     0.293 HD
ENDBRANCH   5   9
BRANCH   4  11
ATOM     11  O   UNL     1     130.810 118.615 105.666  1.00  0.00    -0.502 OA
ATOM     12  H   UNL     1     130.846 118.001 104.865  1.00  0.00     0.293 HD
ENDBRANCH   4  11
TORSDOF 3
ENDMDL
MODEL 5
REMARK VINA RESULT:    -3.203     13.143     13.811
REMARK INTER + INTRA:          -3.484
REMARK INTER:                  -3.484
REMARK INTRA:                   0.000
REMARK UNBOUND:                 0.000
REMARK SMILES Oc1cccc(O)c1O
REMARK SMILES IDX 4 1 5 2 6 3 8 4 2 5 3 6 7 7 1 9 9 11
REMARK H PARENT 7 8 1 10 9 12
REMARK Flexibility Score: inf
ROOT
ATOM      1  C   UNL     1     118.178 115.900 109.178  1.00  0.00     0.008 A 
ATOM      2  C   UNL     1     119.323 116.677 108.999  1.00  0.00     0.050 A 
ATOM      3  C   UNL     1     119.484 117.452 107.844  1.00  0.00     0.161 A 
ATOM      4  C   UNL     1     118.473 117.445 106.850  1.00  0.00     0.200 A 
ATOM      5  C   UNL     1     117.321 116.656 107.042  1.00  0.00     0.161 A 
ATOM      6  C   UNL     1     117.181 115.890 108.203  1.00  0.00     0.050 A 
ENDROOT
BRANCH   3   7
ATOM      7  O   UNL     1     120.654 118.207 107.727  1.00  0.00    -0.504 OA
ATOM      8  H   UNL     1     121.073 118.469 106.847  1.00  0.00     0.293 HD
ENDBRANCH   3   7
BRANCH   5   9
ATOM      9  O   UNL     1     116.304 116.621 106.088  1.00  0.00    -0.504 OA
ATOM     10  H   UNL     1     115.339 116.435 106.334  1.00  0.00     0.293 HD
ENDBRANCH   5   9
BRANCH   4  11
ATOM     11  O   UNL     1     118.577 118.197 105.677  1.00  0.00    -0.502 OA
ATOM     12  H   UNL     1     117.886 118.198 104.940  1.00  0.00     0.293 HD
ENDBRANCH   4  11
TORSDOF 3
ENDMDL
MODEL 6
REMARK VINA RESULT:    -3.197     13.182     13.829
REMARK INTER + INTRA:          -3.477
REMARK INTER:                  -3.477
REMARK INTRA:                   0.000
REMARK UNBOUND:                 0.000
REMARK SMILES Oc1cccc(O)c1O
REMARK SMILES IDX 4 1 5 2 6 3 8 4 2 5 3 6 7 7 1 9 9 11
REMARK H PARENT 7 8 1 10 9 12
REMARK Flexibility Score: inf
ROOT
ATOM      1  C   UNL     1     130.789 133.029 109.182  1.00  0.00     0.008 A 
ATOM      2  C   UNL     1     129.640 132.266 108.971  1.00  0.00     0.050 A 
ATOM      3  C   UNL     1     129.489 131.517 107.797  1.00  0.00     0.161 A 
ATOM      4  C   UNL     1     130.513 131.538 106.818  1.00  0.00     0.200 A 
ATOM      5  C   UNL     1     131.668 132.313 107.042  1.00  0.00     0.161 A 
ATOM      6  C   UNL     1     131.799 133.053 108.221  1.00  0.00     0.050 A 
ENDROOT
BRANCH   3   7
ATOM      7  O   UNL     1     128.315 130.775 107.649  1.00  0.00    -0.504 OA
ATOM      8  H   UNL     1     128.289 129.806 107.369  1.00  0.00     0.293 HD
ENDBRANCH   3   7
BRANCH   5   9
ATOM      9  O   UNL     1     132.699 132.360 106.103  1.00  0.00    -0.504 OA
ATOM     10  H   UNL     1     133.095 133.235 105.779  1.00  0.00     0.293 HD
ENDBRANCH   5   9
BRANCH   4  11
ATOM     11  O   UNL     1     130.419 130.813 105.627  1.00  0.00    -0.502 OA
ATOM     12  H   UNL     1     129.874 131.101 104.828  1.00  0.00     0.293 HD
ENDBRANCH   4  11
TORSDOF 3
ENDMDL
MODEL 7
REMARK VINA RESULT:    -3.165     13.124     13.784
REMARK INTER + INTRA:          -3.443
REMARK INTER:                  -3.443
REMARK INTRA:                   0.000
REMARK UNBOUND:                 0.000
REMARK SMILES Oc1cccc(O)c1O
REMARK SMILES IDX 4 1 5 2 6 3 8 4 2 5 3 6 7 7 1 9 9 11
REMARK H PARENT 7 8 1 10 9 12
REMARK Flexibility Score: inf
ROOT
ATOM      1  C   UNL     1     131.078 132.949 109.075  1.00  0.00     0.008 A 
ATOM      2  C   UNL     1     132.035 132.971 108.059  1.00  0.00     0.050 A 
ATOM      3  C   UNL     1     131.834 132.247 106.877  1.00  0.00     0.161 A 
ATOM      4  C   UNL     1     130.648 131.488 106.715  1.00  0.00     0.200 A 
ATOM      5  C   UNL     1     129.690 131.473 107.749  1.00  0.00     0.161 A 
ATOM      6  C   UNL     1     129.911 132.203 108.920  1.00  0.00     0.050 A 
ENDROOT
BRANCH   3   7
ATOM      7  O   UNL     1     132.830 132.312 105.900  1.00  0.00    -0.504 OA
ATOM      8  H   UNL     1     133.347 131.513 105.565  1.00  0.00     0.293 HD
ENDBRANCH   3   7
BRANCH   5   9
ATOM      9  O   UNL     1     128.511 130.738 107.628  1.00  0.00    -0.504 OA
ATOM     10  H   UNL     1     127.644 131.031 108.065  1.00  0.00     0.293 HD
ENDBRANCH   5   9
BRANCH   4  11
ATOM     11  O   UNL     1     130.391 130.746 105.560  1.00  0.00    -0.502 OA
ATOM     12  H   UNL     1     130.990 130.010 105.212  1.00  0.00     0.293 HD
ENDBRANCH   4  11
TORSDOF 3
ENDMDL
MODEL 8
REMARK VINA RESULT:    -3.163     13.192     13.889
REMARK INTER + INTRA:          -3.441
REMARK INTER:                  -3.441
REMARK INTRA:                   0.000
REMARK UNBOUND:                 0.000
REMARK SMILES Oc1cccc(O)c1O
REMARK SMILES IDX 4 1 5 2 6 3 8 4 2 5 3 6 7 7 1 9 9 11
REMARK H PARENT 7 8 1 10 9 12
REMARK Flexibility Score: inf
ROOT
ATOM      1  C   UNL     1     118.154 115.675 109.089  1.00  0.00     0.008 A 
ATOM      2  C   UNL     1     117.138 115.731 108.134  1.00  0.00     0.050 A 
ATOM      3  C   UNL     1     117.263 116.558 107.011  1.00  0.00     0.161 A 
ATOM      4  C   UNL     1     118.431 117.343 106.847  1.00  0.00     0.200 A 
ATOM      5  C   UNL     1     119.449 117.279 107.819  1.00  0.00     0.161 A 
ATOM      6  C   UNL     1     119.304 116.446 108.932  1.00  0.00     0.050 A 
ENDROOT
BRANCH   3   7
ATOM      7  O   UNL     1     116.210 116.567 106.092  1.00  0.00    -0.504 OA
ATOM      8  H   UNL     1     115.588 117.349 105.952  1.00  0.00     0.293 HD
ENDBRANCH   3   7
BRANCH   5   9
ATOM      9  O   UNL     1     120.614 118.036 107.695  1.00  0.00    -0.504 OA
ATOM     10  H   UNL     1     120.783 118.642 106.900  1.00  0.00     0.293 HD
ENDBRANCH   5   9
BRANCH   4  11
ATOM     11  O   UNL     1     118.613 118.188 105.748  1.00  0.00    -0.502 OA
ATOM     12  H   UNL     1     119.503 118.577 105.473  1.00  0.00     0.293 HD
ENDBRANCH   4  11
TORSDOF 3
ENDMDL
MODEL 9
REMARK VINA RESULT:    -2.772      0.950      1.985
REMARK INTER + INTRA:          -3.015
REMARK INTER:                  -3.015
REMARK INTRA:                   0.000
REMARK UNBOUND:                 0.000
REMARK SMILES Oc1cccc(O)c1O
REMARK SMILES IDX 4 1 5 2 6 3 8 4 2 5 3 6 7 7 1 9 9 11
REMARK H PARENT 7 8 1 10 9 12
REMARK Flexibility Score: inf
ROOT
ATOM      1  C   UNL     1     133.061 117.088 108.220  1.00  0.00     0.008 A 
ATOM      2  C   UNL     1     133.062 118.092 109.189  1.00  0.00     0.050 A 
ATOM      3  C   UNL     1     132.302 119.254 109.010  1.00  0.00     0.161 A 
ATOM      4  C   UNL     1     131.526 119.409 107.834  1.00  0.00     0.200 A 
ATOM      5  C   UNL     1     131.534 118.388 106.862  1.00  0.00     0.161 A 
ATOM      6  C   UNL     1     132.300 117.235 107.061  1.00  0.00     0.050 A 
ENDROOT
BRANCH   3   7
ATOM      7  O   UNL     1     132.347 120.220 110.018  1.00  0.00    -0.504 OA
ATOM      8  H   UNL     1     131.805 121.072 110.011  1.00  0.00     0.293 HD
ENDBRANCH   3   7
BRANCH   5   9
ATOM      9  O   UNL     1     130.785 118.501 105.691  1.00  0.00    -0.504 OA
ATOM     10  H   UNL     1     130.194 117.751 105.352  1.00  0.00     0.293 HD
ENDBRANCH   5   9
BRANCH   4  11
ATOM     11  O   UNL     1     130.748 120.545 107.598  1.00  0.00    -0.502 OA
ATOM     12  H   UNL     1     129.741 120.570 107.674  1.00  0.00     0.293 HD
ENDBRANCH   4  11
TORSDOF 3
ENDMDL
