MODEL 1
REMARK VINA RESULT:    -3.852      0.000      0.000
REMARK INTER + INTRA:          -6.880
REMARK INTER:                  -6.104
REMARK INTRA:                  -0.776
REMARK UNBOUND:                -0.776
REMARK SMILES CCCCCCCCCCCC(=O)[O-]
REMARK SMILES IDX 7 1 8 2 9 3 10 4 11 5 12 6 13 7 14 8 6 9 5 10 4 11 3 12 2 13
REMARK SMILES IDX 1 14
REMARK H PARENT
REMARK Flexibility Score: inf
ROOT
ATOM      1  C   UNL     1     -22.239   5.271  23.811  1.00  0.00     0.000 C 
ENDROOT
BRANCH   1   2
ATOM      2  C   UNL     1     -23.648   5.473  23.234  1.00  0.00     0.000 C 
BRANCH   2   3
ATOM      3  C   UNL     1     -23.764   6.734  22.358  1.00  0.00     0.000 C 
BRANCH   3   4
ATOM      4  C   UNL     1     -22.451   7.522  22.173  1.00  0.00     0.006 C 
BRANCH   4   5
ATOM      5  C   UNL     1     -22.077   7.804  20.709  1.00  0.00     0.053 C 
BRANCH   5   6
ATOM      6  C   UNL     1     -21.163   6.757  20.151  1.00  0.00     0.041 C 
ATOM      7  O   UNL     1     -21.302   6.363  18.963  1.00  0.00    -0.550 OA
ATOM      8  O   UNL     1     -20.135   6.242  20.932  1.00  0.00    -0.550 OA
ENDBRANCH   5   6
ENDBRANCH   4   5
ENDBRANCH   3   4
ENDBRANCH   2   3
ENDBRANCH   1   2
BRANCH   1   9
ATOM      9  C   UNL     1     -21.642   3.937  23.346  1.00  0.00     0.000 C 
BRANCH   9  10
ATOM     10  C   UNL     1     -22.353   3.424  22.088  1.00  0.00    -0.000 C 
BRANCH  10  11
ATOM     11  C   UNL     1     -22.891   2.003  22.300  1.00  0.00    -0.000 C 
BRANCH  11  12
ATOM     12  C   UNL     1     -21.914   0.957  21.753  1.00  0.00    -0.000 C 
BRANCH  12  13
ATOM     13  C   UNL     1     -22.486  -0.458  21.895  1.00  0.00    -0.003 C 
ATOM     14  C   UNL     1     -22.112  -1.327  20.698  1.00  0.00     0.004 C 
ENDBRANCH  12  13
ENDBRANCH  11  12
ENDBRANCH  10  11
ENDBRANCH   9  10
ENDBRANCH   1   9
TORSDOF 10
ENDMDL
MODEL 2
REMARK VINA RESULT:    -3.804     22.129     23.632
REMARK INTER + INTRA:          -6.804
REMARK INTER:                  -5.817
REMARK INTRA:                  -0.987
REMARK UNBOUND:                -0.776
REMARK SMILES CCCCCCCCCCCC(=O)[O-]
REMARK SMILES IDX 7 1 8 2 9 3 10 4 11 5 12 6 13 7 14 8 6 9 5 10 4 11 3 12 2 13
REMARK SMILES IDX 1 14
REMARK H PARENT
REMARK Flexibility Score: inf
ROOT
ATOM      1  C   UNL     1      -6.682  -9.336  33.618  1.00  0.00     0.000 C 
ENDROOT
BRANCH   1   2
ATOM      2  C   UNL     1      -6.381  -9.142  35.111  1.00  0.00     0.000 C 
BRANCH   2   3
ATOM      3  C   UNL     1      -5.180  -8.213  35.366  1.00  0.00     0.000 C 
BRANCH   3   4
ATOM      4  C   UNL     1      -5.538  -6.829  35.944  1.00  0.00     0.006 C 
BRANCH   4   5
ATOM      5  C   UNL     1      -5.399  -5.666  34.949  1.00  0.00     0.053 C 
BRANCH   5   6
ATOM      6  C   UNL     1      -6.730  -5.128  34.524  1.00  0.00     0.041 C 
ATOM      7  O   UNL     1      -7.027  -3.925  34.747  1.00  0.00    -0.550 OA
ATOM      8  O   UNL     1      -7.630  -5.946  33.851  1.00  0.00    -0.550 OA
ENDBRANCH   5   6
ENDBRANCH   4   5
ENDBRANCH   3   4
ENDBRANCH   2   3
ENDBRANCH   1   2
BRANCH   1   9
ATOM      9  C   UNL     1      -5.543  -8.786  32.752  1.00  0.00     0.000 C 
BRANCH   9  10
ATOM     10  C   UNL     1      -5.323  -9.659  31.511  1.00  0.00    -0.000 C 
BRANCH  10  11
ATOM     11  C   UNL     1      -5.237 -11.143  31.890  1.00  0.00    -0.000 C 
BRANCH  11  12
ATOM     12  C   UNL     1      -6.006 -12.012  30.888  1.00  0.00    -0.000 C 
BRANCH  12  13
ATOM     13  C   UNL     1      -7.306 -11.328  30.450  1.00  0.00    -0.003 C 
ATOM     14  C   UNL     1      -7.487 -11.405  28.938  1.00  0.00     0.004 C 
ENDBRANCH  12  13
ENDBRANCH  11  12
ENDBRANCH  10  11
ENDBRANCH   9  10
ENDBRANCH   1   9
TORSDOF 10
ENDMDL
MODEL 3
REMARK VINA RESULT:    -3.776      3.130      4.352
REMARK INTER + INTRA:          -6.758
REMARK INTER:                  -5.846
REMARK INTRA:                  -0.913
REMARK UNBOUND:                -0.776
REMARK SMILES CCCCCCCCCCCC(=O)[O-]
REMARK SMILES IDX 7 1 8 2 9 3 10 4 11 5 12 6 13 7 14 8 6 9 5 10 4 11 3 12 2 13
REMARK SMILES IDX 1 14
REMARK H PARENT
REMARK Flexibility Score: inf
ROOT
ATOM      1  C   UNL     1     -22.329   6.999  22.863  1.00  0.00     0.000 C 
ENDROOT
BRANCH   1   2
ATOM      2  C   UNL     1     -21.390   7.742  21.902  1.00  0.00     0.000 C 
BRANCH   2   3
ATOM      3  C   UNL     1     -21.830   7.637  20.430  1.00  0.00     0.000 C 
BRANCH   3   4
ATOM      4  C   UNL     1     -21.074   6.582  19.597  1.00  0.00     0.006 C 
BRANCH   4   5
ATOM      5  C   UNL     1     -19.919   5.891  20.340  1.00  0.00     0.053 C 
BRANCH   5   6
ATOM      6  C   UNL     1     -20.209   4.447  20.610  1.00  0.00     0.041 C 
ATOM      7  O   UNL     1     -19.283   3.595  20.556  1.00  0.00    -0.550 OA
ATOM      8  O   UNL     1     -21.494   4.047  20.955  1.00  0.00    -0.550 OA
ENDBRANCH   5   6
ENDBRANCH   4   5
ENDBRANCH   3   4
ENDBRANCH   2   3
ENDBRANCH   1   2
BRANCH   1   9
ATOM      9  C   UNL     1     -23.646   6.632  22.170  1.00  0.00     0.000 C 
BRANCH   9  10
ATOM     10  C   UNL     1     -24.735   6.299  23.197  1.00  0.00    -0.000 C 
BRANCH  10  11
ATOM     11  C   UNL     1     -24.392   5.018  23.967  1.00  0.00    -0.000 C 
BRANCH  11  12
ATOM     12  C   UNL     1     -25.017   5.033  25.367  1.00  0.00    -0.000 C 
BRANCH  12  13
ATOM     13  C   UNL     1     -23.993   4.622  26.432  1.00  0.00    -0.003 C 
ATOM     14  C   UNL     1     -22.567   4.844  25.940  1.00  0.00     0.004 C 
ENDBRANCH  12  13
ENDBRANCH  11  12
ENDBRANCH  10  11
ENDBRANCH   9  10
ENDBRANCH   1   9
TORSDOF 10
ENDMDL
MODEL 4
REMARK VINA RESULT:    -3.753      1.524      2.346
REMARK INTER + INTRA:          -6.722
REMARK INTER:                  -5.574
REMARK INTRA:                  -1.148
REMARK UNBOUND:                -0.776
REMARK SMILES CCCCCCCCCCCC(=O)[O-]
REMARK SMILES IDX 7 1 8 2 9 3 10 4 11 5 12 6 13 7 14 8 6 9 5 10 4 11 3 12 2 13
REMARK SMILES IDX 1 14
REMARK H PARENT
REMARK Flexibility Score: inf
ROOT
ATOM      1  C   UNL     1     -22.228   5.357  23.531  1.00  0.00     0.000 C 
ENDROOT
BRANCH   1   2
ATOM      2  C   UNL     1     -23.589   5.666  22.891  1.00  0.00     0.000 C 
BRANCH   2   3
ATOM      3  C   UNL     1     -23.612   7.017  22.152  1.00  0.00     0.000 C 
BRANCH   3   4
ATOM      4  C   UNL     1     -22.235   7.687  21.973  1.00  0.00     0.006 C 
BRANCH   4   5
ATOM      5  C   UNL     1     -21.770   7.808  20.513  1.00  0.00     0.053 C 
BRANCH   5   6
ATOM      6  C   UNL     1     -21.020   6.594  20.060  1.00  0.00     0.041 C 
ATOM      7  O   UNL     1     -21.441   5.917  19.085  1.00  0.00    -0.550 OA
ATOM      8  O   UNL     1     -19.836   6.231  20.690  1.00  0.00    -0.550 OA
ENDBRANCH   5   6
ENDBRANCH   4   5
ENDBRANCH   3   4
ENDBRANCH   2   3
ENDBRANCH   1   2
BRANCH   1   9
ATOM      9  C   UNL     1     -22.404   4.752  24.928  1.00  0.00     0.000 C 
BRANCH   9  10
ATOM     10  C   UNL     1     -23.885   4.692  25.320  1.00  0.00    -0.000 C 
BRANCH  10  11
ATOM     11  C   UNL     1     -24.305   3.258  25.667  1.00  0.00    -0.000 C 
BRANCH  11  12
ATOM     12  C   UNL     1     -24.872   2.538  24.438  1.00  0.00    -0.000 C 
BRANCH  12  13
ATOM     13  C   UNL     1     -23.894   1.475  23.923  1.00  0.00    -0.003 C 
ATOM     14  C   UNL     1     -23.454   1.777  22.494  1.00  0.00     0.004 C 
ENDBRANCH  12  13
ENDBRANCH  11  12
ENDBRANCH  10  11
ENDBRANCH   9  10
ENDBRANCH   1   9
TORSDOF 10
ENDMDL
MODEL 5
REMARK VINA RESULT:    -3.717      1.543      2.768
REMARK INTER + INTRA:          -6.666
REMARK INTER:                  -5.637
REMARK INTRA:                  -1.029
REMARK UNBOUND:                -0.776
REMARK SMILES CCCCCCCCCCCC(=O)[O-]
REMARK SMILES IDX 7 1 8 2 9 3 10 4 11 5 12 6 13 7 14 8 6 9 5 10 4 11 3 12 2 13
REMARK SMILES IDX 1 14
REMARK H PARENT
REMARK Flexibility Score: inf
ROOT
ATOM      1  C   UNL     1     -23.575   6.140  22.231  1.00  0.00     0.000 C 
ENDROOT
BRANCH   1   2
ATOM      2  C   UNL     1     -22.847   7.482  22.073  1.00  0.00     0.000 C 
BRANCH   2   3
ATOM      3  C   UNL     1     -21.492   7.521  22.803  1.00  0.00     0.000 C 
BRANCH   3   4
ATOM      4  C   UNL     1     -20.605   6.275  22.599  1.00  0.00     0.006 C 
BRANCH   4   5
ATOM      5  C   UNL     1     -19.885   6.219  21.242  1.00  0.00     0.053 C 
BRANCH   5   6
ATOM      6  C   UNL     1     -20.454   5.161  20.348  1.00  0.00     0.041 C 
ATOM      7  O   UNL     1     -21.250   5.474  19.423  1.00  0.00    -0.550 OA
ATOM      8  O   UNL     1     -20.078   3.834  20.512  1.00  0.00    -0.550 OA
ENDBRANCH   5   6
ENDBRANCH   4   5
ENDBRANCH   3   4
ENDBRANCH   2   3
ENDBRANCH   1   2
BRANCH   1   9
ATOM      9  C   UNL     1     -24.771   6.273  23.181  1.00  0.00     0.000 C 
BRANCH   9  10
ATOM     10  C   UNL     1     -24.832   5.093  24.158  1.00  0.00    -0.000 C 
BRANCH  10  11
ATOM     11  C   UNL     1     -23.493   4.348  24.206  1.00  0.00    -0.000 C 
BRANCH  11  12
ATOM     12  C   UNL     1     -23.656   2.891  23.755  1.00  0.00    -0.000 C 
BRANCH  12  13
ATOM     13  C   UNL     1     -22.855   2.619  22.476  1.00  0.00    -0.003 C 
ATOM     14  C   UNL     1     -22.888   1.139  22.110  1.00  0.00     0.004 C 
ENDBRANCH  12  13
ENDBRANCH  11  12
ENDBRANCH  10  11
ENDBRANCH   9  10
ENDBRANCH   1   9
TORSDOF 10
ENDMDL
MODEL 6
REMARK VINA RESULT:    -3.705      3.074      6.059
REMARK INTER + INTRA:          -6.647
REMARK INTER:                  -5.628
REMARK INTRA:                  -1.019
REMARK UNBOUND:                -0.776
REMARK SMILES CCCCCCCCCCCC(=O)[O-]
REMARK SMILES IDX 7 1 8 2 9 3 10 4 11 5 12 6 13 7 14 8 6 9 5 10 4 11 3 12 2 13
REMARK SMILES IDX 1 14
REMARK H PARENT
REMARK Flexibility Score: inf
ROOT
ATOM      1  C   UNL     1     -22.224   4.541  23.278  1.00  0.00     0.000 C 
ENDROOT
BRANCH   1   2
ATOM      2  C   UNL     1     -22.458   3.577  22.106  1.00  0.00     0.000 C 
BRANCH   2   3
ATOM      3  C   UNL     1     -21.149   3.028  21.509  1.00  0.00     0.000 C 
BRANCH   3   4
ATOM      4  C   UNL     1     -21.020   1.491  21.522  1.00  0.00     0.006 C 
BRANCH   4   5
ATOM      5  C   UNL     1     -22.308   0.746  21.910  1.00  0.00     0.053 C 
BRANCH   5   6
ATOM      6  C   UNL     1     -22.282  -0.685  21.473  1.00  0.00     0.041 C 
ATOM      7  O   UNL     1     -22.826  -1.573  22.181  1.00  0.00    -0.550 OA
ATOM      8  O   UNL     1     -21.688  -1.035  20.266  1.00  0.00    -0.550 OA
ENDBRANCH   5   6
ENDBRANCH   4   5
ENDBRANCH   3   4
ENDBRANCH   2   3
ENDBRANCH   1   2
BRANCH   1   9
ATOM      9  C   UNL     1     -23.386   5.533  23.412  1.00  0.00     0.000 C 
BRANCH   9  10
ATOM     10  C   UNL     1     -23.524   6.393  22.151  1.00  0.00    -0.000 C 
BRANCH  10  11
ATOM     11  C   UNL     1     -22.496   7.531  22.144  1.00  0.00    -0.000 C 
BRANCH  11  12
ATOM     12  C   UNL     1     -21.931   7.754  20.736  1.00  0.00    -0.000 C 
BRANCH  12  13
ATOM     13  C   UNL     1     -20.913   6.667  20.372  1.00  0.00    -0.003 C 
ATOM     14  C   UNL     1     -21.306   5.953  19.084  1.00  0.00     0.004 C 
ENDBRANCH  12  13
ENDBRANCH  11  12
ENDBRANCH  10  11
ENDBRANCH   9  10
ENDBRANCH   1   9
TORSDOF 10
ENDMDL
MODEL 7
REMARK VINA RESULT:    -3.700      1.545      2.733
REMARK INTER + INTRA:          -6.639
REMARK INTER:                  -5.435
REMARK INTRA:                  -1.204
REMARK UNBOUND:                -0.776
REMARK SMILES CCCCCCCCCCCC(=O)[O-]
REMARK SMILES IDX 7 1 8 2 9 3 10 4 11 5 12 6 13 7 14 8 6 9 5 10 4 11 3 12 2 13
REMARK SMILES IDX 1 14
REMARK H PARENT
REMARK Flexibility Score: inf
ROOT
ATOM      1  C   UNL     1     -22.873   3.799  24.378  1.00  0.00     0.000 C 
ENDROOT
BRANCH   1   2
ATOM      2  C   UNL     1     -24.303   4.357  24.415  1.00  0.00     0.000 C 
BRANCH   2   3
ATOM      3  C   UNL     1     -24.473   5.633  23.571  1.00  0.00     0.000 C 
BRANCH   3   4
ATOM      4  C   UNL     1     -23.338   5.904  22.563  1.00  0.00     0.006 C 
BRANCH   4   5
ATOM      5  C   UNL     1     -23.264   7.355  22.061  1.00  0.00     0.053 C 
BRANCH   5   6
ATOM      6  C   UNL     1     -21.947   7.659  21.415  1.00  0.00     0.041 C 
ATOM      7  O   UNL     1     -20.926   7.862  22.124  1.00  0.00    -0.550 OA
ATOM      8  O   UNL     1     -21.839   7.684  20.030  1.00  0.00    -0.550 OA
ENDBRANCH   5   6
ENDBRANCH   4   5
ENDBRANCH   3   4
ENDBRANCH   2   3
ENDBRANCH   1   2
BRANCH   1   9
ATOM      9  C   UNL     1     -22.871   2.318  23.982  1.00  0.00     0.000 C 
BRANCH   9  10
ATOM     10  C   UNL     1     -23.252   2.143  22.507  1.00  0.00    -0.000 C 
BRANCH  10  11
ATOM     11  C   UNL     1     -22.198   1.315  21.761  1.00  0.00    -0.000 C 
BRANCH  11  12
ATOM     12  C   UNL     1     -20.842   2.031  21.751  1.00  0.00    -0.000 C 
BRANCH  12  13
ATOM     13  C   UNL     1     -20.958   3.421  21.115  1.00  0.00    -0.003 C 
ATOM     14  C   UNL     1     -20.019   4.416  21.790  1.00  0.00     0.004 C 
ENDBRANCH  12  13
ENDBRANCH  11  12
ENDBRANCH  10  11
ENDBRANCH   9  10
ENDBRANCH   1   9
TORSDOF 10
ENDMDL
MODEL 8
REMARK VINA RESULT:    -3.653      3.212      4.869
REMARK INTER + INTRA:          -6.564
REMARK INTER:                  -5.444
REMARK INTRA:                  -1.121
REMARK UNBOUND:                -0.776
REMARK SMILES CCCCCCCCCCCC(=O)[O-]
REMARK SMILES IDX 7 1 8 2 9 3 10 4 11 5 12 6 13 7 14 8 6 9 5 10 4 11 3 12 2 13
REMARK SMILES IDX 1 14
REMARK H PARENT
REMARK Flexibility Score: inf
ROOT
ATOM      1  C   UNL     1     -22.817   7.459  21.995  1.00  0.00     0.000 C 
ENDROOT
BRANCH   1   2
ATOM      2  C   UNL     1     -24.029   6.684  22.530  1.00  0.00     0.000 C 
BRANCH   2   3
ATOM      3  C   UNL     1     -23.635   5.446  23.355  1.00  0.00     0.000 C 
BRANCH   3   4
ATOM      4  C   UNL     1     -24.709   4.953  24.346  1.00  0.00     0.006 C 
BRANCH   4   5
ATOM      5  C   UNL     1     -24.225   3.874  25.328  1.00  0.00     0.053 C 
BRANCH   5   6
ATOM      6  C   UNL     1     -23.848   2.606  24.627  1.00  0.00     0.041 C 
ATOM      7  O   UNL     1     -24.711   1.964  23.972  1.00  0.00    -0.550 OA
ATOM      8  O   UNL     1     -22.535   2.151  24.668  1.00  0.00    -0.550 OA
ENDBRANCH   5   6
ENDBRANCH   4   5
ENDBRANCH   3   4
ENDBRANCH   2   3
ENDBRANCH   1   2
BRANCH   1   9
ATOM      9  C   UNL     1     -21.554   7.126  22.798  1.00  0.00     0.000 C 
BRANCH   9  10
ATOM     10  C   UNL     1     -20.418   6.671  21.875  1.00  0.00    -0.000 C 
BRANCH  10  11
ATOM     11  C   UNL     1     -20.882   6.621  20.414  1.00  0.00    -0.000 C 
BRANCH  11  12
ATOM     12  C   UNL     1     -21.016   5.173  19.928  1.00  0.00    -0.000 C 
BRANCH  12  13
ATOM     13  C   UNL     1     -20.392   4.196  20.931  1.00  0.00    -0.003 C 
ATOM     14  C   UNL     1     -21.416   3.178  21.420  1.00  0.00     0.004 C 
ENDBRANCH  12  13
ENDBRANCH  11  12
ENDBRANCH  10  11
ENDBRANCH   9  10
ENDBRANCH   1   9
TORSDOF 10
ENDMDL
MODEL 9
REMARK VINA RESULT:    -3.644      2.571      5.231
REMARK INTER + INTRA:          -6.550
REMARK INTER:                  -5.612
REMARK INTRA:                  -0.938
REMARK UNBOUND:                -0.776
REMARK SMILES CCCCCCCCCCCC(=O)[O-]
REMARK SMILES IDX 7 1 8 2 9 3 10 4 11 5 12 6 13 7 14 8 6 9 5 10 4 11 3 12 2 13
REMARK SMILES IDX 1 14
REMARK H PARENT
REMARK Flexibility Score: inf
ROOT
ATOM      1  C   UNL     1     -23.098   5.466  23.217  1.00  0.00     0.000 C 
ENDROOT
BRANCH   1   2
ATOM      2  C   UNL     1     -24.192   4.804  24.067  1.00  0.00     0.000 C 
BRANCH   2   3
ATOM      3  C   UNL     1     -24.133   3.266  24.031  1.00  0.00     0.000 C 
BRANCH   3   4
ATOM      4  C   UNL     1     -22.917   2.677  23.285  1.00  0.00     0.006 C 
BRANCH   4   5
ATOM      5  C   UNL     1     -23.273   1.672  22.179  1.00  0.00     0.053 C 
BRANCH   5   6
ATOM      6  C   UNL     1     -22.119   0.782  21.836  1.00  0.00     0.041 C 
ATOM      7  O   UNL     1     -22.322  -0.351  21.325  1.00  0.00    -0.550 OA
ATOM      8  O   UNL     1     -20.816   1.218  22.047  1.00  0.00    -0.550 OA
ENDBRANCH   5   6
ENDBRANCH   4   5
ENDBRANCH   3   4
ENDBRANCH   2   3
ENDBRANCH   1   2
BRANCH   1   9
ATOM      9  C   UNL     1     -23.668   6.632  22.400  1.00  0.00     0.000 C 
BRANCH   9  10
ATOM     10  C   UNL     1     -22.584   7.671  22.093  1.00  0.00    -0.000 C 
BRANCH  10  11
ATOM     11  C   UNL     1     -22.253   7.696  20.595  1.00  0.00    -0.000 C 
BRANCH  11  12
ATOM     12  C   UNL     1     -20.970   6.911  20.301  1.00  0.00    -0.000 C 
BRANCH  12  13
ATOM     13  C   UNL     1     -21.291   5.489  19.827  1.00  0.00    -0.003 C 
ATOM     14  C   UNL     1     -20.573   4.448  20.680  1.00  0.00     0.004 C 
ENDBRANCH  12  13
ENDBRANCH  11  12
ENDBRANCH  10  11
ENDBRANCH   9  10
ENDBRANCH   1   9
TORSDOF 10
ENDMDL
