MODEL 1
REMARK VINA RESULT:    -4.803      0.000      0.000
REMARK INTER + INTRA:          -5.420
REMARK INTER:                  -5.224
REMARK INTRA:                  -0.196
REMARK UNBOUND:                -0.196
REMARK SMILES O=C([O-])c1ccccc1O
REMARK SMILES IDX 4 1 9 2 5 3 8 4 6 5 7 6 2 7 1 8 3 9 10 10
REMARK H PARENT 10 11
REMARK Flexibility Score: inf
ROOT
ATOM      1  C   UNL     1      25.865  11.715  18.049  1.00  0.00     0.039 A 
ATOM      2  C   UNL     1      26.223  13.028  18.449  1.00  0.00     0.124 A 
ATOM      3  C   UNL     1      25.154  11.540  16.846  1.00  0.00     0.014 A 
ATOM      4  C   UNL     1      25.811  14.124  17.679  1.00  0.00     0.047 A 
ATOM      5  C   UNL     1      24.771  12.642  16.079  1.00  0.00     0.001 A 
ATOM      6  C   UNL     1      25.090  13.932  16.500  1.00  0.00     0.004 A 
ENDROOT
BRANCH   1   7
ATOM      7  C   UNL     1      26.177  10.523  18.868  1.00  0.00     0.075 C 
ATOM      8  O   UNL     1      27.019  10.601  19.802  1.00  0.00    -0.545 OA
ATOM      9  O   UNL     1      25.604   9.291  18.577  1.00  0.00    -0.545 OA
ENDBRANCH   1   7
BRANCH   2  10
ATOM     10  O   UNL     1      27.009  13.283  19.574  1.00  0.00    -0.507 OA
ATOM     11  H   UNL     1      27.909  12.850  19.733  1.00  0.00     0.293 HD
ENDBRANCH   2  10
TORSDOF 2
ENDMDL
MODEL 2
REMARK VINA RESULT:    -4.777      2.205      3.797
REMARK INTER + INTRA:          -5.392
REMARK INTER:                  -5.145
REMARK INTRA:                  -0.247
REMARK UNBOUND:                -0.196
REMARK SMILES O=C([O-])c1ccccc1O
REMARK SMILES IDX 4 1 9 2 5 3 8 4 6 5 7 6 2 7 1 8 3 9 10 10
REMARK H PARENT 10 11
REMARK Flexibility Score: inf
ROOT
ATOM      1  C   UNL     1      25.607  12.659  17.593  1.00  0.00     0.039 A 
ATOM      2  C   UNL     1      25.774  11.310  17.994  1.00  0.00     0.124 A 
ATOM      3  C   UNL     1      26.123  13.681  18.413  1.00  0.00     0.014 A 
ATOM      4  C   UNL     1      26.391  11.021  19.219  1.00  0.00     0.047 A 
ATOM      5  C   UNL     1      26.755  13.375  19.620  1.00  0.00     0.001 A 
ATOM      6  C   UNL     1      26.880  12.048  20.027  1.00  0.00     0.004 A 
ENDROOT
BRANCH   1   7
ATOM      7  C   UNL     1      24.875  13.038  16.365  1.00  0.00     0.075 C 
ATOM      8  O   UNL     1      25.135  14.125  15.784  1.00  0.00    -0.545 OA
ATOM      9  O   UNL     1      23.847  12.240  15.875  1.00  0.00    -0.545 OA
ENDBRANCH   1   7
BRANCH   2  10
ATOM     10  O   UNL     1      25.379  10.234  17.196  1.00  0.00    -0.507 OA
ATOM     11  H   UNL     1      25.464  10.229  16.189  1.00  0.00     0.293 HD
ENDBRANCH   2  10
TORSDOF 2
ENDMDL
MODEL 3
REMARK VINA RESULT:    -4.679      0.880      2.416
REMARK INTER + INTRA:          -5.286
REMARK INTER:                  -5.040
REMARK INTRA:                  -0.246
REMARK UNBOUND:                -0.196
REMARK SMILES O=C([O-])c1ccccc1O
REMARK SMILES IDX 4 1 9 2 5 3 8 4 6 5 7 6 2 7 1 8 3 9 10 10
REMARK H PARENT 10 11
REMARK Flexibility Score: inf
ROOT
ATOM      1  C   UNL     1      25.886  12.544  18.351  1.00  0.00     0.039 A 
ATOM      2  C   UNL     1      25.427  11.480  17.534  1.00  0.00     0.124 A 
ATOM      3  C   UNL     1      25.758  13.866  17.882  1.00  0.00     0.014 A 
ATOM      4  C   UNL     1      24.916  11.756  16.258  1.00  0.00     0.047 A 
ATOM      5  C   UNL     1      25.225  14.125  16.617  1.00  0.00     0.001 A 
ATOM      6  C   UNL     1      24.814  13.071  15.803  1.00  0.00     0.004 A 
ENDROOT
BRANCH   1   7
ATOM      7  C   UNL     1      26.531  12.317  19.662  1.00  0.00     0.075 C 
ATOM      8  O   UNL     1      26.500  13.215  20.546  1.00  0.00    -0.545 OA
ATOM      9  O   UNL     1      27.237  11.147  19.915  1.00  0.00    -0.545 OA
ENDBRANCH   1   7
BRANCH   2  10
ATOM     10  O   UNL     1      25.428  10.151  17.960  1.00  0.00    -0.507 OA
ATOM     11  H   UNL     1      24.650   9.722  18.442  1.00  0.00     0.293 HD
ENDBRANCH   2  10
TORSDOF 2
ENDMDL
MODEL 4
REMARK VINA RESULT:    -4.560      0.879      2.158
REMARK INTER + INTRA:          -5.156
REMARK INTER:                  -4.909
REMARK INTRA:                  -0.248
REMARK UNBOUND:                -0.196
REMARK SMILES O=C([O-])c1ccccc1O
REMARK SMILES IDX 4 1 9 2 5 3 8 4 6 5 7 6 2 7 1 8 3 9 10 10
REMARK H PARENT 10 11
REMARK Flexibility Score: inf
ROOT
ATOM      1  C   UNL     1      25.875  11.731  18.300  1.00  0.00     0.039 A 
ATOM      2  C   UNL     1      25.425  11.478  16.980  1.00  0.00     0.124 A 
ATOM      3  C   UNL     1      25.996  13.065  18.733  1.00  0.00     0.014 A 
ATOM      4  C   UNL     1      25.170  12.552  16.116  1.00  0.00     0.047 A 
ATOM      5  C   UNL     1      25.718  14.124  17.866  1.00  0.00     0.001 A 
ATOM      6  C   UNL     1      25.315  13.868  16.557  1.00  0.00     0.004 A 
ENDROOT
BRANCH   1   7
ATOM      7  C   UNL     1      26.260  10.646  19.229  1.00  0.00     0.075 C 
ATOM      8  O   UNL     1      27.253  10.790  19.992  1.00  0.00    -0.545 OA
ATOM      9  O   UNL     1      25.581   9.434  19.227  1.00  0.00    -0.545 OA
ENDBRANCH   1   7
BRANCH   2  10
ATOM     10  O   UNL     1      25.184  10.189  16.501  1.00  0.00    -0.507 OA
ATOM     11  H   UNL     1      24.310   9.907  16.080  1.00  0.00     0.293 HD
ENDBRANCH   2  10
TORSDOF 2
ENDMDL
MODEL 5
REMARK VINA RESULT:    -4.481      2.172      3.459
REMARK INTER + INTRA:          -5.070
REMARK INTER:                  -4.832
REMARK INTRA:                  -0.238
REMARK UNBOUND:                -0.196
REMARK SMILES O=C([O-])c1ccccc1O
REMARK SMILES IDX 4 1 9 2 5 3 8 4 6 5 7 6 2 7 1 8 3 9 10 10
REMARK H PARENT 10 11
REMARK Flexibility Score: inf
ROOT
ATOM      1  C   UNL     1      25.604  11.914  17.434  1.00  0.00     0.039 A 
ATOM      2  C   UNL     1      26.295  12.739  18.357  1.00  0.00     0.124 A 
ATOM      3  C   UNL     1      25.469  10.541  17.716  1.00  0.00     0.014 A 
ATOM      4  C   UNL     1      26.880  12.166  19.495  1.00  0.00     0.047 A 
ATOM      5  C   UNL     1      26.040   9.991  18.865  1.00  0.00     0.001 A 
ATOM      6  C   UNL     1      26.752  10.800  19.748  1.00  0.00     0.004 A 
ENDROOT
BRANCH   1   7
ATOM      7  C   UNL     1      25.052  12.435  16.163  1.00  0.00     0.075 C 
ATOM      8  O   UNL     1      23.888  12.115  15.802  1.00  0.00    -0.545 OA
ATOM      9  O   UNL     1      25.828  13.222  15.321  1.00  0.00    -0.545 OA
ENDBRANCH   1   7
BRANCH   2  10
ATOM     10  O   UNL     1      26.391  14.123  18.204  1.00  0.00    -0.507 OA
ATOM     11  H   UNL     1      27.146  14.674  18.589  1.00  0.00     0.293 HD
ENDBRANCH   2  10
TORSDOF 2
ENDMDL
MODEL 6
REMARK VINA RESULT:    -4.179     16.562     18.178
REMARK INTER + INTRA:          -4.741
REMARK INTER:                  -4.502
REMARK INTRA:                  -0.240
REMARK UNBOUND:                -0.196
REMARK SMILES O=C([O-])c1ccccc1O
REMARK SMILES IDX 4 1 9 2 5 3 8 4 6 5 7 6 2 7 1 8 3 9 10 10
REMARK H PARENT 10 11
REMARK Flexibility Score: inf
ROOT
ATOM      1  C   UNL     1      18.823  -4.119  13.687  1.00  0.00     0.039 A 
ATOM      2  C   UNL     1      19.745  -3.088  13.998  1.00  0.00     0.124 A 
ATOM      3  C   UNL     1      18.565  -5.115  14.649  1.00  0.00     0.014 A 
ATOM      4  C   UNL     1      20.424  -3.111  15.224  1.00  0.00     0.047 A 
ATOM      5  C   UNL     1      19.234  -5.111  15.875  1.00  0.00     0.001 A 
ATOM      6  C   UNL     1      20.169  -4.116  16.157  1.00  0.00     0.004 A 
ENDROOT
BRANCH   1   7
ATOM      7  C   UNL     1      18.150  -4.213  12.373  1.00  0.00     0.075 C 
ATOM      8  O   UNL     1      17.875  -5.341  11.882  1.00  0.00    -0.545 OA
ATOM      9  O   UNL     1      17.875  -3.070  11.631  1.00  0.00    -0.545 OA
ENDBRANCH   1   7
BRANCH   2  10
ATOM     10  O   UNL     1      19.986  -2.012  13.142  1.00  0.00    -0.507 OA
ATOM     11  H   UNL     1      20.547  -1.212  13.400  1.00  0.00     0.293 HD
ENDBRANCH   2  10
TORSDOF 2
ENDMDL
MODEL 7
REMARK VINA RESULT:    -4.153     16.248     17.777
REMARK INTER + INTRA:          -4.713
REMARK INTER:                  -4.460
REMARK INTRA:                  -0.253
REMARK UNBOUND:                -0.196
REMARK SMILES O=C([O-])c1ccccc1O
REMARK SMILES IDX 4 1 9 2 5 3 8 4 6 5 7 6 2 7 1 8 3 9 10 10
REMARK H PARENT 10 11
REMARK Flexibility Score: inf
ROOT
ATOM      1  C   UNL     1      19.597  -3.131  13.537  1.00  0.00     0.039 A 
ATOM      2  C   UNL     1      18.668  -4.201  13.581  1.00  0.00     0.124 A 
ATOM      3  C   UNL     1      20.428  -2.906  14.650  1.00  0.00     0.014 A 
ATOM      4  C   UNL     1      18.550  -4.970  14.747  1.00  0.00     0.047 A 
ATOM      5  C   UNL     1      20.314  -3.696  15.796  1.00  0.00     0.001 A 
ATOM      6  C   UNL     1      19.369  -4.720  15.848  1.00  0.00     0.004 A 
ENDROOT
BRANCH   1   7
ATOM      7  C   UNL     1      19.700  -2.217  12.379  1.00  0.00     0.075 C 
ATOM      8  O   UNL     1      19.722  -0.969  12.558  1.00  0.00    -0.545 OA
ATOM      9  O   UNL     1      19.705  -2.711  11.080  1.00  0.00    -0.545 OA
ENDBRANCH   1   7
BRANCH   2  10
ATOM     10  O   UNL     1      17.875  -4.554  12.487  1.00  0.00    -0.507 OA
ATOM     11  H   UNL     1      18.029  -5.387  11.935  1.00  0.00     0.293 HD
ENDBRANCH   2  10
TORSDOF 2
ENDMDL
MODEL 8
REMARK VINA RESULT:    -4.037     16.268     17.732
REMARK INTER + INTRA:          -4.587
REMARK INTER:                  -4.346
REMARK INTRA:                  -0.240
REMARK UNBOUND:                -0.196
REMARK SMILES O=C([O-])c1ccccc1O
REMARK SMILES IDX 4 1 9 2 5 3 8 4 6 5 7 6 2 7 1 8 3 9 10 10
REMARK H PARENT 10 11
REMARK Flexibility Score: inf
ROOT
ATOM      1  C   UNL     1      19.573  -3.657  14.477  1.00  0.00     0.039 A 
ATOM      2  C   UNL     1      18.537  -4.434  13.898  1.00  0.00     0.124 A 
ATOM      3  C   UNL     1      20.119  -2.592  13.736  1.00  0.00     0.014 A 
ATOM      4  C   UNL     1      18.122  -4.169  12.586  1.00  0.00     0.047 A 
ATOM      5  C   UNL     1      19.678  -2.328  12.437  1.00  0.00     0.001 A 
ATOM      6  C   UNL     1      18.688  -3.121  11.860  1.00  0.00     0.004 A 
ENDROOT
BRANCH   1   7
ATOM      7  C   UNL     1      20.130  -3.948  15.816  1.00  0.00     0.075 C 
ATOM      8  O   UNL     1      20.139  -5.130  16.254  1.00  0.00    -0.545 OA
ATOM      9  O   UNL     1      20.584  -2.922  16.635  1.00  0.00    -0.545 OA
ENDBRANCH   1   7
BRANCH   2  10
ATOM     10  O   UNL     1      17.875  -5.444  14.598  1.00  0.00    -0.507 OA
ATOM     11  H   UNL     1      17.094  -5.962  14.219  1.00  0.00     0.293 HD
ENDBRANCH   2  10
TORSDOF 2
ENDMDL
MODEL 9
REMARK VINA RESULT:    -4.024     17.033     18.484
REMARK INTER + INTRA:          -4.573
REMARK INTER:                  -4.325
REMARK INTRA:                  -0.248
REMARK UNBOUND:                -0.196
REMARK SMILES O=C([O-])c1ccccc1O
REMARK SMILES IDX 4 1 9 2 5 3 8 4 6 5 7 6 2 7 1 8 3 9 10 10
REMARK H PARENT 10 11
REMARK Flexibility Score: inf
ROOT
ATOM      1  C   UNL     1      18.968  -4.125  13.842  1.00  0.00     0.039 A 
ATOM      2  C   UNL     1      18.725  -5.014  14.919  1.00  0.00     0.124 A 
ATOM      3  C   UNL     1      19.914  -3.095  14.010  1.00  0.00     0.014 A 
ATOM      4  C   UNL     1      19.380  -4.817  16.142  1.00  0.00     0.047 A 
ATOM      5  C   UNL     1      20.574  -2.926  15.229  1.00  0.00     0.001 A 
ATOM      6  C   UNL     1      20.300  -3.780  16.296  1.00  0.00     0.004 A 
ENDROOT
BRANCH   1   7
ATOM      7  C   UNL     1      18.236  -4.212  12.559  1.00  0.00     0.075 C 
ATOM      8  O   UNL     1      17.876  -3.161  11.964  1.00  0.00    -0.545 OA
ATOM      9  O   UNL     1      17.875  -5.445  12.029  1.00  0.00    -0.545 OA
ENDBRANCH   1   7
BRANCH   2  10
ATOM     10  O   UNL     1      17.877  -6.117  14.806  1.00  0.00    -0.507 OA
ATOM     11  H   UNL     1      17.534  -6.638  15.602  1.00  0.00     0.293 HD
ENDBRANCH   2  10
TORSDOF 2
ENDMDL
