MODEL 1
REMARK VINA RESULT:    -4.187      0.000      0.000
REMARK INTER + INTRA:          -5.706
REMARK INTER:                  -5.533
REMARK INTRA:                  -0.173
REMARK UNBOUND:                -0.173
REMARK SMILES CCCCCCCO
REMARK SMILES IDX 5 1 4 2 3 3 2 4 1 5 6 6 7 7 8 8
REMARK H PARENT 8 9
REMARK Flexibility Score: inf
ROOT
ATOM      1  C   UNL     1     -18.376  -3.935 -12.639  1.00  0.00     0.002 C 
ENDROOT
BRANCH   1   2
ATOM      2  C   UNL     1     -19.550  -3.303 -13.398  1.00  0.00     0.000 C 
BRANCH   2   3
ATOM      3  C   UNL     1     -20.250  -2.241 -12.542  1.00  0.00    -0.000 C 
BRANCH   3   4
ATOM      4  C   UNL     1     -21.721  -2.090 -12.947  1.00  0.00    -0.003 C 
ATOM      5  C   UNL     1     -22.136  -0.622 -12.978  1.00  0.00     0.004 C 
ENDBRANCH   3   4
ENDBRANCH   2   3
ENDBRANCH   1   2
BRANCH   1   6
ATOM      6  C   UNL     1     -18.210  -3.299 -11.255  1.00  0.00     0.028 C 
BRANCH   6   7
ATOM      7  C   UNL     1     -16.882  -2.545 -11.150  1.00  0.00     0.156 C 
BRANCH   7   8
ATOM      8  O   UNL     1     -16.963  -1.322 -11.830  1.00  0.00    -0.396 OA
ATOM      9  H   UNL     1     -16.379  -0.685 -11.342  1.00  0.00     0.210 HD
ENDBRANCH   7   8
ENDBRANCH   6   7
ENDBRANCH   1   6
TORSDOF 6
ENDMDL
MODEL 2
REMARK VINA RESULT:    -4.121      2.513      4.634
REMARK INTER + INTRA:          -5.619
REMARK INTER:                  -5.512
REMARK INTRA:                  -0.107
REMARK UNBOUND:                -0.173
REMARK SMILES CCCCCCCO
REMARK SMILES IDX 5 1 4 2 3 3 2 4 1 5 6 6 7 7 8 8
REMARK H PARENT 8 9
REMARK Flexibility Score: inf
ROOT
ATOM      1  C   UNL     1     -20.994  -1.705 -12.654  1.00  0.00     0.002 C 
ENDROOT
BRANCH   1   2
ATOM      2  C   UNL     1     -20.194  -2.898 -13.191  1.00  0.00     0.000 C 
BRANCH   2   3
ATOM      3  C   UNL     1     -18.788  -2.938 -12.579  1.00  0.00    -0.000 C 
BRANCH   3   4
ATOM      4  C   UNL     1     -18.186  -4.344 -12.679  1.00  0.00    -0.003 C 
ATOM      5  C   UNL     1     -18.413  -4.944 -14.063  1.00  0.00     0.004 C 
ENDBRANCH   3   4
ENDBRANCH   2   3
ENDBRANCH   1   2
BRANCH   1   6
ATOM      6  C   UNL     1     -22.474  -2.067 -12.485  1.00  0.00     0.028 C 
BRANCH   6   7
ATOM      7  C   UNL     1     -23.334  -0.812 -12.319  1.00  0.00     0.156 C 
BRANCH   7   8
ATOM      8  O   UNL     1     -22.804   0.243 -13.075  1.00  0.00    -0.396 OA
ATOM      9  H   UNL     1     -21.937   0.485 -12.657  1.00  0.00     0.210 HD
ENDBRANCH   7   8
ENDBRANCH   6   7
ENDBRANCH   1   6
TORSDOF 6
ENDMDL
MODEL 3
REMARK VINA RESULT:    -4.028      2.443      2.891
REMARK INTER + INTRA:          -5.495
REMARK INTER:                  -5.421
REMARK INTRA:                  -0.075
REMARK UNBOUND:                -0.173
REMARK SMILES CCCCCCCO
REMARK SMILES IDX 5 1 4 2 3 3 2 4 1 5 6 6 7 7 8 8
REMARK H PARENT 8 9
REMARK Flexibility Score: inf
ROOT
ATOM      1  C   UNL     1     -19.257  -2.913 -12.938  1.00  0.00     0.002 C 
ENDROOT
BRANCH   1   2
ATOM      2  C   UNL     1     -20.564  -2.455 -12.278  1.00  0.00     0.000 C 
BRANCH   2   3
ATOM      3  C   UNL     1     -21.397  -1.602 -13.242  1.00  0.00    -0.000 C 
BRANCH   3   4
ATOM      4  C   UNL     1     -22.360  -0.688 -12.475  1.00  0.00    -0.003 C 
ATOM      5  C   UNL     1     -23.681  -1.396 -12.189  1.00  0.00     0.004 C 
ENDBRANCH   3   4
ENDBRANCH   2   3
ENDBRANCH   1   2
BRANCH   1   6
ATOM      6  C   UNL     1     -19.426  -4.287 -13.596  1.00  0.00     0.028 C 
BRANCH   6   7
ATOM      7  C   UNL     1     -18.076  -4.990 -13.760  1.00  0.00     0.156 C 
BRANCH   7   8
ATOM      8  O   UNL     1     -18.138  -5.919 -14.808  1.00  0.00    -0.396 OA
ATOM      9  H   UNL     1     -18.303  -6.805 -14.394  1.00  0.00     0.210 HD
ENDBRANCH   7   8
ENDBRANCH   6   7
ENDBRANCH   1   6
TORSDOF 6
ENDMDL
MODEL 4
REMARK VINA RESULT:    -3.913      3.127      5.017
REMARK INTER + INTRA:          -5.344
REMARK INTER:                  -5.252
REMARK INTRA:                  -0.091
REMARK UNBOUND:                -0.173
REMARK SMILES CCCCCCCO
REMARK SMILES IDX 5 1 4 2 3 3 2 4 1 5 6 6 7 7 8 8
REMARK H PARENT 8 9
REMARK Flexibility Score: inf
ROOT
ATOM      1  C   UNL     1     -21.405  -1.351 -13.273  1.00  0.00     0.002 C 
ENDROOT
BRANCH   1   2
ATOM      2  C   UNL     1     -20.811  -2.454 -12.388  1.00  0.00     0.000 C 
BRANCH   2   3
ATOM      3  C   UNL     1     -19.359  -2.752 -12.781  1.00  0.00    -0.000 C 
BRANCH   3   4
ATOM      4  C   UNL     1     -19.096  -4.262 -12.809  1.00  0.00    -0.003 C 
ATOM      5  C   UNL     1     -18.389  -4.674 -14.097  1.00  0.00     0.004 C 
ENDBRANCH   3   4
ENDBRANCH   2   3
ENDBRANCH   1   2
BRANCH   1   6
ATOM      6  C   UNL     1     -22.594  -0.673 -12.582  1.00  0.00     0.028 C 
BRANCH   6   7
ATOM      7  C   UNL     1     -23.611  -1.708 -12.093  1.00  0.00     0.156 C 
BRANCH   7   8
ATOM      8  O   UNL     1     -24.804  -1.596 -12.820  1.00  0.00    -0.396 OA
ATOM      9  H   UNL     1     -25.108  -0.656 -12.726  1.00  0.00     0.210 HD
ENDBRANCH   7   8
ENDBRANCH   6   7
ENDBRANCH   1   6
TORSDOF 6
ENDMDL
MODEL 5
REMARK VINA RESULT:    -3.863      1.063      1.347
REMARK INTER + INTRA:          -5.278
REMARK INTER:                  -5.112
REMARK INTRA:                  -0.166
REMARK UNBOUND:                -0.173
REMARK SMILES CCCCCCCO
REMARK SMILES IDX 5 1 4 2 3 3 2 4 1 5 6 6 7 7 8 8
REMARK H PARENT 8 9
REMARK Flexibility Score: inf
ROOT
ATOM      1  C   UNL     1     -19.262  -2.329 -12.489  1.00  0.00     0.002 C 
ENDROOT
BRANCH   1   2
ATOM      2  C   UNL     1     -20.473  -3.074 -13.066  1.00  0.00     0.000 C 
BRANCH   2   3
ATOM      3  C   UNL     1     -21.675  -2.134 -13.221  1.00  0.00    -0.000 C 
BRANCH   3   4
ATOM      4  C   UNL     1     -21.685  -1.069 -12.119  1.00  0.00    -0.003 C 
ATOM      5  C   UNL     1     -22.541  -1.509 -10.935  1.00  0.00     0.004 C 
ENDBRANCH   3   4
ENDBRANCH   2   3
ENDBRANCH   1   2
BRANCH   1   6
ATOM      6  C   UNL     1     -18.154  -3.309 -12.087  1.00  0.00     0.028 C 
BRANCH   6   7
ATOM      7  C   UNL     1     -17.030  -2.593 -11.335  1.00  0.00     0.156 C 
BRANCH   7   8
ATOM      8  O   UNL     1     -16.913  -1.270 -11.783  1.00  0.00    -0.396 OA
ATOM      9  H   UNL     1     -16.762  -1.313 -12.763  1.00  0.00     0.210 HD
ENDBRANCH   7   8
ENDBRANCH   6   7
ENDBRANCH   1   6
TORSDOF 6
ENDMDL
MODEL 6
REMARK VINA RESULT:    -3.767      2.230      4.553
REMARK INTER + INTRA:          -5.151
REMARK INTER:                  -5.041
REMARK INTRA:                  -0.110
REMARK UNBOUND:                -0.173
REMARK SMILES CCCCCCCO
REMARK SMILES IDX 5 1 4 2 3 3 2 4 1 5 6 6 7 7 8 8
REMARK H PARENT 8 9
REMARK Flexibility Score: inf
ROOT
ATOM      1  C   UNL     1     -20.550  -2.871 -12.987  1.00  0.00     0.002 C 
ENDROOT
BRANCH   1   2
ATOM      2  C   UNL     1     -19.027  -2.971 -13.136  1.00  0.00     0.000 C 
BRANCH   2   3
ATOM      3  C   UNL     1     -18.373  -3.408 -11.820  1.00  0.00    -0.000 C 
BRANCH   3   4
ATOM      4  C   UNL     1     -17.269  -2.429 -11.403  1.00  0.00    -0.003 C 
ATOM      5  C   UNL     1     -16.103  -3.161 -10.745  1.00  0.00     0.004 C 
ENDBRANCH   3   4
ENDBRANCH   2   3
ENDBRANCH   1   2
BRANCH   1   6
ATOM      6  C   UNL     1     -20.968  -1.463 -12.548  1.00  0.00     0.028 C 
BRANCH   6   7
ATOM      7  C   UNL     1     -22.399  -1.149 -12.989  1.00  0.00     0.156 C 
BRANCH   7   8
ATOM      8  O   UNL     1     -22.525   0.213 -13.292  1.00  0.00    -0.396 OA
ATOM      9  H   UNL     1     -22.285   0.315 -14.250  1.00  0.00     0.210 HD
ENDBRANCH   7   8
ENDBRANCH   6   7
ENDBRANCH   1   6
TORSDOF 6
ENDMDL
MODEL 7
REMARK VINA RESULT:    -3.546      3.341      5.194
REMARK INTER + INTRA:          -4.859
REMARK INTER:                  -4.657
REMARK INTRA:                  -0.202
REMARK UNBOUND:                -0.173
REMARK SMILES CCCCCCCO
REMARK SMILES IDX 5 1 4 2 3 3 2 4 1 5 6 6 7 7 8 8
REMARK H PARENT 8 9
REMARK Flexibility Score: inf
ROOT
ATOM      1  C   UNL     1     -22.190  -1.602 -10.948  1.00  0.00     0.002 C 
ENDROOT
BRANCH   1   2
ATOM      2  C   UNL     1     -21.755  -0.958 -12.271  1.00  0.00     0.000 C 
BRANCH   2   3
ATOM      3  C   UNL     1     -20.964  -1.950 -13.132  1.00  0.00    -0.000 C 
BRANCH   3   4
ATOM      4  C   UNL     1     -20.100  -2.869 -12.260  1.00  0.00    -0.003 C 
ATOM      5  C   UNL     1     -18.614  -2.617 -12.499  1.00  0.00     0.004 C 
ENDBRANCH   3   4
ENDBRANCH   2   3
ENDBRANCH   1   2
BRANCH   1   6
ATOM      6  C   UNL     1     -23.716  -1.587 -10.805  1.00  0.00     0.028 C 
BRANCH   6   7
ATOM      7  C   UNL     1     -24.368  -0.790 -11.937  1.00  0.00     0.156 C 
BRANCH   7   8
ATOM      8  O   UNL     1     -25.079  -1.648 -12.787  1.00  0.00    -0.396 OA
ATOM      9  H   UNL     1     -25.718  -1.083 -13.294  1.00  0.00     0.210 HD
ENDBRANCH   7   8
ENDBRANCH   6   7
ENDBRANCH   1   6
TORSDOF 6
ENDMDL
MODEL 8
REMARK VINA RESULT:    -3.460      2.298      4.030
REMARK INTER + INTRA:          -4.745
REMARK INTER:                  -4.519
REMARK INTRA:                  -0.226
REMARK UNBOUND:                -0.173
REMARK SMILES CCCCCCCO
REMARK SMILES IDX 5 1 4 2 3 3 2 4 1 5 6 6 7 7 8 8
REMARK H PARENT 8 9
REMARK Flexibility Score: inf
ROOT
ATOM      1  C   UNL     1     -19.599  -3.172 -13.223  1.00  0.00     0.002 C 
ENDROOT
BRANCH   1   2
ATOM      2  C   UNL     1     -19.749  -2.940 -11.714  1.00  0.00     0.000 C 
BRANCH   2   3
ATOM      3  C   UNL     1     -18.504  -3.420 -10.957  1.00  0.00    -0.000 C 
BRANCH   3   4
ATOM      4  C   UNL     1     -17.263  -2.625 -11.380  1.00  0.00    -0.003 C 
ATOM      5  C   UNL     1     -16.017  -3.120 -10.652  1.00  0.00     0.004 C 
ENDBRANCH   3   4
ENDBRANCH   2   3
ENDBRANCH   1   2
BRANCH   1   6
ATOM      6  C   UNL     1     -19.455  -4.665 -13.538  1.00  0.00     0.028 C 
BRANCH   6   7
ATOM      7  C   UNL     1     -18.186  -4.940 -14.347  1.00  0.00     0.156 C 
BRANCH   7   8
ATOM      8  O   UNL     1     -17.967  -3.908 -15.271  1.00  0.00    -0.396 OA
ATOM      9  H   UNL     1     -17.354  -3.261 -14.836  1.00  0.00     0.210 HD
ENDBRANCH   7   8
ENDBRANCH   6   7
ENDBRANCH   1   6
TORSDOF 6
ENDMDL
MODEL 9
REMARK VINA RESULT:    -3.452      3.155      4.800
REMARK INTER + INTRA:          -4.735
REMARK INTER:                  -4.530
REMARK INTRA:                  -0.205
REMARK UNBOUND:                -0.173
REMARK SMILES CCCCCCCO
REMARK SMILES IDX 5 1 4 2 3 3 2 4 1 5 6 6 7 7 8 8
REMARK H PARENT 8 9
REMARK Flexibility Score: inf
ROOT
ATOM      1  C   UNL     1     -23.286  -1.765 -12.247  1.00  0.00     0.002 C 
ENDROOT
BRANCH   1   2
ATOM      2  C   UNL     1     -22.187  -1.353 -13.234  1.00  0.00     0.000 C 
BRANCH   2   3
ATOM      3  C   UNL     1     -20.795  -1.657 -12.666  1.00  0.00    -0.000 C 
BRANCH   3   4
ATOM      4  C   UNL     1     -20.247  -2.973 -13.230  1.00  0.00    -0.003 C 
ATOM      5  C   UNL     1     -18.889  -3.309 -12.621  1.00  0.00     0.004 C 
ENDBRANCH   3   4
ENDBRANCH   2   3
ENDBRANCH   1   2
BRANCH   1   6
ATOM      6  C   UNL     1     -22.837  -1.540 -10.799  1.00  0.00     0.028 C 
BRANCH   6   7
ATOM      7  C   UNL     1     -23.264  -2.703  -9.901  1.00  0.00     0.156 C 
BRANCH   7   8
ATOM      8  O   UNL     1     -23.968  -3.659 -10.647  1.00  0.00    -0.396 OA
ATOM      9  H   UNL     1     -23.643  -3.586 -11.582  1.00  0.00     0.210 HD
ENDBRANCH   7   8
ENDBRANCH   6   7
ENDBRANCH   1   6
TORSDOF 6
ENDMDL
