MODEL 1
REMARK VINA RESULT:    -5.158      0.000      0.000
REMARK INTER + INTRA:          -5.158
REMARK INTER:                  -5.158
REMARK INTRA:                   0.000
REMARK UNBOUND:                 0.000
REMARK SMILES CC(C)=C1CC[C@@H](C)CC1=O
REMARK SMILES IDX 8 1 7 2 6 3 5 4 4 5 2 6 1 7 3 8 10 9 11 10 9 11
REMARK H PARENT
REMARK Flexibility Score: inf
ROOT
ATOM      1  C   UNL     1      16.857  19.574  55.596  1.00  0.00     0.008 C 
ATOM      2  C   UNL     1      15.577  18.885  56.079  1.00  0.00    -0.006 C 
ATOM      3  C   UNL     1      14.491  18.936  54.992  1.00  0.00     0.008 C 
ATOM      4  C   UNL     1      13.237  18.162  55.419  1.00  0.00     0.039 C 
ATOM      5  C   UNL     1      12.719  18.596  56.783  1.00  0.00    -0.006 C 
ATOM      6  C   UNL     1      11.386  18.564  57.080  1.00  0.00    -0.070 C 
ATOM      7  C   UNL     1      10.855  19.045  58.410  1.00  0.00     0.039 C 
ATOM      8  C   UNL     1      10.371  18.078  56.071  1.00  0.00     0.039 C 
ATOM      9  C   UNL     1      13.757  18.942  57.799  1.00  0.00     0.159 C 
ATOM     10  O   UNL     1      13.568  18.732  59.027  1.00  0.00    -0.295 OA
ATOM     11  C   UNL     1      15.062  19.546  57.366  1.00  0.00     0.084 C 
ENDROOT
TORSDOF 0
ENDMDL
MODEL 2
REMARK VINA RESULT:    -5.093      9.718     10.582
REMARK INTER + INTRA:          -5.093
REMARK INTER:                  -5.093
REMARK INTRA:                   0.000
REMARK UNBOUND:                 0.000
REMARK SMILES CC(C)=C1CC[C@@H](C)CC1=O
REMARK SMILES IDX 8 1 7 2 6 3 5 4 4 5 2 6 1 7 3 8 10 9 11 10 9 11
REMARK H PARENT
REMARK Flexibility Score: inf
ROOT
ATOM      1  C   UNL     1      19.891  13.606  52.624  1.00  0.00     0.008 C 
ATOM      2  C   UNL     1      19.222  12.229  52.608  1.00  0.00    -0.006 C 
ATOM      3  C   UNL     1      17.793  12.315  53.167  1.00  0.00     0.008 C 
ATOM      4  C   UNL     1      17.070  10.966  53.064  1.00  0.00     0.039 C 
ATOM      5  C   UNL     1      17.871   9.826  53.680  1.00  0.00    -0.006 C 
ATOM      6  C   UNL     1      17.252   8.761  54.270  1.00  0.00    -0.070 C 
ATOM      7  C   UNL     1      18.036   7.653  54.934  1.00  0.00     0.039 C 
ATOM      8  C   UNL     1      15.744   8.661  54.321  1.00  0.00     0.039 C 
ATOM      9  C   UNL     1      19.351   9.890  53.495  1.00  0.00     0.159 C 
ATOM     10  O   UNL     1      20.044   8.843  53.389  1.00  0.00    -0.295 OA
ATOM     11  C   UNL     1      20.044  11.221  53.424  1.00  0.00     0.084 C 
ENDROOT
TORSDOF 0
ENDMDL
MODEL 3
REMARK VINA RESULT:    -5.050      9.200     10.771
REMARK INTER + INTRA:          -5.050
REMARK INTER:                  -5.050
REMARK INTRA:                   0.000
REMARK UNBOUND:                 0.000
REMARK SMILES CC(C)=C1CC[C@@H](C)CC1=O
REMARK SMILES IDX 8 1 7 2 6 3 5 4 4 5 2 6 1 7 3 8 10 9 11 10 9 11
REMARK H PARENT
REMARK Flexibility Score: inf
ROOT
ATOM      1  C   UNL     1      15.532   8.784  54.060  1.00  0.00     0.008 C 
ATOM      2  C   UNL     1      16.630   9.850  54.096  1.00  0.00    -0.006 C 
ATOM      3  C   UNL     1      16.360  10.942  53.048  1.00  0.00     0.008 C 
ATOM      4  C   UNL     1      17.394  12.072  53.139  1.00  0.00     0.039 C 
ATOM      5  C   UNL     1      18.826  11.558  53.091  1.00  0.00    -0.006 C 
ATOM      6  C   UNL     1      19.829  12.299  52.533  1.00  0.00    -0.070 C 
ATOM      7  C   UNL     1      21.243  11.776  52.429  1.00  0.00     0.039 C 
ATOM      8  C   UNL     1      19.561  13.670  51.956  1.00  0.00     0.039 C 
ATOM      9  C   UNL     1      19.081  10.262  53.788  1.00  0.00     0.159 C 
ATOM     10  O   UNL     1      20.188  10.021  54.340  1.00  0.00    -0.295 OA
ATOM     11  C   UNL     1      18.006   9.215  53.848  1.00  0.00     0.084 C 
ENDROOT
TORSDOF 0
ENDMDL
MODEL 4
REMARK VINA RESULT:    -4.932      1.572      2.444
REMARK INTER + INTRA:          -4.932
REMARK INTER:                  -4.932
REMARK INTRA:                   0.000
REMARK UNBOUND:                 0.000
REMARK SMILES CC(C)=C1CC[C@@H](C)CC1=O
REMARK SMILES IDX 8 1 7 2 6 3 5 4 4 5 2 6 1 7 3 8 10 9 11 10 9 11
REMARK H PARENT
REMARK Flexibility Score: inf
ROOT
ATOM      1  C   UNL     1      16.702  19.205  56.377  1.00  0.00     0.008 C 
ATOM      2  C   UNL     1      15.189  19.441  56.390  1.00  0.00    -0.006 C 
ATOM      3  C   UNL     1      14.619  19.229  57.802  1.00  0.00     0.008 C 
ATOM      4  C   UNL     1      13.122  19.562  57.856  1.00  0.00     0.039 C 
ATOM      5  C   UNL     1      12.322  18.829  56.787  1.00  0.00    -0.006 C 
ATOM      6  C   UNL     1      11.028  18.450  57.003  1.00  0.00    -0.070 C 
ATOM      7  C   UNL     1      10.243  17.674  55.971  1.00  0.00     0.039 C 
ATOM      8  C   UNL     1      10.329  18.759  58.307  1.00  0.00     0.039 C 
ATOM      9  C   UNL     1      12.997  18.660  55.465  1.00  0.00     0.159 C 
ATOM     10  O   UNL     1      12.338  18.649  54.391  1.00  0.00    -0.295 OA
ATOM     11  C   UNL     1      14.488  18.504  55.395  1.00  0.00     0.084 C 
ENDROOT
TORSDOF 0
ENDMDL
MODEL 5
REMARK VINA RESULT:    -4.799      3.172      6.411
REMARK INTER + INTRA:          -4.799
REMARK INTER:                  -4.799
REMARK INTRA:                   0.000
REMARK UNBOUND:                 0.000
REMARK SMILES CC(C)=C1CC[C@@H](C)CC1=O
REMARK SMILES IDX 8 1 7 2 6 3 5 4 4 5 2 6 1 7 3 8 10 9 11 10 9 11
REMARK H PARENT
REMARK Flexibility Score: inf
ROOT
ATOM      1  C   UNL     1       5.287  18.160  59.413  1.00  0.00     0.008 C 
ATOM      2  C   UNL     1       6.678  18.700  59.066  1.00  0.00    -0.006 C 
ATOM      3  C   UNL     1       7.175  18.104  57.740  1.00  0.00     0.008 C 
ATOM      4  C   UNL     1       8.521  18.711  57.324  1.00  0.00     0.039 C 
ATOM      5  C   UNL     1       9.565  18.628  58.430  1.00  0.00    -0.006 C 
ATOM      6  C   UNL     1      10.894  18.490  58.144  1.00  0.00    -0.070 C 
ATOM      7  C   UNL     1      11.932  18.350  59.232  1.00  0.00     0.039 C 
ATOM      8  C   UNL     1      11.385  18.432  56.715  1.00  0.00     0.039 C 
ATOM      9  C   UNL     1       9.062  18.824  59.822  1.00  0.00     0.159 C 
ATOM     10  O   UNL     1       9.779  19.362  60.708  1.00  0.00    -0.295 OA
ATOM     11  C   UNL     1       7.675  18.383  60.191  1.00  0.00     0.084 C 
ENDROOT
TORSDOF 0
ENDMDL
MODEL 6
REMARK VINA RESULT:    -4.754      3.325      6.718
REMARK INTER + INTRA:          -4.754
REMARK INTER:                  -4.754
REMARK INTRA:                   0.000
REMARK UNBOUND:                 0.000
REMARK SMILES CC(C)=C1CC[C@@H](C)CC1=O
REMARK SMILES IDX 8 1 7 2 6 3 5 4 4 5 2 6 1 7 3 8 10 9 11 10 9 11
REMARK H PARENT
REMARK Flexibility Score: inf
ROOT
ATOM      1  C   UNL     1       5.318  18.826  59.391  1.00  0.00     0.008 C 
ATOM      2  C   UNL     1       6.733  18.313  59.105  1.00  0.00    -0.006 C 
ATOM      3  C   UNL     1       7.701  18.745  60.218  1.00  0.00     0.008 C 
ATOM      4  C   UNL     1       9.100  18.154  60.002  1.00  0.00     0.039 C 
ATOM      5  C   UNL     1       9.646  18.439  58.610  1.00  0.00    -0.006 C 
ATOM      6  C   UNL     1      10.984  18.602  58.391  1.00  0.00    -0.070 C 
ATOM      7  C   UNL     1      11.532  18.940  57.024  1.00  0.00     0.039 C 
ATOM      8  C   UNL     1      11.982  18.488  59.521  1.00  0.00     0.039 C 
ATOM      9  C   UNL     1       8.650  18.411  57.497  1.00  0.00     0.159 C 
ATOM     10  O   UNL     1       8.972  18.035  56.338  1.00  0.00    -0.295 OA
ATOM     11  C   UNL     1       7.230  18.830  57.747  1.00  0.00     0.084 C 
ENDROOT
TORSDOF 0
ENDMDL
MODEL 7
REMARK VINA RESULT:    -4.741      1.322      2.001
REMARK INTER + INTRA:          -4.741
REMARK INTER:                  -4.741
REMARK INTRA:                   0.000
REMARK UNBOUND:                 0.000
REMARK SMILES CC(C)=C1CC[C@@H](C)CC1=O
REMARK SMILES IDX 8 1 7 2 6 3 5 4 4 5 2 6 1 7 3 8 10 9 11 10 9 11
REMARK H PARENT
REMARK Flexibility Score: inf
ROOT
ATOM      1  C   UNL     1      14.927  19.043  55.783  1.00  0.00     0.008 C 
ATOM      2  C   UNL     1      13.695  18.502  56.515  1.00  0.00    -0.006 C 
ATOM      3  C   UNL     1      12.409  18.881  55.764  1.00  0.00     0.008 C 
ATOM      4  C   UNL     1      11.172  18.261  56.426  1.00  0.00     0.039 C 
ATOM      5  C   UNL     1      11.091  18.570  57.915  1.00  0.00    -0.006 C 
ATOM      6  C   UNL     1       9.888  18.706  58.548  1.00  0.00    -0.070 C 
ATOM      7  C   UNL     1       9.795  19.068  60.012  1.00  0.00     0.039 C 
ATOM      8  C   UNL     1       8.586  18.537  57.799  1.00  0.00     0.039 C 
ATOM      9  C   UNL     1      12.390  18.597  58.651  1.00  0.00     0.159 C 
ATOM     10  O   UNL     1      12.467  18.244  59.858  1.00  0.00    -0.295 OA
ATOM     11  C   UNL     1      13.642  19.043  57.952  1.00  0.00     0.084 C 
ENDROOT
TORSDOF 0
ENDMDL
MODEL 8
REMARK VINA RESULT:    -4.731      1.246      4.226
REMARK INTER + INTRA:          -4.731
REMARK INTER:                  -4.731
REMARK INTRA:                   0.000
REMARK UNBOUND:                 0.000
REMARK SMILES CC(C)=C1CC[C@@H](C)CC1=O
REMARK SMILES IDX 8 1 7 2 6 3 5 4 4 5 2 6 1 7 3 8 10 9 11 10 9 11
REMARK H PARENT
REMARK Flexibility Score: inf
ROOT
ATOM      1  C   UNL     1       9.384  18.491  59.746  1.00  0.00     0.008 C 
ATOM      2  C   UNL     1      10.393  18.991  58.708  1.00  0.00    -0.006 C 
ATOM      3  C   UNL     1      10.002  18.515  57.300  1.00  0.00     0.008 C 
ATOM      4  C   UNL     1      10.944  19.091  56.234  1.00  0.00     0.039 C 
ATOM      5  C   UNL     1      12.411  18.835  56.551  1.00  0.00    -0.006 C 
ATOM      6  C   UNL     1      13.332  18.659  55.559  1.00  0.00    -0.070 C 
ATOM      7  C   UNL     1      14.780  18.348  55.861  1.00  0.00     0.039 C 
ATOM      8  C   UNL     1      12.936  18.728  54.101  1.00  0.00     0.039 C 
ATOM      9  C   UNL     1      12.792  18.907  57.994  1.00  0.00     0.159 C 
ATOM     10  O   UNL     1      13.932  19.309  58.351  1.00  0.00    -0.295 OA
ATOM     11  C   UNL     1      11.808  18.503  59.053  1.00  0.00     0.084 C 
ENDROOT
TORSDOF 0
ENDMDL
MODEL 9
REMARK VINA RESULT:    -4.711      9.410     11.030
REMARK INTER + INTRA:          -4.711
REMARK INTER:                  -4.711
REMARK INTRA:                   0.000
REMARK UNBOUND:                 0.000
REMARK SMILES CC(C)=C1CC[C@@H](C)CC1=O
REMARK SMILES IDX 8 1 7 2 6 3 5 4 4 5 2 6 1 7 3 8 10 9 11 10 9 11
REMARK H PARENT
REMARK Flexibility Score: inf
ROOT
ATOM      1  C   UNL     1      16.238   8.366  54.482  1.00  0.00     0.008 C 
ATOM      2  C   UNL     1      17.308   9.142  53.707  1.00  0.00    -0.006 C 
ATOM      3  C   UNL     1      18.654   9.093  54.447  1.00  0.00     0.008 C 
ATOM      4  C   UNL     1      19.763   9.778  53.636  1.00  0.00     0.039 C 
ATOM      5  C   UNL     1      19.384  11.188  53.205  1.00  0.00    -0.006 C 
ATOM      6  C   UNL     1      20.327  12.167  53.072  1.00  0.00    -0.070 C 
ATOM      7  C   UNL     1      19.956  13.584  52.699  1.00  0.00     0.039 C 
ATOM      8  C   UNL     1      21.790  11.887  53.330  1.00  0.00     0.039 C 
ATOM      9  C   UNL     1      17.954  11.397  52.829  1.00  0.00     0.159 C 
ATOM     10  O   UNL     1      17.624  12.231  51.943  1.00  0.00    -0.295 OA
ATOM     11  C   UNL     1      16.874  10.601  53.504  1.00  0.00     0.084 C 
ENDROOT
TORSDOF 0
ENDMDL
