MODEL 1
REMARK VINA RESULT:    -3.646      0.000      0.000
REMARK INTER + INTRA:         -12.147
REMARK INTER:                  -9.187
REMARK INTRA:                  -2.960
REMARK UNBOUND:                -2.960
REMARK SMILES CCCCCCCCCCCCCCCCCCCCCCCCCCCC(=O)[O-]
REMARK SMILES IDX 15 1 16 2 17 3 18 4 19 5 20 6 21 7 22 8 23 9 24 10 25 11
REMARK SMILES IDX 26 12 27 13 28 14 29 15 30 16 14 17 13 18 12 19 11 20 10 21
REMARK SMILES IDX 9 22 8 23 7 24 6 25 5 26 4 27 3 28 2 29 1 30
REMARK H PARENT
REMARK Flexibility Score: inf
ROOT
ATOM      1  C   UNL     1       4.468   6.312   6.351  1.00  0.00     0.000 C 
ENDROOT
BRANCH   1   2
ATOM      2  C   UNL     1       4.177   7.600   5.566  1.00  0.00     0.000 C 
BRANCH   2   3
ATOM      3  C   UNL     1       5.407   8.125   4.802  1.00  0.00     0.000 C 
BRANCH   3   4
ATOM      4  C   UNL     1       5.154   8.463   3.323  1.00  0.00     0.000 C 
BRANCH   4   5
ATOM      5  C   UNL     1       3.660   8.550   2.976  1.00  0.00     0.000 C 
BRANCH   5   6
ATOM      6  C   UNL     1       3.460   8.890   1.495  1.00  0.00     0.000 C 
BRANCH   6   7
ATOM      7  C   UNL     1       2.705   7.766   0.767  1.00  0.00     0.000 C 
BRANCH   7   8
ATOM      8  C   UNL     1       1.734   8.294  -0.300  1.00  0.00     0.000 C 
BRANCH   8   9
ATOM      9  C   UNL     1       0.456   8.897   0.307  1.00  0.00     0.000 C 
BRANCH   9  10
ATOM     10  C   UNL     1      -0.775   8.001   0.086  1.00  0.00     0.000 C 
BRANCH  10  11
ATOM     11  C   UNL     1      -0.979   6.995   1.232  1.00  0.00     0.000 C 
BRANCH  11  12
ATOM     12  C   UNL     1      -2.058   5.948   0.915  1.00  0.00     0.006 C 
BRANCH  12  13
ATOM     13  C   UNL     1      -3.194   5.931   1.949  1.00  0.00     0.053 C 
BRANCH  13  14
ATOM     14  C   UNL     1      -4.379   5.188   1.417  1.00  0.00     0.041 C 
ATOM     15  O   UNL     1      -4.457   4.912   0.191  1.00  0.00    -0.550 OA
ATOM     16  O   UNL     1      -5.405   4.810   2.275  1.00  0.00    -0.550 OA
ENDBRANCH  13  14
ENDBRANCH  12  13
ENDBRANCH  11  12
ENDBRANCH  10  11
ENDBRANCH   9  10
ENDBRANCH   8   9
ENDBRANCH   7   8
ENDBRANCH   6   7
ENDBRANCH   5   6
ENDBRANCH   4   5
ENDBRANCH   3   4
ENDBRANCH   2   3
ENDBRANCH   1   2
BRANCH   1  17
ATOM     17  C   UNL     1       5.873   5.778   6.031  1.00  0.00     0.000 C 
BRANCH  17  18
ATOM     18  C   UNL     1       6.221   4.512   6.832  1.00  0.00     0.000 C 
BRANCH  18  19
ATOM     19  C   UNL     1       7.527   3.854   6.362  1.00  0.00     0.000 C 
BRANCH  19  20
ATOM     20  C   UNL     1       8.238   4.730   5.317  1.00  0.00     0.000 C 
BRANCH  20  21
ATOM     21  C   UNL     1       8.551   3.971   4.018  1.00  0.00     0.000 C 
BRANCH  21  22
ATOM     22  C   UNL     1       8.894   4.914   2.852  1.00  0.00    -0.000 C 
BRANCH  22  23
ATOM     23  C   UNL     1       8.050   6.202   2.855  1.00  0.00    -0.000 C 
BRANCH  23  24
ATOM     24  C   UNL     1       7.780   6.808   1.465  1.00  0.00    -0.000 C 
BRANCH  24  25
ATOM     25  C   UNL     1       7.266   5.772   0.450  1.00  0.00    -0.000 C 
BRANCH  25  26
ATOM     26  C   UNL     1       5.908   6.161  -0.154  1.00  0.00    -0.000 C 
BRANCH  26  27
ATOM     27  C   UNL     1       5.923   6.147  -1.694  1.00  0.00    -0.000 C 
BRANCH  27  28
ATOM     28  C   UNL     1       4.515   6.252  -2.300  1.00  0.00    -0.000 C 
BRANCH  28  29
ATOM     29  C   UNL     1       4.332   7.513  -3.157  1.00  0.00    -0.003 C 
ATOM     30  C   UNL     1       4.868   8.748  -2.439  1.00  0.00     0.004 C 
ENDBRANCH  28  29
ENDBRANCH  27  28
ENDBRANCH  26  27
ENDBRANCH  25  26
ENDBRANCH  24  25
ENDBRANCH  23  24
ENDBRANCH  22  23
ENDBRANCH  21  22
ENDBRANCH  20  21
ENDBRANCH  19  20
ENDBRANCH  18  19
ENDBRANCH  17  18
ENDBRANCH   1  17
TORSDOF 26
ENDMDL
MODEL 2
REMARK VINA RESULT:    -3.641     10.405     12.567
REMARK INTER + INTRA:         -12.135
REMARK INTER:                  -7.514
REMARK INTRA:                  -4.621
REMARK UNBOUND:                -2.960
REMARK SMILES CCCCCCCCCCCCCCCCCCCCCCCCCCCC(=O)[O-]
REMARK SMILES IDX 15 1 16 2 17 3 18 4 19 5 20 6 21 7 22 8 23 9 24 10 25 11
REMARK SMILES IDX 26 12 27 13 28 14 29 15 30 16 14 17 13 18 12 19 11 20 10 21
REMARK SMILES IDX 9 22 8 23 7 24 6 25 5 26 4 27 3 28 2 29 1 30
REMARK H PARENT
REMARK Flexibility Score: inf
ROOT
ATOM      1  C   UNL     1       3.380  -1.899  -3.363  1.00  0.00     0.000 C 
ENDROOT
BRANCH   1   2
ATOM      2  C   UNL     1       4.895  -1.651  -3.321  1.00  0.00     0.000 C 
BRANCH   2   3
ATOM      3  C   UNL     1       5.332  -0.468  -4.204  1.00  0.00     0.000 C 
BRANCH   3   4
ATOM      4  C   UNL     1       6.854  -0.318  -4.379  1.00  0.00     0.000 C 
BRANCH   4   5
ATOM      5  C   UNL     1       7.233   0.659  -5.502  1.00  0.00     0.000 C 
BRANCH   5   6
ATOM      6  C   UNL     1       5.985   1.169  -6.231  1.00  0.00     0.000 C 
BRANCH   6   7
ATOM      7  C   UNL     1       6.367   2.006  -7.461  1.00  0.00     0.000 C 
BRANCH   7   8
ATOM      8  C   UNL     1       5.662   1.538  -8.743  1.00  0.00     0.000 C 
BRANCH   8   9
ATOM      9  C   UNL     1       4.298   2.218  -8.952  1.00  0.00     0.000 C 
BRANCH   9  10
ATOM     10  C   UNL     1       3.316   1.332  -9.736  1.00  0.00     0.000 C 
BRANCH  10  11
ATOM     11  C   UNL     1       1.854   1.561  -9.313  1.00  0.00     0.000 C 
BRANCH  11  12
ATOM     12  C   UNL     1       1.148   0.262  -8.897  1.00  0.00     0.006 C 
BRANCH  12  13
ATOM     13  C   UNL     1      -0.258   0.504  -8.327  1.00  0.00     0.053 C 
BRANCH  13  14
ATOM     14  C   UNL     1      -0.712  -0.678  -7.529  1.00  0.00     0.041 C 
ATOM     15  O   UNL     1      -1.056  -1.742  -8.109  1.00  0.00    -0.550 OA
ATOM     16  O   UNL     1      -0.770  -0.600  -6.142  1.00  0.00    -0.550 OA
ENDBRANCH  13  14
ENDBRANCH  12  13
ENDBRANCH  11  12
ENDBRANCH  10  11
ENDBRANCH   9  10
ENDBRANCH   8   9
ENDBRANCH   7   8
ENDBRANCH   6   7
ENDBRANCH   5   6
ENDBRANCH   4   5
ENDBRANCH   3   4
ENDBRANCH   2   3
ENDBRANCH   1   2
BRANCH   1  17
ATOM     17  C   UNL     1       3.014  -2.878  -4.490  1.00  0.00     0.000 C 
BRANCH  17  18
ATOM     18  C   UNL     1       2.447  -2.165  -5.730  1.00  0.00     0.000 C 
BRANCH  18  19
ATOM     19  C   UNL     1       3.077  -2.666  -7.039  1.00  0.00     0.000 C 
BRANCH  19  20
ATOM     20  C   UNL     1       4.057  -1.627  -7.609  1.00  0.00     0.000 C 
BRANCH  20  21
ATOM     21  C   UNL     1       5.516  -2.110  -7.584  1.00  0.00     0.000 C 
BRANCH  21  22
ATOM     22  C   UNL     1       5.681  -3.451  -6.848  1.00  0.00    -0.000 C 
BRANCH  22  23
ATOM     23  C   UNL     1       7.048  -3.589  -6.152  1.00  0.00    -0.000 C 
BRANCH  23  24
ATOM     24  C   UNL     1       7.025  -4.354  -4.816  1.00  0.00    -0.000 C 
BRANCH  24  25
ATOM     25  C   UNL     1       7.940  -3.725  -3.751  1.00  0.00    -0.000 C 
BRANCH  25  26
ATOM     26  C   UNL     1       7.751  -4.357  -2.363  1.00  0.00    -0.000 C 
BRANCH  26  27
ATOM     27  C   UNL     1       6.299  -4.801  -2.111  1.00  0.00    -0.000 C 
BRANCH  27  28
ATOM     28  C   UNL     1       5.864  -4.600  -0.651  1.00  0.00    -0.000 C 
BRANCH  28  29
ATOM     29  C   UNL     1       6.588  -5.545   0.319  1.00  0.00    -0.003 C 
ATOM     30  C   UNL     1       6.404  -7.002  -0.094  1.00  0.00     0.004 C 
ENDBRANCH  28  29
ENDBRANCH  27  28
ENDBRANCH  26  27
ENDBRANCH  25  26
ENDBRANCH  24  25
ENDBRANCH  23  24
ENDBRANCH  22  23
ENDBRANCH  21  22
ENDBRANCH  20  21
ENDBRANCH  19  20
ENDBRANCH  18  19
ENDBRANCH  17  18
ENDBRANCH   1  17
TORSDOF 26
ENDMDL
MODEL 3
REMARK VINA RESULT:    -3.621      4.489      8.195
REMARK INTER + INTRA:         -12.084
REMARK INTER:                  -8.956
REMARK INTRA:                  -3.128
REMARK UNBOUND:                -2.960
REMARK SMILES CCCCCCCCCCCCCCCCCCCCCCCCCCCC(=O)[O-]
REMARK SMILES IDX 15 1 16 2 17 3 18 4 19 5 20 6 21 7 22 8 23 9 24 10 25 11
REMARK SMILES IDX 26 12 27 13 28 14 29 15 30 16 14 17 13 18 12 19 11 20 10 21
REMARK SMILES IDX 9 22 8 23 7 24 6 25 5 26 4 27 3 28 2 29 1 30
REMARK H PARENT
REMARK Flexibility Score: inf
ROOT
ATOM      1  C   UNL     1       3.779   7.948  -0.862  1.00  0.00     0.000 C 
ENDROOT
BRANCH   1   2
ATOM      2  C   UNL     1       4.087   6.934  -1.973  1.00  0.00     0.000 C 
BRANCH   2   3
ATOM      3  C   UNL     1       5.013   7.505  -3.063  1.00  0.00     0.000 C 
BRANCH   3   4
ATOM      4  C   UNL     1       6.328   6.731  -3.266  1.00  0.00     0.000 C 
BRANCH   4   5
ATOM      5  C   UNL     1       6.364   5.402  -2.496  1.00  0.00     0.000 C 
BRANCH   5   6
ATOM      6  C   UNL     1       6.699   4.235  -3.432  1.00  0.00     0.000 C 
BRANCH   6   7
ATOM      7  C   UNL     1       8.167   3.809  -3.280  1.00  0.00     0.000 C 
BRANCH   7   8
ATOM      8  C   UNL     1       8.654   2.922  -4.437  1.00  0.00     0.000 C 
BRANCH   8   9
ATOM      9  C   UNL     1       7.495   2.331  -5.259  1.00  0.00     0.000 C 
BRANCH   9  10
ATOM     10  C   UNL     1       7.190   0.873  -4.876  1.00  0.00     0.000 C 
BRANCH  10  11
ATOM     11  C   UNL     1       5.685   0.626  -4.668  1.00  0.00     0.000 C 
BRANCH  11  12
ATOM     12  C   UNL     1       5.402  -0.655  -3.867  1.00  0.00     0.006 C 
BRANCH  12  13
ATOM     13  C   UNL     1       4.327  -1.538  -4.517  1.00  0.00     0.053 C 
BRANCH  13  14
ATOM     14  C   UNL     1       3.299  -1.944  -3.508  1.00  0.00     0.041 C 
ATOM     15  O   UNL     1       2.147  -2.292  -3.880  1.00  0.00    -0.550 OA
ATOM     16  O   UNL     1       3.609  -1.925  -2.153  1.00  0.00    -0.550 OA
ENDBRANCH  13  14
ENDBRANCH  12  13
ENDBRANCH  11  12
ENDBRANCH  10  11
ENDBRANCH   9  10
ENDBRANCH   8   9
ENDBRANCH   7   8
ENDBRANCH   6   7
ENDBRANCH   5   6
ENDBRANCH   4   5
ENDBRANCH   3   4
ENDBRANCH   2   3
ENDBRANCH   1   2
BRANCH   1  17
ATOM     17  C   UNL     1       4.523   7.586   0.434  1.00  0.00     0.000 C 
BRANCH  17  18
ATOM     18  C   UNL     1       5.997   8.024   0.411  1.00  0.00     0.000 C 
BRANCH  18  19
ATOM     19  C   UNL     1       6.933   6.983   1.044  1.00  0.00     0.000 C 
BRANCH  19  20
ATOM     20  C   UNL     1       8.280   6.935   0.306  1.00  0.00     0.000 C 
BRANCH  20  21
ATOM     21  C   UNL     1       8.923   5.540   0.331  1.00  0.00     0.000 C 
BRANCH  21  22
ATOM     22  C   UNL     1       8.218   4.583   1.309  1.00  0.00    -0.000 C 
BRANCH  22  23
ATOM     23  C   UNL     1       9.194   3.634   2.028  1.00  0.00    -0.000 C 
BRANCH  23  24
ATOM     24  C   UNL     1       9.525   4.018   3.482  1.00  0.00    -0.000 C 
BRANCH  24  25
ATOM     25  C   UNL     1       8.545   5.050   4.066  1.00  0.00    -0.000 C 
BRANCH  25  26
ATOM     26  C   UNL     1       7.987   4.627   5.434  1.00  0.00    -0.000 C 
BRANCH  26  27
ATOM     27  C   UNL     1       6.793   5.491   5.876  1.00  0.00    -0.000 C 
BRANCH  27  28
ATOM     28  C   UNL     1       6.523   6.662   4.918  1.00  0.00    -0.000 C 
BRANCH  28  29
ATOM     29  C   UNL     1       5.172   7.343   5.179  1.00  0.00    -0.003 C 
ATOM     30  C   UNL     1       4.823   8.318   4.059  1.00  0.00     0.004 C 
ENDBRANCH  28  29
ENDBRANCH  27  28
ENDBRANCH  26  27
ENDBRANCH  25  26
ENDBRANCH  24  25
ENDBRANCH  23  24
ENDBRANCH  22  23
ENDBRANCH  21  22
ENDBRANCH  20  21
ENDBRANCH  19  20
ENDBRANCH  18  19
ENDBRANCH  17  18
ENDBRANCH   1  17
TORSDOF 26
ENDMDL
MODEL 4
REMARK VINA RESULT:    -3.580     10.209     14.844
REMARK INTER + INTRA:         -11.982
REMARK INTER:                  -8.995
REMARK INTRA:                  -2.987
REMARK UNBOUND:                -2.960
REMARK SMILES CCCCCCCCCCCCCCCCCCCCCCCCCCCC(=O)[O-]
REMARK SMILES IDX 15 1 16 2 17 3 18 4 19 5 20 6 21 7 22 8 23 9 24 10 25 11
REMARK SMILES IDX 26 12 27 13 28 14 29 15 30 16 14 17 13 18 12 19 11 20 10 21
REMARK SMILES IDX 9 22 8 23 7 24 6 25 5 26 4 27 3 28 2 29 1 30
REMARK H PARENT
REMARK Flexibility Score: inf
ROOT
ATOM      1  C   UNL     1       1.056   0.459  -8.987  1.00  0.00     0.000 C 
ENDROOT
BRANCH   1   2
ATOM      2  C   UNL     1      -0.090   1.480  -8.929  1.00  0.00     0.000 C 
BRANCH   2   3
ATOM      3  C   UNL     1       0.339   2.886  -9.389  1.00  0.00     0.000 C 
BRANCH   3   4
ATOM      4  C   UNL     1       1.735   2.959 -10.031  1.00  0.00     0.000 C 
BRANCH   4   5
ATOM      5  C   UNL     1       2.615   4.063  -9.425  1.00  0.00     0.000 C 
BRANCH   5   6
ATOM      6  C   UNL     1       4.086   3.634  -9.390  1.00  0.00     0.000 C 
BRANCH   6   7
ATOM      7  C   UNL     1       4.220   2.150  -9.013  1.00  0.00     0.000 C 
BRANCH   7   8
ATOM      8  C   UNL     1       5.536   1.836  -8.284  1.00  0.00     0.000 C 
BRANCH   8   9
ATOM      9  C   UNL     1       5.410   0.643  -7.321  1.00  0.00     0.000 C 
BRANCH   9  10
ATOM     10  C   UNL     1       6.340   0.773  -6.103  1.00  0.00     0.000 C 
BRANCH  10  11
ATOM     11  C   UNL     1       5.584   0.624  -4.771  1.00  0.00     0.000 C 
BRANCH  11  12
ATOM     12  C   UNL     1       5.597  -0.818  -4.242  1.00  0.00     0.006 C 
BRANCH  12  13
ATOM     13  C   UNL     1       4.380  -1.633  -4.703  1.00  0.00     0.053 C 
BRANCH  13  14
ATOM     14  C   UNL     1       3.517  -1.997  -3.535  1.00  0.00     0.041 C 
ATOM     15  O   UNL     1       2.286  -2.210  -3.697  1.00  0.00    -0.550 OA
ATOM     16  O   UNL     1       4.070  -2.088  -2.263  1.00  0.00    -0.550 OA
ENDBRANCH  13  14
ENDBRANCH  12  13
ENDBRANCH  11  12
ENDBRANCH  10  11
ENDBRANCH   9  10
ENDBRANCH   8   9
ENDBRANCH   7   8
ENDBRANCH   6   7
ENDBRANCH   5   6
ENDBRANCH   4   5
ENDBRANCH   3   4
ENDBRANCH   2   3
ENDBRANCH   1   2
BRANCH   1  17
ATOM     17  C   UNL     1       0.514  -0.979  -8.958  1.00  0.00     0.000 C 
BRANCH  17  18
ATOM     18  C   UNL     1      -0.984  -1.039  -8.616  1.00  0.00     0.000 C 
BRANCH  18  19
ATOM     19  C   UNL     1      -1.240  -1.369  -7.137  1.00  0.00     0.000 C 
BRANCH  19  20
ATOM     20  C   UNL     1      -2.687  -1.031  -6.742  1.00  0.00     0.000 C 
BRANCH  20  21
ATOM     21  C   UNL     1      -3.663  -1.119  -7.926  1.00  0.00     0.000 C 
BRANCH  21  22
ATOM     22  C   UNL     1      -4.827  -2.089  -7.659  1.00  0.00    -0.000 C 
BRANCH  22  23
ATOM     23  C   UNL     1      -4.473  -3.553  -7.980  1.00  0.00    -0.000 C 
BRANCH  23  24
ATOM     24  C   UNL     1      -4.730  -4.552  -6.837  1.00  0.00    -0.000 C 
BRANCH  24  25
ATOM     25  C   UNL     1      -3.447  -4.942  -6.082  1.00  0.00    -0.000 C 
BRANCH  25  26
ATOM     26  C   UNL     1      -3.227  -4.098  -4.817  1.00  0.00    -0.000 C 
BRANCH  26  27
ATOM     27  C   UNL     1      -4.549  -3.722  -4.123  1.00  0.00    -0.000 C 
BRANCH  27  28
ATOM     28  C   UNL     1      -4.713  -2.205  -3.945  1.00  0.00    -0.000 C 
BRANCH  28  29
ATOM     29  C   UNL     1      -6.137  -1.807  -3.532  1.00  0.00    -0.003 C 
ATOM     30  C   UNL     1      -7.105  -1.938  -4.704  1.00  0.00     0.004 C 
ENDBRANCH  28  29
ENDBRANCH  27  28
ENDBRANCH  26  27
ENDBRANCH  25  26
ENDBRANCH  24  25
ENDBRANCH  23  24
ENDBRANCH  22  23
ENDBRANCH  21  22
ENDBRANCH  20  21
ENDBRANCH  19  20
ENDBRANCH  18  19
ENDBRANCH  17  18
ENDBRANCH   1  17
TORSDOF 26
ENDMDL
MODEL 5
REMARK VINA RESULT:    -3.557      7.938     11.863
REMARK INTER + INTRA:         -11.923
REMARK INTER:                  -9.102
REMARK INTRA:                  -2.822
REMARK UNBOUND:                -2.960
REMARK SMILES CCCCCCCCCCCCCCCCCCCCCCCCCCCC(=O)[O-]
REMARK SMILES IDX 15 1 16 2 17 3 18 4 19 5 20 6 21 7 22 8 23 9 24 10 25 11
REMARK SMILES IDX 26 12 27 13 28 14 29 15 30 16 14 17 13 18 12 19 11 20 10 21
REMARK SMILES IDX 9 22 8 23 7 24 6 25 5 26 4 27 3 28 2 29 1 30
REMARK H PARENT
REMARK Flexibility Score: inf
ROOT
ATOM      1  C   UNL     1       3.260   3.648  -9.401  1.00  0.00     0.000 C 
ENDROOT
BRANCH   1   2
ATOM      2  C   UNL     1       2.160   2.576  -9.413  1.00  0.00     0.000 C 
BRANCH   2   3
ATOM      3  C   UNL     1       0.778   3.142  -9.791  1.00  0.00     0.000 C 
BRANCH   3   4
ATOM      4  C   UNL     1      -0.406   2.517  -9.034  1.00  0.00     0.000 C 
BRANCH   4   5
ATOM      5  C   UNL     1      -1.164   1.472  -9.866  1.00  0.00     0.000 C 
BRANCH   5   6
ATOM      6  C   UNL     1      -1.377   0.182  -9.065  1.00  0.00     0.000 C 
BRANCH   6   7
ATOM      7  C   UNL     1      -0.235  -0.040  -8.061  1.00  0.00     0.000 C 
BRANCH   7   8
ATOM      8  C   UNL     1       0.605  -1.287  -8.380  1.00  0.00     0.000 C 
BRANCH   8   9
ATOM      9  C   UNL     1       2.094  -0.962  -8.590  1.00  0.00     0.000 C 
BRANCH   9  10
ATOM     10  C   UNL     1       3.017  -1.939  -7.841  1.00  0.00     0.000 C 
BRANCH  10  11
ATOM     11  C   UNL     1       2.233  -2.905  -6.935  1.00  0.00     0.000 C 
BRANCH  11  12
ATOM     12  C   UNL     1       3.092  -3.474  -5.795  1.00  0.00     0.006 C 
BRANCH  12  13
ATOM     13  C   UNL     1       4.022  -2.426  -5.169  1.00  0.00     0.053 C 
BRANCH  13  14
ATOM     14  C   UNL     1       3.479  -1.957  -3.855  1.00  0.00     0.041 C 
ATOM     15  O   UNL     1       4.217  -1.330  -3.051  1.00  0.00    -0.550 OA
ATOM     16  O   UNL     1       2.159  -2.226  -3.513  1.00  0.00    -0.550 OA
ENDBRANCH  13  14
ENDBRANCH  12  13
ENDBRANCH  11  12
ENDBRANCH  10  11
ENDBRANCH   9  10
ENDBRANCH   8   9
ENDBRANCH   7   8
ENDBRANCH   6   7
ENDBRANCH   5   6
ENDBRANCH   4   5
ENDBRANCH   3   4
ENDBRANCH   2   3
ENDBRANCH   1   2
BRANCH   1  17
ATOM     17  C   UNL     1       4.655   3.005  -9.383  1.00  0.00     0.000 C 
BRANCH  17  18
ATOM     18  C   UNL     1       4.679   1.665  -8.628  1.00  0.00     0.000 C 
BRANCH  18  19
ATOM     19  C   UNL     1       5.908   1.521  -7.717  1.00  0.00     0.000 C 
BRANCH  19  20
ATOM     20  C   UNL     1       5.683   0.426  -6.661  1.00  0.00     0.000 C 
BRANCH  20  21
ATOM     21  C   UNL     1       5.865   0.940  -5.224  1.00  0.00     0.000 C 
BRANCH  21  22
ATOM     22  C   UNL     1       7.304   0.758  -4.711  1.00  0.00    -0.000 C 
BRANCH  22  23
ATOM     23  C   UNL     1       8.013   2.095  -4.429  1.00  0.00    -0.000 C 
BRANCH  23  24
ATOM     24  C   UNL     1       7.141   3.350  -4.620  1.00  0.00    -0.000 C 
BRANCH  24  25
ATOM     25  C   UNL     1       6.737   4.006  -3.288  1.00  0.00    -0.000 C 
BRANCH  25  26
ATOM     26  C   UNL     1       6.008   5.344  -3.487  1.00  0.00    -0.000 C 
BRANCH  26  27
ATOM     27  C   UNL     1       5.069   5.682  -2.315  1.00  0.00    -0.000 C 
BRANCH  27  28
ATOM     28  C   UNL     1       4.136   6.863  -2.626  1.00  0.00    -0.000 C 
BRANCH  28  29
ATOM     29  C   UNL     1       4.044   7.866  -1.468  1.00  0.00    -0.003 C 
ATOM     30  C   UNL     1       4.827   7.376  -0.253  1.00  0.00     0.004 C 
ENDBRANCH  28  29
ENDBRANCH  27  28
ENDBRANCH  26  27
ENDBRANCH  25  26
ENDBRANCH  24  25
ENDBRANCH  23  24
ENDBRANCH  22  23
ENDBRANCH  21  22
ENDBRANCH  20  21
ENDBRANCH  19  20
ENDBRANCH  18  19
ENDBRANCH  17  18
ENDBRANCH   1  17
TORSDOF 26
ENDMDL
MODEL 6
REMARK VINA RESULT:    -3.540      3.257      7.462
REMARK INTER + INTRA:         -11.880
REMARK INTER:                  -7.710
REMARK INTRA:                  -4.170
REMARK UNBOUND:                -2.960
REMARK SMILES CCCCCCCCCCCCCCCCCCCCCCCCCCCC(=O)[O-]
REMARK SMILES IDX 15 1 16 2 17 3 18 4 19 5 20 6 21 7 22 8 23 9 24 10 25 11
REMARK SMILES IDX 26 12 27 13 28 14 29 15 30 16 14 17 13 18 12 19 11 20 10 21
REMARK SMILES IDX 9 22 8 23 7 24 6 25 5 26 4 27 3 28 2 29 1 30
REMARK H PARENT
REMARK Flexibility Score: inf
ROOT
ATOM      1  C   UNL     1       5.320   7.321   6.070  1.00  0.00     0.000 C 
ENDROOT
BRANCH   1   2
ATOM      2  C   UNL     1       4.610   5.996   6.384  1.00  0.00     0.000 C 
BRANCH   2   3
ATOM      3  C   UNL     1       5.587   4.872   6.774  1.00  0.00     0.000 C 
BRANCH   3   4
ATOM      4  C   UNL     1       7.070   5.183   6.510  1.00  0.00     0.000 C 
BRANCH   4   5
ATOM      5  C   UNL     1       7.870   3.950   6.062  1.00  0.00     0.000 C 
BRANCH   5   6
ATOM      6  C   UNL     1       8.602   4.221   4.742  1.00  0.00     0.000 C 
BRANCH   6   7
ATOM      7  C   UNL     1       8.280   5.626   4.210  1.00  0.00     0.000 C 
BRANCH   7   8
ATOM      8  C   UNL     1       8.258   5.692   2.675  1.00  0.00     0.000 C 
BRANCH   8   9
ATOM      9  C   UNL     1       7.497   6.920   2.145  1.00  0.00     0.000 C 
BRANCH   9  10
ATOM     10  C   UNL     1       7.656   7.095   0.625  1.00  0.00     0.000 C 
BRANCH  10  11
ATOM     11  C   UNL     1       7.226   5.841  -0.157  1.00  0.00     0.000 C 
BRANCH  11  12
ATOM     12  C   UNL     1       5.833   5.987  -0.789  1.00  0.00     0.006 C 
BRANCH  12  13
ATOM     13  C   UNL     1       5.791   5.520  -2.251  1.00  0.00     0.053 C 
BRANCH  13  14
ATOM     14  C   UNL     1       5.810   6.694  -3.179  1.00  0.00     0.041 C 
ATOM     15  O   UNL     1       5.257   7.776  -2.846  1.00  0.00    -0.550 OA
ATOM     16  O   UNL     1       6.427   6.590  -4.420  1.00  0.00    -0.550 OA
ENDBRANCH  13  14
ENDBRANCH  12  13
ENDBRANCH  11  12
ENDBRANCH  10  11
ENDBRANCH   9  10
ENDBRANCH   8   9
ENDBRANCH   7   8
ENDBRANCH   6   7
ENDBRANCH   5   6
ENDBRANCH   4   5
ENDBRANCH   3   4
ENDBRANCH   2   3
ENDBRANCH   1   2
BRANCH   1  17
ATOM     17  C   UNL     1       4.951   7.825   4.666  1.00  0.00     0.000 C 
BRANCH  17  18
ATOM     18  C   UNL     1       3.646   8.639   4.654  1.00  0.00     0.000 C 
BRANCH  18  19
ATOM     19  C   UNL     1       3.467   9.451   3.363  1.00  0.00     0.000 C 
BRANCH  19  20
ATOM     20  C   UNL     1       4.735   9.392   2.496  1.00  0.00     0.000 C 
BRANCH  20  21
ATOM     21  C   UNL     1       4.440   9.014   1.035  1.00  0.00     0.000 C 
BRANCH  21  22
ATOM     22  C   UNL     1       3.319   7.967   0.912  1.00  0.00    -0.000 C 
BRANCH  22  23
ATOM     23  C   UNL     1       2.699   7.917  -0.496  1.00  0.00    -0.000 C 
BRANCH  23  24
ATOM     24  C   UNL     1       2.048   9.230  -0.970  1.00  0.00    -0.000 C 
BRANCH  24  25
ATOM     25  C   UNL     1       0.885   9.680  -0.069  1.00  0.00    -0.000 C 
BRANCH  25  26
ATOM     26  C   UNL     1      -0.428   8.951  -0.391  1.00  0.00    -0.000 C 
BRANCH  26  27
ATOM     27  C   UNL     1      -1.047   8.277   0.847  1.00  0.00    -0.000 C 
BRANCH  27  28
ATOM     28  C   UNL     1      -0.464   6.880   1.112  1.00  0.00    -0.000 C 
BRANCH  28  29
ATOM     29  C   UNL     1       0.196   6.766   2.494  1.00  0.00    -0.003 C 
ATOM     30  C   UNL     1       0.111   8.086   3.254  1.00  0.00     0.004 C 
ENDBRANCH  28  29
ENDBRANCH  27  28
ENDBRANCH  26  27
ENDBRANCH  25  26
ENDBRANCH  24  25
ENDBRANCH  23  24
ENDBRANCH  22  23
ENDBRANCH  21  22
ENDBRANCH  20  21
ENDBRANCH  19  20
ENDBRANCH  18  19
ENDBRANCH  17  18
ENDBRANCH   1  17
TORSDOF 26
ENDMDL
MODEL 7
REMARK VINA RESULT:    -3.538      1.994      5.739
REMARK INTER + INTRA:         -11.874
REMARK INTER:                  -7.523
REMARK INTRA:                  -4.351
REMARK UNBOUND:                -2.960
REMARK SMILES CCCCCCCCCCCCCCCCCCCCCCCCCCCC(=O)[O-]
REMARK SMILES IDX 15 1 16 2 17 3 18 4 19 5 20 6 21 7 22 8 23 9 24 10 25 11
REMARK SMILES IDX 26 12 27 13 28 14 29 15 30 16 14 17 13 18 12 19 11 20 10 21
REMARK SMILES IDX 9 22 8 23 7 24 6 25 5 26 4 27 3 28 2 29 1 30
REMARK H PARENT
REMARK Flexibility Score: inf
ROOT
ATOM      1  C   UNL     1       4.167   9.330   1.154  1.00  0.00     0.000 C 
ENDROOT
BRANCH   1   2
ATOM      2  C   UNL     1       3.770   7.898   0.766  1.00  0.00     0.000 C 
BRANCH   2   3
ATOM      3  C   UNL     1       2.699   7.854  -0.341  1.00  0.00     0.000 C 
BRANCH   3   4
ATOM      4  C   UNL     1       1.929   9.170  -0.549  1.00  0.00     0.000 C 
BRANCH   4   5
ATOM      5  C   UNL     1       0.407   8.994  -0.442  1.00  0.00     0.000 C 
BRANCH   5   6
ATOM      6  C   UNL     1       0.037   8.136   0.774  1.00  0.00     0.000 C 
BRANCH   6   7
ATOM      7  C   UNL     1      -0.291   9.014   1.991  1.00  0.00     0.000 C 
BRANCH   7   8
ATOM      8  C   UNL     1      -0.637   8.192   3.243  1.00  0.00     0.000 C 
BRANCH   8   9
ATOM      9  C   UNL     1      -0.223   6.716   3.116  1.00  0.00     0.000 C 
BRANCH   9  10
ATOM     10  C   UNL     1      -1.035   5.799   4.045  1.00  0.00     0.000 C 
BRANCH  10  11
ATOM     11  C   UNL     1      -2.508   6.233   4.154  1.00  0.00     0.000 C 
BRANCH  11  12
ATOM     12  C   UNL     1      -3.448   5.351   3.317  1.00  0.00     0.006 C 
BRANCH  12  13
ATOM     13  C   UNL     1      -4.011   6.080   2.088  1.00  0.00     0.053 C 
BRANCH  13  14
ATOM     14  C   UNL     1      -3.527   5.436   0.826  1.00  0.00     0.041 C 
ATOM     15  O   UNL     1      -2.296   5.242   0.644  1.00  0.00    -0.550 OA
ATOM     16  O   UNL     1      -4.436   5.063  -0.157  1.00  0.00    -0.550 OA
ENDBRANCH  13  14
ENDBRANCH  12  13
ENDBRANCH  11  12
ENDBRANCH  10  11
ENDBRANCH   9  10
ENDBRANCH   8   9
ENDBRANCH   7   8
ENDBRANCH   6   7
ENDBRANCH   5   6
ENDBRANCH   4   5
ENDBRANCH   3   4
ENDBRANCH   2   3
ENDBRANCH   1   2
BRANCH   1  17
ATOM     17  C   UNL     1       3.731   9.651   2.593  1.00  0.00     0.000 C 
BRANCH  17  18
ATOM     18  C   UNL     1       3.201   8.415   3.339  1.00  0.00     0.000 C 
BRANCH  18  19
ATOM     19  C   UNL     1       2.644   8.758   4.730  1.00  0.00     0.000 C 
BRANCH  19  20
ATOM     20  C   UNL     1       2.821   7.577   5.698  1.00  0.00     0.000 C 
BRANCH  20  21
ATOM     21  C   UNL     1       1.490   7.092   6.294  1.00  0.00     0.000 C 
BRANCH  21  22
ATOM     22  C   UNL     1       1.666   5.872   7.215  1.00  0.00    -0.000 C 
BRANCH  22  23
ATOM     23  C   UNL     1       3.092   5.750   7.784  1.00  0.00    -0.000 C 
BRANCH  23  24
ATOM     24  C   UNL     1       3.630   4.312   7.895  1.00  0.00    -0.000 C 
BRANCH  24  25
ATOM     25  C   UNL     1       5.120   4.200   7.528  1.00  0.00    -0.000 C 
BRANCH  25  26
ATOM     26  C   UNL     1       5.568   5.290   6.542  1.00  0.00    -0.000 C 
BRANCH  26  27
ATOM     27  C   UNL     1       7.070   5.208   6.217  1.00  0.00    -0.000 C 
BRANCH  27  28
ATOM     28  C   UNL     1       7.421   5.862   4.872  1.00  0.00    -0.000 C 
BRANCH  28  29
ATOM     29  C   UNL     1       6.585   7.119   4.588  1.00  0.00    -0.003 C 
ATOM     30  C   UNL     1       6.835   7.638   3.175  1.00  0.00     0.004 C 
ENDBRANCH  28  29
ENDBRANCH  27  28
ENDBRANCH  26  27
ENDBRANCH  25  26
ENDBRANCH  24  25
ENDBRANCH  23  24
ENDBRANCH  22  23
ENDBRANCH  21  22
ENDBRANCH  20  21
ENDBRANCH  19  20
ENDBRANCH  18  19
ENDBRANCH  17  18
ENDBRANCH   1  17
TORSDOF 26
ENDMDL
MODEL 8
REMARK VINA RESULT:    -3.518      2.202      6.271
REMARK INTER + INTRA:         -11.825
REMARK INTER:                  -6.878
REMARK INTRA:                  -4.947
REMARK UNBOUND:                -2.960
REMARK SMILES CCCCCCCCCCCCCCCCCCCCCCCCCCCC(=O)[O-]
REMARK SMILES IDX 15 1 16 2 17 3 18 4 19 5 20 6 21 7 22 8 23 9 24 10 25 11
REMARK SMILES IDX 26 12 27 13 28 14 29 15 30 16 14 17 13 18 12 19 11 20 10 21
REMARK SMILES IDX 9 22 8 23 7 24 6 25 5 26 4 27 3 28 2 29 1 30
REMARK H PARENT
REMARK Flexibility Score: inf
ROOT
ATOM      1  C   UNL     1       5.748   5.976  -0.579  1.00  0.00     0.000 C 
ENDROOT
BRANCH   1   2
ATOM      2  C   UNL     1       5.458   5.784  -2.075  1.00  0.00     0.000 C 
BRANCH   2   3
ATOM      3  C   UNL     1       4.242   6.598  -2.557  1.00  0.00     0.000 C 
BRANCH   3   4
ATOM      4  C   UNL     1       4.589   7.914  -3.274  1.00  0.00     0.000 C 
BRANCH   4   5
ATOM      5  C   UNL     1       6.064   7.995  -3.696  1.00  0.00     0.000 C 
BRANCH   5   6
ATOM      6  C   UNL     1       6.717   9.276  -3.164  1.00  0.00     0.000 C 
BRANCH   6   7
ATOM      7  C   UNL     1       6.001   9.778  -1.900  1.00  0.00     0.000 C 
BRANCH   7   8
ATOM      8  C   UNL     1       6.913   9.791  -0.664  1.00  0.00     0.000 C 
BRANCH   8   9
ATOM      9  C   UNL     1       6.170   9.400   0.625  1.00  0.00     0.000 C 
BRANCH   9  10
ATOM     10  C   UNL     1       4.675   9.133   0.381  1.00  0.00     0.000 C 
BRANCH  10  11
ATOM     11  C   UNL     1       4.025   8.346   1.532  1.00  0.00     0.000 C 
BRANCH  11  12
ATOM     12  C   UNL     1       2.497   8.507   1.571  1.00  0.00     0.006 C 
BRANCH  12  13
ATOM     13  C   UNL     1       1.804   7.915   0.336  1.00  0.00     0.053 C 
BRANCH  13  14
ATOM     14  C   UNL     1       0.422   7.452   0.679  1.00  0.00     0.041 C 
ATOM     15  O   UNL     1      -0.582   8.029   0.184  1.00  0.00    -0.550 OA
ATOM     16  O   UNL     1       0.242   6.391   1.559  1.00  0.00    -0.550 OA
ENDBRANCH  13  14
ENDBRANCH  12  13
ENDBRANCH  11  12
ENDBRANCH  10  11
ENDBRANCH   9  10
ENDBRANCH   8   9
ENDBRANCH   7   8
ENDBRANCH   6   7
ENDBRANCH   5   6
ENDBRANCH   4   5
ENDBRANCH   3   4
ENDBRANCH   2   3
ENDBRANCH   1   2
BRANCH   1  17
ATOM     17  C   UNL     1       7.207   5.623  -0.252  1.00  0.00     0.000 C 
BRANCH  17  18
ATOM     18  C   UNL     1       8.207   6.308  -1.198  1.00  0.00     0.000 C 
BRANCH  18  19
ATOM     19  C   UNL     1       9.289   7.098  -0.446  1.00  0.00     0.000 C 
BRANCH  19  20
ATOM     20  C   UNL     1       9.429   6.597   1.001  1.00  0.00     0.000 C 
BRANCH  20  21
ATOM     21  C   UNL     1       9.236   7.714   2.039  1.00  0.00     0.000 C 
BRANCH  21  22
ATOM     22  C   UNL     1       8.165   7.365   3.088  1.00  0.00    -0.000 C 
BRANCH  22  23
ATOM     23  C   UNL     1       8.034   5.850   3.330  1.00  0.00    -0.000 C 
BRANCH  23  24
ATOM     24  C   UNL     1       8.893   5.298   4.483  1.00  0.00    -0.000 C 
BRANCH  24  25
ATOM     25  C   UNL     1       8.073   4.496   5.509  1.00  0.00    -0.000 C 
BRANCH  25  26
ATOM     26  C   UNL     1       7.270   5.399   6.458  1.00  0.00    -0.000 C 
BRANCH  26  27
ATOM     27  C   UNL     1       5.843   4.875   6.701  1.00  0.00    -0.000 C 
BRANCH  27  28
ATOM     28  C   UNL     1       4.767   5.930   6.401  1.00  0.00    -0.000 C 
BRANCH  28  29
ATOM     29  C   UNL     1       5.256   7.017   5.433  1.00  0.00    -0.003 C 
ATOM     30  C   UNL     1       4.214   8.120   5.273  1.00  0.00     0.004 C 
ENDBRANCH  28  29
ENDBRANCH  27  28
ENDBRANCH  26  27
ENDBRANCH  25  26
ENDBRANCH  24  25
ENDBRANCH  23  24
ENDBRANCH  22  23
ENDBRANCH  21  22
ENDBRANCH  20  21
ENDBRANCH  19  20
ENDBRANCH  18  19
ENDBRANCH  17  18
ENDBRANCH   1  17
TORSDOF 26
ENDMDL
MODEL 9
REMARK VINA RESULT:    -3.516     13.775     16.852
REMARK INTER + INTRA:         -11.819
REMARK INTER:                  -5.544
REMARK INTRA:                  -6.274
REMARK UNBOUND:                -2.960
REMARK SMILES CCCCCCCCCCCCCCCCCCCCCCCCCCCC(=O)[O-]
REMARK SMILES IDX 15 1 16 2 17 3 18 4 19 5 20 6 21 7 22 8 23 9 24 10 25 11
REMARK SMILES IDX 26 12 27 13 28 14 29 15 30 16 14 17 13 18 12 19 11 20 10 21
REMARK SMILES IDX 9 22 8 23 7 24 6 25 5 26 4 27 3 28 2 29 1 30
REMARK H PARENT
REMARK Flexibility Score: inf
ROOT
ATOM      1  C   UNL     1      -4.350  -3.730  -4.685  1.00  0.00     0.000 C 
ENDROOT
BRANCH   1   2
ATOM      2  C   UNL     1      -3.188  -4.522  -4.068  1.00  0.00     0.000 C 
BRANCH   2   3
ATOM      3  C   UNL     1      -3.442  -4.911  -2.599  1.00  0.00     0.000 C 
BRANCH   3   4
ATOM      4  C   UNL     1      -4.191  -6.241  -2.403  1.00  0.00     0.000 C 
BRANCH   4   5
ATOM      5  C   UNL     1      -5.713  -6.062  -2.308  1.00  0.00     0.000 C 
BRANCH   5   6
ATOM      6  C   UNL     1      -6.436  -6.956  -3.323  1.00  0.00     0.000 C 
BRANCH   6   7
ATOM      7  C   UNL     1      -5.448  -7.546  -4.341  1.00  0.00     0.000 C 
BRANCH   7   8
ATOM      8  C   UNL     1      -5.708  -7.059  -5.775  1.00  0.00     0.000 C 
BRANCH   8   9
ATOM      9  C   UNL     1      -4.416  -6.927  -6.600  1.00  0.00     0.000 C 
BRANCH   9  10
ATOM     10  C   UNL     1      -4.549  -5.896  -7.733  1.00  0.00     0.000 C 
BRANCH  10  11
ATOM     11  C   UNL     1      -3.182  -5.408  -8.244  1.00  0.00     0.000 C 
BRANCH  11  12
ATOM     12  C   UNL     1      -2.032  -5.766  -7.289  1.00  0.00     0.006 C 
BRANCH  12  13
ATOM     13  C   UNL     1      -0.978  -4.655  -7.183  1.00  0.00     0.053 C 
BRANCH  13  14
ATOM     14  C   UNL     1      -0.102  -4.874  -5.989  1.00  0.00     0.041 C 
ATOM     15  O   UNL     1      -0.144  -5.965  -5.362  1.00  0.00    -0.550 OA
ATOM     16  O   UNL     1       0.754  -3.865  -5.560  1.00  0.00    -0.550 OA
ENDBRANCH  13  14
ENDBRANCH  12  13
ENDBRANCH  11  12
ENDBRANCH  10  11
ENDBRANCH   9  10
ENDBRANCH   8   9
ENDBRANCH   7   8
ENDBRANCH   6   7
ENDBRANCH   5   6
ENDBRANCH   4   5
ENDBRANCH   3   4
ENDBRANCH   2   3
ENDBRANCH   1   2
BRANCH   1  17
ATOM     17  C   UNL     1      -4.128  -2.217  -4.531  1.00  0.00     0.000 C 
BRANCH  17  18
ATOM     18  C   UNL     1      -5.314  -1.512  -3.852  1.00  0.00     0.000 C 
BRANCH  18  19
ATOM     19  C   UNL     1      -6.191  -2.477  -3.040  1.00  0.00     0.000 C 
BRANCH  19  20
ATOM     20  C   UNL     1      -7.630  -1.950  -2.928  1.00  0.00     0.000 C 
BRANCH  20  21
ATOM     21  C   UNL     1      -8.660  -2.886  -3.581  1.00  0.00     0.000 C 
BRANCH  21  22
ATOM     22  C   UNL     1      -8.002  -3.953  -4.475  1.00  0.00    -0.000 C 
BRANCH  22  23
ATOM     23  C   UNL     1      -8.338  -3.774  -5.967  1.00  0.00    -0.000 C 
BRANCH  23  24
ATOM     24  C   UNL     1      -7.192  -3.217  -6.831  1.00  0.00    -0.000 C 
BRANCH  24  25
ATOM     25  C   UNL     1      -7.170  -1.679  -6.877  1.00  0.00    -0.000 C 
BRANCH  25  26
ATOM     26  C   UNL     1      -5.916  -1.127  -7.574  1.00  0.00    -0.000 C 
BRANCH  26  27
ATOM     27  C   UNL     1      -5.145  -2.214  -8.345  1.00  0.00    -0.000 C 
BRANCH  27  28
ATOM     28  C   UNL     1      -3.652  -1.884  -8.496  1.00  0.00    -0.000 C 
BRANCH  28  29
ATOM     29  C   UNL     1      -3.204  -0.734  -7.583  1.00  0.00    -0.003 C 
ATOM     30  C   UNL     1      -1.788  -0.966  -7.062  1.00  0.00     0.004 C 
ENDBRANCH  28  29
ENDBRANCH  27  28
ENDBRANCH  26  27
ENDBRANCH  25  26
ENDBRANCH  24  25
ENDBRANCH  23  24
ENDBRANCH  22  23
ENDBRANCH  21  22
ENDBRANCH  20  21
ENDBRANCH  19  20
ENDBRANCH  18  19
ENDBRANCH  17  18
ENDBRANCH   1  17
TORSDOF 26
ENDMDL
