MODEL 1
REMARK VINA RESULT:    -7.995      0.000      0.000
REMARK INTER + INTRA:         -14.859
REMARK INTER:                 -13.137
REMARK INTRA:                  -1.722
REMARK UNBOUND:                -1.722
REMARK SMILES COc1ccc([C@H]2CC(=O)c3c(O)cc(O[C@H]4O[C@H](CO[C@@H]5O[C@@H](C)[C@@H](O)[C@@H](O)[C@H]5O)[C@@H](O)[C@@H](O)[C@@H]4O)cc3O2)cc1O
REMARK SMILES IDX 19 1 32 2 34 3 36 4 17 5 18 6 20 7 21 8 22 9 25 10 24 11
REMARK SMILES IDX 26 12 23 13 28 14 30 15 27 16 29 18 31 20 33 22 35 24 16 26
REMARK SMILES IDX 15 27 14 28 38 29 12 30 39 31 11 32 40 33 9 34 7 35 10 36
REMARK SMILES IDX 8 37 13 38 6 40 41 41 5 42 42 43 4 44 3 45 43 46 2 48 1 49
REMARK SMILES IDX 37 50
REMARK H PARENT 27 17 29 19 31 21 33 23 35 25 13 39 43 47 37 51
REMARK Flexibility Score: inf
ROOT
ATOM      1  C   UNL     1      14.233  23.250  46.855  1.00  0.00     0.180 C 
ATOM      2  C   UNL     1      13.454  23.718  48.111  1.00  0.00     0.177 C 
ATOM      3  C   UNL     1      13.911  25.135  48.513  1.00  0.00     0.180 C 
ATOM      4  C   UNL     1      13.854  26.076  47.300  1.00  0.00     0.214 C 
ATOM      5  C   UNL     1      14.576  25.454  46.094  1.00  0.00     0.339 C 
ATOM      6  O   UNL     1      14.064  24.167  45.784  1.00  0.00    -0.332 OA
ENDROOT
BRANCH   1   7
ATOM      7  C   UNL     1      13.743  21.880  46.361  1.00  0.00     0.198 C 
BRANCH   7   8
ATOM      8  O   UNL     1      14.310  20.840  47.139  1.00  0.00    -0.347 OA
BRANCH   8   9
ATOM      9  C   UNL     1      15.726  20.932  47.158  1.00  0.00     0.281 C 
ATOM     10  C   UNL     1      16.611  17.842  45.346  1.00  0.00     0.041 C 
ATOM     11  C   UNL     1      16.068  18.697  46.493  1.00  0.00     0.150 C 
ATOM     12  C   UNL     1      16.689  18.283  47.842  1.00  0.00     0.174 C 
ATOM     13  O   UNL     1      16.339  20.060  46.207  1.00  0.00    -0.344 OA
ATOM     14  C   UNL     1      16.104  19.179  48.952  1.00  0.00     0.179 C 
ATOM     15  C   UNL     1      16.253  20.672  48.583  1.00  0.00     0.202 C 
BRANCH  12  16
ATOM     16  O   UNL     1      18.089  18.420  47.810  1.00  0.00    -0.388 OA
ATOM     17  H   UNL     1      18.470  17.505  47.807  1.00  0.00     0.211 HD
ENDBRANCH  12  16
BRANCH  14  18
ATOM     18  O   UNL     1      16.729  18.926  50.185  1.00  0.00    -0.387 OA
ATOM     19  H   UNL     1      17.625  18.550  49.985  1.00  0.00     0.211 HD
ENDBRANCH  14  18
BRANCH  15  20
ATOM     20  O   UNL     1      17.601  21.069  48.649  1.00  0.00    -0.385 OA
ATOM     21  H   UNL     1      17.821  21.497  47.780  1.00  0.00     0.211 HD
ENDBRANCH  15  20
ENDBRANCH   8   9
ENDBRANCH   7   8
ENDBRANCH   1   7
BRANCH   2  22
ATOM     22  O   UNL     1      13.673  22.830  49.179  1.00  0.00    -0.387 OA
ATOM     23  H   UNL     1      12.956  22.143  49.129  1.00  0.00     0.211 HD
ENDBRANCH   2  22
BRANCH   3  24
ATOM     24  O   UNL     1      15.223  25.102  49.019  1.00  0.00    -0.387 OA
ATOM     25  H   UNL     1      15.764  24.547  48.396  1.00  0.00     0.211 HD
ENDBRANCH   3  24
BRANCH   5  26
ATOM     26  O   UNL     1      15.990  25.424  46.318  1.00  0.00    -0.462 OA
BRANCH  26  27
ATOM     27  C   UNL     1      16.960  25.773  45.367  1.00  0.00     0.130 A 
ATOM     28  C   UNL     1      17.960  26.728  45.623  1.00  0.00     0.093 A 
ATOM     29  C   UNL     1      16.930  25.133  44.124  1.00  0.00     0.094 A 
ATOM     30  C   UNL     1      18.904  27.056  44.640  1.00  0.00     0.133 A 
ATOM     31  C   UNL     1      17.896  25.416  43.155  1.00  0.00     0.138 A 
ATOM     32  C   UNL     1      18.866  26.406  43.389  1.00  0.00     0.102 A 
ATOM     33  O   UNL     1      17.891  24.706  41.948  1.00  0.00    -0.484 OA
ATOM     34  C   UNL     1      19.795  26.736  42.280  1.00  0.00     0.174 C 
ATOM     35  C   UNL     1      19.030  24.683  41.076  1.00  0.00     0.211 C 
ATOM     36  O   UNL     1      20.727  27.571  42.436  1.00  0.00    -0.294 OA
ATOM     37  C   UNL     1      19.582  26.116  40.926  1.00  0.00     0.131 C 
BRANCH  30  38
ATOM     38  O   UNL     1      19.872  28.021  44.913  1.00  0.00    -0.507 OA
ATOM     39  H   UNL     1      20.402  28.465  44.172  1.00  0.00     0.293 HD
ENDBRANCH  30  38
BRANCH  35  40
ATOM     40  C   UNL     1      18.677  24.044  39.739  1.00  0.00    -0.003 A 
ATOM     41  C   UNL     1      19.605  23.230  39.057  1.00  0.00     0.057 A 
ATOM     42  C   UNL     1      17.462  24.357  39.098  1.00  0.00     0.011 A 
ATOM     43  C   UNL     1      19.310  22.711  37.788  1.00  0.00     0.158 A 
ATOM     44  C   UNL     1      17.158  23.820  37.847  1.00  0.00     0.051 A 
ATOM     45  C   UNL     1      18.081  22.995  37.178  1.00  0.00     0.160 A 
BRANCH  43  46
ATOM     46  O   UNL     1      20.240  21.914  37.121  1.00  0.00    -0.504 OA
ATOM     47  H   UNL     1      20.918  21.352  37.624  1.00  0.00     0.293 HD
ENDBRANCH  43  46
BRANCH  45  48
ATOM     48  O   UNL     1      17.822  22.457  35.909  1.00  0.00    -0.493 OA
ATOM     49  C   UNL     1      16.662  22.745  35.133  1.00  0.00     0.278 C 
ENDBRANCH  45  48
ENDBRANCH  35  40
ENDBRANCH  26  27
ENDBRANCH   5  26
BRANCH   4  50
ATOM     50  O   UNL     1      12.514  26.334  46.954  1.00  0.00    -0.384 OA
ATOM     51  H   UNL     1      12.080  26.701  47.769  1.00  0.00     0.211 HD
ENDBRANCH   4  50
TORSDOF 15
ENDMDL
MODEL 2
REMARK VINA RESULT:    -7.988      1.197      1.744
REMARK INTER + INTRA:         -14.846
REMARK INTER:                 -12.951
REMARK INTRA:                  -1.895
REMARK UNBOUND:                -1.722
REMARK SMILES COc1ccc([C@H]2CC(=O)c3c(O)cc(O[C@H]4O[C@H](CO[C@@H]5O[C@@H](C)[C@@H](O)[C@@H](O)[C@H]5O)[C@@H](O)[C@@H](O)[C@@H]4O)cc3O2)cc1O
REMARK SMILES IDX 19 1 32 2 34 3 36 4 17 5 18 6 20 7 21 8 22 9 25 10 24 11
REMARK SMILES IDX 26 12 23 13 28 14 30 15 27 16 29 18 31 20 33 22 35 24 16 26
REMARK SMILES IDX 15 27 14 28 38 29 12 30 39 31 11 32 40 33 9 34 7 35 10 36
REMARK SMILES IDX 8 37 13 38 6 40 41 41 5 42 42 43 4 44 3 45 43 46 2 48 1 49
REMARK SMILES IDX 37 50
REMARK H PARENT 27 17 29 19 31 21 33 23 35 25 13 39 43 47 37 51
REMARK Flexibility Score: inf
ROOT
ATOM      1  C   UNL     1      14.927  23.736  47.937  1.00  0.00     0.180 C 
ATOM      2  C   UNL     1      13.646  24.323  48.584  1.00  0.00     0.177 C 
ATOM      3  C   UNL     1      13.382  25.739  48.033  1.00  0.00     0.180 C 
ATOM      4  C   UNL     1      13.410  25.726  46.497  1.00  0.00     0.214 C 
ATOM      5  C   UNL     1      14.680  25.031  45.982  1.00  0.00     0.339 C 
ATOM      6  O   UNL     1      14.817  23.725  46.521  1.00  0.00    -0.332 OA
ENDROOT
BRANCH   1   7
ATOM      7  C   UNL     1      15.178  22.289  48.384  1.00  0.00     0.198 C 
BRANCH   7   8
ATOM      8  O   UNL     1      15.113  21.408  47.274  1.00  0.00    -0.347 OA
BRANCH   8   9
ATOM      9  C   UNL     1      16.359  20.760  47.066  1.00  0.00     0.281 C 
ATOM     10  C   UNL     1      17.056  21.776  43.588  1.00  0.00     0.041 C 
ATOM     11  C   UNL     1      16.334  21.053  44.728  1.00  0.00     0.150 C 
ATOM     12  C   UNL     1      16.198  19.546  44.438  1.00  0.00     0.174 C 
ATOM     13  O   UNL     1      17.055  21.275  45.930  1.00  0.00    -0.344 OA
ATOM     14  C   UNL     1      15.466  18.879  45.619  1.00  0.00     0.179 C 
ATOM     15  C   UNL     1      16.151  19.237  46.957  1.00  0.00     0.202 C 
BRANCH  12  16
ATOM     16  O   UNL     1      17.463  18.954  44.268  1.00  0.00    -0.388 OA
ATOM     17  H   UNL     1      17.796  19.233  43.376  1.00  0.00     0.211 HD
ENDBRANCH  12  16
BRANCH  14  18
ATOM     18  O   UNL     1      15.425  17.483  45.462  1.00  0.00    -0.387 OA
ATOM     19  H   UNL     1      16.307  17.204  45.103  1.00  0.00     0.211 HD
ENDBRANCH  14  18
BRANCH  15  20
ATOM     20  O   UNL     1      17.400  18.599  47.065  1.00  0.00    -0.385 OA
ATOM     21  H   UNL     1      17.909  19.074  47.773  1.00  0.00     0.211 HD
ENDBRANCH  15  20
ENDBRANCH   8   9
ENDBRANCH   7   8
ENDBRANCH   1   7
BRANCH   2  22
ATOM     22  O   UNL     1      13.788  24.378  49.982  1.00  0.00    -0.387 OA
ATOM     23  H   UNL     1      13.836  23.438  50.300  1.00  0.00     0.211 HD
ENDBRANCH   2  22
BRANCH   3  24
ATOM     24  O   UNL     1      14.350  26.640  48.512  1.00  0.00    -0.387 OA
ATOM     25  H   UNL     1      13.862  27.408  48.914  1.00  0.00     0.211 HD
ENDBRANCH   3  24
BRANCH   5  26
ATOM     26  O   UNL     1      15.834  25.838  46.244  1.00  0.00    -0.462 OA
BRANCH  26  27
ATOM     27  C   UNL     1      16.859  26.096  45.321  1.00  0.00     0.130 A 
ATOM     28  C   UNL     1      17.900  27.003  45.584  1.00  0.00     0.093 A 
ATOM     29  C   UNL     1      16.839  25.412  44.102  1.00  0.00     0.094 A 
ATOM     30  C   UNL     1      18.899  27.240  44.628  1.00  0.00     0.133 A 
ATOM     31  C   UNL     1      17.857  25.604  43.164  1.00  0.00     0.138 A 
ATOM     32  C   UNL     1      18.873  26.546  43.402  1.00  0.00     0.102 A 
ATOM     33  O   UNL     1      17.859  24.849  41.984  1.00  0.00    -0.484 OA
ATOM     34  C   UNL     1      19.861  26.782  42.320  1.00  0.00     0.174 C 
ATOM     35  C   UNL     1      19.027  24.730  41.160  1.00  0.00     0.211 C 
ATOM     36  O   UNL     1      20.832  27.569  42.484  1.00  0.00    -0.294 OA
ATOM     37  C   UNL     1      19.665  26.123  40.981  1.00  0.00     0.131 C 
BRANCH  30  38
ATOM     38  O   UNL     1      19.909  28.159  44.906  1.00  0.00    -0.507 OA
ATOM     39  H   UNL     1      19.749  29.158  44.843  1.00  0.00     0.293 HD
ENDBRANCH  30  38
BRANCH  35  40
ATOM     40  C   UNL     1      18.690  24.062  39.833  1.00  0.00    -0.003 A 
ATOM     41  C   UNL     1      19.628  23.236  39.179  1.00  0.00     0.057 A 
ATOM     42  C   UNL     1      17.481  24.356  39.173  1.00  0.00     0.011 A 
ATOM     43  C   UNL     1      19.348  22.689  37.918  1.00  0.00     0.158 A 
ATOM     44  C   UNL     1      17.192  23.792  37.931  1.00  0.00     0.051 A 
ATOM     45  C   UNL     1      18.124  22.955  37.290  1.00  0.00     0.160 A 
BRANCH  43  46
ATOM     46  O   UNL     1      20.287  21.880  37.279  1.00  0.00    -0.504 OA
ATOM     47  H   UNL     1      20.440  20.918  37.559  1.00  0.00     0.293 HD
ENDBRANCH  43  46
BRANCH  45  48
ATOM     48  O   UNL     1      17.880  22.389  36.030  1.00  0.00    -0.493 OA
ATOM     49  C   UNL     1      16.742  22.678  35.223  1.00  0.00     0.278 C 
ENDBRANCH  45  48
ENDBRANCH  35  40
ENDBRANCH  26  27
ENDBRANCH   5  26
BRANCH   4  50
ATOM     50  O   UNL     1      12.280  25.049  46.001  1.00  0.00    -0.384 OA
ATOM     51  H   UNL     1      11.649  25.751  45.689  1.00  0.00     0.211 HD
ENDBRANCH   4  50
TORSDOF 15
ENDMDL
MODEL 3
REMARK VINA RESULT:    -7.735      3.027      5.576
REMARK INTER + INTRA:         -14.431
REMARK INTER:                 -13.275
REMARK INTRA:                  -1.156
REMARK UNBOUND:                -1.722
REMARK SMILES COc1ccc([C@H]2CC(=O)c3c(O)cc(O[C@H]4O[C@H](CO[C@@H]5O[C@@H](C)[C@@H](O)[C@@H](O)[C@H]5O)[C@@H](O)[C@@H](O)[C@@H]4O)cc3O2)cc1O
REMARK SMILES IDX 19 1 32 2 34 3 36 4 17 5 18 6 20 7 21 8 22 9 25 10 24 11
REMARK SMILES IDX 26 12 23 13 28 14 30 15 27 16 29 18 31 20 33 22 35 24 16 26
REMARK SMILES IDX 15 27 14 28 38 29 12 30 39 31 11 32 40 33 9 34 7 35 10 36
REMARK SMILES IDX 8 37 13 38 6 40 41 41 5 42 42 43 4 44 3 45 43 46 2 48 1 49
REMARK SMILES IDX 37 50
REMARK H PARENT 27 17 29 19 31 21 33 23 35 25 13 39 43 47 37 51
REMARK Flexibility Score: inf
ROOT
ATOM      1  C   UNL     1      14.339  27.133  48.355  1.00  0.00     0.180 C 
ATOM      2  C   UNL     1      13.319  26.025  48.718  1.00  0.00     0.177 C 
ATOM      3  C   UNL     1      13.500  24.816  47.779  1.00  0.00     0.180 C 
ATOM      4  C   UNL     1      14.974  24.384  47.747  1.00  0.00     0.214 C 
ATOM      5  C   UNL     1      15.889  25.589  47.477  1.00  0.00     0.339 C 
ATOM      6  O   UNL     1      15.668  26.634  48.411  1.00  0.00    -0.332 OA
ENDROOT
BRANCH   1   7
ATOM      7  C   UNL     1      14.260  28.320  49.326  1.00  0.00     0.198 C 
BRANCH   7   8
ATOM      8  O   UNL     1      14.660  27.926  50.627  1.00  0.00    -0.347 OA
BRANCH   8   9
ATOM      9  C   UNL     1      15.967  28.394  50.921  1.00  0.00     0.281 C 
ATOM     10  C   UNL     1      17.042  25.851  53.370  1.00  0.00     0.041 C 
ATOM     11  C   UNL     1      16.232  27.030  52.825  1.00  0.00     0.150 C 
ATOM     12  C   UNL     1      16.248  28.221  53.802  1.00  0.00     0.174 C 
ATOM     13  O   UNL     1      16.768  27.401  51.564  1.00  0.00    -0.344 OA
ATOM     14  C   UNL     1      15.418  29.370  53.197  1.00  0.00     0.179 C 
ATOM     15  C   UNL     1      15.890  29.685  51.759  1.00  0.00     0.202 C 
BRANCH  12  16
ATOM     16  O   UNL     1      17.565  28.658  54.034  1.00  0.00    -0.388 OA
ATOM     17  H   UNL     1      17.535  29.268  54.816  1.00  0.00     0.211 HD
ENDBRANCH  12  16
BRANCH  14  18
ATOM     18  O   UNL     1      15.502  30.525  53.992  1.00  0.00    -0.387 OA
ATOM     19  H   UNL     1      14.615  30.649  54.420  1.00  0.00     0.211 HD
ENDBRANCH  14  18
BRANCH  15  20
ATOM     20  O   UNL     1      17.157  30.295  51.774  1.00  0.00    -0.385 OA
ATOM     21  H   UNL     1      17.301  30.688  50.873  1.00  0.00     0.211 HD
ENDBRANCH  15  20
ENDBRANCH   8   9
ENDBRANCH   7   8
ENDBRANCH   1   7
BRANCH   2  22
ATOM     22  O   UNL     1      12.005  26.517  48.608  1.00  0.00    -0.387 OA
ATOM     23  H   UNL     1      11.474  25.809  48.156  1.00  0.00     0.211 HD
ENDBRANCH   2  22
BRANCH   3  24
ATOM     24  O   UNL     1      13.079  25.139  46.476  1.00  0.00    -0.387 OA
ATOM     25  H   UNL     1      12.134  25.441  46.541  1.00  0.00     0.211 HD
ENDBRANCH   3  24
BRANCH   5  26
ATOM     26  O   UNL     1      15.734  26.040  46.126  1.00  0.00    -0.462 OA
BRANCH  26  27
ATOM     27  C   UNL     1      16.789  26.247  45.224  1.00  0.00     0.130 A 
ATOM     28  C   UNL     1      17.865  27.107  45.503  1.00  0.00     0.093 A 
ATOM     29  C   UNL     1      16.763  25.556  44.008  1.00  0.00     0.094 A 
ATOM     30  C   UNL     1      18.892  27.293  44.568  1.00  0.00     0.133 A 
ATOM     31  C   UNL     1      17.808  25.697  43.090  1.00  0.00     0.138 A 
ATOM     32  C   UNL     1      18.860  26.594  43.344  1.00  0.00     0.102 A 
ATOM     33  O   UNL     1      17.800  24.936  41.914  1.00  0.00    -0.484 OA
ATOM     34  C   UNL     1      19.880  26.779  42.282  1.00  0.00     0.174 C 
ATOM     35  C   UNL     1      18.979  24.759  41.116  1.00  0.00     0.211 C 
ATOM     36  O   UNL     1      20.882  27.522  42.462  1.00  0.00    -0.294 OA
ATOM     37  C   UNL     1      19.682  26.121  40.943  1.00  0.00     0.131 C 
BRANCH  30  38
ATOM     38  O   UNL     1      19.937  28.168  44.862  1.00  0.00    -0.507 OA
ATOM     39  H   UNL     1      20.783  28.190  44.304  1.00  0.00     0.293 HD
ENDBRANCH  30  38
BRANCH  35  40
ATOM     40  C   UNL     1      18.639  24.099  39.786  1.00  0.00    -0.003 A 
ATOM     41  C   UNL     1      19.578  23.282  39.122  1.00  0.00     0.057 A 
ATOM     42  C   UNL     1      17.426  24.393  39.133  1.00  0.00     0.011 A 
ATOM     43  C   UNL     1      19.295  22.743  37.858  1.00  0.00     0.158 A 
ATOM     44  C   UNL     1      17.134  23.836  37.888  1.00  0.00     0.051 A 
ATOM     45  C   UNL     1      18.068  23.008  37.237  1.00  0.00     0.160 A 
BRANCH  43  46
ATOM     46  O   UNL     1      20.235  21.943  37.209  1.00  0.00    -0.504 OA
ATOM     47  H   UNL     1      20.967  22.343  36.633  1.00  0.00     0.293 HD
ENDBRANCH  43  46
BRANCH  45  48
ATOM     48  O   UNL     1      17.821  22.450  35.973  1.00  0.00    -0.493 OA
ATOM     49  C   UNL     1      16.657  22.706  35.193  1.00  0.00     0.278 C 
ENDBRANCH  45  48
ENDBRANCH  35  40
ENDBRANCH  26  27
ENDBRANCH   5  26
BRANCH   4  50
ATOM     50  O   UNL     1      15.331  23.801  48.978  1.00  0.00    -0.384 OA
ATOM     51  H   UNL     1      16.192  24.219  49.247  1.00  0.00     0.211 HD
ENDBRANCH   4  50
TORSDOF 15
ENDMDL
MODEL 4
REMARK VINA RESULT:    -7.298      2.762      6.181
REMARK INTER + INTRA:         -13.714
REMARK INTER:                 -11.606
REMARK INTRA:                  -2.107
REMARK UNBOUND:                -1.722
REMARK SMILES COc1ccc([C@H]2CC(=O)c3c(O)cc(O[C@H]4O[C@H](CO[C@@H]5O[C@@H](C)[C@@H](O)[C@@H](O)[C@H]5O)[C@@H](O)[C@@H](O)[C@@H]4O)cc3O2)cc1O
REMARK SMILES IDX 19 1 32 2 34 3 36 4 17 5 18 6 20 7 21 8 22 9 25 10 24 11
REMARK SMILES IDX 26 12 23 13 28 14 30 15 27 16 29 18 31 20 33 22 35 24 16 26
REMARK SMILES IDX 15 27 14 28 38 29 12 30 39 31 11 32 40 33 9 34 7 35 10 36
REMARK SMILES IDX 8 37 13 38 6 40 41 41 5 42 42 43 4 44 3 45 43 46 2 48 1 49
REMARK SMILES IDX 37 50
REMARK H PARENT 27 17 29 19 31 21 33 23 35 25 13 39 43 47 37 51
REMARK Flexibility Score: inf
ROOT
ATOM      1  C   UNL     1      15.856  20.255  46.611  1.00  0.00     0.180 C 
ATOM      2  C   UNL     1      15.755  18.790  47.107  1.00  0.00     0.177 C 
ATOM      3  C   UNL     1      15.332  17.870  45.943  1.00  0.00     0.180 C 
ATOM      4  C   UNL     1      16.240  18.104  44.726  1.00  0.00     0.214 C 
ATOM      5  C   UNL     1      16.336  19.602  44.397  1.00  0.00     0.339 C 
ATOM      6  O   UNL     1      16.761  20.358  45.521  1.00  0.00    -0.332 OA
ENDROOT
BRANCH   1   7
ATOM      7  C   UNL     1      16.366  21.195  47.713  1.00  0.00     0.198 C 
BRANCH   7   8
ATOM      8  O   UNL     1      16.626  22.485  47.185  1.00  0.00    -0.347 OA
BRANCH   8   9
ATOM      9  C   UNL     1      15.425  23.116  46.768  1.00  0.00     0.281 C 
ATOM     10  C   UNL     1      16.702  26.476  45.934  1.00  0.00     0.041 C 
ATOM     11  C   UNL     1      16.326  25.293  46.829  1.00  0.00     0.150 C 
ATOM     12  C   UNL     1      15.432  25.739  48.002  1.00  0.00     0.174 C 
ATOM     13  O   UNL     1      15.670  24.317  46.034  1.00  0.00    -0.344 OA
ATOM     14  C   UNL     1      15.089  24.507  48.861  1.00  0.00     0.179 C 
ATOM     15  C   UNL     1      14.514  23.373  47.984  1.00  0.00     0.202 C 
BRANCH  12  16
ATOM     16  O   UNL     1      14.247  26.332  47.529  1.00  0.00    -0.388 OA
ATOM     17  H   UNL     1      13.519  25.672  47.662  1.00  0.00     0.211 HD
ENDBRANCH  12  16
BRANCH  14  18
ATOM     18  O   UNL     1      14.175  24.838  49.875  1.00  0.00    -0.387 OA
ATOM     19  H   UNL     1      14.683  25.316  50.581  1.00  0.00     0.211 HD
ENDBRANCH  14  18
BRANCH  15  20
ATOM     20  O   UNL     1      13.226  23.703  47.525  1.00  0.00    -0.385 OA
ATOM     21  H   UNL     1      12.679  22.875  47.572  1.00  0.00     0.211 HD
ENDBRANCH  15  20
ENDBRANCH   8   9
ENDBRANCH   7   8
ENDBRANCH   1   7
BRANCH   2  22
ATOM     22  O   UNL     1      14.817  18.693  48.150  1.00  0.00    -0.387 OA
ATOM     23  H   UNL     1      14.994  19.454  48.764  1.00  0.00     0.211 HD
ENDBRANCH   2  22
BRANCH   3  24
ATOM     24  O   UNL     1      13.995  18.115  45.584  1.00  0.00    -0.387 OA
ATOM     25  H   UNL     1      13.840  19.093  45.680  1.00  0.00     0.211 HD
ENDBRANCH   3  24
BRANCH   5  26
ATOM     26  O   UNL     1      15.091  20.080  43.874  1.00  0.00    -0.462 OA
BRANCH  26  27
ATOM     27  C   UNL     1      14.904  21.330  43.264  1.00  0.00     0.130 A 
ATOM     28  C   UNL     1      13.652  21.760  42.794  1.00  0.00     0.093 A 
ATOM     29  C   UNL     1      16.010  22.176  43.137  1.00  0.00     0.094 A 
ATOM     30  C   UNL     1      13.511  23.013  42.180  1.00  0.00     0.133 A 
ATOM     31  C   UNL     1      15.870  23.447  42.572  1.00  0.00     0.138 A 
ATOM     32  C   UNL     1      14.631  23.861  42.055  1.00  0.00     0.102 A 
ATOM     33  O   UNL     1      16.975  24.306  42.526  1.00  0.00    -0.484 OA
ATOM     34  C   UNL     1      14.574  25.176  41.370  1.00  0.00     0.174 C 
ATOM     35  C   UNL     1      16.832  25.716  42.298  1.00  0.00     0.211 C 
ATOM     36  O   UNL     1      13.486  25.638  40.933  1.00  0.00    -0.294 OA
ATOM     37  C   UNL     1      15.847  25.943  41.133  1.00  0.00     0.131 C 
BRANCH  30  38
ATOM     38  O   UNL     1      12.262  23.407  41.703  1.00  0.00    -0.507 OA
ATOM     39  H   UNL     1      11.413  22.924  41.977  1.00  0.00     0.293 HD
ENDBRANCH  30  38
BRANCH  35  40
ATOM     40  C   UNL     1      18.188  26.367  42.059  1.00  0.00    -0.003 A 
ATOM     41  C   UNL     1      18.645  26.631  40.752  1.00  0.00     0.057 A 
ATOM     42  C   UNL     1      19.065  26.604  43.136  1.00  0.00     0.011 A 
ATOM     43  C   UNL     1      19.927  27.154  40.530  1.00  0.00     0.158 A 
ATOM     44  C   UNL     1      20.331  27.148  42.918  1.00  0.00     0.051 A 
ATOM     45  C   UNL     1      20.775  27.425  41.611  1.00  0.00     0.160 A 
BRANCH  43  46
ATOM     46  O   UNL     1      20.370  27.402  39.231  1.00  0.00    -0.504 OA
ATOM     47  H   UNL     1      20.018  28.184  38.689  1.00  0.00     0.293 HD
ENDBRANCH  43  46
BRANCH  45  48
ATOM     48  O   UNL     1      22.051  27.948  41.350  1.00  0.00    -0.493 OA
ATOM     49  C   UNL     1      22.375  29.335  41.382  1.00  0.00     0.278 C 
ENDBRANCH  45  48
ENDBRANCH  35  40
ENDBRANCH  26  27
ENDBRANCH   5  26
BRANCH   4  50
ATOM     50  O   UNL     1      17.530  17.604  44.984  1.00  0.00    -0.384 OA
ATOM     51  H   UNL     1      17.822  18.013  45.843  1.00  0.00     0.211 HD
ENDBRANCH   4  50
TORSDOF 15
ENDMDL
MODEL 5
REMARK VINA RESULT:    -7.103      3.975      7.129
REMARK INTER + INTRA:         -13.392
REMARK INTER:                 -12.189
REMARK INTRA:                  -1.202
REMARK UNBOUND:                -1.722
REMARK SMILES COc1ccc([C@H]2CC(=O)c3c(O)cc(O[C@H]4O[C@H](CO[C@@H]5O[C@@H](C)[C@@H](O)[C@@H](O)[C@H]5O)[C@@H](O)[C@@H](O)[C@@H]4O)cc3O2)cc1O
REMARK SMILES IDX 19 1 32 2 34 3 36 4 17 5 18 6 20 7 21 8 22 9 25 10 24 11
REMARK SMILES IDX 26 12 23 13 28 14 30 15 27 16 29 18 31 20 33 22 35 24 16 26
REMARK SMILES IDX 15 27 14 28 38 29 12 30 39 31 11 32 40 33 9 34 7 35 10 36
REMARK SMILES IDX 8 37 13 38 6 40 41 41 5 42 42 43 4 44 3 45 43 46 2 48 1 49
REMARK SMILES IDX 37 50
REMARK H PARENT 27 17 29 19 31 21 33 23 35 25 13 39 43 47 37 51
REMARK Flexibility Score: inf
ROOT
ATOM      1  C   UNL     1      14.197  27.234  50.711  1.00  0.00     0.180 C 
ATOM      2  C   UNL     1      13.864  28.395  49.739  1.00  0.00     0.177 C 
ATOM      3  C   UNL     1      14.044  27.925  48.281  1.00  0.00     0.180 C 
ATOM      4  C   UNL     1      13.277  26.615  48.047  1.00  0.00     0.214 C 
ATOM      5  C   UNL     1      13.619  25.582  49.132  1.00  0.00     0.339 C 
ATOM      6  O   UNL     1      13.392  26.097  50.435  1.00  0.00    -0.332 OA
ENDROOT
BRANCH   1   7
ATOM      7  C   UNL     1      13.940  27.626  52.174  1.00  0.00     0.198 C 
BRANCH   7   8
ATOM      8  O   UNL     1      15.128  27.502  52.937  1.00  0.00    -0.347 OA
BRANCH   8   9
ATOM      9  C   UNL     1      16.211  28.167  52.305  1.00  0.00     0.281 C 
ATOM     10  C   UNL     1      19.058  26.585  54.039  1.00  0.00     0.041 C 
ATOM     11  C   UNL     1      17.813  27.461  53.883  1.00  0.00     0.150 C 
ATOM     12  C   UNL     1      18.055  28.883  54.425  1.00  0.00     0.174 C 
ATOM     13  O   UNL     1      17.455  27.496  52.510  1.00  0.00    -0.344 OA
ATOM     14  C   UNL     1      16.769  29.710  54.239  1.00  0.00     0.179 C 
ATOM     15  C   UNL     1      16.278  29.633  52.776  1.00  0.00     0.202 C 
BRANCH  12  16
ATOM     16  O   UNL     1      19.120  29.501  53.744  1.00  0.00    -0.388 OA
ATOM     17  H   UNL     1      18.926  29.429  52.774  1.00  0.00     0.211 HD
ENDBRANCH  12  16
BRANCH  14  18
ATOM     18  O   UNL     1      16.975  31.051  54.604  1.00  0.00    -0.387 OA
ATOM     19  H   UNL     1      17.446  31.046  55.478  1.00  0.00     0.211 HD
ENDBRANCH  14  18
BRANCH  15  20
ATOM     20  O   UNL     1      17.139  30.347  51.923  1.00  0.00    -0.385 OA
ATOM     21  H   UNL     1      17.037  31.309  52.145  1.00  0.00     0.211 HD
ENDBRANCH  15  20
ENDBRANCH   8   9
ENDBRANCH   7   8
ENDBRANCH   1   7
BRANCH   2  22
ATOM     22  O   UNL     1      14.704  29.495  49.988  1.00  0.00    -0.387 OA
ATOM     23  H   UNL     1      14.731  29.614  50.974  1.00  0.00     0.211 HD
ENDBRANCH   2  22
BRANCH   3  24
ATOM     24  O   UNL     1      15.406  27.729  47.993  1.00  0.00    -0.387 OA
ATOM     25  H   UNL     1      15.876  28.578  48.208  1.00  0.00     0.211 HD
ENDBRANCH   3  24
BRANCH   5  26
ATOM     26  O   UNL     1      14.963  25.115  48.971  1.00  0.00    -0.462 OA
BRANCH  26  27
ATOM     27  C   UNL     1      15.378  24.178  48.013  1.00  0.00     0.130 A 
ATOM     28  C   UNL     1      15.185  22.795  48.176  1.00  0.00     0.093 A 
ATOM     29  C   UNL     1      15.995  24.649  46.850  1.00  0.00     0.094 A 
ATOM     30  C   UNL     1      15.625  21.891  47.198  1.00  0.00     0.133 A 
ATOM     31  C   UNL     1      16.393  23.761  45.847  1.00  0.00     0.138 A 
ATOM     32  C   UNL     1      16.247  22.375  46.029  1.00  0.00     0.102 A 
ATOM     33  O   UNL     1      16.937  24.262  44.658  1.00  0.00    -0.484 OA
ATOM     34  C   UNL     1      16.788  21.481  44.975  1.00  0.00     0.174 C 
ATOM     35  C   UNL     1      17.033  23.463  43.470  1.00  0.00     0.211 C 
ATOM     36  O   UNL     1      16.642  20.230  45.042  1.00  0.00    -0.294 OA
ATOM     37  C   UNL     1      17.583  22.069  43.841  1.00  0.00     0.131 C 
BRANCH  30  38
ATOM     38  O   UNL     1      15.439  20.525  47.394  1.00  0.00    -0.507 OA
ATOM     39  H   UNL     1      14.854  19.975  46.776  1.00  0.00     0.293 HD
ENDBRANCH  30  38
BRANCH  35  40
ATOM     40  C   UNL     1      17.872  24.164  42.410  1.00  0.00    -0.003 A 
ATOM     41  C   UNL     1      18.101  25.555  42.470  1.00  0.00     0.057 A 
ATOM     42  C   UNL     1      18.331  23.458  41.282  1.00  0.00     0.011 A 
ATOM     43  C   UNL     1      18.803  26.213  41.450  1.00  0.00     0.158 A 
ATOM     44  C   UNL     1      19.052  24.107  40.279  1.00  0.00     0.051 A 
ATOM     45  C   UNL     1      19.292  25.492  40.352  1.00  0.00     0.160 A 
BRANCH  43  46
ATOM     46  O   UNL     1      19.015  27.589  41.517  1.00  0.00    -0.504 OA
ATOM     47  H   UNL     1      19.112  28.071  42.404  1.00  0.00     0.293 HD
ENDBRANCH  43  46
BRANCH  45  48
ATOM     48  O   UNL     1      19.990  26.185  39.351  1.00  0.00    -0.493 OA
ATOM     49  C   UNL     1      19.423  26.594  38.109  1.00  0.00     0.278 C 
ENDBRANCH  45  48
ENDBRANCH  35  40
ENDBRANCH  26  27
ENDBRANCH   5  26
BRANCH   4  50
ATOM     50  O   UNL     1      11.891  26.859  48.062  1.00  0.00    -0.384 OA
ATOM     51  H   UNL     1      11.780  27.847  48.042  1.00  0.00     0.211 HD
ENDBRANCH   4  50
TORSDOF 15
ENDMDL
MODEL 6
REMARK VINA RESULT:    -7.076      4.411      7.580
REMARK INTER + INTRA:         -13.348
REMARK INTER:                 -11.459
REMARK INTRA:                  -1.889
REMARK UNBOUND:                -1.722
REMARK SMILES COc1ccc([C@H]2CC(=O)c3c(O)cc(O[C@H]4O[C@H](CO[C@@H]5O[C@@H](C)[C@@H](O)[C@@H](O)[C@H]5O)[C@@H](O)[C@@H](O)[C@@H]4O)cc3O2)cc1O
REMARK SMILES IDX 19 1 32 2 34 3 36 4 17 5 18 6 20 7 21 8 22 9 25 10 24 11
REMARK SMILES IDX 26 12 23 13 28 14 30 15 27 16 29 18 31 20 33 22 35 24 16 26
REMARK SMILES IDX 15 27 14 28 38 29 12 30 39 31 11 32 40 33 9 34 7 35 10 36
REMARK SMILES IDX 8 37 13 38 6 40 41 41 5 42 42 43 4 44 3 45 43 46 2 48 1 49
REMARK SMILES IDX 37 50
REMARK H PARENT 27 17 29 19 31 21 33 23 35 25 13 39 43 47 37 51
REMARK Flexibility Score: inf
ROOT
ATOM      1  C   UNL     1      16.978  27.821  53.221  1.00  0.00     0.180 C 
ATOM      2  C   UNL     1      17.662  29.016  53.933  1.00  0.00     0.177 C 
ATOM      3  C   UNL     1      16.997  30.337  53.497  1.00  0.00     0.180 C 
ATOM      4  C   UNL     1      15.472  30.244  53.661  1.00  0.00     0.214 C 
ATOM      5  C   UNL     1      14.930  28.968  52.998  1.00  0.00     0.339 C 
ATOM      6  O   UNL     1      15.583  27.806  53.487  1.00  0.00    -0.332 OA
ENDROOT
BRANCH   1   7
ATOM      7  C   UNL     1      17.544  26.475  53.696  1.00  0.00     0.198 C 
BRANCH   7   8
ATOM      8  O   UNL     1      16.864  25.401  53.068  1.00  0.00    -0.347 OA
BRANCH   8   9
ATOM      9  C   UNL     1      16.098  24.665  54.009  1.00  0.00     0.281 C 
ATOM     10  C   UNL     1      17.918  21.455  53.975  1.00  0.00     0.041 C 
ATOM     11  C   UNL     1      17.038  22.583  53.430  1.00  0.00     0.150 C 
ATOM     12  C   UNL     1      15.721  22.035  52.848  1.00  0.00     0.174 C 
ATOM     13  O   UNL     1      16.784  23.504  54.479  1.00  0.00    -0.344 OA
ATOM     14  C   UNL     1      14.883  23.215  52.319  1.00  0.00     0.179 C 
ATOM     15  C   UNL     1      14.726  24.303  53.406  1.00  0.00     0.202 C 
BRANCH  12  16
ATOM     16  O   UNL     1      14.993  21.339  53.831  1.00  0.00    -0.388 OA
ATOM     17  H   UNL     1      14.852  20.418  53.491  1.00  0.00     0.211 HD
ENDBRANCH  12  16
BRANCH  14  18
ATOM     18  O   UNL     1      13.617  22.783  51.890  1.00  0.00    -0.387 OA
ATOM     19  H   UNL     1      13.272  23.471  51.263  1.00  0.00     0.211 HD
ENDBRANCH  14  18
BRANCH  15  20
ATOM     20  O   UNL     1      13.879  23.859  54.437  1.00  0.00    -0.385 OA
ATOM     21  H   UNL     1      13.377  24.652  54.762  1.00  0.00     0.211 HD
ENDBRANCH  15  20
ENDBRANCH   8   9
ENDBRANCH   7   8
ENDBRANCH   1   7
BRANCH   2  22
ATOM     22  O   UNL     1      19.032  29.050  53.618  1.00  0.00    -0.387 OA
ATOM     23  H   UNL     1      19.523  28.870  54.464  1.00  0.00     0.211 HD
ENDBRANCH   2  22
BRANCH   3  24
ATOM     24  O   UNL     1      17.307  30.623  52.155  1.00  0.00    -0.387 OA
ATOM     25  H   UNL     1      17.094  31.583  52.004  1.00  0.00     0.211 HD
ENDBRANCH   3  24
BRANCH   5  26
ATOM     26  O   UNL     1      15.020  29.069  51.572  1.00  0.00    -0.462 OA
BRANCH  26  27
ATOM     27  C   UNL     1      14.826  28.004  50.679  1.00  0.00     0.130 A 
ATOM     28  C   UNL     1      13.874  26.994  50.903  1.00  0.00     0.093 A 
ATOM     29  C   UNL     1      15.607  27.963  49.519  1.00  0.00     0.094 A 
ATOM     30  C   UNL     1      13.720  25.941  49.990  1.00  0.00     0.133 A 
ATOM     31  C   UNL     1      15.426  26.945  48.579  1.00  0.00     0.138 A 
ATOM     32  C   UNL     1      14.511  25.907  48.823  1.00  0.00     0.102 A 
ATOM     33  O   UNL     1      16.165  26.968  47.389  1.00  0.00    -0.484 OA
ATOM     34  C   UNL     1      14.446  24.799  47.837  1.00  0.00     0.174 C 
ATOM     35  C   UNL     1      15.789  26.184  46.247  1.00  0.00     0.211 C 
ATOM     36  O   UNL     1      13.610  23.864  47.961  1.00  0.00    -0.294 OA
ATOM     37  C   UNL     1      15.439  24.753  46.708  1.00  0.00     0.131 C 
BRANCH  30  38
ATOM     38  O   UNL     1      12.784  24.942  50.246  1.00  0.00    -0.507 OA
ATOM     39  H   UNL     1      13.017  24.126  50.800  1.00  0.00     0.293 HD
ENDBRANCH  30  38
BRANCH  35  40
ATOM     40  C   UNL     1      16.883  26.210  45.187  1.00  0.00    -0.003 A 
ATOM     41  C   UNL     1      18.016  27.037  45.335  1.00  0.00     0.057 A 
ATOM     42  C   UNL     1      16.723  25.503  43.980  1.00  0.00     0.011 A 
ATOM     43  C   UNL     1      18.981  27.123  44.321  1.00  0.00     0.158 A 
ATOM     44  C   UNL     1      17.695  25.568  42.981  1.00  0.00     0.051 A 
ATOM     45  C   UNL     1      18.832  26.382  43.141  1.00  0.00     0.160 A 
BRANCH  43  46
ATOM     46  O   UNL     1      20.092  27.951  44.476  1.00  0.00    -0.504 OA
ATOM     47  H   UNL     1      20.945  27.621  44.915  1.00  0.00     0.293 HD
ENDBRANCH  43  46
BRANCH  45  48
ATOM     48  O   UNL     1      19.818  26.494  42.150  1.00  0.00    -0.493 OA
ATOM     49  C   UNL     1      19.659  27.218  40.933  1.00  0.00     0.278 C 
ENDBRANCH  45  48
ENDBRANCH  35  40
ENDBRANCH  26  27
ENDBRANCH   5  26
BRANCH   4  50
ATOM     50  O   UNL     1      15.136  30.233  55.028  1.00  0.00    -0.384 OA
ATOM     51  H   UNL     1      15.943  30.544  55.518  1.00  0.00     0.211 HD
ENDBRANCH   4  50
TORSDOF 15
ENDMDL
MODEL 7
REMARK VINA RESULT:    -6.998      2.734      8.245
REMARK INTER + INTRA:         -13.221
REMARK INTER:                 -10.275
REMARK INTRA:                  -2.946
REMARK UNBOUND:                -1.722
REMARK SMILES COc1ccc([C@H]2CC(=O)c3c(O)cc(O[C@H]4O[C@H](CO[C@@H]5O[C@@H](C)[C@@H](O)[C@@H](O)[C@H]5O)[C@@H](O)[C@@H](O)[C@@H]4O)cc3O2)cc1O
REMARK SMILES IDX 19 1 32 2 34 3 36 4 17 5 18 6 20 7 21 8 22 9 25 10 24 11
REMARK SMILES IDX 26 12 23 13 28 14 30 15 27 16 29 18 31 20 33 22 35 24 16 26
REMARK SMILES IDX 15 27 14 28 38 29 12 30 39 31 11 32 40 33 9 34 7 35 10 36
REMARK SMILES IDX 8 37 13 38 6 40 41 41 5 42 42 43 4 44 3 45 43 46 2 48 1 49
REMARK SMILES IDX 37 50
REMARK H PARENT 27 17 29 19 31 21 33 23 35 25 13 39 43 47 37 51
REMARK Flexibility Score: inf
ROOT
ATOM      1  C   UNL     1      17.366  23.962  43.093  1.00  0.00     0.180 C 
ATOM      2  C   UNL     1      17.448  24.566  41.668  1.00  0.00     0.177 C 
ATOM      3  C   UNL     1      17.024  26.048  41.701  1.00  0.00     0.180 C 
ATOM      4  C   UNL     1      17.804  26.798  42.792  1.00  0.00     0.214 C 
ATOM      5  C   UNL     1      17.727  26.047  44.130  1.00  0.00     0.339 C 
ATOM      6  O   UNL     1      18.166  24.703  44.002  1.00  0.00    -0.332 OA
ENDROOT
BRANCH   1   7
ATOM      7  C   UNL     1      17.870  22.511  43.125  1.00  0.00     0.198 C 
BRANCH   7   8
ATOM      8  O   UNL     1      16.779  21.607  43.174  1.00  0.00    -0.347 OA
BRANCH   8   9
ATOM      9  C   UNL     1      16.299  21.460  44.502  1.00  0.00     0.281 C 
ATOM     10  C   UNL     1      17.164  17.927  45.125  1.00  0.00     0.041 C 
ATOM     11  C   UNL     1      16.426  19.106  44.487  1.00  0.00     0.150 C 
ATOM     12  C   UNL     1      14.898  18.922  44.566  1.00  0.00     0.174 C 
ATOM     13  O   UNL     1      16.828  20.298  45.143  1.00  0.00    -0.344 OA
ATOM     14  C   UNL     1      14.217  20.138  43.910  1.00  0.00     0.179 C 
ATOM     15  C   UNL     1      14.758  21.456  44.509  1.00  0.00     0.202 C 
BRANCH  12  16
ATOM     16  O   UNL     1      14.479  18.808  45.905  1.00  0.00    -0.388 OA
ATOM     17  H   UNL     1      13.993  19.643  46.129  1.00  0.00     0.211 HD
ENDBRANCH  12  16
BRANCH  14  18
ATOM     18  O   UNL     1      12.822  20.080  44.066  1.00  0.00    -0.387 OA
ATOM     19  H   UNL     1      12.548  19.144  43.880  1.00  0.00     0.211 HD
ENDBRANCH  14  18
BRANCH  15  20
ATOM     20  O   UNL     1      14.309  21.623  45.832  1.00  0.00    -0.385 OA
ATOM     21  H   UNL     1      14.743  20.915  46.378  1.00  0.00     0.211 HD
ENDBRANCH  15  20
ENDBRANCH   8   9
ENDBRANCH   7   8
ENDBRANCH   1   7
BRANCH   2  22
ATOM     22  O   UNL     1      16.611  23.855  40.789  1.00  0.00    -0.387 OA
ATOM     23  H   UNL     1      15.943  23.381  41.352  1.00  0.00     0.211 HD
ENDBRANCH   2  22
BRANCH   3  24
ATOM     24  O   UNL     1      15.645  26.159  41.951  1.00  0.00    -0.387 OA
ATOM     25  H   UNL     1      15.410  27.122  41.876  1.00  0.00     0.211 HD
ENDBRANCH   3  24
BRANCH   5  26
ATOM     26  O   UNL     1      16.404  26.125  44.673  1.00  0.00    -0.462 OA
BRANCH  26  27
ATOM     27  C   UNL     1      16.080  25.943  46.026  1.00  0.00     0.130 A 
ATOM     28  C   UNL     1      15.919  27.019  46.916  1.00  0.00     0.093 A 
ATOM     29  C   UNL     1      15.901  24.637  46.493  1.00  0.00     0.094 A 
ATOM     30  C   UNL     1      15.606  26.791  48.264  1.00  0.00     0.133 A 
ATOM     31  C   UNL     1      15.540  24.402  47.823  1.00  0.00     0.138 A 
ATOM     32  C   UNL     1      15.427  25.472  48.727  1.00  0.00     0.102 A 
ATOM     33  O   UNL     1      15.289  23.091  48.247  1.00  0.00    -0.484 OA
ATOM     34  C   UNL     1      15.149  25.146  50.148  1.00  0.00     0.174 C 
ATOM     35  C   UNL     1      14.584  22.808  49.465  1.00  0.00     0.211 C 
ATOM     36  O   UNL     1      14.977  26.056  51.004  1.00  0.00    -0.294 OA
ATOM     37  C   UNL     1      15.136  23.708  50.590  1.00  0.00     0.131 C 
BRANCH  30  38
ATOM     38  O   UNL     1      15.472  27.875  49.129  1.00  0.00    -0.507 OA
ATOM     39  H   UNL     1      15.778  27.824  50.095  1.00  0.00     0.293 HD
ENDBRANCH  30  38
BRANCH  35  40
ATOM     40  C   UNL     1      14.661  21.326  49.805  1.00  0.00    -0.003 A 
ATOM     41  C   UNL     1      15.369  20.429  48.979  1.00  0.00     0.057 A 
ATOM     42  C   UNL     1      13.921  20.803  50.884  1.00  0.00     0.011 A 
ATOM     43  C   UNL     1      15.369  19.052  49.247  1.00  0.00     0.158 A 
ATOM     44  C   UNL     1      13.942  19.437  51.166  1.00  0.00     0.051 A 
ATOM     45  C   UNL     1      14.663  18.548  50.348  1.00  0.00     0.160 A 
BRANCH  43  46
ATOM     46  O   UNL     1      16.066  18.174  48.418  1.00  0.00    -0.504 OA
ATOM     47  H   UNL     1      15.751  17.222  48.266  1.00  0.00     0.293 HD
ENDBRANCH  43  46
BRANCH  45  48
ATOM     48  O   UNL     1      14.688  17.165  50.585  1.00  0.00    -0.493 OA
ATOM     49  C   UNL     1      13.531  16.367  50.818  1.00  0.00     0.278 C 
ENDBRANCH  45  48
ENDBRANCH  35  40
ENDBRANCH  26  27
ENDBRANCH   5  26
BRANCH   4  50
ATOM     50  O   UNL     1      19.153  26.932  42.414  1.00  0.00    -0.384 OA
ATOM     51  H   UNL     1      19.225  26.558  41.495  1.00  0.00     0.211 HD
ENDBRANCH   4  50
TORSDOF 15
ENDMDL
MODEL 8
REMARK VINA RESULT:    -6.998      2.595      5.815
REMARK INTER + INTRA:         -13.220
REMARK INTER:                 -11.505
REMARK INTRA:                  -1.715
REMARK UNBOUND:                -1.722
REMARK SMILES COc1ccc([C@H]2CC(=O)c3c(O)cc(O[C@H]4O[C@H](CO[C@@H]5O[C@@H](C)[C@@H](O)[C@@H](O)[C@H]5O)[C@@H](O)[C@@H](O)[C@@H]4O)cc3O2)cc1O
REMARK SMILES IDX 19 1 32 2 34 3 36 4 17 5 18 6 20 7 21 8 22 9 25 10 24 11
REMARK SMILES IDX 26 12 23 13 28 14 30 15 27 16 29 18 31 20 33 22 35 24 16 26
REMARK SMILES IDX 15 27 14 28 38 29 12 30 39 31 11 32 40 33 9 34 7 35 10 36
REMARK SMILES IDX 8 37 13 38 6 40 41 41 5 42 42 43 4 44 3 45 43 46 2 48 1 49
REMARK SMILES IDX 37 50
REMARK H PARENT 27 17 29 19 31 21 33 23 35 25 13 39 43 47 37 51
REMARK Flexibility Score: inf
ROOT
ATOM      1  C   UNL     1      14.113  18.783  49.340  1.00  0.00     0.180 C 
ATOM      2  C   UNL     1      14.510  18.016  50.626  1.00  0.00     0.177 C 
ATOM      3  C   UNL     1      15.182  18.979  51.626  1.00  0.00     0.180 C 
ATOM      4  C   UNL     1      14.307  20.225  51.832  1.00  0.00     0.214 C 
ATOM      5  C   UNL     1      13.899  20.834  50.482  1.00  0.00     0.339 C 
ATOM      6  O   UNL     1      13.263  19.878  49.647  1.00  0.00    -0.332 OA
ENDROOT
BRANCH   1   7
ATOM      7  C   UNL     1      13.354  17.884  48.353  1.00  0.00     0.198 C 
BRANCH   7   8
ATOM      8  O   UNL     1      13.931  17.969  47.060  1.00  0.00    -0.347 OA
BRANCH   8   9
ATOM      9  C   UNL     1      14.779  19.102  46.955  1.00  0.00     0.281 C 
ATOM     10  C   UNL     1      13.663  20.459  43.710  1.00  0.00     0.041 C 
ATOM     11  C   UNL     1      14.321  19.467  44.672  1.00  0.00     0.150 C 
ATOM     12  C   UNL     1      15.753  19.118  44.224  1.00  0.00     0.174 C 
ATOM     13  O   UNL     1      14.320  20.033  45.973  1.00  0.00    -0.344 OA
ATOM     14  C   UNL     1      16.358  18.120  45.230  1.00  0.00     0.179 C 
ATOM     15  C   UNL     1      16.227  18.655  46.674  1.00  0.00     0.202 C 
BRANCH  12  16
ATOM     16  O   UNL     1      16.553  20.275  44.164  1.00  0.00    -0.388 OA
ATOM     17  H   UNL     1      15.992  20.996  43.778  1.00  0.00     0.211 HD
ENDBRANCH  12  16
BRANCH  14  18
ATOM     18  O   UNL     1      17.708  17.864  44.937  1.00  0.00    -0.387 OA
ATOM     19  H   UNL     1      18.079  17.349  45.700  1.00  0.00     0.211 HD
ENDBRANCH  14  18
BRANCH  15  20
ATOM     20  O   UNL     1      17.088  19.747  46.882  1.00  0.00    -0.385 OA
ATOM     21  H   UNL     1      17.977  19.489  46.520  1.00  0.00     0.211 HD
ENDBRANCH  15  20
ENDBRANCH   8   9
ENDBRANCH   7   8
ENDBRANCH   1   7
BRANCH   2  22
ATOM     22  O   UNL     1      15.394  16.967  50.315  1.00  0.00    -0.387 OA
ATOM     23  H   UNL     1      16.297  17.258  50.610  1.00  0.00     0.211 HD
ENDBRANCH   2  22
BRANCH   3  24
ATOM     24  O   UNL     1      16.449  19.370  51.156  1.00  0.00    -0.387 OA
ATOM     25  H   UNL     1      17.121  19.020  51.800  1.00  0.00     0.211 HD
ENDBRANCH   3  24
BRANCH   5  26
ATOM     26  O   UNL     1      15.031  21.431  49.840  1.00  0.00    -0.462 OA
BRANCH  26  27
ATOM     27  C   UNL     1      15.129  22.784  49.481  1.00  0.00     0.130 A 
ATOM     28  C   UNL     1      14.654  23.820  50.304  1.00  0.00     0.093 A 
ATOM     29  C   UNL     1      15.735  23.102  48.261  1.00  0.00     0.094 A 
ATOM     30  C   UNL     1      14.761  25.159  49.901  1.00  0.00     0.133 A 
ATOM     31  C   UNL     1      15.891  24.436  47.874  1.00  0.00     0.138 A 
ATOM     32  C   UNL     1      15.373  25.472  48.670  1.00  0.00     0.102 A 
ATOM     33  O   UNL     1      16.570  24.733  46.685  1.00  0.00    -0.484 OA
ATOM     34  C   UNL     1      15.475  26.858  48.149  1.00  0.00     0.174 C 
ATOM     35  C   UNL     1      17.074  26.047  46.407  1.00  0.00     0.211 C 
ATOM     36  O   UNL     1      15.085  27.842  48.834  1.00  0.00    -0.294 OA
ATOM     37  C   UNL     1      15.991  27.090  46.755  1.00  0.00     0.131 C 
BRANCH  30  38
ATOM     38  O   UNL     1      14.264  26.165  50.726  1.00  0.00    -0.507 OA
ATOM     39  H   UNL     1      14.679  27.090  50.745  1.00  0.00     0.293 HD
ENDBRANCH  30  38
BRANCH  35  40
ATOM     40  C   UNL     1      17.550  26.152  44.964  1.00  0.00    -0.003 A 
ATOM     41  C   UNL     1      18.810  26.704  44.654  1.00  0.00     0.057 A 
ATOM     42  C   UNL     1      16.688  25.814  43.902  1.00  0.00     0.011 A 
ATOM     43  C   UNL     1      19.212  26.876  43.321  1.00  0.00     0.158 A 
ATOM     44  C   UNL     1      17.097  25.961  42.577  1.00  0.00     0.051 A 
ATOM     45  C   UNL     1      18.362  26.497  42.274  1.00  0.00     0.160 A 
BRANCH  43  46
ATOM     46  O   UNL     1      20.458  27.430  43.029  1.00  0.00    -0.504 OA
ATOM     47  H   UNL     1      20.644  27.884  42.141  1.00  0.00     0.293 HD
ENDBRANCH  43  46
BRANCH  45  48
ATOM     48  O   UNL     1      18.800  26.684  40.954  1.00  0.00    -0.493 OA
ATOM     49  C   UNL     1      19.173  25.630  40.072  1.00  0.00     0.278 C 
ENDBRANCH  45  48
ENDBRANCH  35  40
ENDBRANCH  26  27
ENDBRANCH   5  26
BRANCH   4  50
ATOM     50  O   UNL     1      13.147  19.883  52.554  1.00  0.00    -0.384 OA
ATOM     51  H   UNL     1      13.442  19.691  53.484  1.00  0.00     0.211 HD
ENDBRANCH   4  50
TORSDOF 15
ENDMDL
MODEL 9
REMARK VINA RESULT:    -6.920      2.749      6.032
REMARK INTER + INTRA:         -13.092
REMARK INTER:                 -10.764
REMARK INTRA:                  -2.328
REMARK UNBOUND:                -1.722
REMARK SMILES COc1ccc([C@H]2CC(=O)c3c(O)cc(O[C@H]4O[C@H](CO[C@@H]5O[C@@H](C)[C@@H](O)[C@@H](O)[C@H]5O)[C@@H](O)[C@@H](O)[C@@H]4O)cc3O2)cc1O
REMARK SMILES IDX 19 1 32 2 34 3 36 4 17 5 18 6 20 7 21 8 22 9 25 10 24 11
REMARK SMILES IDX 26 12 23 13 28 14 30 15 27 16 29 18 31 20 33 22 35 24 16 26
REMARK SMILES IDX 15 27 14 28 38 29 12 30 39 31 11 32 40 33 9 34 7 35 10 36
REMARK SMILES IDX 8 37 13 38 6 40 41 41 5 42 42 43 4 44 3 45 43 46 2 48 1 49
REMARK SMILES IDX 37 50
REMARK H PARENT 27 17 29 19 31 21 33 23 35 25 13 39 43 47 37 51
REMARK Flexibility Score: inf
ROOT
ATOM      1  C   UNL     1      13.690  19.738  46.305  1.00  0.00     0.180 C 
ATOM      2  C   UNL     1      13.834  18.262  46.756  1.00  0.00     0.177 C 
ATOM      3  C   UNL     1      14.678  18.187  48.044  1.00  0.00     0.180 C 
ATOM      4  C   UNL     1      14.127  19.159  49.098  1.00  0.00     0.214 C 
ATOM      5  C   UNL     1      13.937  20.561  48.500  1.00  0.00     0.339 C 
ATOM      6  O   UNL     1      13.122  20.529  47.338  1.00  0.00    -0.332 OA
ENDROOT
BRANCH   1   7
ATOM      7  C   UNL     1      12.777  19.872  45.078  1.00  0.00     0.198 C 
BRANCH   7   8
ATOM      8  O   UNL     1      12.823  21.193  44.565  1.00  0.00    -0.347 OA
BRANCH   8   9
ATOM      9  C   UNL     1      13.231  21.197  43.206  1.00  0.00     0.281 C 
ATOM     10  C   UNL     1      16.893  21.378  43.616  1.00  0.00     0.041 C 
ATOM     11  C   UNL     1      15.443  21.862  43.674  1.00  0.00     0.150 C 
ATOM     12  C   UNL     1      15.282  23.235  42.993  1.00  0.00     0.174 C 
ATOM     13  O   UNL     1      14.617  20.888  43.053  1.00  0.00    -0.344 OA
ATOM     14  C   UNL     1      13.805  23.664  43.085  1.00  0.00     0.179 C 
ATOM     15  C   UNL     1      12.879  22.548  42.552  1.00  0.00     0.202 C 
BRANCH  12  16
ATOM     16  O   UNL     1      15.675  23.171  41.643  1.00  0.00    -0.388 OA
ATOM     17  H   UNL     1      15.356  24.003  41.208  1.00  0.00     0.211 HD
ENDBRANCH  12  16
BRANCH  14  18
ATOM     18  O   UNL     1      13.580  24.853  42.370  1.00  0.00    -0.387 OA
ATOM     19  H   UNL     1      13.632  24.626  41.405  1.00  0.00     0.211 HD
ENDBRANCH  14  18
BRANCH  15  20
ATOM     20  O   UNL     1      12.999  22.423  41.157  1.00  0.00    -0.385 OA
ATOM     21  H   UNL     1      13.795  22.953  40.885  1.00  0.00     0.211 HD
ENDBRANCH  15  20
ENDBRANCH   8   9
ENDBRANCH   7   8
ENDBRANCH   1   7
BRANCH   2  22
ATOM     22  O   UNL     1      14.446  17.501  45.745  1.00  0.00    -0.387 OA
ATOM     23  H   UNL     1      14.562  16.584  46.110  1.00  0.00     0.211 HD
ENDBRANCH   2  22
BRANCH   3  24
ATOM     24  O   UNL     1      16.021  18.505  47.770  1.00  0.00    -0.387 OA
ATOM     25  H   UNL     1      16.524  18.409  48.622  1.00  0.00     0.211 HD
ENDBRANCH   3  24
BRANCH   5  26
ATOM     26  O   UNL     1      15.208  21.171  48.242  1.00  0.00    -0.462 OA
BRANCH  26  27
ATOM     27  C   UNL     1      15.418  22.548  48.076  1.00  0.00     0.130 A 
ATOM     28  C   UNL     1      14.981  23.497  49.016  1.00  0.00     0.093 A 
ATOM     29  C   UNL     1      16.100  22.981  46.934  1.00  0.00     0.094 A 
ATOM     30  C   UNL     1      15.201  24.866  48.805  1.00  0.00     0.133 A 
ATOM     31  C   UNL     1      16.369  24.338  46.739  1.00  0.00     0.138 A 
ATOM     32  C   UNL     1      15.890  25.294  47.651  1.00  0.00     0.102 A 
ATOM     33  O   UNL     1      17.121  24.739  45.628  1.00  0.00    -0.484 OA
ATOM     34  C   UNL     1      16.114  26.726  47.330  1.00  0.00     0.174 C 
ATOM     35  C   UNL     1      17.730  26.036  45.552  1.00  0.00     0.211 C 
ATOM     36  O   UNL     1      15.763  27.636  48.129  1.00  0.00    -0.294 OA
ATOM     37  C   UNL     1      16.709  27.103  46.001  1.00  0.00     0.131 C 
BRANCH  30  38
ATOM     38  O   UNL     1      14.739  25.787  49.743  1.00  0.00    -0.507 OA
ATOM     39  H   UNL     1      15.377  26.306  50.336  1.00  0.00     0.293 HD
ENDBRANCH  30  38
BRANCH  35  40
ATOM     40  C   UNL     1      18.278  26.297  44.155  1.00  0.00    -0.003 A 
ATOM     41  C   UNL     1      19.525  26.929  43.972  1.00  0.00     0.057 A 
ATOM     42  C   UNL     1      17.492  26.025  43.018  1.00  0.00     0.011 A 
ATOM     43  C   UNL     1      19.990  27.244  42.686  1.00  0.00     0.158 A 
ATOM     44  C   UNL     1      17.965  26.314  41.738  1.00  0.00     0.051 A 
ATOM     45  C   UNL     1      19.218  26.930  41.560  1.00  0.00     0.160 A 
BRANCH  43  46
ATOM     46  O   UNL     1      21.221  27.876  42.519  1.00  0.00    -0.504 OA
ATOM     47  H   UNL     1      21.287  28.856  42.265  1.00  0.00     0.293 HD
ENDBRANCH  43  46
BRANCH  45  48
ATOM     48  O   UNL     1      19.716  27.260  40.291  1.00  0.00    -0.493 OA
ATOM     49  C   UNL     1      19.424  26.539  39.098  1.00  0.00     0.278 C 
ENDBRANCH  45  48
ENDBRANCH  35  40
ENDBRANCH  26  27
ENDBRANCH   5  26
BRANCH   4  50
ATOM     50  O   UNL     1      12.890  18.693  49.582  1.00  0.00    -0.384 OA
ATOM     51  H   UNL     1      12.321  19.497  49.718  1.00  0.00     0.211 HD
ENDBRANCH   4  50
TORSDOF 15
ENDMDL
