MODEL 1
REMARK VINA RESULT:    -3.800      0.000      0.000
REMARK INTER + INTRA:          -4.348
REMARK INTER:                  -4.244
REMARK INTRA:                  -0.103
REMARK UNBOUND:                -0.103
REMARK SMILES CCc1ccc(O)cc1O
REMARK SMILES IDX 3 1 9 2 8 3 6 4 5 5 4 6 2 7 1 8 10 9 7 11
REMARK H PARENT 10 10 7 12
REMARK Flexibility Score: inf
ROOT
ATOM      1  C   UNL     1     127.118 145.805 121.873  1.00  0.00    -0.006 A 
ATOM      2  C   UNL     1     127.535 144.488 121.591  1.00  0.00     0.122 A 
ATOM      3  C   UNL     1     127.697 144.076 120.261  1.00  0.00     0.092 A 
ATOM      4  C   UNL     1     127.460 144.967 119.210  1.00  0.00     0.119 A 
ATOM      5  C   UNL     1     127.060 146.279 119.489  1.00  0.00     0.047 A 
ATOM      6  C   UNL     1     126.894 146.697 120.811  1.00  0.00     0.011 A 
ENDROOT
BRANCH   1   7
ATOM      7  C   UNL     1     126.965 146.282 123.295  1.00  0.00     0.036 C 
ATOM      8  C   UNL     1     128.267 146.891 123.805  1.00  0.00     0.009 C 
ENDBRANCH   1   7
BRANCH   2   9
ATOM      9  O   UNL     1     127.788 143.594 122.632  1.00  0.00    -0.508 OA
ATOM     10  H   UNL     1     128.656 143.074 122.687  1.00  0.00     0.293 HD
ENDBRANCH   2   9
BRANCH   4  11
ATOM     11  O   UNL     1     127.627 144.540 117.895  1.00  0.00    -0.508 OA
ATOM     12  H   UNL     1     127.482 143.572 117.631  1.00  0.00     0.293 HD
ENDBRANCH   4  11
TORSDOF 3
ENDMDL
MODEL 2
REMARK VINA RESULT:    -3.636     14.210     15.863
REMARK INTER + INTRA:          -4.164
REMARK INTER:                  -4.078
REMARK INTRA:                  -0.086
REMARK UNBOUND:                -0.103
REMARK SMILES CCc1ccc(O)cc1O
REMARK SMILES IDX 3 1 9 2 8 3 6 4 5 5 4 6 2 7 1 8 10 9 7 11
REMARK H PARENT 10 10 7 12
REMARK Flexibility Score: inf
ROOT
ATOM      1  C   UNL     1     128.937 130.586 120.002  1.00  0.00    -0.006 A 
ATOM      2  C   UNL     1     130.181 131.064 120.462  1.00  0.00     0.122 A 
ATOM      3  C   UNL     1     131.093 130.180 121.055  1.00  0.00     0.092 A 
ATOM      4  C   UNL     1     130.782 128.822 121.184  1.00  0.00     0.119 A 
ATOM      5  C   UNL     1     129.553 128.344 120.714  1.00  0.00     0.047 A 
ATOM      6  C   UNL     1     128.638 129.219 120.123  1.00  0.00     0.011 A 
ENDROOT
BRANCH   1   7
ATOM      7  C   UNL     1     127.950 131.510 119.332  1.00  0.00     0.036 C 
ATOM      8  C   UNL     1     126.892 130.714 118.575  1.00  0.00     0.009 C 
ENDBRANCH   1   7
BRANCH   2   9
ATOM      9  O   UNL     1     130.507 132.413 120.326  1.00  0.00    -0.508 OA
ATOM     10  H   UNL     1     129.798 133.137 120.348  1.00  0.00     0.293 HD
ENDBRANCH   2   9
BRANCH   4  11
ATOM     11  O   UNL     1     131.701 127.960 121.775  1.00  0.00    -0.508 OA
ATOM     12  H   UNL     1     132.489 127.588 121.256  1.00  0.00     0.293 HD
ENDBRANCH   4  11
TORSDOF 3
ENDMDL
MODEL 3
REMARK VINA RESULT:    -3.557      1.853      3.501
REMARK INTER + INTRA:          -4.076
REMARK INTER:                  -3.970
REMARK INTRA:                  -0.106
REMARK UNBOUND:                -0.103
REMARK SMILES CCc1ccc(O)cc1O
REMARK SMILES IDX 3 1 9 2 8 3 6 4 5 5 4 6 2 7 1 8 10 9 7 11
REMARK H PARENT 10 10 7 12
REMARK Flexibility Score: inf
ROOT
ATOM      1  C   UNL     1     127.948 143.080 120.483  1.00  0.00    -0.006 A 
ATOM      2  C   UNL     1     127.664 143.865 121.619  1.00  0.00     0.122 A 
ATOM      3  C   UNL     1     127.312 145.214 121.467  1.00  0.00     0.092 A 
ATOM      4  C   UNL     1     127.228 145.784 120.193  1.00  0.00     0.119 A 
ATOM      5  C   UNL     1     127.495 145.002 119.063  1.00  0.00     0.047 A 
ATOM      6  C   UNL     1     127.848 143.658 119.206  1.00  0.00     0.011 A 
ENDROOT
BRANCH   1   7
ATOM      7  C   UNL     1     128.299 141.620 120.617  1.00  0.00     0.036 C 
ATOM      8  C   UNL     1     127.051 140.751 120.510  1.00  0.00     0.009 C 
ENDBRANCH   1   7
BRANCH   2   9
ATOM      9  O   UNL     1     127.731 143.303 122.894  1.00  0.00    -0.508 OA
ATOM     10  H   UNL     1     128.605 143.244 123.404  1.00  0.00     0.293 HD
ENDBRANCH   2   9
BRANCH   4  11
ATOM     11  O   UNL     1     126.876 147.125 120.062  1.00  0.00    -0.508 OA
ATOM     12  H   UNL     1     127.546 147.821 119.757  1.00  0.00     0.293 HD
ENDBRANCH   4  11
TORSDOF 3
ENDMDL
MODEL 4
REMARK VINA RESULT:    -3.526      2.645      4.089
REMARK INTER + INTRA:          -4.041
REMARK INTER:                  -3.956
REMARK INTRA:                  -0.086
REMARK UNBOUND:                -0.103
REMARK SMILES CCc1ccc(O)cc1O
REMARK SMILES IDX 3 1 9 2 8 3 6 4 5 5 4 6 2 7 1 8 10 9 7 11
REMARK H PARENT 10 10 7 12
REMARK Flexibility Score: inf
ROOT
ATOM      1  C   UNL     1     128.538 145.666 120.442  1.00  0.00    -0.006 A 
ATOM      2  C   UNL     1     128.373 145.677 121.842  1.00  0.00     0.122 A 
ATOM      3  C   UNL     1     129.444 146.045 122.669  1.00  0.00     0.092 A 
ATOM      4  C   UNL     1     130.673 146.414 122.114  1.00  0.00     0.119 A 
ATOM      5  C   UNL     1     130.834 146.418 120.723  1.00  0.00     0.047 A 
ATOM      6  C   UNL     1     129.773 146.051 119.892  1.00  0.00     0.011 A 
ENDROOT
BRANCH   1   7
ATOM      7  C   UNL     1     127.394 145.304 119.528  1.00  0.00     0.036 C 
ATOM      8  C   UNL     1     127.900 144.560 118.297  1.00  0.00     0.009 C 
ENDBRANCH   1   7
BRANCH   2   9
ATOM      9  O   UNL     1     127.147 145.324 122.406  1.00  0.00    -0.508 OA
ATOM     10  H   UNL     1     126.592 144.561 122.037  1.00  0.00     0.293 HD
ENDBRANCH   2   9
BRANCH   4  11
ATOM     11  O   UNL     1     131.724 146.777 122.952  1.00  0.00    -0.508 OA
ATOM     12  H   UNL     1     132.340 146.083 123.360  1.00  0.00     0.293 HD
ENDBRANCH   4  11
TORSDOF 3
ENDMDL
MODEL 5
REMARK VINA RESULT:    -3.498     16.937     17.662
REMARK INTER + INTRA:          -4.011
REMARK INTER:                  -3.913
REMARK INTRA:                  -0.097
REMARK UNBOUND:                -0.103
REMARK SMILES CCc1ccc(O)cc1O
REMARK SMILES IDX 3 1 9 2 8 3 6 4 5 5 4 6 2 7 1 8 10 9 7 11
REMARK H PARENT 10 10 7 12
REMARK Flexibility Score: inf
ROOT
ATOM      1  C   UNL     1     144.884 143.113 120.105  1.00  0.00    -0.006 A 
ATOM      2  C   UNL     1     145.239 142.994 121.464  1.00  0.00     0.122 A 
ATOM      3  C   UNL     1     144.931 144.029 122.359  1.00  0.00     0.092 A 
ATOM      4  C   UNL     1     144.263 145.175 121.914  1.00  0.00     0.119 A 
ATOM      5  C   UNL     1     143.898 145.286 120.567  1.00  0.00     0.047 A 
ATOM      6  C   UNL     1     144.202 144.261 119.669  1.00  0.00     0.011 A 
ENDROOT
BRANCH   1   7
ATOM      7  C   UNL     1     145.176 142.001 119.128  1.00  0.00     0.036 C 
ATOM      8  C   UNL     1     143.888 141.479 118.501  1.00  0.00     0.009 C 
ENDBRANCH   1   7
BRANCH   2   9
ATOM      9  O   UNL     1     145.893 141.851 121.922  1.00  0.00    -0.508 OA
ATOM     10  H   UNL     1     146.128 141.087 121.299  1.00  0.00     0.293 HD
ENDBRANCH   2   9
BRANCH   4  11
ATOM     11  O   UNL     1     143.966 146.192 122.818  1.00  0.00    -0.508 OA
ATOM     12  H   UNL     1     144.660 146.880 123.087  1.00  0.00     0.293 HD
ENDBRANCH   4  11
TORSDOF 3
ENDMDL
MODEL 6
REMARK VINA RESULT:    -3.493      5.846      6.730
REMARK INTER + INTRA:          -4.004
REMARK INTER:                  -3.903
REMARK INTRA:                  -0.101
REMARK UNBOUND:                -0.103
REMARK SMILES CCc1ccc(O)cc1O
REMARK SMILES IDX 3 1 9 2 8 3 6 4 5 5 4 6 2 7 1 8 10 9 7 11
REMARK H PARENT 10 10 7 12
REMARK Flexibility Score: inf
ROOT
ATOM      1  C   UNL     1     133.555 146.380 120.108  1.00  0.00    -0.006 A 
ATOM      2  C   UNL     1     133.798 146.695 121.460  1.00  0.00     0.122 A 
ATOM      3  C   UNL     1     132.730 146.743 122.369  1.00  0.00     0.092 A 
ATOM      4  C   UNL     1     131.426 146.468 121.944  1.00  0.00     0.119 A 
ATOM      5  C   UNL     1     131.187 146.141 120.604  1.00  0.00     0.047 A 
ATOM      6  C   UNL     1     132.245 146.092 119.693  1.00  0.00     0.011 A 
ENDROOT
BRANCH   1   7
ATOM      7  C   UNL     1     134.689 146.293 119.116  1.00  0.00     0.036 C 
ATOM      8  C   UNL     1     134.874 144.859 118.632  1.00  0.00     0.009 C 
ENDBRANCH   1   7
BRANCH   2   9
ATOM      9  O   UNL     1     135.096 146.958 121.898  1.00  0.00    -0.508 OA
ATOM     10  H   UNL     1     135.556 146.367 122.580  1.00  0.00     0.293 HD
ENDBRANCH   2   9
BRANCH   4  11
ATOM     11  O   UNL     1     130.380 146.519 122.861  1.00  0.00    -0.508 OA
ATOM     12  H   UNL     1     129.880 145.683 123.141  1.00  0.00     0.293 HD
ENDBRANCH   4  11
TORSDOF 3
ENDMDL
MODEL 7
REMARK VINA RESULT:    -3.455      1.896      2.045
REMARK INTER + INTRA:          -3.962
REMARK INTER:                  -3.877
REMARK INTRA:                  -0.085
REMARK UNBOUND:                -0.103
REMARK SMILES CCc1ccc(O)cc1O
REMARK SMILES IDX 3 1 9 2 8 3 6 4 5 5 4 6 2 7 1 8 10 9 7 11
REMARK H PARENT 10 10 7 12
REMARK Flexibility Score: inf
ROOT
ATOM      1  C   UNL     1     128.547 146.006 121.876  1.00  0.00    -0.006 A 
ATOM      2  C   UNL     1     129.565 146.012 120.901  1.00  0.00     0.122 A 
ATOM      3  C   UNL     1     129.269 145.648 119.579  1.00  0.00     0.092 A 
ATOM      4  C   UNL     1     127.966 145.290 119.218  1.00  0.00     0.119 A 
ATOM      5  C   UNL     1     126.951 145.299 120.183  1.00  0.00     0.047 A 
ATOM      6  C   UNL     1     127.238 145.658 121.501  1.00  0.00     0.011 A 
ENDROOT
BRANCH   1   7
ATOM      7  C   UNL     1     128.831 146.422 123.297  1.00  0.00     0.036 C 
ATOM      8  C   UNL     1     127.633 146.135 124.195  1.00  0.00     0.009 C 
ENDBRANCH   1   7
BRANCH   2   9
ATOM      9  O   UNL     1     130.865 146.380 121.246  1.00  0.00    -0.508 OA
ATOM     10  H   UNL     1     131.238 147.294 121.016  1.00  0.00     0.293 HD
ENDBRANCH   2   9
BRANCH   4  11
ATOM     11  O   UNL     1     127.691 144.933 117.901  1.00  0.00    -0.508 OA
ATOM     12  H   UNL     1     126.928 145.356 117.385  1.00  0.00     0.293 HD
ENDBRANCH   4  11
TORSDOF 3
ENDMDL
MODEL 8
REMARK VINA RESULT:    -3.445     16.522     17.131
REMARK INTER + INTRA:          -3.952
REMARK INTER:                  -3.848
REMARK INTRA:                  -0.104
REMARK UNBOUND:                -0.103
REMARK SMILES CCc1ccc(O)cc1O
REMARK SMILES IDX 3 1 9 2 8 3 6 4 5 5 4 6 2 7 1 8 10 9 7 11
REMARK H PARENT 10 10 7 12
REMARK Flexibility Score: inf
ROOT
ATOM      1  C   UNL     1     143.924 145.232 120.390  1.00  0.00    -0.006 A 
ATOM      2  C   UNL     1     144.305 145.253 121.747  1.00  0.00     0.122 A 
ATOM      3  C   UNL     1     144.940 144.138 122.312  1.00  0.00     0.092 A 
ATOM      4  C   UNL     1     145.210 143.007 121.534  1.00  0.00     0.119 A 
ATOM      5  C   UNL     1     144.844 142.991 120.182  1.00  0.00     0.047 A 
ATOM      6  C   UNL     1     144.210 144.098 119.613  1.00  0.00     0.011 A 
ENDROOT
BRANCH   1   7
ATOM      7  C   UNL     1     143.267 146.430 119.751  1.00  0.00     0.036 C 
ATOM      8  C   UNL     1     141.755 146.243 119.678  1.00  0.00     0.009 C 
ENDBRANCH   1   7
BRANCH   2   9
ATOM      9  O   UNL     1     144.054 146.380 122.530  1.00  0.00    -0.508 OA
ATOM     10  H   UNL     1     144.759 147.093 122.677  1.00  0.00     0.293 HD
ENDBRANCH   2   9
BRANCH   4  11
ATOM     11  O   UNL     1     145.842 141.909 122.112  1.00  0.00    -0.508 OA
ATOM     12  H   UNL     1     146.675 142.017 122.680  1.00  0.00     0.293 HD
ENDBRANCH   4  11
TORSDOF 3
ENDMDL
MODEL 9
REMARK VINA RESULT:    -3.445      1.915      2.155
REMARK INTER + INTRA:          -3.951
REMARK INTER:                  -3.865
REMARK INTRA:                  -0.086
REMARK UNBOUND:                -0.103
REMARK SMILES CCc1ccc(O)cc1O
REMARK SMILES IDX 3 1 9 2 8 3 6 4 5 5 4 6 2 7 1 8 10 9 7 11
REMARK H PARENT 10 10 7 12
REMARK Flexibility Score: inf
ROOT
ATOM      1  C   UNL     1     129.065 145.873 122.014  1.00  0.00    -0.006 A 
ATOM      2  C   UNL     1     127.674 145.670 121.905  1.00  0.00     0.122 A 
ATOM      3  C   UNL     1     127.092 145.483 120.642  1.00  0.00     0.092 A 
ATOM      4  C   UNL     1     127.885 145.485 119.490  1.00  0.00     0.119 A 
ATOM      5  C   UNL     1     129.268 145.672 119.599  1.00  0.00     0.047 A 
ATOM      6  C   UNL     1     129.855 145.860 120.853  1.00  0.00     0.011 A 
ENDROOT
BRANCH   1   7
ATOM      7  C   UNL     1     129.720 146.046 123.362  1.00  0.00     0.036 C 
ATOM      8  C   UNL     1     131.232 146.168 123.216  1.00  0.00     0.009 C 
ENDBRANCH   1   7
BRANCH   2   9
ATOM      9  O   UNL     1     126.875 145.653 123.048  1.00  0.00    -0.508 OA
ATOM     10  H   UNL     1     126.197 146.382 123.234  1.00  0.00     0.293 HD
ENDBRANCH   2   9
BRANCH   4  11
ATOM     11  O   UNL     1     127.289 145.298 118.246  1.00  0.00    -0.508 OA
ATOM     12  H   UNL     1     126.592 145.942 117.890  1.00  0.00     0.293 HD
ENDBRANCH   4  11
TORSDOF 3
ENDMDL
