MODEL 1
REMARK VINA RESULT:    -3.888      0.000      0.000
REMARK INTER + INTRA:          -6.273
REMARK INTER:                  -5.479
REMARK INTRA:                  -0.794
REMARK UNBOUND:                -0.794
REMARK SMILES CCCCCCCCC(=O)[O-]
REMARK SMILES IDX 6 1 7 2 8 3 9 4 10 5 11 6 5 7 4 8 3 9 2 10 1 11
REMARK H PARENT
REMARK Flexibility Score: inf
ROOT
ATOM      1  C   UNL     1     183.497 183.182 180.643  1.00  0.00     0.000 C 
ENDROOT
BRANCH   1   2
ATOM      2  C   UNL     1     184.358 182.566 181.757  1.00  0.00     0.006 C 
BRANCH   2   3
ATOM      3  C   UNL     1     184.298 181.032 181.771  1.00  0.00     0.053 C 
BRANCH   3   4
ATOM      4  C   UNL     1     183.112 180.564 182.554  1.00  0.00     0.041 C 
ATOM      5  O   UNL     1     183.152 180.547 183.813  1.00  0.00    -0.550 OA
ATOM      6  O   UNL     1     181.946 180.194 181.897  1.00  0.00    -0.550 OA
ENDBRANCH   3   4
ENDBRANCH   2   3
ENDBRANCH   1   2
BRANCH   1   7
ATOM      7  C   UNL     1     183.140 184.653 180.918  1.00  0.00     0.000 C 
BRANCH   7   8
ATOM      8  C   UNL     1     181.646 184.853 181.220  1.00  0.00    -0.000 C 
BRANCH   8   9
ATOM      9  C   UNL     1     180.834 183.555 181.082  1.00  0.00    -0.000 C 
BRANCH   9  10
ATOM     10  C   UNL     1     179.998 183.296 182.341  1.00  0.00    -0.003 C 
ATOM     11  C   UNL     1     180.866 183.314 183.595  1.00  0.00     0.004 C 
ENDBRANCH   9  10
ENDBRANCH   8   9
ENDBRANCH   7   8
ENDBRANCH   1   7
TORSDOF 7
ENDMDL
MODEL 2
REMARK VINA RESULT:    -3.867      2.080      3.859
REMARK INTER + INTRA:          -6.244
REMARK INTER:                  -5.579
REMARK INTRA:                  -0.665
REMARK UNBOUND:                -0.794
REMARK SMILES CCCCCCCCC(=O)[O-]
REMARK SMILES IDX 6 1 7 2 8 3 9 4 10 5 11 6 5 7 4 8 3 9 2 10 1 11
REMARK H PARENT
REMARK Flexibility Score: inf
ROOT
ATOM      1  C   UNL     1     183.201 183.933 180.984  1.00  0.00     0.000 C 
ENDROOT
BRANCH   1   2
ATOM      2  C   UNL     1     181.824 184.581 181.197  1.00  0.00     0.006 C 
BRANCH   2   3
ATOM      3  C   UNL     1     180.691 183.549 181.285  1.00  0.00     0.053 C 
BRANCH   3   4
ATOM      4  C   UNL     1     180.147 183.490 182.677  1.00  0.00     0.041 C 
ATOM      5  O   UNL     1     180.932 183.430 183.661  1.00  0.00    -0.550 OA
ATOM      6  O   UNL     1     178.777 183.551 182.893  1.00  0.00    -0.550 OA
ENDBRANCH   3   4
ENDBRANCH   2   3
ENDBRANCH   1   2
BRANCH   1   7
ATOM      7  C   UNL     1     183.120 182.401 180.868  1.00  0.00     0.000 C 
BRANCH   7   8
ATOM      8  C   UNL     1     183.809 181.682 182.039  1.00  0.00    -0.000 C 
BRANCH   8   9
ATOM      9  C   UNL     1     183.002 180.481 182.556  1.00  0.00    -0.000 C 
BRANCH   9  10
ATOM     10  C   UNL     1     181.883 180.108 181.576  1.00  0.00    -0.003 C 
ATOM     11  C   UNL     1     181.905 178.617 181.253  1.00  0.00     0.004 C 
ENDBRANCH   9  10
ENDBRANCH   8   9
ENDBRANCH   7   8
ENDBRANCH   1   7
TORSDOF 7
ENDMDL
MODEL 3
REMARK VINA RESULT:    -3.848      2.384      4.563
REMARK INTER + INTRA:          -6.217
REMARK INTER:                  -5.366
REMARK INTRA:                  -0.851
REMARK UNBOUND:                -0.794
REMARK SMILES CCCCCCCCC(=O)[O-]
REMARK SMILES IDX 6 1 7 2 8 3 9 4 10 5 11 6 5 7 4 8 3 9 2 10 1 11
REMARK H PARENT
REMARK Flexibility Score: inf
ROOT
ATOM      1  C   UNL     1     180.107 180.610 181.595  1.00  0.00     0.000 C 
ENDROOT
BRANCH   1   2
ATOM      2  C   UNL     1     179.952 181.781 180.612  1.00  0.00     0.006 C 
BRANCH   2   3
ATOM      3  C   UNL     1     180.593 183.077 181.127  1.00  0.00     0.053 C 
BRANCH   3   4
ATOM      4  C   UNL     1     180.165 183.346 182.535  1.00  0.00     0.041 C 
ATOM      5  O   UNL     1     181.023 183.418 183.455  1.00  0.00    -0.550 OA
ATOM      6  O   UNL     1     178.825 183.566 182.825  1.00  0.00    -0.550 OA
ENDBRANCH   3   4
ENDBRANCH   2   3
ENDBRANCH   1   2
BRANCH   1   7
ATOM      7  C   UNL     1     180.835 179.408 180.970  1.00  0.00     0.000 C 
BRANCH   7   8
ATOM      8  C   UNL     1     182.365 179.551 181.021  1.00  0.00    -0.000 C 
BRANCH   8   9
ATOM      9  C   UNL     1     182.862 180.133 182.354  1.00  0.00    -0.000 C 
BRANCH   9  10
ATOM     10  C   UNL     1     183.759 181.354 182.118  1.00  0.00    -0.003 C 
ATOM     11  C   UNL     1     184.060 181.541 180.634  1.00  0.00     0.004 C 
ENDBRANCH   9  10
ENDBRANCH   8   9
ENDBRANCH   7   8
ENDBRANCH   1   7
TORSDOF 7
ENDMDL
MODEL 4
REMARK VINA RESULT:    -3.826      2.260      3.428
REMARK INTER + INTRA:          -6.185
REMARK INTER:                  -5.256
REMARK INTRA:                  -0.930
REMARK UNBOUND:                -0.794
REMARK SMILES CCCCCCCCC(=O)[O-]
REMARK SMILES IDX 6 1 7 2 8 3 9 4 10 5 11 6 5 7 4 8 3 9 2 10 1 11
REMARK H PARENT
REMARK Flexibility Score: inf
ROOT
ATOM      1  C   UNL     1     182.785 180.065 182.170  1.00  0.00     0.000 C 
ENDROOT
BRANCH   1   2
ATOM      2  C   UNL     1     183.973 180.918 181.700  1.00  0.00     0.006 C 
BRANCH   2   3
ATOM      3  C   UNL     1     183.760 182.418 181.945  1.00  0.00     0.053 C 
BRANCH   3   4
ATOM      4  C   UNL     1     183.489 183.124 180.655  1.00  0.00     0.041 C 
ATOM      5  O   UNL     1     183.551 182.496 179.565  1.00  0.00    -0.550 OA
ATOM      6  O   UNL     1     183.122 184.463 180.658  1.00  0.00    -0.550 OA
ENDBRANCH   3   4
ENDBRANCH   2   3
ENDBRANCH   1   2
BRANCH   1   7
ATOM      7  C   UNL     1     181.968 179.493 180.998  1.00  0.00     0.000 C 
BRANCH   7   8
ATOM      8  C   UNL     1     180.836 180.432 180.554  1.00  0.00    -0.000 C 
BRANCH   8   9
ATOM      9  C   UNL     1     180.140 181.125 181.736  1.00  0.00    -0.000 C 
BRANCH   9  10
ATOM     10  C   UNL     1     179.873 182.603 181.426  1.00  0.00    -0.003 C 
ATOM     11  C   UNL     1     180.259 183.492 182.604  1.00  0.00     0.004 C 
ENDBRANCH   9  10
ENDBRANCH   8   9
ENDBRANCH   7   8
ENDBRANCH   1   7
TORSDOF 7
ENDMDL
MODEL 5
REMARK VINA RESULT:    -3.821      1.981      3.565
REMARK INTER + INTRA:          -6.179
REMARK INTER:                  -5.329
REMARK INTRA:                  -0.851
REMARK UNBOUND:                -0.794
REMARK SMILES CCCCCCCCC(=O)[O-]
REMARK SMILES IDX 6 1 7 2 8 3 9 4 10 5 11 6 5 7 4 8 3 9 2 10 1 11
REMARK H PARENT
REMARK Flexibility Score: inf
ROOT
ATOM      1  C   UNL     1     180.900 183.882 182.162  1.00  0.00     0.000 C 
ENDROOT
BRANCH   1   2
ATOM      2  C   UNL     1     181.602 184.364 180.883  1.00  0.00     0.006 C 
BRANCH   2   3
ATOM      3  C   UNL     1     183.132 184.326 180.997  1.00  0.00     0.053 C 
BRANCH   3   4
ATOM      4  C   UNL     1     183.625 182.915 180.938  1.00  0.00     0.041 C 
ATOM      5  O   UNL     1     183.790 182.348 179.825  1.00  0.00    -0.550 OA
ATOM      6  O   UNL     1     183.949 182.241 182.107  1.00  0.00    -0.550 OA
ENDBRANCH   3   4
ENDBRANCH   2   3
ENDBRANCH   1   2
BRANCH   1   7
ATOM      7  C   UNL     1     180.048 182.622 181.929  1.00  0.00     0.000 C 
BRANCH   7   8
ATOM      8  C   UNL     1     179.894 182.281 180.439  1.00  0.00    -0.000 C 
BRANCH   8   9
ATOM      9  C   UNL     1     180.559 180.949 180.062  1.00  0.00    -0.000 C 
BRANCH   9  10
ATOM     10  C   UNL     1     181.017 180.191 181.314  1.00  0.00    -0.003 C 
ATOM     11  C   UNL     1     182.170 179.243 180.995  1.00  0.00     0.004 C 
ENDBRANCH   9  10
ENDBRANCH   8   9
ENDBRANCH   7   8
ENDBRANCH   1   7
TORSDOF 7
ENDMDL
MODEL 6
REMARK VINA RESULT:    -3.820      1.550      3.529
REMARK INTER + INTRA:          -6.177
REMARK INTER:                  -5.269
REMARK INTRA:                  -0.909
REMARK UNBOUND:                -0.794
REMARK SMILES CCCCCCCCC(=O)[O-]
REMARK SMILES IDX 6 1 7 2 8 3 9 4 10 5 11 6 5 7 4 8 3 9 2 10 1 11
REMARK H PARENT
REMARK Flexibility Score: inf
ROOT
ATOM      1  C   UNL     1     181.092 183.891 182.110  1.00  0.00     0.000 C 
ENDROOT
BRANCH   1   2
ATOM      2  C   UNL     1     179.987 182.990 181.535  1.00  0.00     0.006 C 
BRANCH   2   3
ATOM      3  C   UNL     1     180.133 181.525 181.969  1.00  0.00     0.053 C 
BRANCH   3   4
ATOM      4  C   UNL     1     180.468 180.664 180.792  1.00  0.00     0.041 C 
ATOM      5  O   UNL     1     180.505 181.161 179.635  1.00  0.00    -0.550 OA
ATOM      6  O   UNL     1     180.788 179.326 180.978  1.00  0.00    -0.550 OA
ENDBRANCH   3   4
ENDBRANCH   2   3
ENDBRANCH   1   2
BRANCH   1   7
ATOM      7  C   UNL     1     182.017 184.459 181.019  1.00  0.00     0.000 C 
BRANCH   7   8
ATOM      8  C   UNL     1     183.071 183.443 180.551  1.00  0.00    -0.000 C 
BRANCH   8   9
ATOM      9  C   UNL     1     183.842 182.806 181.718  1.00  0.00    -0.000 C 
BRANCH   9  10
ATOM     10  C   UNL     1     184.057 181.307 181.480  1.00  0.00    -0.003 C 
ATOM     11  C   UNL     1     183.693 180.493 182.718  1.00  0.00     0.004 C 
ENDBRANCH   9  10
ENDBRANCH   8   9
ENDBRANCH   7   8
ENDBRANCH   1   7
TORSDOF 7
ENDMDL
MODEL 7
REMARK VINA RESULT:    -3.796      1.516      2.745
REMARK INTER + INTRA:          -6.144
REMARK INTER:                  -5.386
REMARK INTRA:                  -0.757
REMARK UNBOUND:                -0.794
REMARK SMILES CCCCCCCCC(=O)[O-]
REMARK SMILES IDX 6 1 7 2 8 3 9 4 10 5 11 6 5 7 4 8 3 9 2 10 1 11
REMARK H PARENT
REMARK Flexibility Score: inf
ROOT
ATOM      1  C   UNL     1     180.743 181.050 180.207  1.00  0.00     0.000 C 
ENDROOT
BRANCH   1   2
ATOM      2  C   UNL     1     182.199 180.611 180.430  1.00  0.00     0.006 C 
BRANCH   2   3
ATOM      3  C   UNL     1     182.372 179.758 181.694  1.00  0.00     0.053 C 
BRANCH   3   4
ATOM      4  C   UNL     1     183.286 180.439 182.662  1.00  0.00     0.041 C 
ATOM      5  O   UNL     1     182.820 180.980 183.699  1.00  0.00    -0.550 OA
ATOM      6  O   UNL     1     184.658 180.434 182.446  1.00  0.00    -0.550 OA
ENDBRANCH   3   4
ENDBRANCH   2   3
ENDBRANCH   1   2
BRANCH   1   7
ATOM      7  C   UNL     1     180.049 181.480 181.511  1.00  0.00     0.000 C 
BRANCH   7   8
ATOM      8  C   UNL     1     179.809 182.996 181.581  1.00  0.00    -0.000 C 
BRANCH   8   9
ATOM      9  C   UNL     1     180.994 183.758 182.196  1.00  0.00    -0.000 C 
BRANCH   9  10
ATOM     10  C   UNL     1     181.772 184.523 181.119  1.00  0.00    -0.003 C 
ATOM     11  C   UNL     1     183.232 184.082 181.073  1.00  0.00     0.004 C 
ENDBRANCH   9  10
ENDBRANCH   8   9
ENDBRANCH   7   8
ENDBRANCH   1   7
TORSDOF 7
ENDMDL
MODEL 8
REMARK VINA RESULT:    -3.795      1.914      2.968
REMARK INTER + INTRA:          -6.142
REMARK INTER:                  -5.337
REMARK INTRA:                  -0.805
REMARK UNBOUND:                -0.794
REMARK SMILES CCCCCCCCC(=O)[O-]
REMARK SMILES IDX 6 1 7 2 8 3 9 4 10 5 11 6 5 7 4 8 3 9 2 10 1 11
REMARK H PARENT
REMARK Flexibility Score: inf
ROOT
ATOM      1  C   UNL     1     180.873 179.766 180.982  1.00  0.00     0.000 C 
ENDROOT
BRANCH   1   2
ATOM      2  C   UNL     1     182.304 179.364 181.374  1.00  0.00     0.006 C 
BRANCH   2   3
ATOM      3  C   UNL     1     182.951 180.356 182.351  1.00  0.00     0.053 C 
BRANCH   3   4
ATOM      4  C   UNL     1     184.244 180.865 181.797  1.00  0.00     0.041 C 
ATOM      5  O   UNL     1     184.265 181.464 180.688  1.00  0.00    -0.550 OA
ATOM      6  O   UNL     1     185.417 180.724 182.525  1.00  0.00    -0.550 OA
ENDBRANCH   3   4
ENDBRANCH   2   3
ENDBRANCH   1   2
BRANCH   1   7
ATOM      7  C   UNL     1     180.843 180.870 179.910  1.00  0.00     0.000 C 
BRANCH   7   8
ATOM      8  C   UNL     1     180.216 182.175 180.424  1.00  0.00    -0.000 C 
BRANCH   8   9
ATOM      9  C   UNL     1     181.234 183.321 180.533  1.00  0.00    -0.000 C 
BRANCH   9  10
ATOM     10  C   UNL     1     181.406 183.764 181.991  1.00  0.00    -0.003 C 
ATOM     11  C   UNL     1     180.130 183.532 182.794  1.00  0.00     0.004 C 
ENDBRANCH   9  10
ENDBRANCH   8   9
ENDBRANCH   7   8
ENDBRANCH   1   7
TORSDOF 7
ENDMDL
MODEL 9
REMARK VINA RESULT:    -3.792      1.914      2.820
REMARK INTER + INTRA:          -6.138
REMARK INTER:                  -5.277
REMARK INTRA:                  -0.861
REMARK UNBOUND:                -0.794
REMARK SMILES CCCCCCCCC(=O)[O-]
REMARK SMILES IDX 6 1 7 2 8 3 9 4 10 5 11 6 5 7 4 8 3 9 2 10 1 11
REMARK H PARENT
REMARK Flexibility Score: inf
ROOT
ATOM      1  C   UNL     1     181.944 184.586 181.009  1.00  0.00     0.000 C 
ENDROOT
BRANCH   1   2
ATOM      2  C   UNL     1     183.124 183.685 180.613  1.00  0.00     0.006 C 
BRANCH   2   3
ATOM      3  C   UNL     1     183.777 183.000 181.821  1.00  0.00     0.053 C 
BRANCH   3   4
ATOM      4  C   UNL     1     184.252 181.631 181.451  1.00  0.00     0.041 C 
ATOM      5  O   UNL     1     185.007 181.470 180.455  1.00  0.00    -0.550 OA
ATOM      6  O   UNL     1     183.903 180.538 182.233  1.00  0.00    -0.550 OA
ENDBRANCH   3   4
ENDBRANCH   2   3
ENDBRANCH   1   2
BRANCH   1   7
ATOM      7  C   UNL     1     180.996 183.910 182.014  1.00  0.00     0.000 C 
BRANCH   7   8
ATOM      8  C   UNL     1     180.001 182.955 181.337  1.00  0.00    -0.000 C 
BRANCH   8   9
ATOM      9  C   UNL     1     180.243 181.483 181.710  1.00  0.00    -0.000 C 
BRANCH   9  10
ATOM     10  C   UNL     1     180.774 180.693 180.508  1.00  0.00    -0.003 C 
ATOM     11  C   UNL     1     180.502 181.429 179.199  1.00  0.00     0.004 C 
ENDBRANCH   9  10
ENDBRANCH   8   9
ENDBRANCH   7   8
ENDBRANCH   1   7
TORSDOF 7
ENDMDL
