MODEL 1
REMARK VINA RESULT:    -4.628      0.000      0.000
REMARK INTER + INTRA:          -4.628
REMARK INTER:                  -4.628
REMARK INTRA:                   0.000
REMARK UNBOUND:                 0.000
REMARK SMILES CC1(C)[C@@H]2CC[C@@]1(C)C(=O)C2
REMARK SMILES IDX 1 1 2 2 4 3 5 4 6 5 7 6 9 7 10 8 11 9 8 10 3 11
REMARK H PARENT
REMARK Flexibility Score: inf
ROOT
ATOM      1  C   UNL     1      13.907  18.829  -1.214  1.00  0.00     0.012 C 
ATOM      2  C   UNL     1      15.328  18.206  -1.077  1.00  0.00    -0.020 C 
ATOM      3  C   UNL     1      15.400  16.715  -1.488  1.00  0.00     0.003 C 
ATOM      4  C   UNL     1      14.492  16.026  -0.431  1.00  0.00     0.005 C 
ATOM      5  C   UNL     1      14.768  16.848   0.852  1.00  0.00     0.015 C 
ATOM      6  C   UNL     1      15.787  17.906   0.366  1.00  0.00     0.032 C 
ATOM      7  C   UNL     1      17.052  17.129   0.101  1.00  0.00     0.139 C 
ATOM      8  O   UNL     1      18.040  17.099   0.818  1.00  0.00    -0.299 OA
ATOM      9  C   UNL     1      16.861  16.313  -1.141  1.00  0.00     0.080 C 
ATOM     10  C   UNL     1      15.952  19.114   1.295  1.00  0.00     0.020 C 
ATOM     11  C   UNL     1      16.293  19.125  -1.890  1.00  0.00     0.012 C 
ENDROOT
TORSDOF 0
ENDMDL
MODEL 2
REMARK VINA RESULT:    -4.626      1.305      2.180
REMARK INTER + INTRA:          -4.626
REMARK INTER:                  -4.626
REMARK INTRA:                   0.000
REMARK UNBOUND:                 0.000
REMARK SMILES CC1(C)[C@@H]2CC[C@@]1(C)C(=O)C2
REMARK SMILES IDX 1 1 2 2 4 3 5 4 6 5 7 6 9 7 10 8 11 9 8 10 3 11
REMARK H PARENT
REMARK Flexibility Score: inf
ROOT
ATOM      1  C   UNL     1      15.630  17.753  -2.419  1.00  0.00     0.012 C 
ATOM      2  C   UNL     1      15.657  17.156  -0.980  1.00  0.00    -0.020 C 
ATOM      3  C   UNL     1      14.302  16.564  -0.523  1.00  0.00     0.003 C 
ATOM      4  C   UNL     1      13.379  17.813  -0.485  1.00  0.00     0.005 C 
ATOM      5  C   UNL     1      14.331  18.934  -0.000  1.00  0.00     0.015 C 
ATOM      6  C   UNL     1      15.676  18.188   0.167  1.00  0.00     0.032 C 
ATOM      7  C   UNL     1      15.470  17.286   1.358  1.00  0.00     0.139 C 
ATOM      8  O   UNL     1      15.900  17.476   2.485  1.00  0.00    -0.299 OA
ATOM      9  C   UNL     1      14.561  16.165   0.957  1.00  0.00     0.080 C 
ATOM     10  C   UNL     1      16.908  19.097   0.249  1.00  0.00     0.020 C 
ATOM     11  C   UNL     1      16.830  16.128  -0.951  1.00  0.00     0.012 C 
ENDROOT
TORSDOF 0
ENDMDL
MODEL 3
REMARK VINA RESULT:    -4.568      1.013      2.901
REMARK INTER + INTRA:          -4.568
REMARK INTER:                  -4.568
REMARK INTRA:                   0.000
REMARK UNBOUND:                 0.000
REMARK SMILES CC1(C)[C@@H]2CC[C@@]1(C)C(=O)C2
REMARK SMILES IDX 1 1 2 2 4 3 5 4 6 5 7 6 9 7 10 8 11 9 8 10 3 11
REMARK H PARENT
REMARK Flexibility Score: inf
ROOT
ATOM      1  C   UNL     1      13.809  16.257  -1.669  1.00  0.00     0.012 C 
ATOM      2  C   UNL     1      14.557  17.018  -0.533  1.00  0.00    -0.020 C 
ATOM      3  C   UNL     1      14.126  18.496  -0.381  1.00  0.00     0.003 C 
ATOM      4  C   UNL     1      14.577  19.124  -1.728  1.00  0.00     0.005 C 
ATOM      5  C   UNL     1      15.893  18.368  -2.041  1.00  0.00     0.015 C 
ATOM      6  C   UNL     1      16.021  17.400  -0.840  1.00  0.00     0.032 C 
ATOM      7  C   UNL     1      16.331  18.287   0.340  1.00  0.00     0.139 C 
ATOM      8  O   UNL     1      17.426  18.432   0.860  1.00  0.00    -0.299 OA
ATOM      9  C   UNL     1      15.092  19.046   0.705  1.00  0.00     0.080 C 
ATOM     10  C   UNL     1      17.000  16.240  -1.053  1.00  0.00     0.020 C 
ATOM     11  C   UNL     1      14.363  16.173   0.765  1.00  0.00     0.012 C 
ENDROOT
TORSDOF 0
ENDMDL
MODEL 4
REMARK VINA RESULT:    -4.552      1.298      2.390
REMARK INTER + INTRA:          -4.552
REMARK INTER:                  -4.552
REMARK INTRA:                   0.000
REMARK UNBOUND:                 0.000
REMARK SMILES CC1(C)[C@@H]2CC[C@@]1(C)C(=O)C2
REMARK SMILES IDX 1 1 2 2 4 3 5 4 6 5 7 6 9 7 10 8 11 9 8 10 3 11
REMARK H PARENT
REMARK Flexibility Score: inf
ROOT
ATOM      1  C   UNL     1      13.552  16.496  -2.136  1.00  0.00     0.012 C 
ATOM      2  C   UNL     1      14.262  17.605  -1.304  1.00  0.00    -0.020 C 
ATOM      3  C   UNL     1      15.553  18.150  -1.960  1.00  0.00     0.003 C 
ATOM      4  C   UNL     1      16.486  16.908  -1.960  1.00  0.00     0.005 C 
ATOM      5  C   UNL     1      16.118  16.196  -0.634  1.00  0.00     0.015 C 
ATOM      6  C   UNL     1      15.018  17.114  -0.051  1.00  0.00     0.032 C 
ATOM      7  C   UNL     1      15.741  18.376   0.351  1.00  0.00     0.139 C 
ATOM      8  O   UNL     1      16.045  18.698   1.489  1.00  0.00    -0.299 OA
ATOM      9  C   UNL     1      16.120  19.125  -0.890  1.00  0.00     0.080 C 
ATOM     10  C   UNL     1      14.168  16.476   1.054  1.00  0.00     0.020 C 
ATOM     11  C   UNL     1      13.189  18.704  -1.028  1.00  0.00     0.012 C 
ENDROOT
TORSDOF 0
ENDMDL
MODEL 5
REMARK VINA RESULT:    -4.530      1.578      2.664
REMARK INTER + INTRA:          -4.530
REMARK INTER:                  -4.530
REMARK INTRA:                   0.000
REMARK UNBOUND:                 0.000
REMARK SMILES CC1(C)[C@@H]2CC[C@@]1(C)C(=O)C2
REMARK SMILES IDX 1 1 2 2 4 3 5 4 6 5 7 6 9 7 10 8 11 9 8 10 3 11
REMARK H PARENT
REMARK Flexibility Score: inf
ROOT
ATOM      1  C   UNL     1      12.401  18.784  -1.031  1.00  0.00     0.012 C 
ATOM      2  C   UNL     1      13.502  17.702  -1.250  1.00  0.00    -0.020 C 
ATOM      3  C   UNL     1      13.914  16.957   0.043  1.00  0.00     0.003 C 
ATOM      4  C   UNL     1      14.544  18.088   0.902  1.00  0.00     0.005 C 
ATOM      5  C   UNL     1      15.253  18.973  -0.154  1.00  0.00     0.015 C 
ATOM      6  C   UNL     1      14.929  18.244  -1.480  1.00  0.00     0.032 C 
ATOM      7  C   UNL     1      15.726  16.964  -1.421  1.00  0.00     0.139 C 
ATOM      8  O   UNL     1      16.764  16.737  -2.021  1.00  0.00    -0.299 OA
ATOM      9  C   UNL     1      15.088  16.050  -0.420  1.00  0.00     0.080 C 
ATOM     10  C   UNL     1      15.146  19.083  -2.744  1.00  0.00     0.020 C 
ATOM     11  C   UNL     1      12.974  16.758  -2.374  1.00  0.00     0.012 C 
ENDROOT
TORSDOF 0
ENDMDL
MODEL 6
REMARK VINA RESULT:    -4.529     13.868     15.294
REMARK INTER + INTRA:          -4.529
REMARK INTER:                  -4.529
REMARK INTRA:                   0.000
REMARK UNBOUND:                 0.000
REMARK SMILES CC1(C)[C@@H]2CC[C@@]1(C)C(=O)C2
REMARK SMILES IDX 1 1 2 2 4 3 5 4 6 5 7 6 9 7 10 8 11 9 8 10 3 11
REMARK H PARENT
REMARK Flexibility Score: inf
ROOT
ATOM      1  C   UNL     1      13.860   4.470   1.059  1.00  0.00     0.012 C 
ATOM      2  C   UNL     1      14.630   3.215   0.550  1.00  0.00    -0.020 C 
ATOM      3  C   UNL     1      15.664   3.522  -0.560  1.00  0.00     0.003 C 
ATOM      4  C   UNL     1      14.771   4.019  -1.730  1.00  0.00     0.005 C 
ATOM      5  C   UNL     1      13.501   3.143  -1.595  1.00  0.00     0.015 C 
ATOM      6  C   UNL     1      13.824   2.265  -0.362  1.00  0.00     0.032 C 
ATOM      7  C   UNL     1      14.914   1.333  -0.828  1.00  0.00     0.139 C 
ATOM      8  O   UNL     1      14.775   0.156  -1.122  1.00  0.00    -0.299 OA
ATOM      9  C   UNL     1      16.183   2.115  -0.971  1.00  0.00     0.080 C 
ATOM     10  C   UNL     1      12.609   1.576   0.271  1.00  0.00     0.020 C 
ATOM     11  C   UNL     1      15.250   2.536   1.811  1.00  0.00     0.012 C 
ENDROOT
TORSDOF 0
ENDMDL
MODEL 7
REMARK VINA RESULT:    -4.506      1.678      2.626
REMARK INTER + INTRA:          -4.506
REMARK INTER:                  -4.506
REMARK INTRA:                   0.000
REMARK UNBOUND:                 0.000
REMARK SMILES CC1(C)[C@@H]2CC[C@@]1(C)C(=O)C2
REMARK SMILES IDX 1 1 2 2 4 3 5 4 6 5 7 6 9 7 10 8 11 9 8 10 3 11
REMARK H PARENT
REMARK Flexibility Score: inf
ROOT
ATOM      1  C   UNL     1      17.595  18.934  -0.174  1.00  0.00     0.012 C 
ATOM      2  C   UNL     1      16.633  17.709  -0.236  1.00  0.00    -0.020 C 
ATOM      3  C   UNL     1      15.565  17.808  -1.351  1.00  0.00     0.003 C 
ATOM      4  C   UNL     1      14.720  19.034  -0.907  1.00  0.00     0.005 C 
ATOM      5  C   UNL     1      14.718  18.913   0.638  1.00  0.00     0.015 C 
ATOM      6  C   UNL     1      15.569  17.643   0.879  1.00  0.00     0.032 C 
ATOM      7  C   UNL     1      14.713  16.505   0.381  1.00  0.00     0.139 C 
ATOM      8  O   UNL     1      14.082  15.723   1.076  1.00  0.00    -0.299 OA
ATOM      9  C   UNL     1      14.677  16.554  -1.116  1.00  0.00     0.080 C 
ATOM     10  C   UNL     1      16.089  17.482   2.313  1.00  0.00     0.020 C 
ATOM     11  C   UNL     1      17.538  16.443  -0.349  1.00  0.00     0.012 C 
ENDROOT
TORSDOF 0
ENDMDL
MODEL 8
REMARK VINA RESULT:    -4.341     14.791     16.178
REMARK INTER + INTRA:          -4.341
REMARK INTER:                  -4.341
REMARK INTRA:                   0.000
REMARK UNBOUND:                 0.000
REMARK SMILES CC1(C)[C@@H]2CC[C@@]1(C)C(=O)C2
REMARK SMILES IDX 1 1 2 2 4 3 5 4 6 5 7 6 9 7 10 8 11 9 8 10 3 11
REMARK H PARENT
REMARK Flexibility Score: inf
ROOT
ATOM      1  C   UNL     1      13.875  -0.083   0.397  1.00  0.00     0.012 C 
ATOM      2  C   UNL     1      13.589   1.184  -0.463  1.00  0.00    -0.020 C 
ATOM      3  C   UNL     1      13.194   0.870  -1.927  1.00  0.00     0.003 C 
ATOM      4  C   UNL     1      14.481   0.211  -2.494  1.00  0.00     0.005 C 
ATOM      5  C   UNL     1      15.614   0.992  -1.783  1.00  0.00     0.015 C 
ATOM      6  C   UNL     1      14.833   1.989  -0.895  1.00  0.00     0.032 C 
ATOM      7  C   UNL     1      14.212   2.964  -1.864  1.00  0.00     0.139 C 
ATOM      8  O   UNL     1      14.603   4.099  -2.090  1.00  0.00    -0.299 OA
ATOM      9  C   UNL     1      13.094   2.275  -2.585  1.00  0.00     0.080 C 
ATOM     10  C   UNL     1      15.656   2.629   0.229  1.00  0.00     0.020 C 
ATOM     11  C   UNL     1      12.515   2.009   0.311  1.00  0.00     0.012 C 
ENDROOT
TORSDOF 0
ENDMDL
MODEL 9
REMARK VINA RESULT:    -4.316     14.658     16.111
REMARK INTER + INTRA:          -4.316
REMARK INTER:                  -4.316
REMARK INTRA:                   0.000
REMARK UNBOUND:                 0.000
REMARK SMILES CC1(C)[C@@H]2CC[C@@]1(C)C(=O)C2
REMARK SMILES IDX 1 1 2 2 4 3 5 4 6 5 7 6 9 7 10 8 11 9 8 10 3 11
REMARK H PARENT
REMARK Flexibility Score: inf
ROOT
ATOM      1  C   UNL     1      15.032   3.752  -1.744  1.00  0.00     0.012 C 
ATOM      2  C   UNL     1      14.900   2.236  -1.407  1.00  0.00    -0.020 C 
ATOM      3  C   UNL     1      13.791   1.511  -2.207  1.00  0.00     0.003 C 
ATOM      4  C   UNL     1      12.497   2.208  -1.704  1.00  0.00     0.005 C 
ATOM      5  C   UNL     1      12.805   2.478  -0.210  1.00  0.00     0.015 C 
ATOM      6  C   UNL     1      14.236   1.912  -0.052  1.00  0.00     0.032 C 
ATOM      7  C   UNL     1      14.075   0.416  -0.171  1.00  0.00     0.139 C 
ATOM      8  O   UNL     1      14.093  -0.383   0.752  1.00  0.00    -0.299 OA
ATOM      9  C   UNL     1      13.782   0.080  -1.601  1.00  0.00     0.080 C 
ATOM     10  C   UNL     1      14.978   2.384   1.204  1.00  0.00     0.020 C 
ATOM     11  C   UNL     1      16.318   1.616  -1.603  1.00  0.00     0.012 C 
ENDROOT
TORSDOF 0
ENDMDL
