MODEL 1
REMARK VINA RESULT:    -3.502      0.000      0.000
REMARK INTER + INTRA:          -4.365
REMARK INTER:                  -4.219
REMARK INTRA:                  -0.147
REMARK UNBOUND:                -0.147
REMARK SMILES CC[C@@H](C)[C@@H]([NH3+])C(=O)[O-]
REMARK SMILES IDX 3 1 4 2 5 3 6 4 7 8 8 9 9 10 2 11 1 12
REMARK H PARENT 6 5 6 6 6 7
REMARK Flexibility Score: inf
ROOT
ATOM      1  C   UNL     1      23.287 -12.086  31.888  1.00  0.00     0.050 C 
ATOM      2  C   UNL     1      24.579 -11.291  32.145  1.00  0.00     0.014 C 
ENDROOT
BRANCH   1   3
ATOM      3  C   UNL     1      22.596 -11.620  30.567  1.00  0.00     0.230 C 
BRANCH   3   4
ATOM      4  N   UNL     1      23.054 -12.369  29.388  1.00  0.00    -0.350 N 
ATOM      5  H   UNL     1      23.832 -11.845  28.923  1.00  0.00     0.345 HD
ATOM      6  H   UNL     1      22.283 -12.502  28.696  1.00  0.00     0.345 HD
ATOM      7  H   UNL     1      23.429 -13.302  29.672  1.00  0.00     0.345 HD
ENDBRANCH   3   4
BRANCH   3   8
ATOM      8  C   UNL     1      21.092 -11.682  30.692  1.00  0.00     0.099 C 
ATOM      9  O   UNL     1      20.535 -11.307  31.758  1.00  0.00    -0.544 OA
ATOM     10  O   UNL     1      20.313 -12.189  29.659  1.00  0.00    -0.544 OA
ENDBRANCH   3   8
ENDBRANCH   1   3
BRANCH   1  11
ATOM     11  C   UNL     1      23.550 -13.614  31.923  1.00  0.00     0.006 C 
ATOM     12  C   UNL     1      22.527 -14.370  32.771  1.00  0.00     0.004 C 
ENDBRANCH   1  11
TORSDOF 4
ENDMDL
MODEL 2
REMARK VINA RESULT:    -3.480      2.147      2.957
REMARK INTER + INTRA:          -4.339
REMARK INTER:                  -4.280
REMARK INTRA:                  -0.059
REMARK UNBOUND:                -0.147
REMARK SMILES CC[C@@H](C)[C@@H]([NH3+])C(=O)[O-]
REMARK SMILES IDX 3 1 4 2 5 3 6 4 7 8 8 9 9 10 2 11 1 12
REMARK H PARENT 6 5 6 6 6 7
REMARK Flexibility Score: inf
ROOT
ATOM      1  C   UNL     1      22.435 -11.744  30.392  1.00  0.00     0.050 C 
ATOM      2  C   UNL     1      21.948 -12.651  29.248  1.00  0.00     0.014 C 
ENDROOT
BRANCH   1   3
ATOM      3  C   UNL     1      21.515 -11.878  31.646  1.00  0.00     0.230 C 
BRANCH   3   4
ATOM      4  N   UNL     1      20.327 -11.015  31.578  1.00  0.00    -0.350 N 
ATOM      5  H   UNL     1      20.335 -10.481  30.677  1.00  0.00     0.345 HD
ATOM      6  H   UNL     1      20.304 -10.332  32.368  1.00  0.00     0.345 HD
ATOM      7  H   UNL     1      19.456 -11.592  31.594  1.00  0.00     0.345 HD
ENDBRANCH   3   4
BRANCH   3   8
ATOM      8  C   UNL     1      21.120 -13.318  31.876  1.00  0.00     0.099 C 
ATOM      9  O   UNL     1      19.929 -13.680  31.685  1.00  0.00    -0.544 OA
ATOM     10  O   UNL     1      22.047 -14.245  32.338  1.00  0.00    -0.544 OA
ENDBRANCH   3   8
ENDBRANCH   1   3
BRANCH   1  11
ATOM     11  C   UNL     1      23.931 -11.998  30.713  1.00  0.00     0.006 C 
ATOM     12  C   UNL     1      24.380 -11.324  32.010  1.00  0.00     0.004 C 
ENDBRANCH   1  11
TORSDOF 4
ENDMDL
MODEL 3
REMARK VINA RESULT:    -3.462      2.090      2.846
REMARK INTER + INTRA:          -4.318
REMARK INTER:                  -4.248
REMARK INTRA:                  -0.070
REMARK UNBOUND:                -0.147
REMARK SMILES CC[C@@H](C)[C@@H]([NH3+])C(=O)[O-]
REMARK SMILES IDX 3 1 4 2 5 3 6 4 7 8 8 9 9 10 2 11 1 12
REMARK H PARENT 6 5 6 6 6 7
REMARK Flexibility Score: inf
ROOT
ATOM      1  C   UNL     1      21.719 -12.422  30.613  1.00  0.00     0.050 C 
ATOM      2  C   UNL     1      21.016 -11.373  31.493  1.00  0.00     0.014 C 
ENDROOT
BRANCH   1   3
ATOM      3  C   UNL     1      20.929 -12.664  29.289  1.00  0.00     0.230 C 
BRANCH   3   4
ATOM      4  N   UNL     1      21.764 -12.509  28.088  1.00  0.00    -0.350 N 
ATOM      5  H   UNL     1      21.894 -13.441  27.631  1.00  0.00     0.345 HD
ATOM      6  H   UNL     1      22.705 -12.120  28.325  1.00  0.00     0.345 HD
ATOM      7  H   UNL     1      21.294 -11.882  27.397  1.00  0.00     0.345 HD
ENDBRANCH   3   4
BRANCH   3   8
ATOM      8  C   UNL     1      20.251 -14.013  29.301  1.00  0.00     0.099 C 
ATOM      9  O   UNL     1      19.875 -14.516  30.393  1.00  0.00    -0.544 OA
ATOM     10  O   UNL     1      20.073 -14.731  28.124  1.00  0.00    -0.544 OA
ENDBRANCH   3   8
ENDBRANCH   1   3
BRANCH   1  11
ATOM     11  C   UNL     1      23.204 -12.046  30.368  1.00  0.00     0.006 C 
ATOM     12  C   UNL     1      23.850 -11.374  31.581  1.00  0.00     0.004 C 
ENDBRANCH   1  11
TORSDOF 4
ENDMDL
MODEL 4
REMARK VINA RESULT:    -3.444      1.539      2.150
REMARK INTER + INTRA:          -4.295
REMARK INTER:                  -4.207
REMARK INTRA:                  -0.088
REMARK UNBOUND:                -0.147
REMARK SMILES CC[C@@H](C)[C@@H]([NH3+])C(=O)[O-]
REMARK SMILES IDX 3 1 4 2 5 3 6 4 7 8 8 9 9 10 2 11 1 12
REMARK H PARENT 6 5 6 6 6 7
REMARK Flexibility Score: inf
ROOT
ATOM      1  C   UNL     1      24.193 -12.366  31.252  1.00  0.00     0.050 C 
ATOM      2  C   UNL     1      24.702 -11.344  32.284  1.00  0.00     0.014 C 
ENDROOT
BRANCH   1   3
ATOM      3  C   UNL     1      22.936 -11.826  30.499  1.00  0.00     0.230 C 
BRANCH   3   4
ATOM      4  N   UNL     1      22.773 -12.416  29.162  1.00  0.00    -0.350 N 
ATOM      5  H   UNL     1      23.176 -11.769  28.444  1.00  0.00     0.345 HD
ATOM      6  H   UNL     1      21.767 -12.578  28.936  1.00  0.00     0.345 HD
ATOM      7  H   UNL     1      23.293 -13.321  29.098  1.00  0.00     0.345 HD
ENDBRANCH   3   4
BRANCH   3   8
ATOM      8  C   UNL     1      21.687 -12.015  31.326  1.00  0.00     0.099 C 
ATOM      9  O   UNL     1      20.895 -11.050  31.495  1.00  0.00    -0.544 OA
ATOM     10  O   UNL     1      21.418 -13.232  31.941  1.00  0.00    -0.544 OA
ENDBRANCH   3   8
ENDBRANCH   1   3
BRANCH   1  11
ATOM     11  C   UNL     1      25.328 -12.806  30.290  1.00  0.00     0.006 C 
ATOM     12  C   UNL     1      26.721 -12.495  30.840  1.00  0.00     0.004 C 
ENDBRANCH   1  11
TORSDOF 4
ENDMDL
MODEL 5
REMARK VINA RESULT:    -3.354      2.688      3.569
REMARK INTER + INTRA:          -4.187
REMARK INTER:                  -4.087
REMARK INTRA:                  -0.100
REMARK UNBOUND:                -0.147
REMARK SMILES CC[C@@H](C)[C@@H]([NH3+])C(=O)[O-]
REMARK SMILES IDX 3 1 4 2 5 3 6 4 7 8 8 9 9 10 2 11 1 12
REMARK H PARENT 6 5 6 6 6 7
REMARK Flexibility Score: inf
ROOT
ATOM      1  C   UNL     1      22.714 -12.589  31.816  1.00  0.00     0.050 C 
ATOM      2  C   UNL     1      22.056 -13.932  32.179  1.00  0.00     0.014 C 
ENDROOT
BRANCH   1   3
ATOM      3  C   UNL     1      23.916 -12.798  30.842  1.00  0.00     0.230 C 
BRANCH   3   4
ATOM      4  N   UNL     1      23.628 -12.342  29.474  1.00  0.00    -0.350 N 
ATOM      5  H   UNL     1      23.782 -13.131  28.803  1.00  0.00     0.345 HD
ATOM      6  H   UNL     1      24.245 -11.545  29.198  1.00  0.00     0.345 HD
ATOM      7  H   UNL     1      22.628 -12.049  29.390  1.00  0.00     0.345 HD
ENDBRANCH   3   4
BRANCH   3   8
ATOM      8  C   UNL     1      25.166 -12.140  31.375  1.00  0.00     0.099 C 
ATOM      9  O   UNL     1      25.088 -11.333  32.339  1.00  0.00    -0.544 OA
ATOM     10  O   UNL     1      26.403 -12.382  30.789  1.00  0.00    -0.544 OA
ENDBRANCH   3   8
ENDBRANCH   1   3
BRANCH   1  11
ATOM     11  C   UNL     1      21.668 -11.579  31.275  1.00  0.00     0.006 C 
ATOM     12  C   UNL     1      20.231 -12.081  31.425  1.00  0.00     0.004 C 
ENDBRANCH   1  11
TORSDOF 4
ENDMDL
MODEL 6
REMARK VINA RESULT:    -3.326      2.684      3.219
REMARK INTER + INTRA:          -4.153
REMARK INTER:                  -4.183
REMARK INTRA:                   0.030
REMARK UNBOUND:                -0.147
REMARK SMILES CC[C@@H](C)[C@@H]([NH3+])C(=O)[O-]
REMARK SMILES IDX 3 1 4 2 5 3 6 4 7 8 8 9 9 10 2 11 1 12
REMARK H PARENT 6 5 6 6 6 7
REMARK Flexibility Score: inf
ROOT
ATOM      1  C   UNL     1      22.494 -11.623  30.551  1.00  0.00     0.050 C 
ATOM      2  C   UNL     1      23.555 -11.772  31.656  1.00  0.00     0.014 C 
ENDROOT
BRANCH   1   3
ATOM      3  C   UNL     1      22.480 -12.872  29.614  1.00  0.00     0.230 C 
BRANCH   3   4
ATOM      4  N   UNL     1      21.966 -12.572  28.269  1.00  0.00    -0.350 N 
ATOM      5  H   UNL     1      21.908 -11.535  28.142  1.00  0.00     0.345 HD
ATOM      6  H   UNL     1      21.015 -12.979  28.124  1.00  0.00     0.345 HD
ATOM      7  H   UNL     1      22.616 -12.943  27.540  1.00  0.00     0.345 HD
ENDBRANCH   3   4
BRANCH   3   8
ATOM      8  C   UNL     1      23.849 -13.506  29.537  1.00  0.00     0.099 C 
ATOM      9  O   UNL     1      24.747 -12.976  28.830  1.00  0.00    -0.544 OA
ATOM     10  O   UNL     1      24.121 -14.695  30.203  1.00  0.00    -0.544 OA
ENDBRANCH   3   8
ENDBRANCH   1   3
BRANCH   1  11
ATOM     11  C   UNL     1      21.099 -11.305  31.150  1.00  0.00     0.006 C 
ATOM     12  C   UNL     1      20.310 -12.564  31.510  1.00  0.00     0.004 C 
ENDBRANCH   1  11
TORSDOF 4
ENDMDL
MODEL 7
REMARK VINA RESULT:    -3.254      2.664      3.371
REMARK INTER + INTRA:          -4.066
REMARK INTER:                  -3.919
REMARK INTRA:                  -0.147
REMARK UNBOUND:                -0.147
REMARK SMILES CC[C@@H](C)[C@@H]([NH3+])C(=O)[O-]
REMARK SMILES IDX 3 1 4 2 5 3 6 4 7 8 8 9 9 10 2 11 1 12
REMARK H PARENT 6 5 6 6 6 7
REMARK Flexibility Score: inf
ROOT
ATOM      1  C   UNL     1      22.270 -12.371  30.869  1.00  0.00     0.050 C 
ATOM      2  C   UNL     1      20.891 -11.747  31.144  1.00  0.00     0.014 C 
ENDROOT
BRANCH   1   3
ATOM      3  C   UNL     1      22.241 -13.250  29.579  1.00  0.00     0.230 C 
BRANCH   3   4
ATOM      4  N   UNL     1      21.804 -12.504  28.390  1.00  0.00    -0.350 N 
ATOM      5  H   UNL     1      21.868 -13.122  27.548  1.00  0.00     0.345 HD
ATOM      6  H   UNL     1      22.397 -11.660  28.228  1.00  0.00     0.345 HD
ATOM      7  H   UNL     1      20.806 -12.211  28.491  1.00  0.00     0.345 HD
ENDBRANCH   3   4
BRANCH   3   8
ATOM      8  C   UNL     1      23.580 -13.906  29.340  1.00  0.00     0.099 C 
ATOM      9  O   UNL     1      24.044 -14.713  30.189  1.00  0.00    -0.544 OA
ATOM     10  O   UNL     1      24.331 -13.599  28.211  1.00  0.00    -0.544 OA
ENDBRANCH   3   8
ENDBRANCH   1   3
BRANCH   1  11
ATOM     11  C   UNL     1      23.381 -11.289  30.836  1.00  0.00     0.006 C 
ATOM     12  C   UNL     1      24.308 -11.357  32.050  1.00  0.00     0.004 C 
ENDBRANCH   1  11
TORSDOF 4
ENDMDL
MODEL 8
REMARK VINA RESULT:    -3.245      4.378      5.222
REMARK INTER + INTRA:          -4.056
REMARK INTER:                  -3.992
REMARK INTRA:                  -0.063
REMARK UNBOUND:                -0.147
REMARK SMILES CC[C@@H](C)[C@@H]([NH3+])C(=O)[O-]
REMARK SMILES IDX 3 1 4 2 5 3 6 4 7 8 8 9 9 10 2 11 1 12
REMARK H PARENT 6 5 6 6 6 7
REMARK Flexibility Score: inf
ROOT
ATOM      1  C   UNL     1      25.154 -12.703  31.047  1.00  0.00     0.050 C 
ATOM      2  C   UNL     1      24.956 -12.922  29.536  1.00  0.00     0.014 C 
ENDROOT
BRANCH   1   3
ATOM      3  C   UNL     1      26.670 -12.578  31.401  1.00  0.00     0.230 C 
BRANCH   3   4
ATOM      4  N   UNL     1      26.973 -11.382  32.202  1.00  0.00    -0.350 N 
ATOM      5  H   UNL     1      27.650 -11.633  32.960  1.00  0.00     0.345 HD
ATOM      6  H   UNL     1      26.111 -10.989  32.643  1.00  0.00     0.345 HD
ATOM      7  H   UNL     1      27.422 -10.650  31.607  1.00  0.00     0.345 HD
ENDBRANCH   3   4
BRANCH   3   8
ATOM      8  C   UNL     1      27.170 -13.826  32.089  1.00  0.00     0.099 C 
ATOM      9  O   UNL     1      27.008 -14.950  31.544  1.00  0.00    -0.544 OA
ATOM     10  O   UNL     1      27.772 -13.757  33.339  1.00  0.00    -0.544 OA
ENDBRANCH   3   8
ENDBRANCH   1   3
BRANCH   1  11
ATOM     11  C   UNL     1      24.316 -11.501  31.555  1.00  0.00     0.006 C 
ATOM     12  C   UNL     1      22.995 -11.342  30.802  1.00  0.00     0.004 C 
ENDBRANCH   1  11
TORSDOF 4
ENDMDL
MODEL 9
REMARK VINA RESULT:    -3.240      1.730      2.603
REMARK INTER + INTRA:          -4.050
REMARK INTER:                  -3.963
REMARK INTRA:                  -0.086
REMARK UNBOUND:                -0.147
REMARK SMILES CC[C@@H](C)[C@@H]([NH3+])C(=O)[O-]
REMARK SMILES IDX 3 1 4 2 5 3 6 4 7 8 8 9 9 10 2 11 1 12
REMARK H PARENT 6 5 6 6 6 7
REMARK Flexibility Score: inf
ROOT
ATOM      1  C   UNL     1      22.529 -12.782  31.242  1.00  0.00     0.050 C 
ATOM      2  C   UNL     1      23.041 -13.660  32.398  1.00  0.00     0.014 C 
ENDROOT
BRANCH   1   3
ATOM      3  C   UNL     1      20.977 -12.625  31.302  1.00  0.00     0.230 C 
BRANCH   3   4
ATOM      4  N   UNL     1      20.551 -11.231  31.500  1.00  0.00    -0.350 N 
ATOM      5  H   UNL     1      19.749 -11.204  32.172  1.00  0.00     0.345 HD
ATOM      6  H   UNL     1      20.247 -10.793  30.602  1.00  0.00     0.345 HD
ATOM      7  H   UNL     1      21.328 -10.669  31.915  1.00  0.00     0.345 HD
ENDBRANCH   3   4
BRANCH   3   8
ATOM      8  C   UNL     1      20.324 -13.217  30.076  1.00  0.00     0.099 C 
ATOM      9  O   UNL     1      19.875 -14.394  30.111  1.00  0.00    -0.544 OA
ATOM     10  O   UNL     1      20.249 -12.495  28.891  1.00  0.00    -0.544 OA
ENDBRANCH   3   8
ENDBRANCH   1   3
BRANCH   1  11
ATOM     11  C   UNL     1      23.271 -11.421  31.200  1.00  0.00     0.006 C 
ATOM     12  C   UNL     1      24.474 -11.375  32.143  1.00  0.00     0.004 C 
ENDBRANCH   1  11
TORSDOF 4
ENDMDL
