MODEL 1
REMARK VINA RESULT:    -4.329      0.000      0.000
REMARK INTER + INTRA:          -4.985
REMARK INTER:                  -4.835
REMARK INTRA:                  -0.151
REMARK UNBOUND:                -0.151
REMARK SMILES COc1cc2ccc(=O)oc2cc1OC
REMARK SMILES IDX 3 1 13 2 12 3 11 4 5 5 4 6 6 7 7 8 8 9 9 10 10 11 2 12 1 13
REMARK SMILES IDX 14 14 15 15
REMARK H PARENT
REMARK Flexibility Score: inf
ROOT
ATOM      1  C   UNL     1      71.538  39.238  21.450  1.00  0.00     0.161 A 
ATOM      2  C   UNL     1      72.159  38.130  20.847  1.00  0.00     0.164 A 
ATOM      3  C   UNL     1      71.385  37.205  20.119  1.00  0.00     0.098 A 
ATOM      4  C   UNL     1      70.006  37.381  19.994  1.00  0.00     0.142 A 
ATOM      5  C   UNL     1      69.382  38.492  20.596  1.00  0.00     0.022 A 
ATOM      6  C   UNL     1      70.146  39.415  21.322  1.00  0.00     0.062 A 
ATOM      7  C   UNL     1      67.998  38.640  20.452  1.00  0.00     0.019 A 
ATOM      8  C   UNL     1      67.281  37.694  19.721  1.00  0.00     0.094 A 
ATOM      9  C   UNL     1      67.967  36.618  19.150  1.00  0.00     0.336 A 
ATOM     10  O   UNL     1      67.338  35.753  18.486  1.00  0.00    -0.246 OA
ATOM     11  O   UNL     1      69.283  36.501  19.303  1.00  0.00    -0.423 OA
ENDROOT
BRANCH   1  12
ATOM     12  O   UNL     1      72.340  40.140  22.167  1.00  0.00    -0.493 OA
ATOM     13  C   UNL     1      72.768  41.407  21.676  1.00  0.00     0.278 C 
ENDBRANCH   1  12
BRANCH   2  14
ATOM     14  O   UNL     1      73.547  37.985  20.995  1.00  0.00    -0.493 OA
ATOM     15  C   UNL     1      74.512  38.455  20.059  1.00  0.00     0.278 C 
ENDBRANCH   2  14
TORSDOF 2
ENDMDL
MODEL 2
REMARK VINA RESULT:    -4.294      1.451      5.746
REMARK INTER + INTRA:          -4.947
REMARK INTER:                  -4.836
REMARK INTRA:                  -0.111
REMARK UNBOUND:                -0.151
REMARK SMILES COc1cc2ccc(=O)oc2cc1OC
REMARK SMILES IDX 3 1 13 2 12 3 11 4 5 5 4 6 6 7 7 8 8 9 9 10 10 11 2 12 1 13
REMARK SMILES IDX 14 14 15 15
REMARK H PARENT
REMARK Flexibility Score: inf
ROOT
ATOM      1  C   UNL     1      71.138  36.991  19.753  1.00  0.00     0.161 A 
ATOM      2  C   UNL     1      70.230  37.996  20.127  1.00  0.00     0.164 A 
ATOM      3  C   UNL     1      70.704  39.172  20.743  1.00  0.00     0.098 A 
ATOM      4  C   UNL     1      72.068  39.343  20.985  1.00  0.00     0.142 A 
ATOM      5  C   UNL     1      72.979  38.336  20.609  1.00  0.00     0.022 A 
ATOM      6  C   UNL     1      72.515  37.165  19.996  1.00  0.00     0.062 A 
ATOM      7  C   UNL     1      74.340  38.538  20.864  1.00  0.00     0.019 A 
ATOM      8  C   UNL     1      74.753  39.720  21.477  1.00  0.00     0.094 A 
ATOM      9  C   UNL     1      73.792  40.676  21.822  1.00  0.00     0.336 A 
ATOM     10  O   UNL     1      74.145  41.750  22.375  1.00  0.00    -0.246 OA
ATOM     11  O   UNL     1      72.505  40.458  21.568  1.00  0.00    -0.423 OA
ENDROOT
BRANCH   1  12
ATOM     12  O   UNL     1      70.631  35.833  19.141  1.00  0.00    -0.493 OA
ATOM     13  C   UNL     1      71.368  35.003  18.248  1.00  0.00     0.278 C 
ENDBRANCH   1  12
BRANCH   2  14
ATOM     14  O   UNL     1      68.866  37.789  19.869  1.00  0.00    -0.493 OA
ATOM     15  C   UNL     1      67.824  38.003  20.817  1.00  0.00     0.278 C 
ENDBRANCH   2  14
TORSDOF 2
ENDMDL
MODEL 3
REMARK VINA RESULT:    -4.288      1.581      4.863
REMARK INTER + INTRA:          -4.940
REMARK INTER:                  -4.838
REMARK INTRA:                  -0.102
REMARK UNBOUND:                -0.151
REMARK SMILES COc1cc2ccc(=O)oc2cc1OC
REMARK SMILES IDX 3 1 13 2 12 3 11 4 5 5 4 6 6 7 7 8 8 9 9 10 10 11 2 12 1 13
REMARK SMILES IDX 14 14 15 15
REMARK H PARENT
REMARK Flexibility Score: inf
ROOT
ATOM      1  C   UNL     1      68.568  37.017  19.597  1.00  0.00     0.161 A 
ATOM      2  C   UNL     1      69.900  36.823  19.192  1.00  0.00     0.164 A 
ATOM      3  C   UNL     1      70.911  37.669  19.689  1.00  0.00     0.098 A 
ATOM      4  C   UNL     1      70.598  38.698  20.580  1.00  0.00     0.142 A 
ATOM      5  C   UNL     1      69.264  38.892  20.987  1.00  0.00     0.022 A 
ATOM      6  C   UNL     1      68.253  38.055  20.496  1.00  0.00     0.062 A 
ATOM      7  C   UNL     1      68.983  39.932  21.880  1.00  0.00     0.019 A 
ATOM      8  C   UNL     1      70.022  40.739  22.339  1.00  0.00     0.094 A 
ATOM      9  C   UNL     1      71.323  40.486  21.893  1.00  0.00     0.336 A 
ATOM     10  O   UNL     1      72.276  41.203  22.297  1.00  0.00    -0.246 OA
ATOM     11  O   UNL     1      71.562  39.491  21.043  1.00  0.00    -0.423 OA
ENDROOT
BRANCH   1  12
ATOM     12  O   UNL     1      67.586  36.156  19.082  1.00  0.00    -0.493 OA
ATOM     13  C   UNL     1      66.800  36.427  17.925  1.00  0.00     0.278 C 
ENDBRANCH   1  12
BRANCH   2  14
ATOM     14  O   UNL     1      70.177  35.780  18.295  1.00  0.00    -0.493 OA
ATOM     15  C   UNL     1      71.388  35.030  18.278  1.00  0.00     0.278 C 
ENDBRANCH   2  14
TORSDOF 2
ENDMDL
MODEL 4
REMARK VINA RESULT:    -4.288      1.761      5.634
REMARK INTER + INTRA:          -4.940
REMARK INTER:                  -4.810
REMARK INTRA:                  -0.130
REMARK UNBOUND:                -0.151
REMARK SMILES COc1cc2ccc(=O)oc2cc1OC
REMARK SMILES IDX 3 1 13 2 12 3 11 4 5 5 4 6 6 7 7 8 8 9 9 10 10 11 2 12 1 13
REMARK SMILES IDX 14 14 15 15
REMARK H PARENT
REMARK Flexibility Score: inf
ROOT
ATOM      1  C   UNL     1      69.524  38.384  20.268  1.00  0.00     0.161 A 
ATOM      2  C   UNL     1      69.393  39.551  21.041  1.00  0.00     0.164 A 
ATOM      3  C   UNL     1      70.527  40.108  21.665  1.00  0.00     0.098 A 
ATOM      4  C   UNL     1      71.779  39.507  21.522  1.00  0.00     0.142 A 
ATOM      5  C   UNL     1      71.912  38.338  20.748  1.00  0.00     0.022 A 
ATOM      6  C   UNL     1      70.789  37.779  20.124  1.00  0.00     0.062 A 
ATOM      7  C   UNL     1      73.181  37.760  20.624  1.00  0.00     0.019 A 
ATOM      8  C   UNL     1      74.268  38.353  21.264  1.00  0.00     0.094 A 
ATOM      9  C   UNL     1      74.061  39.513  22.016  1.00  0.00     0.336 A 
ATOM     10  O   UNL     1      75.029  40.064  22.601  1.00  0.00    -0.246 OA
ATOM     11  O   UNL     1      72.844  40.042  22.117  1.00  0.00    -0.423 OA
ENDROOT
BRANCH   1  12
ATOM     12  O   UNL     1      68.374  37.857  19.660  1.00  0.00    -0.493 OA
ATOM     13  C   UNL     1      67.916  36.518  19.822  1.00  0.00     0.278 C 
ENDBRANCH   1  12
BRANCH   2  14
ATOM     14  O   UNL     1      68.119  40.127  21.162  1.00  0.00    -0.493 OA
ATOM     15  C   UNL     1      67.699  41.308  20.487  1.00  0.00     0.278 C 
ENDBRANCH   2  14
TORSDOF 2
ENDMDL
MODEL 5
REMARK VINA RESULT:    -4.251      1.539      2.891
REMARK INTER + INTRA:          -4.899
REMARK INTER:                  -4.780
REMARK INTRA:                  -0.119
REMARK UNBOUND:                -0.151
REMARK SMILES COc1cc2ccc(=O)oc2cc1OC
REMARK SMILES IDX 3 1 13 2 12 3 11 4 5 5 4 6 6 7 7 8 8 9 9 10 10 11 2 12 1 13
REMARK SMILES IDX 14 14 15 15
REMARK H PARENT
REMARK Flexibility Score: inf
ROOT
ATOM      1  C   UNL     1      72.512  38.806  21.655  1.00  0.00     0.161 A 
ATOM      2  C   UNL     1      71.296  39.510  21.691  1.00  0.00     0.164 A 
ATOM      3  C   UNL     1      70.209  39.067  20.911  1.00  0.00     0.098 A 
ATOM      4  C   UNL     1      70.333  37.935  20.102  1.00  0.00     0.142 A 
ATOM      5  C   UNL     1      71.551  37.229  20.066  1.00  0.00     0.022 A 
ATOM      6  C   UNL     1      72.636  37.663  20.840  1.00  0.00     0.062 A 
ATOM      7  C   UNL     1      71.643  36.099  19.247  1.00  0.00     0.019 A 
ATOM      8  C   UNL     1      70.537  35.707  18.495  1.00  0.00     0.094 A 
ATOM      9  C   UNL     1      69.360  36.456  18.581  1.00  0.00     0.336 A 
ATOM     10  O   UNL     1      68.349  36.118  17.911  1.00  0.00    -0.246 OA
ATOM     11  O   UNL     1      69.299  37.526  19.369  1.00  0.00    -0.423 OA
ENDROOT
BRANCH   1  12
ATOM     12  O   UNL     1      73.573  39.274  22.446  1.00  0.00    -0.493 OA
ATOM     13  C   UNL     1      74.671  40.038  21.953  1.00  0.00     0.278 C 
ENDBRANCH   1  12
BRANCH   2  14
ATOM     14  O   UNL     1      71.208  40.643  22.514  1.00  0.00    -0.493 OA
ATOM     15  C   UNL     1      70.237  41.674  22.367  1.00  0.00     0.278 C 
ENDBRANCH   2  14
TORSDOF 2
ENDMDL
MODEL 6
REMARK VINA RESULT:    -4.200      1.829      5.258
REMARK INTER + INTRA:          -4.842
REMARK INTER:                  -4.723
REMARK INTRA:                  -0.119
REMARK UNBOUND:                -0.151
REMARK SMILES COc1cc2ccc(=O)oc2cc1OC
REMARK SMILES IDX 3 1 13 2 12 3 11 4 5 5 4 6 6 7 7 8 8 9 9 10 10 11 2 12 1 13
REMARK SMILES IDX 14 14 15 15
REMARK H PARENT
REMARK Flexibility Score: inf
ROOT
ATOM      1  C   UNL     1      70.059  36.711  19.163  1.00  0.00     0.161 A 
ATOM      2  C   UNL     1      68.760  37.011  19.611  1.00  0.00     0.164 A 
ATOM      3  C   UNL     1      68.562  38.068  20.520  1.00  0.00     0.098 A 
ATOM      4  C   UNL     1      69.646  38.819  20.980  1.00  0.00     0.142 A 
ATOM      5  C   UNL     1      70.947  38.520  20.531  1.00  0.00     0.022 A 
ATOM      6  C   UNL     1      71.152  37.470  19.627  1.00  0.00     0.062 A 
ATOM      7  C   UNL     1      72.012  39.291  21.010  1.00  0.00     0.019 A 
ATOM      8  C   UNL     1      71.758  40.324  21.910  1.00  0.00     0.094 A 
ATOM      9  C   UNL     1      70.440  40.565  22.311  1.00  0.00     0.336 A 
ATOM     10  O   UNL     1      70.190  41.494  23.122  1.00  0.00    -0.246 OA
ATOM     11  O   UNL     1      69.446  39.816  21.840  1.00  0.00    -0.423 OA
ENDROOT
BRANCH   1  12
ATOM     12  O   UNL     1      70.220  35.651  18.257  1.00  0.00    -0.493 OA
ATOM     13  C   UNL     1      71.453  34.982  18.007  1.00  0.00     0.278 C 
ENDBRANCH   1  12
BRANCH   2  14
ATOM     14  O   UNL     1      67.695  36.235  19.128  1.00  0.00    -0.493 OA
ATOM     15  C   UNL     1      66.777  36.659  18.125  1.00  0.00     0.278 C 
ENDBRANCH   2  14
TORSDOF 2
ENDMDL
MODEL 7
REMARK VINA RESULT:    -4.072      1.797      2.387
REMARK INTER + INTRA:          -4.699
REMARK INTER:                  -4.535
REMARK INTRA:                  -0.165
REMARK UNBOUND:                -0.151
REMARK SMILES COc1cc2ccc(=O)oc2cc1OC
REMARK SMILES IDX 3 1 13 2 12 3 11 4 5 5 4 6 6 7 7 8 8 9 9 10 10 11 2 12 1 13
REMARK SMILES IDX 14 14 15 15
REMARK H PARENT
REMARK Flexibility Score: inf
ROOT
ATOM      1  C   UNL     1      73.543  39.770  21.555  1.00  0.00     0.161 A 
ATOM      2  C   UNL     1      73.462  38.804  20.537  1.00  0.00     0.164 A 
ATOM      3  C   UNL     1      72.205  38.294  20.155  1.00  0.00     0.098 A 
ATOM      4  C   UNL     1      71.041  38.741  20.783  1.00  0.00     0.142 A 
ATOM      5  C   UNL     1      71.120  39.710  21.803  1.00  0.00     0.022 A 
ATOM      6  C   UNL     1      72.367  40.221  22.187  1.00  0.00     0.062 A 
ATOM      7  C   UNL     1      69.935  40.137  22.411  1.00  0.00     0.019 A 
ATOM      8  C   UNL     1      68.719  39.597  21.995  1.00  0.00     0.094 A 
ATOM      9  C   UNL     1      68.716  38.640  20.976  1.00  0.00     0.336 A 
ATOM     10  O   UNL     1      67.629  38.142  20.585  1.00  0.00    -0.246 OA
ATOM     11  O   UNL     1      69.858  38.252  20.414  1.00  0.00    -0.423 OA
ENDROOT
BRANCH   1  12
ATOM     12  O   UNL     1      74.811  40.257  21.909  1.00  0.00    -0.493 OA
ATOM     13  C   UNL     1      75.325  41.529  21.524  1.00  0.00     0.278 C 
ENDBRANCH   1  12
BRANCH   2  14
ATOM     14  O   UNL     1      74.653  38.378  19.929  1.00  0.00    -0.493 OA
ATOM     15  C   UNL     1      75.076  38.761  18.624  1.00  0.00     0.278 C 
ENDBRANCH   2  14
TORSDOF 2
ENDMDL
MODEL 8
REMARK VINA RESULT:    -4.011      2.240      3.662
REMARK INTER + INTRA:          -4.630
REMARK INTER:                  -4.510
REMARK INTRA:                  -0.120
REMARK UNBOUND:                -0.151
REMARK SMILES COc1cc2ccc(=O)oc2cc1OC
REMARK SMILES IDX 3 1 13 2 12 3 11 4 5 5 4 6 6 7 7 8 8 9 9 10 10 11 2 12 1 13
REMARK SMILES IDX 14 14 15 15
REMARK H PARENT
REMARK Flexibility Score: inf
ROOT
ATOM      1  C   UNL     1      70.768  36.665  19.638  1.00  0.00     0.161 A 
ATOM      2  C   UNL     1      71.492  37.607  20.390  1.00  0.00     0.164 A 
ATOM      3  C   UNL     1      70.912  38.856  20.689  1.00  0.00     0.098 A 
ATOM      4  C   UNL     1      69.626  39.164  20.243  1.00  0.00     0.142 A 
ATOM      5  C   UNL     1      68.899  38.220  19.490  1.00  0.00     0.022 A 
ATOM      6  C   UNL     1      69.469  36.977  19.189  1.00  0.00     0.062 A 
ATOM      7  C   UNL     1      67.612  38.559  19.058  1.00  0.00     0.019 A 
ATOM      8  C   UNL     1      67.089  39.810  19.382  1.00  0.00     0.094 A 
ATOM      9  C   UNL     1      67.867  40.696  20.134  1.00  0.00     0.336 A 
ATOM     10  O   UNL     1      67.412  41.829  20.438  1.00  0.00    -0.246 OA
ATOM     11  O   UNL     1      69.088  40.348  20.532  1.00  0.00    -0.423 OA
ENDROOT
BRANCH   1  12
ATOM     12  O   UNL     1      71.376  35.430  19.359  1.00  0.00    -0.493 OA
ATOM     13  C   UNL     1      71.710  34.972  18.052  1.00  0.00     0.278 C 
ENDBRANCH   1  12
BRANCH   2  14
ATOM     14  O   UNL     1      72.782  37.263  20.821  1.00  0.00    -0.493 OA
ATOM     15  C   UNL     1      73.857  38.186  20.968  1.00  0.00     0.278 C 
ENDBRANCH   2  14
TORSDOF 2
ENDMDL
MODEL 9
REMARK VINA RESULT:    -3.991      1.722      2.941
REMARK INTER + INTRA:          -4.609
REMARK INTER:                  -4.446
REMARK INTRA:                  -0.162
REMARK UNBOUND:                -0.151
REMARK SMILES COc1cc2ccc(=O)oc2cc1OC
REMARK SMILES IDX 3 1 13 2 12 3 11 4 5 5 4 6 6 7 7 8 8 9 9 10 10 11 2 12 1 13
REMARK SMILES IDX 14 14 15 15
REMARK H PARENT
REMARK Flexibility Score: inf
ROOT
ATOM      1  C   UNL     1      73.820  38.337  19.258  1.00  0.00     0.161 A 
ATOM      2  C   UNL     1      73.433  38.560  20.591  1.00  0.00     0.164 A 
ATOM      3  C   UNL     1      72.125  38.234  21.003  1.00  0.00     0.098 A 
ATOM      4  C   UNL     1      71.212  37.694  20.096  1.00  0.00     0.142 A 
ATOM      5  C   UNL     1      71.599  37.470  18.760  1.00  0.00     0.022 A 
ATOM      6  C   UNL     1      72.898  37.791  18.343  1.00  0.00     0.062 A 
ATOM      7  C   UNL     1      70.661  36.926  17.875  1.00  0.00     0.019 A 
ATOM      8  C   UNL     1      69.381  36.624  18.336  1.00  0.00     0.094 A 
ATOM      9  C   UNL     1      69.067  36.873  19.676  1.00  0.00     0.336 A 
ATOM     10  O   UNL     1      67.917  36.606  20.112  1.00  0.00    -0.246 OA
ATOM     11  O   UNL     1      69.978  37.390  20.496  1.00  0.00    -0.423 OA
ENDROOT
BRANCH   1  12
ATOM     12  O   UNL     1      75.131  38.672  18.883  1.00  0.00    -0.493 OA
ATOM     13  C   UNL     1      75.491  39.857  18.178  1.00  0.00     0.278 C 
ENDBRANCH   1  12
BRANCH   2  14
ATOM     14  O   UNL     1      74.377  39.105  21.475  1.00  0.00    -0.493 OA
ATOM     15  C   UNL     1      74.328  40.432  21.990  1.00  0.00     0.278 C 
ENDBRANCH   2  14
TORSDOF 2
ENDMDL
