MODEL 1
REMARK VINA RESULT:    -5.522      0.000      0.000
REMARK INTER + INTRA:          -5.684
REMARK INTER:                  -5.684
REMARK INTRA:                   0.000
REMARK UNBOUND:                 0.000
REMARK SMILES Oc1ccc2[nH]ccc2c1
REMARK SMILES IDX 3 1 4 2 5 3 9 4 8 5 7 6 6 7 10 8 2 9 1 11
REMARK H PARENT 6 10 1 12
REMARK Flexibility Score: inf
ROOT
ATOM      1  C   UNL     1      47.064 104.227   8.383  1.00  0.00     0.048 A 
ATOM      2  C   UNL     1      47.388 105.495   7.866  1.00  0.00     0.030 A 
ATOM      3  C   UNL     1      48.733 105.787   7.655  1.00  0.00     0.046 A 
ATOM      4  C   UNL     1      49.720 104.881   7.937  1.00  0.00     0.003 A 
ATOM      5  C   UNL     1      50.924 105.470   7.621  1.00  0.00     0.028 A 
ATOM      6  C   UNL     1      50.596 106.738   7.151  1.00  0.00     0.083 A 
ATOM      7  N   UNL     1      49.257 106.927   7.175  1.00  0.00    -0.361 N 
ATOM      8  C   UNL     1      49.434 103.617   8.449  1.00  0.00     0.056 A 
ATOM      9  C   UNL     1      48.080 103.288   8.675  1.00  0.00     0.116 A 
ATOM     10  H   UNL     1      48.740 107.784   6.878  1.00  0.00     0.166 HD
ENDROOT
BRANCH   9  11
ATOM     11  O   UNL     1      47.733 102.040   9.185  1.00  0.00    -0.508 OA
ATOM     12  H   UNL     1      46.949 101.926   9.816  1.00  0.00     0.293 HD
ENDBRANCH   9  11
TORSDOF 1
ENDMDL
MODEL 2
REMARK VINA RESULT:    -5.441     14.697     15.216
REMARK INTER + INTRA:          -5.600
REMARK INTER:                  -5.600
REMARK INTRA:                   0.000
REMARK UNBOUND:                 0.000
REMARK SMILES Oc1ccc2[nH]ccc2c1
REMARK SMILES IDX 3 1 4 2 5 3 9 4 8 5 7 6 6 7 10 8 2 9 1 11
REMARK H PARENT 6 10 1 12
REMARK Flexibility Score: inf
ROOT
ATOM      1  C   UNL     1      56.776 105.184  22.916  1.00  0.00     0.048 A 
ATOM      2  C   UNL     1      57.095 105.466  21.575  1.00  0.00     0.030 A 
ATOM      3  C   UNL     1      56.047 105.558  20.663  1.00  0.00     0.046 A 
ATOM      4  C   UNL     1      54.743 105.382  21.043  1.00  0.00     0.003 A 
ATOM      5  C   UNL     1      53.960 105.535  19.920  1.00  0.00     0.028 A 
ATOM      6  C   UNL     1      54.855 105.803  18.888  1.00  0.00     0.083 A 
ATOM      7  N   UNL     1      56.128 105.814  19.347  1.00  0.00    -0.361 N 
ATOM      8  C   UNL     1      54.392 105.103  22.363  1.00  0.00     0.056 A 
ATOM      9  C   UNL     1      55.431 105.003  23.314  1.00  0.00     0.116 A 
ATOM     10  H   UNL     1      56.993 105.989  18.789  1.00  0.00     0.166 HD
ENDROOT
BRANCH   9  11
ATOM     11  O   UNL     1      55.142 104.726  24.647  1.00  0.00    -0.508 OA
ATOM     12  H   UNL     1      55.264 103.797  25.033  1.00  0.00     0.293 HD
ENDBRANCH   9  11
TORSDOF 1
ENDMDL
MODEL 3
REMARK VINA RESULT:    -5.206     14.736     15.330
REMARK INTER + INTRA:          -5.359
REMARK INTER:                  -5.359
REMARK INTRA:                   0.000
REMARK UNBOUND:                 0.000
REMARK SMILES Oc1ccc2[nH]ccc2c1
REMARK SMILES IDX 3 1 4 2 5 3 9 4 8 5 7 6 6 7 10 8 2 9 1 11
REMARK H PARENT 6 10 1 12
REMARK Flexibility Score: inf
ROOT
ATOM      1  C   UNL     1      56.171 105.054  21.409  1.00  0.00     0.048 A 
ATOM      2  C   UNL     1      55.555 104.813  22.652  1.00  0.00     0.030 A 
ATOM      3  C   UNL     1      54.224 105.194  22.803  1.00  0.00     0.046 A 
ATOM      4  C   UNL     1      53.524 105.784  21.785  1.00  0.00     0.003 A 
ATOM      5  C   UNL     1      52.252 106.035  22.249  1.00  0.00     0.028 A 
ATOM      6  C   UNL     1      52.247 105.570  23.562  1.00  0.00     0.083 A 
ATOM      7  N   UNL     1      53.454 105.058  23.895  1.00  0.00    -0.361 N 
ATOM      8  C   UNL     1      54.103 106.037  20.542  1.00  0.00     0.056 A 
ATOM      9  C   UNL     1      55.451 105.663  20.355  1.00  0.00     0.116 A 
ATOM     10  H   UNL     1      53.726 104.642  24.813  1.00  0.00     0.166 HD
ENDROOT
BRANCH   9  11
ATOM     11  O   UNL     1      56.083 105.890  19.136  1.00  0.00    -0.508 OA
ATOM     12  H   UNL     1      56.858 105.314  18.827  1.00  0.00     0.293 HD
ENDBRANCH   9  11
TORSDOF 1
ENDMDL
MODEL 4
REMARK VINA RESULT:    -5.160      2.128      3.424
REMARK INTER + INTRA:          -5.310
REMARK INTER:                  -5.310
REMARK INTRA:                   0.000
REMARK UNBOUND:                 0.000
REMARK SMILES Oc1ccc2[nH]ccc2c1
REMARK SMILES IDX 3 1 4 2 5 3 9 4 8 5 7 6 6 7 10 8 2 9 1 11
REMARK H PARENT 6 10 1 12
REMARK Flexibility Score: inf
ROOT
ATOM      1  C   UNL     1      50.932 106.210   6.730  1.00  0.00     0.048 A 
ATOM      2  C   UNL     1      49.626 106.676   6.967  1.00  0.00     0.030 A 
ATOM      3  C   UNL     1      48.690 105.769   7.455  1.00  0.00     0.046 A 
ATOM      4  C   UNL     1      49.014 104.462   7.702  1.00  0.00     0.003 A 
ATOM      5  C   UNL     1      47.881 103.836   8.171  1.00  0.00     0.028 A 
ATOM      6  C   UNL     1      46.900 104.824   8.185  1.00  0.00     0.083 A 
ATOM      7  N   UNL     1      47.399 106.002   7.746  1.00  0.00    -0.361 N 
ATOM      8  C   UNL     1      50.298 103.967   7.480  1.00  0.00     0.056 A 
ATOM      9  C   UNL     1      51.272 104.861   6.985  1.00  0.00     0.116 A 
ATOM     10  H   UNL     1      46.884 106.905   7.654  1.00  0.00     0.166 HD
ENDROOT
BRANCH   9  11
ATOM     11  O   UNL     1      52.572 104.425   6.743  1.00  0.00    -0.508 OA
ATOM     12  H   UNL     1      53.217 104.239   7.503  1.00  0.00     0.293 HD
ENDBRANCH   9  11
TORSDOF 1
ENDMDL
MODEL 5
REMARK VINA RESULT:    -5.102      2.694      3.975
REMARK INTER + INTRA:          -5.251
REMARK INTER:                  -5.251
REMARK INTRA:                   0.000
REMARK UNBOUND:                 0.000
REMARK SMILES Oc1ccc2[nH]ccc2c1
REMARK SMILES IDX 3 1 4 2 5 3 9 4 8 5 7 6 6 7 10 8 2 9 1 11
REMARK H PARENT 6 10 1 12
REMARK Flexibility Score: inf
ROOT
ATOM      1  C   UNL     1      51.274 104.028   6.633  1.00  0.00     0.048 A 
ATOM      2  C   UNL     1      50.332 103.393   7.463  1.00  0.00     0.030 A 
ATOM      3  C   UNL     1      49.150 104.072   7.744  1.00  0.00     0.046 A 
ATOM      4  C   UNL     1      48.897 105.318   7.236  1.00  0.00     0.003 A 
ATOM      5  C   UNL     1      47.658 105.708   7.696  1.00  0.00     0.028 A 
ATOM      6  C   UNL     1      47.212 104.649   8.481  1.00  0.00     0.083 A 
ATOM      7  N   UNL     1      48.127 103.653   8.508  1.00  0.00    -0.361 N 
ATOM      8  C   UNL     1      49.807 105.976   6.410  1.00  0.00     0.056 A 
ATOM      9  C   UNL     1      51.016 105.315   6.105  1.00  0.00     0.116 A 
ATOM     10  H   UNL     1      48.050 102.745   9.018  1.00  0.00     0.166 HD
ENDROOT
BRANCH   9  11
ATOM     11  O   UNL     1      51.964 105.921   5.285  1.00  0.00    -0.508 OA
ATOM     12  H   UNL     1      52.957 105.824   5.463  1.00  0.00     0.293 HD
ENDBRANCH   9  11
TORSDOF 1
ENDMDL
MODEL 6
REMARK VINA RESULT:    -5.089      2.469      3.345
REMARK INTER + INTRA:          -5.238
REMARK INTER:                  -5.238
REMARK INTRA:                   0.000
REMARK UNBOUND:                 0.000
REMARK SMILES Oc1ccc2[nH]ccc2c1
REMARK SMILES IDX 3 1 4 2 5 3 9 4 8 5 7 6 6 7 10 8 2 9 1 11
REMARK H PARENT 6 10 1 12
REMARK Flexibility Score: inf
ROOT
ATOM      1  C   UNL     1      49.983 106.785   7.623  1.00  0.00     0.048 A 
ATOM      2  C   UNL     1      49.847 106.281   6.316  1.00  0.00     0.030 A 
ATOM      3  C   UNL     1      49.165 105.079   6.150  1.00  0.00     0.046 A 
ATOM      4  C   UNL     1      48.638 104.397   7.214  1.00  0.00     0.003 A 
ATOM      5  C   UNL     1      48.035 103.261   6.720  1.00  0.00     0.028 A 
ATOM      6  C   UNL     1      48.233 103.316   5.342  1.00  0.00     0.083 A 
ATOM      7  N   UNL     1      48.924 104.427   5.000  1.00  0.00    -0.361 N 
ATOM      8  C   UNL     1      48.754 104.867   8.521  1.00  0.00     0.056 A 
ATOM      9  C   UNL     1      49.440 106.084   8.725  1.00  0.00     0.116 A 
ATOM     10  H   UNL     1      49.209 104.716   4.038  1.00  0.00     0.166 HD
ENDROOT
BRANCH   9  11
ATOM     11  O   UNL     1      49.588 106.603  10.008  1.00  0.00    -0.508 OA
ATOM     12  H   UNL     1      48.879 106.466  10.719  1.00  0.00     0.293 HD
ENDBRANCH   9  11
TORSDOF 1
ENDMDL
MODEL 7
REMARK VINA RESULT:    -5.047      2.162      2.684
REMARK INTER + INTRA:          -5.194
REMARK INTER:                  -5.194
REMARK INTRA:                   0.000
REMARK UNBOUND:                 0.000
REMARK SMILES Oc1ccc2[nH]ccc2c1
REMARK SMILES IDX 3 1 4 2 5 3 9 4 8 5 7 6 6 7 10 8 2 9 1 11
REMARK H PARENT 6 10 1 12
REMARK Flexibility Score: inf
ROOT
ATOM      1  C   UNL     1      48.533 106.484   7.909  1.00  0.00     0.048 A 
ATOM      2  C   UNL     1      49.782 106.764   7.325  1.00  0.00     0.030 A 
ATOM      3  C   UNL     1      50.265 105.878   6.365  1.00  0.00     0.046 A 
ATOM      4  C   UNL     1      49.558 104.766   5.992  1.00  0.00     0.003 A 
ATOM      5  C   UNL     1      50.300 104.107   5.036  1.00  0.00     0.028 A 
ATOM      6  C   UNL     1      51.450 104.876   4.876  1.00  0.00     0.083 A 
ATOM      7  N   UNL     1      51.424 105.955   5.690  1.00  0.00    -0.361 N 
ATOM      8  C   UNL     1      48.319 104.459   6.549  1.00  0.00     0.056 A 
ATOM      9  C   UNL     1      47.800 105.337   7.525  1.00  0.00     0.116 A 
ATOM     10  H   UNL     1      52.155 106.695   5.773  1.00  0.00     0.166 HD
ENDROOT
BRANCH   9  11
ATOM     11  O   UNL     1      46.566 105.083   8.118  1.00  0.00    -0.508 OA
ATOM     12  H   UNL     1      45.745 105.631   7.886  1.00  0.00     0.293 HD
ENDBRANCH   9  11
TORSDOF 1
ENDMDL
MODEL 8
REMARK VINA RESULT:    -5.038      2.907      3.699
REMARK INTER + INTRA:          -5.186
REMARK INTER:                  -5.186
REMARK INTRA:                   0.000
REMARK UNBOUND:                 0.000
REMARK SMILES Oc1ccc2[nH]ccc2c1
REMARK SMILES IDX 3 1 4 2 5 3 9 4 8 5 7 6 6 7 10 8 2 9 1 11
REMARK H PARENT 6 10 1 12
REMARK Flexibility Score: inf
ROOT
ATOM      1  C   UNL     1      49.579 105.720   8.886  1.00  0.00     0.048 A 
ATOM      2  C   UNL     1      49.639 104.336   8.638  1.00  0.00     0.030 A 
ATOM      3  C   UNL     1      49.391 103.896   7.341  1.00  0.00     0.046 A 
ATOM      4  C   UNL     1      49.098 104.770   6.328  1.00  0.00     0.003 A 
ATOM      5  C   UNL     1      48.908 104.027   5.183  1.00  0.00     0.028 A 
ATOM      6  C   UNL     1      49.102 102.704   5.573  1.00  0.00     0.083 A 
ATOM      7  N   UNL     1      49.396 102.630   6.891  1.00  0.00    -0.361 N 
ATOM      8  C   UNL     1      49.030 106.146   6.538  1.00  0.00     0.056 A 
ATOM      9  C   UNL     1      49.277 106.625   7.842  1.00  0.00     0.116 A 
ATOM     10  H   UNL     1      49.588 101.765   7.442  1.00  0.00     0.166 HD
ENDROOT
BRANCH   9  11
ATOM     11  O   UNL     1      49.224 107.990   8.113  1.00  0.00    -0.508 OA
ATOM     12  H   UNL     1      48.481 108.574   7.746  1.00  0.00     0.293 HD
ENDBRANCH   9  11
TORSDOF 1
ENDMDL
MODEL 9
REMARK VINA RESULT:    -5.036      1.787      1.989
REMARK INTER + INTRA:          -5.183
REMARK INTER:                  -5.183
REMARK INTRA:                   0.000
REMARK UNBOUND:                 0.000
REMARK SMILES Oc1ccc2[nH]ccc2c1
REMARK SMILES IDX 3 1 4 2 5 3 9 4 8 5 7 6 6 7 10 8 2 9 1 11
REMARK H PARENT 6 10 1 12
REMARK Flexibility Score: inf
ROOT
ATOM      1  C   UNL     1      48.357 103.174   6.729  1.00  0.00     0.048 A 
ATOM      2  C   UNL     1      47.718 104.374   7.093  1.00  0.00     0.030 A 
ATOM      3  C   UNL     1      48.519 105.452   7.460  1.00  0.00     0.046 A 
ATOM      4  C   UNL     1      49.885 105.363   7.472  1.00  0.00     0.003 A 
ATOM      5  C   UNL     1      50.376 106.585   7.876  1.00  0.00     0.028 A 
ATOM      6  C   UNL     1      49.250 107.374   8.094  1.00  0.00     0.083 A 
ATOM      7  N   UNL     1      48.119 106.677   7.839  1.00  0.00    -0.361 N 
ATOM      8  C   UNL     1      50.550 104.191   7.117  1.00  0.00     0.056 A 
ATOM      9  C   UNL     1      49.767 103.078   6.740  1.00  0.00     0.116 A 
ATOM     10  H   UNL     1      47.138 107.024   7.921  1.00  0.00     0.166 HD
ENDROOT
BRANCH   9  11
ATOM     11  O   UNL     1      50.375 101.880   6.375  1.00  0.00    -0.508 OA
ATOM     12  H   UNL     1      50.007 100.986   6.680  1.00  0.00     0.293 HD
ENDBRANCH   9  11
TORSDOF 1
ENDMDL
