MODEL 1
REMARK VINA RESULT:    -5.648      0.000      0.000
REMARK INTER + INTRA:          -8.092
REMARK INTER:                  -6.968
REMARK INTRA:                  -1.123
REMARK UNBOUND:                -1.123
REMARK SMILES CC(C)=CCC[C@H](C)c1ccc(C)cc1
REMARK SMILES IDX 6 1 7 2 8 3 9 4 13 5 12 6 11 7 14 8 10 9 15 10 5 11 4 12
REMARK SMILES IDX 2 13 1 14 3 15
REMARK H PARENT
REMARK Flexibility Score: inf
ROOT
ATOM      1  C   UNL     1     -28.346  -9.297  21.131  1.00  0.00     0.012 C 
ENDROOT
BRANCH   1   2
ATOM      2  C   UNL     1     -27.997  -9.596  22.606  1.00  0.00     0.016 C 
ATOM      3  C   UNL     1     -28.075  -8.342  23.490  1.00  0.00     0.013 C 
BRANCH   2   4
ATOM      4  C   UNL     1     -26.620 -10.228  22.706  1.00  0.00    -0.045 A 
ATOM      5  C   UNL     1     -22.726 -12.080  22.966  1.00  0.00     0.044 C 
ATOM      6  C   UNL     1     -24.072 -11.421  22.901  1.00  0.00    -0.051 A 
ATOM      7  C   UNL     1     -25.180 -12.016  23.518  1.00  0.00     0.004 A 
ATOM      8  C   UNL     1     -24.246 -10.242  22.162  1.00  0.00     0.004 A 
ATOM      9  C   UNL     1     -26.443 -11.422  23.427  1.00  0.00     0.004 A 
ATOM     10  C   UNL     1     -25.507  -9.647  22.069  1.00  0.00     0.004 A 
ENDBRANCH   2   4
ENDBRANCH   1   2
BRANCH   1  11
ATOM     11  C   UNL     1     -28.472  -7.793  20.846  1.00  0.00     0.028 C 
BRANCH  11  12
ATOM     12  C   UNL     1     -27.407  -7.343  19.878  1.00  0.00    -0.028 C 
ATOM     13  C   UNL     1     -26.391  -6.509  20.191  1.00  0.00    -0.080 C 
ATOM     14  C   UNL     1     -26.193  -5.982  21.594  1.00  0.00     0.039 C 
ATOM     15  C   UNL     1     -25.423  -6.115  19.106  1.00  0.00     0.039 C 
ENDBRANCH  11  12
ENDBRANCH   1  11
TORSDOF 4
ENDMDL
MODEL 2
REMARK VINA RESULT:    -5.602     13.062     15.749
REMARK INTER + INTRA:          -8.035
REMARK INTER:                  -7.164
REMARK INTRA:                  -0.870
REMARK UNBOUND:                -1.123
REMARK SMILES CC(C)=CCC[C@H](C)c1ccc(C)cc1
REMARK SMILES IDX 6 1 7 2 8 3 9 4 13 5 12 6 11 7 14 8 10 9 15 10 5 11 4 12
REMARK SMILES IDX 2 13 1 14 3 15
REMARK H PARENT
REMARK Flexibility Score: inf
ROOT
ATOM      1  C   UNL     1     -36.170   2.316  17.272  1.00  0.00     0.012 C 
ENDROOT
BRANCH   1   2
ATOM      2  C   UNL     1     -36.867   0.954  17.052  1.00  0.00     0.016 C 
ATOM      3  C   UNL     1     -37.359   0.332  18.368  1.00  0.00     0.013 C 
BRANCH   2   4
ATOM      4  C   UNL     1     -35.940  -0.004  16.328  1.00  0.00    -0.045 A 
ATOM      5  C   UNL     1     -33.285  -2.758  14.320  1.00  0.00     0.044 C 
ATOM      6  C   UNL     1     -34.200  -1.780  14.997  1.00  0.00    -0.051 A 
ATOM      7  C   UNL     1     -33.725  -0.974  16.040  1.00  0.00     0.004 A 
ATOM      8  C   UNL     1     -35.554  -1.715  14.638  1.00  0.00     0.004 A 
ATOM      9  C   UNL     1     -34.585  -0.089  16.696  1.00  0.00     0.004 A 
ATOM     10  C   UNL     1     -36.416  -0.832  15.293  1.00  0.00     0.004 A 
ENDBRANCH   2   4
ENDBRANCH   1   2
BRANCH   1  11
ATOM     11  C   UNL     1     -36.778   3.437  16.416  1.00  0.00     0.028 C 
BRANCH  11  12
ATOM     12  C   UNL     1     -38.049   2.971  15.751  1.00  0.00    -0.028 C 
ATOM     13  C   UNL     1     -39.294   3.280  16.177  1.00  0.00    -0.080 C 
ATOM     14  C   UNL     1     -39.530   4.193  17.359  1.00  0.00     0.039 C 
ATOM     15  C   UNL     1     -40.472   2.706  15.434  1.00  0.00     0.039 C 
ENDBRANCH  11  12
ENDBRANCH   1  11
TORSDOF 4
ENDMDL
MODEL 3
REMARK VINA RESULT:    -5.550      1.544      3.170
REMARK INTER + INTRA:          -7.970
REMARK INTER:                  -6.891
REMARK INTRA:                  -1.079
REMARK UNBOUND:                -1.123
REMARK SMILES CC(C)=CCC[C@H](C)c1ccc(C)cc1
REMARK SMILES IDX 6 1 7 2 8 3 9 4 13 5 12 6 11 7 14 8 10 9 15 10 5 11 4 12
REMARK SMILES IDX 2 13 1 14 3 15
REMARK H PARENT
REMARK Flexibility Score: inf
ROOT
ATOM      1  C   UNL     1     -25.729  -8.032  20.601  1.00  0.00     0.012 C 
ENDROOT
BRANCH   1   2
ATOM      2  C   UNL     1     -25.685  -7.861  22.136  1.00  0.00     0.016 C 
ATOM      3  C   UNL     1     -24.951  -6.579  22.559  1.00  0.00     0.013 C 
BRANCH   2   4
ATOM      4  C   UNL     1     -25.046  -9.075  22.785  1.00  0.00    -0.045 A 
ATOM      5  C   UNL     1     -23.175 -12.517  24.607  1.00  0.00     0.044 C 
ATOM      6  C   UNL     1     -23.851 -11.337  23.971  1.00  0.00    -0.051 A 
ATOM      7  C   UNL     1     -23.794 -11.153  22.584  1.00  0.00     0.004 A 
ATOM      8  C   UNL     1     -24.484 -10.373  24.768  1.00  0.00     0.004 A 
ATOM      9  C   UNL     1     -24.391 -10.035  21.994  1.00  0.00     0.004 A 
ATOM     10  C   UNL     1     -25.082  -9.254  24.181  1.00  0.00     0.004 A 
ENDBRANCH   2   4
ENDBRANCH   1   2
BRANCH   1  11
ATOM     11  C   UNL     1     -27.119  -8.441  20.090  1.00  0.00     0.028 C 
BRANCH  11  12
ATOM     12  C   UNL     1     -28.169  -8.188  21.144  1.00  0.00    -0.028 C 
ATOM     13  C   UNL     1     -28.784  -9.156  21.858  1.00  0.00    -0.080 C 
ATOM     14  C   UNL     1     -28.425 -10.616  21.702  1.00  0.00     0.039 C 
ATOM     15  C   UNL     1     -29.845  -8.754  22.850  1.00  0.00     0.039 C 
ENDBRANCH  11  12
ENDBRANCH   1  11
TORSDOF 4
ENDMDL
MODEL 4
REMARK VINA RESULT:    -5.538      9.815     12.897
REMARK INTER + INTRA:          -7.956
REMARK INTER:                  -6.901
REMARK INTRA:                  -1.055
REMARK UNBOUND:                -1.123
REMARK SMILES CC(C)=CCC[C@H](C)c1ccc(C)cc1
REMARK SMILES IDX 6 1 7 2 8 3 9 4 13 5 12 6 11 7 14 8 10 9 15 10 5 11 4 12
REMARK SMILES IDX 2 13 1 14 3 15
REMARK H PARENT
REMARK Flexibility Score: inf
ROOT
ATOM      1  C   UNL     1     -26.227  -8.616   8.987  1.00  0.00     0.012 C 
ENDROOT
BRANCH   1   2
ATOM      2  C   UNL     1     -27.455  -9.498   9.303  1.00  0.00     0.016 C 
ATOM      3  C   UNL     1     -27.712 -10.552   8.215  1.00  0.00     0.013 C 
BRANCH   2   4
ATOM      4  C   UNL     1     -28.688  -8.635   9.505  1.00  0.00    -0.045 A 
ATOM      5  C   UNL     1     -32.160  -6.136  10.107  1.00  0.00     0.044 C 
ATOM      6  C   UNL     1     -30.971  -7.028   9.903  1.00  0.00    -0.051 A 
ATOM      7  C   UNL     1     -30.156  -7.379  10.987  1.00  0.00     0.004 A 
ATOM      8  C   UNL     1     -30.626  -7.461   8.614  1.00  0.00     0.004 A 
ATOM      9  C   UNL     1     -29.027  -8.180  10.792  1.00  0.00     0.004 A 
ATOM     10  C   UNL     1     -29.498  -8.261   8.417  1.00  0.00     0.004 A 
ENDBRANCH   2   4
ENDBRANCH   1   2
BRANCH   1  11
ATOM     11  C   UNL     1     -25.274  -8.476  10.184  1.00  0.00     0.028 C 
BRANCH  11  12
ATOM     12  C   UNL     1     -25.307  -7.070  10.730  1.00  0.00    -0.028 C 
ATOM     13  C   UNL     1     -25.709  -6.743  11.978  1.00  0.00    -0.080 C 
ATOM     14  C   UNL     1     -26.119  -7.792  12.986  1.00  0.00     0.039 C 
ATOM     15  C   UNL     1     -25.727  -5.288  12.370  1.00  0.00     0.039 C 
ENDBRANCH  11  12
ENDBRANCH   1  11
TORSDOF 4
ENDMDL
MODEL 5
REMARK VINA RESULT:    -5.504     11.423     14.358
REMARK INTER + INTRA:          -7.914
REMARK INTER:                  -7.036
REMARK INTRA:                  -0.877
REMARK UNBOUND:                -1.123
REMARK SMILES CC(C)=CCC[C@H](C)c1ccc(C)cc1
REMARK SMILES IDX 6 1 7 2 8 3 9 4 13 5 12 6 11 7 14 8 10 9 15 10 5 11 4 12
REMARK SMILES IDX 2 13 1 14 3 15
REMARK H PARENT
REMARK Flexibility Score: inf
ROOT
ATOM      1  C   UNL     1     -36.557  -0.810  15.317  1.00  0.00     0.012 C 
ENDROOT
BRANCH   1   2
ATOM      2  C   UNL     1     -36.566  -0.075  16.677  1.00  0.00     0.016 C 
ATOM      3  C   UNL     1     -36.956   1.404  16.537  1.00  0.00     0.013 C 
BRANCH   2   4
ATOM      4  C   UNL     1     -35.215  -0.205  17.357  1.00  0.00    -0.045 A 
ATOM      5  C   UNL     1     -31.351  -0.525  19.261  1.00  0.00     0.044 C 
ATOM      6  C   UNL     1     -32.696  -0.444  18.600  1.00  0.00    -0.051 A 
ATOM      7  C   UNL     1     -32.798  -0.455  17.203  1.00  0.00     0.004 A 
ATOM      8  C   UNL     1     -33.854  -0.286  19.374  1.00  0.00     0.004 A 
ATOM      9  C   UNL     1     -34.047  -0.342  16.585  1.00  0.00     0.004 A 
ATOM     10  C   UNL     1     -35.104  -0.173  18.760  1.00  0.00     0.004 A 
ENDBRANCH   2   4
ENDBRANCH   1   2
BRANCH   1  11
ATOM     11  C   UNL     1     -37.400  -2.094  15.332  1.00  0.00     0.028 C 
BRANCH  11  12
ATOM     12  C   UNL     1     -38.273  -2.144  16.562  1.00  0.00    -0.028 C 
ATOM     13  C   UNL     1     -39.601  -1.898  16.568  1.00  0.00    -0.080 C 
ATOM     14  C   UNL     1     -40.364  -1.596  15.299  1.00  0.00     0.039 C 
ATOM     15  C   UNL     1     -40.335  -1.946  17.883  1.00  0.00     0.039 C 
ENDBRANCH  11  12
ENDBRANCH   1  11
TORSDOF 4
ENDMDL
MODEL 6
REMARK VINA RESULT:    -5.430      1.419      4.837
REMARK INTER + INTRA:          -7.823
REMARK INTER:                  -6.561
REMARK INTRA:                  -1.262
REMARK UNBOUND:                -1.123
REMARK SMILES CC(C)=CCC[C@H](C)c1ccc(C)cc1
REMARK SMILES IDX 6 1 7 2 8 3 9 4 13 5 12 6 11 7 14 8 10 9 15 10 5 11 4 12
REMARK SMILES IDX 2 13 1 14 3 15
REMARK H PARENT
REMARK Flexibility Score: inf
ROOT
ATOM      1  C   UNL     1     -27.255 -10.074  23.596  1.00  0.00     0.012 C 
ENDROOT
BRANCH   1   2
ATOM      2  C   UNL     1     -27.773  -9.046  22.565  1.00  0.00     0.016 C 
ATOM      3  C   UNL     1     -28.474  -9.717  21.374  1.00  0.00     0.013 C 
BRANCH   2   4
ATOM      4  C   UNL     1     -26.636  -8.164  22.081  1.00  0.00    -0.045 A 
ATOM      5  C   UNL     1     -23.361  -5.690  20.732  1.00  0.00     0.044 C 
ATOM      6  C   UNL     1     -24.516  -6.525  21.203  1.00  0.00    -0.051 A 
ATOM      7  C   UNL     1     -24.676  -6.803  22.567  1.00  0.00     0.004 A 
ATOM      8  C   UNL     1     -25.403  -7.090  20.276  1.00  0.00     0.004 A 
ATOM      9  C   UNL     1     -25.730  -7.611  23.004  1.00  0.00     0.004 A 
ATOM     10  C   UNL     1     -26.457  -7.898  20.710  1.00  0.00     0.004 A 
ENDBRANCH   2   4
ENDBRANCH   1   2
BRANCH   1  11
ATOM     11  C   UNL     1     -26.686 -11.339  22.936  1.00  0.00     0.028 C 
BRANCH  11  12
ATOM     12  C   UNL     1     -25.473 -11.832  23.685  1.00  0.00    -0.028 C 
ATOM     13  C   UNL     1     -24.196 -11.564  23.333  1.00  0.00    -0.080 C 
ATOM     14  C   UNL     1     -23.861 -10.676  22.157  1.00  0.00     0.039 C 
ATOM     15  C   UNL     1     -23.084 -12.160  24.156  1.00  0.00     0.039 C 
ENDBRANCH  11  12
ENDBRANCH   1  11
TORSDOF 4
ENDMDL
MODEL 7
REMARK VINA RESULT:    -5.414     10.092     13.333
REMARK INTER + INTRA:          -7.803
REMARK INTER:                  -6.788
REMARK INTRA:                  -1.015
REMARK UNBOUND:                -1.123
REMARK SMILES CC(C)=CCC[C@H](C)c1ccc(C)cc1
REMARK SMILES IDX 6 1 7 2 8 3 9 4 13 5 12 6 11 7 14 8 10 9 15 10 5 11 4 12
REMARK SMILES IDX 2 13 1 14 3 15
REMARK H PARENT
REMARK Flexibility Score: inf
ROOT
ATOM      1  C   UNL     1     -35.140   0.104  19.981  1.00  0.00     0.012 C 
ENDROOT
BRANCH   1   2
ATOM      2  C   UNL     1     -35.105   1.042  18.753  1.00  0.00     0.016 C 
ATOM      3  C   UNL     1     -36.235   2.082  18.782  1.00  0.00     0.013 C 
BRANCH   2   4
ATOM      4  C   UNL     1     -35.160   0.235  17.469  1.00  0.00    -0.045 A 
ATOM      5  C   UNL     1     -35.289  -2.109  13.843  1.00  0.00     0.044 C 
ATOM      6  C   UNL     1     -35.242  -1.270  15.086  1.00  0.00    -0.051 A 
ATOM      7  C   UNL     1     -34.016  -0.989  15.703  1.00  0.00     0.004 A 
ATOM      8  C   UNL     1     -36.430  -0.819  15.678  1.00  0.00     0.004 A 
ATOM      9  C   UNL     1     -33.974  -0.239  16.881  1.00  0.00     0.004 A 
ATOM     10  C   UNL     1     -36.391  -0.069  16.856  1.00  0.00     0.004 A 
ENDBRANCH   2   4
ENDBRANCH   1   2
BRANCH   1  11
ATOM     11  C   UNL     1     -33.746  -0.141  20.579  1.00  0.00     0.028 C 
BRANCH  11  12
ATOM     12  C   UNL     1     -33.338  -1.583  20.406  1.00  0.00    -0.028 C 
ATOM     13  C   UNL     1     -32.187  -1.988  19.826  1.00  0.00    -0.080 C 
ATOM     14  C   UNL     1     -31.150  -1.005  19.334  1.00  0.00     0.039 C 
ATOM     15  C   UNL     1     -31.934  -3.467  19.686  1.00  0.00     0.039 C 
ENDBRANCH  11  12
ENDBRANCH   1  11
TORSDOF 4
ENDMDL
MODEL 8
REMARK VINA RESULT:    -5.396     10.080     12.924
REMARK INTER + INTRA:          -7.781
REMARK INTER:                  -7.055
REMARK INTRA:                  -0.726
REMARK UNBOUND:                -1.123
REMARK SMILES CC(C)=CCC[C@H](C)c1ccc(C)cc1
REMARK SMILES IDX 6 1 7 2 8 3 9 4 13 5 12 6 11 7 14 8 10 9 15 10 5 11 4 12
REMARK SMILES IDX 2 13 1 14 3 15
REMARK H PARENT
REMARK Flexibility Score: inf
ROOT
ATOM      1  C   UNL     1     -35.253   0.645  17.337  1.00  0.00     0.012 C 
ENDROOT
BRANCH   1   2
ATOM      2  C   UNL     1     -33.833   0.172  16.950  1.00  0.00     0.016 C 
ATOM      3  C   UNL     1     -33.858  -0.938  15.888  1.00  0.00     0.013 C 
BRANCH   2   4
ATOM      4  C   UNL     1     -33.076  -0.290  18.182  1.00  0.00    -0.045 A 
ATOM      5  C   UNL     1     -30.890  -1.553  21.688  1.00  0.00     0.044 C 
ATOM      6  C   UNL     1     -31.650  -1.143  20.460  1.00  0.00    -0.051 A 
ATOM      7  C   UNL     1     -30.964  -0.749  19.304  1.00  0.00     0.004 A 
ATOM      8  C   UNL     1     -33.050  -1.084  20.484  1.00  0.00     0.004 A 
ATOM      9  C   UNL     1     -31.670  -0.332  18.172  1.00  0.00     0.004 A 
ATOM     10  C   UNL     1     -33.759  -0.666  19.354  1.00  0.00     0.004 A 
ENDBRANCH   2   4
ENDBRANCH   1   2
BRANCH   1  11
ATOM     11  C   UNL     1     -36.293   0.348  16.247  1.00  0.00     0.028 C 
BRANCH  11  12
ATOM     12  C   UNL     1     -37.401  -0.520  16.790  1.00  0.00    -0.028 C 
ATOM     13  C   UNL     1     -37.801  -1.686  16.236  1.00  0.00    -0.080 C 
ATOM     14  C   UNL     1     -37.119  -2.269  15.020  1.00  0.00     0.039 C 
ATOM     15  C   UNL     1     -38.951  -2.425  16.869  1.00  0.00     0.039 C 
ENDBRANCH  11  12
ENDBRANCH   1  11
TORSDOF 4
ENDMDL
MODEL 9
REMARK VINA RESULT:    -5.282      1.088      1.764
REMARK INTER + INTRA:          -7.640
REMARK INTER:                  -6.495
REMARK INTRA:                  -1.145
REMARK UNBOUND:                -1.123
REMARK SMILES CC(C)=CCC[C@H](C)c1ccc(C)cc1
REMARK SMILES IDX 6 1 7 2 8 3 9 4 13 5 12 6 11 7 14 8 10 9 15 10 5 11 4 12
REMARK SMILES IDX 2 13 1 14 3 15
REMARK H PARENT
REMARK Flexibility Score: inf
ROOT
ATOM      1  C   UNL     1     -27.606  -7.900  22.809  1.00  0.00     0.012 C 
ENDROOT
BRANCH   1   2
ATOM      2  C   UNL     1     -27.364  -9.072  21.831  1.00  0.00     0.016 C 
ATOM      3  C   UNL     1     -28.635  -9.902  21.590  1.00  0.00     0.013 C 
BRANCH   2   4
ATOM      4  C   UNL     1     -26.241  -9.959  22.336  1.00  0.00    -0.045 A 
ATOM      5  C   UNL     1     -23.074 -12.532  23.754  1.00  0.00     0.044 C 
ATOM      6  C   UNL     1     -24.168 -11.619  23.284  1.00  0.00    -0.051 A 
ATOM      7  C   UNL     1     -25.480 -11.795  23.742  1.00  0.00     0.004 A 
ATOM      8  C   UNL     1     -23.899 -10.628  22.330  1.00  0.00     0.004 A 
ATOM      9  C   UNL     1     -26.507 -10.969  23.277  1.00  0.00     0.004 A 
ATOM     10  C   UNL     1     -24.924  -9.801  21.863  1.00  0.00     0.004 A 
ENDBRANCH   2   4
ENDBRANCH   1   2
BRANCH   1  11
ATOM     11  C   UNL     1     -27.298  -6.532  22.182  1.00  0.00     0.028 C 
BRANCH  11  12
ATOM     12  C   UNL     1     -25.827  -6.217  22.285  1.00  0.00    -0.028 C 
ATOM     13  C   UNL     1     -24.957  -6.281  21.253  1.00  0.00    -0.080 C 
ATOM     14  C   UNL     1     -25.403  -6.628  19.851  1.00  0.00     0.039 C 
ATOM     15  C   UNL     1     -23.505  -5.976  21.517  1.00  0.00     0.039 C 
ENDBRANCH  11  12
ENDBRANCH   1  11
TORSDOF 4
ENDMDL
