MODEL 1
REMARK VINA RESULT:    -3.221      0.000      0.000
REMARK INTER + INTRA:          -3.520
REMARK INTER:                  -3.503
REMARK INTRA:                  -0.017
REMARK UNBOUND:                -0.017
REMARK SMILES OCc1ccco1
REMARK SMILES IDX 2 1 3 2 5 3 6 4 4 5 7 6 1 7
REMARK H PARENT 1 8
REMARK Flexibility Score: inf
ROOT
ATOM      1  C   UNL     1     -45.834 -13.777  -1.824  1.00  0.00     0.231 C 
ENDROOT
BRANCH   1   2
ATOM      2  C   UNL     1     -44.635 -14.666  -1.894  1.00  0.00     0.129 A 
ATOM      3  C   UNL     1     -42.769 -15.719  -1.409  1.00  0.00     0.042 A 
ATOM      4  C   UNL     1     -43.280 -16.145  -2.619  1.00  0.00     0.195 A 
ATOM      5  C   UNL     1     -43.645 -14.766  -0.937  1.00  0.00     0.048 A 
ATOM      6  O   UNL     1     -44.395 -15.501  -2.880  1.00  0.00    -0.467 OA
ENDBRANCH   1   2
BRANCH   1   7
ATOM      7  O   UNL     1     -47.006 -14.546  -1.843  1.00  0.00    -0.388 OA
ATOM      8  H   UNL     1     -47.609 -14.126  -2.510  1.00  0.00     0.211 HD
ENDBRANCH   1   7
TORSDOF 2
ENDMDL
MODEL 2
REMARK VINA RESULT:    -3.175      1.256      1.443
REMARK INTER + INTRA:          -3.470
REMARK INTER:                  -3.453
REMARK INTRA:                  -0.016
REMARK UNBOUND:                -0.017
REMARK SMILES OCc1ccco1
REMARK SMILES IDX 2 1 3 2 5 3 6 4 4 5 7 6 1 7
REMARK H PARENT 1 8
REMARK Flexibility Score: inf
ROOT
ATOM      1  C   UNL     1     -46.335 -14.307  -3.096  1.00  0.00     0.231 C 
ENDROOT
BRANCH   1   2
ATOM      2  C   UNL     1     -44.866 -14.561  -2.999  1.00  0.00     0.129 A 
ATOM      3  C   UNL     1     -42.686 -14.291  -2.950  1.00  0.00     0.042 A 
ATOM      4  C   UNL     1     -43.031 -15.601  -2.683  1.00  0.00     0.195 A 
ATOM      5  C   UNL     1     -43.871 -13.616  -3.151  1.00  0.00     0.048 A 
ATOM      6  O   UNL     1     -44.338 -15.731  -2.716  1.00  0.00    -0.467 OA
ENDBRANCH   1   2
BRANCH   1   7
ATOM      7  O   UNL     1     -46.944 -14.517  -1.852  1.00  0.00    -0.388 OA
ATOM      8  H   UNL     1     -46.251 -14.911  -1.260  1.00  0.00     0.211 HD
ENDBRANCH   1   7
TORSDOF 2
ENDMDL
MODEL 3
REMARK VINA RESULT:    -3.096      8.105      8.858
REMARK INTER + INTRA:          -3.384
REMARK INTER:                  -3.368
REMARK INTRA:                  -0.016
REMARK UNBOUND:                -0.017
REMARK SMILES OCc1ccco1
REMARK SMILES IDX 2 1 3 2 5 3 6 4 4 5 7 6 1 7
REMARK H PARENT 1 8
REMARK Flexibility Score: inf
ROOT
ATOM      1  C   UNL     1     -42.145 -13.782   7.792  1.00  0.00     0.231 C 
ENDROOT
BRANCH   1   2
ATOM      2  C   UNL     1     -42.922 -14.168   6.575  1.00  0.00     0.129 A 
ATOM      3  C   UNL     1     -43.671 -15.252   4.818  1.00  0.00     0.042 A 
ATOM      4  C   UNL     1     -44.408 -14.107   5.048  1.00  0.00     0.195 A 
ATOM      5  C   UNL     1     -42.712 -15.295   5.807  1.00  0.00     0.048 A 
ATOM      6  O   UNL     1     -43.939 -13.483   6.104  1.00  0.00    -0.467 OA
ENDBRANCH   1   2
BRANCH   1   7
ATOM      7  O   UNL     1     -42.976 -13.800   8.920  1.00  0.00    -0.388 OA
ATOM      8  H   UNL     1     -42.623 -14.508   9.521  1.00  0.00     0.211 HD
ENDBRANCH   1   7
TORSDOF 2
ENDMDL
MODEL 4
REMARK VINA RESULT:    -2.806      8.322      8.853
REMARK INTER + INTRA:          -3.069
REMARK INTER:                  -3.055
REMARK INTRA:                  -0.014
REMARK UNBOUND:                -0.017
REMARK SMILES OCc1ccco1
REMARK SMILES IDX 2 1 3 2 5 3 6 4 4 5 7 6 1 7
REMARK H PARENT 1 8
REMARK Flexibility Score: inf
ROOT
ATOM      1  C   UNL     1     -44.849 -14.618   7.829  1.00  0.00     0.231 C 
ENDROOT
BRANCH   1   2
ATOM      2  C   UNL     1     -43.929 -15.193   6.801  1.00  0.00     0.129 A 
ATOM      3  C   UNL     1     -42.534 -15.411   5.118  1.00  0.00     0.042 A 
ATOM      4  C   UNL     1     -42.748 -16.621   5.748  1.00  0.00     0.195 A 
ATOM      5  C   UNL     1     -43.294 -14.485   5.800  1.00  0.00     0.048 A 
ATOM      6  O   UNL     1     -43.582 -16.459   6.749  1.00  0.00    -0.467 OA
ENDBRANCH   1   2
BRANCH   1   7
ATOM      7  O   UNL     1     -44.111 -14.123   8.913  1.00  0.00    -0.388 OA
ATOM      8  H   UNL     1     -44.696 -13.470   9.379  1.00  0.00     0.211 HD
ENDBRANCH   1   7
TORSDOF 2
ENDMDL
MODEL 5
REMARK VINA RESULT:    -2.777      8.196      9.058
REMARK INTER + INTRA:          -3.038
REMARK INTER:                  -3.025
REMARK INTRA:                  -0.013
REMARK UNBOUND:                -0.017
REMARK SMILES OCc1ccco1
REMARK SMILES IDX 2 1 3 2 5 3 6 4 4 5 7 6 1 7
REMARK H PARENT 1 8
REMARK Flexibility Score: inf
ROOT
ATOM      1  C   UNL     1     -44.885 -14.894   7.650  1.00  0.00     0.231 C 
ENDROOT
BRANCH   1   2
ATOM      2  C   UNL     1     -45.243 -13.864   6.627  1.00  0.00     0.129 A 
ATOM      3  C   UNL     1     -45.144 -12.431   4.965  1.00  0.00     0.042 A 
ATOM      4  C   UNL     1     -46.429 -12.531   5.461  1.00  0.00     0.195 A 
ATOM      5  C   UNL     1     -44.377 -13.296   5.716  1.00  0.00     0.048 A 
ATOM      6  O   UNL     1     -46.457 -13.395   6.450  1.00  0.00    -0.467 OA
ENDBRANCH   1   2
BRANCH   1   7
ATOM      7  O   UNL     1     -44.623 -14.279   8.881  1.00  0.00    -0.388 OA
ATOM      8  H   UNL     1     -45.505 -14.083   9.294  1.00  0.00     0.211 HD
ENDBRANCH   1   7
TORSDOF 2
ENDMDL
MODEL 6
REMARK VINA RESULT:    -2.775     13.191     13.749
REMARK INTER + INTRA:          -3.035
REMARK INTER:                  -3.016
REMARK INTRA:                  -0.019
REMARK UNBOUND:                -0.017
REMARK SMILES OCc1ccco1
REMARK SMILES IDX 2 1 3 2 5 3 6 4 4 5 7 6 1 7
REMARK H PARENT 1 8
REMARK Flexibility Score: inf
ROOT
ATOM      1  C   UNL     1     -46.177  -1.875   4.238  1.00  0.00     0.231 C 
ENDROOT
BRANCH   1   2
ATOM      2  C   UNL     1     -45.686  -2.141   2.851  1.00  0.00     0.129 A 
ATOM      3  C   UNL     1     -45.602  -2.493   0.684  1.00  0.00     0.042 A 
ATOM      4  C   UNL     1     -44.334  -2.438   1.230  1.00  0.00     0.195 A 
ATOM      5  C   UNL     1     -46.477  -2.297   1.731  1.00  0.00     0.048 A 
ATOM      6  O   UNL     1     -44.417  -2.224   2.523  1.00  0.00    -0.467 OA
ENDBRANCH   1   2
BRANCH   1   7
ATOM      7  O   UNL     1     -45.340  -2.499   5.172  1.00  0.00    -0.388 OA
ATOM      8  H   UNL     1     -44.510  -1.956   5.217  1.00  0.00     0.211 HD
ENDBRANCH   1   7
TORSDOF 2
ENDMDL
MODEL 7
REMARK VINA RESULT:    -2.741      8.851      9.523
REMARK INTER + INTRA:          -2.998
REMARK INTER:                  -2.978
REMARK INTRA:                  -0.020
REMARK UNBOUND:                -0.017
REMARK SMILES OCc1ccco1
REMARK SMILES IDX 2 1 3 2 5 3 6 4 4 5 7 6 1 7
REMARK H PARENT 1 8
REMARK Flexibility Score: inf
ROOT
ATOM      1  C   UNL     1     -45.546 -15.767   7.691  1.00  0.00     0.231 C 
ENDROOT
BRANCH   1   2
ATOM      2  C   UNL     1     -44.300 -15.062   7.262  1.00  0.00     0.129 A 
ATOM      3  C   UNL     1     -42.605 -14.328   6.072  1.00  0.00     0.042 A 
ATOM      4  C   UNL     1     -42.611 -13.762   7.332  1.00  0.00     0.195 A 
ATOM      5  C   UNL     1     -43.698 -15.167   6.024  1.00  0.00     0.048 A 
ATOM      6  O   UNL     1     -43.635 -14.217   8.017  1.00  0.00    -0.467 OA
ENDBRANCH   1   2
BRANCH   1   7
ATOM      7  O   UNL     1     -45.523 -15.987   9.074  1.00  0.00    -0.388 OA
ATOM      8  H   UNL     1     -46.425 -16.320   9.324  1.00  0.00     0.211 HD
ENDBRANCH   1   7
TORSDOF 2
ENDMDL
MODEL 8
REMARK VINA RESULT:    -2.720      1.484      3.310
REMARK INTER + INTRA:          -2.976
REMARK INTER:                  -2.960
REMARK INTRA:                  -0.016
REMARK UNBOUND:                -0.017
REMARK SMILES OCc1ccco1
REMARK SMILES IDX 2 1 3 2 5 3 6 4 4 5 7 6 1 7
REMARK H PARENT 1 8
REMARK Flexibility Score: inf
ROOT
ATOM      1  C   UNL     1     -42.855 -15.662  -2.469  1.00  0.00     0.231 C 
ENDROOT
BRANCH   1   2
ATOM      2  C   UNL     1     -44.156 -14.983  -2.191  1.00  0.00     0.129 A 
ATOM      3  C   UNL     1     -46.223 -14.255  -2.353  1.00  0.00     0.042 A 
ATOM      4  C   UNL     1     -45.658 -13.885  -1.149  1.00  0.00     0.195 A 
ATOM      5  C   UNL     1     -45.255 -14.969  -3.027  1.00  0.00     0.048 A 
ATOM      6  O   UNL     1     -44.426 -14.335  -1.080  1.00  0.00    -0.467 OA
ENDBRANCH   1   2
BRANCH   1   7
ATOM      7  O   UNL     1     -42.778 -16.021  -3.821  1.00  0.00    -0.388 OA
ATOM      8  H   UNL     1     -43.704 -15.988  -4.177  1.00  0.00     0.211 HD
ENDBRANCH   1   7
TORSDOF 2
ENDMDL
