MODEL 1
REMARK VINA RESULT:    -3.943      0.000      0.000
REMARK INTER + INTRA:          -6.202
REMARK INTER:                  -5.787
REMARK INTRA:                  -0.415
REMARK UNBOUND:                -0.415
REMARK SMILES O=C([O-])CCCCCCCC(=O)[O-]
REMARK SMILES IDX 7 1 6 2 5 3 4 4 2 5 1 6 3 7 8 8 9 9 10 10 11 11 12 12 13 13
REMARK H PARENT
REMARK Flexibility Score: inf
ROOT
ATOM      1  C   UNL     1      26.686 -16.406  25.395  1.00  0.00     0.000 C 
ENDROOT
BRANCH   1   2
ATOM      2  C   UNL     1      25.395 -16.291  26.226  1.00  0.00     0.000 C 
BRANCH   2   3
ATOM      3  C   UNL     1      24.451 -17.508  26.131  1.00  0.00     0.006 C 
BRANCH   3   4
ATOM      4  C   UNL     1      23.000 -17.163  25.757  1.00  0.00     0.053 C 
BRANCH   4   5
ATOM      5  C   UNL     1      22.529 -15.915  26.438  1.00  0.00     0.041 C 
ATOM      6  O   UNL     1      22.367 -14.855  25.780  1.00  0.00    -0.550 OA
ATOM      7  O   UNL     1      22.237 -15.933  27.797  1.00  0.00    -0.550 OA
ENDBRANCH   4   5
ENDBRANCH   3   4
ENDBRANCH   2   3
ENDBRANCH   1   2
BRANCH   1   8
ATOM      8  C   UNL     1      26.622 -17.530  24.346  1.00  0.00     0.000 C 
BRANCH   8   9
ATOM      9  C   UNL     1      27.757 -18.552  24.508  1.00  0.00     0.006 C 
BRANCH   9  10
ATOM     10  C   UNL     1      28.755 -18.157  25.605  1.00  0.00     0.053 C 
BRANCH  10  11
ATOM     11  C   UNL     1      30.029 -18.926  25.454  1.00  0.00     0.041 C 
ATOM     12  O   UNL     1      30.273 -19.904  26.210  1.00  0.00    -0.550 OA
ATOM     13  O   UNL     1      30.925 -18.594  24.447  1.00  0.00    -0.550 OA
ENDBRANCH  10  11
ENDBRANCH   9  10
ENDBRANCH   8   9
ENDBRANCH   1   8
TORSDOF 8
ENDMDL
MODEL 2
REMARK VINA RESULT:    -3.798      0.913      7.173
REMARK INTER + INTRA:          -5.989
REMARK INTER:                  -5.732
REMARK INTRA:                  -0.257
REMARK UNBOUND:                -0.415
REMARK SMILES O=C([O-])CCCCCCCC(=O)[O-]
REMARK SMILES IDX 7 1 6 2 5 3 4 4 2 5 1 6 3 7 8 8 9 9 10 10 11 11 12 12 13 13
REMARK H PARENT
REMARK Flexibility Score: inf
ROOT
ATOM      1  C   UNL     1      27.052 -16.772  25.438  1.00  0.00     0.000 C 
ENDROOT
BRANCH   1   2
ATOM      2  C   UNL     1      26.938 -17.988  24.502  1.00  0.00     0.000 C 
BRANCH   2   3
ATOM      3  C   UNL     1      28.223 -18.833  24.374  1.00  0.00     0.006 C 
BRANCH   3   4
ATOM      4  C   UNL     1      28.892 -19.186  25.712  1.00  0.00     0.053 C 
BRANCH   4   5
ATOM      5  C   UNL     1      30.385 -19.226  25.596  1.00  0.00     0.041 C 
ATOM      6  O   UNL     1      31.075 -19.774  26.495  1.00  0.00    -0.550 OA
ATOM      7  O   UNL     1      31.011 -18.687  24.479  1.00  0.00    -0.550 OA
ENDBRANCH   4   5
ENDBRANCH   3   4
ENDBRANCH   2   3
ENDBRANCH   1   2
BRANCH   1   8
ATOM      8  C   UNL     1      25.979 -16.764  26.541  1.00  0.00     0.000 C 
BRANCH   8   9
ATOM      9  C   UNL     1      24.923 -15.670  26.328  1.00  0.00     0.006 C 
BRANCH   9  10
ATOM     10  C   UNL     1      23.490 -16.188  26.512  1.00  0.00     0.053 C 
BRANCH  10  11
ATOM     11  C   UNL     1      22.529 -15.047  26.600  1.00  0.00     0.041 C 
ATOM     12  O   UNL     1      22.174 -14.433  25.559  1.00  0.00    -0.550 OA
ATOM     13  O   UNL     1      21.984 -14.691  27.827  1.00  0.00    -0.550 OA
ENDBRANCH  10  11
ENDBRANCH   9  10
ENDBRANCH   8   9
ENDBRANCH   1   8
TORSDOF 8
ENDMDL
MODEL 3
REMARK VINA RESULT:    -3.777      1.374      2.082
REMARK INTER + INTRA:          -5.959
REMARK INTER:                  -5.506
REMARK INTRA:                  -0.453
REMARK UNBOUND:                -0.415
REMARK SMILES O=C([O-])CCCCCCCC(=O)[O-]
REMARK SMILES IDX 7 1 6 2 5 3 4 4 2 5 1 6 3 7 8 8 9 9 10 10 11 11 12 12 13 13
REMARK H PARENT
REMARK Flexibility Score: inf
ROOT
ATOM      1  C   UNL     1      25.626 -16.223  26.423  1.00  0.00     0.000 C 
ENDROOT
BRANCH   1   2
ATOM      2  C   UNL     1      24.977 -14.850  26.673  1.00  0.00     0.000 C 
BRANCH   2   3
ATOM      3  C   UNL     1      23.465 -14.782  26.372  1.00  0.00     0.006 C 
BRANCH   3   4
ATOM      4  C   UNL     1      22.736 -16.133  26.448  1.00  0.00     0.053 C 
BRANCH   4   5
ATOM      5  C   UNL     1      22.122 -16.362  27.795  1.00  0.00     0.041 C 
ATOM      6  O   UNL     1      22.057 -17.524  28.274  1.00  0.00    -0.550 OA
ATOM      7  O   UNL     1      21.651 -15.285  28.536  1.00  0.00    -0.550 OA
ENDBRANCH   4   5
ENDBRANCH   3   4
ENDBRANCH   2   3
ENDBRANCH   1   2
BRANCH   1   8
ATOM      8  C   UNL     1      26.610 -16.211  25.240  1.00  0.00     0.000 C 
BRANCH   8   9
ATOM      9  C   UNL     1      26.640 -17.548  24.484  1.00  0.00     0.006 C 
BRANCH   9  10
ATOM     10  C   UNL     1      27.085 -18.717  25.371  1.00  0.00     0.053 C 
BRANCH  10  11
ATOM     11  C   UNL     1      28.561 -18.661  25.608  1.00  0.00     0.041 C 
ATOM     12  O   UNL     1      29.359 -18.625  24.634  1.00  0.00    -0.550 OA
ATOM     13  O   UNL     1      29.055 -18.599  26.904  1.00  0.00    -0.550 OA
ENDBRANCH  10  11
ENDBRANCH   9  10
ENDBRANCH   8   9
ENDBRANCH   1   8
TORSDOF 8
ENDMDL
MODEL 4
REMARK VINA RESULT:    -3.704      0.954      6.799
REMARK INTER + INTRA:          -5.851
REMARK INTER:                  -5.485
REMARK INTRA:                  -0.366
REMARK UNBOUND:                -0.415
REMARK SMILES O=C([O-])CCCCCCCC(=O)[O-]
REMARK SMILES IDX 7 1 6 2 5 3 4 4 2 5 1 6 3 7 8 8 9 9 10 10 11 11 12 12 13 13
REMARK H PARENT
REMARK Flexibility Score: inf
ROOT
ATOM      1  C   UNL     1      26.552 -16.597  25.261  1.00  0.00     0.000 C 
ENDROOT
BRANCH   1   2
ATOM      2  C   UNL     1      26.379 -18.077  24.876  1.00  0.00     0.000 C 
BRANCH   2   3
ATOM      3  C   UNL     1      27.537 -19.001  25.310  1.00  0.00     0.006 C 
BRANCH   3   4
ATOM      4  C   UNL     1      28.762 -18.968  24.383  1.00  0.00     0.053 C 
BRANCH   4   5
ATOM      5  C   UNL     1      30.021 -18.654  25.131  1.00  0.00     0.041 C 
ATOM      6  O   UNL     1      31.125 -18.616  24.528  1.00  0.00    -0.550 OA
ATOM      7  O   UNL     1      29.970 -18.371  26.491  1.00  0.00    -0.550 OA
ENDBRANCH   4   5
ENDBRANCH   3   4
ENDBRANCH   2   3
ENDBRANCH   1   2
BRANCH   1   8
ATOM      8  C   UNL     1      25.424 -16.082  26.173  1.00  0.00     0.000 C 
BRANCH   8   9
ATOM      9  C   UNL     1      24.251 -17.069  26.273  1.00  0.00     0.006 C 
BRANCH   9  10
ATOM     10  C   UNL     1      22.895 -16.401  26.012  1.00  0.00     0.053 C 
BRANCH  10  11
ATOM     11  C   UNL     1      22.332 -15.847  27.282  1.00  0.00     0.041 C 
ATOM     12  O   UNL     1      21.872 -16.621  28.163  1.00  0.00    -0.550 OA
ATOM     13  O   UNL     1      22.361 -14.478  27.516  1.00  0.00    -0.550 OA
ENDBRANCH  10  11
ENDBRANCH   9  10
ENDBRANCH   8   9
ENDBRANCH   1   8
TORSDOF 8
ENDMDL
MODEL 5
REMARK VINA RESULT:    -3.688      2.793      4.192
REMARK INTER + INTRA:          -5.827
REMARK INTER:                  -5.368
REMARK INTRA:                  -0.459
REMARK UNBOUND:                -0.415
REMARK SMILES O=C([O-])CCCCCCCC(=O)[O-]
REMARK SMILES IDX 7 1 6 2 5 3 4 4 2 5 1 6 3 7 8 8 9 9 10 10 11 11 12 12 13 13
REMARK H PARENT
REMARK Flexibility Score: inf
ROOT
ATOM      1  C   UNL     1      22.811 -14.975  26.515  1.00  0.00     0.000 C 
ENDROOT
BRANCH   1   2
ATOM      2  C   UNL     1      22.518 -16.453  26.829  1.00  0.00     0.000 C 
BRANCH   2   3
ATOM      3  C   UNL     1      21.859 -16.708  28.201  1.00  0.00     0.006 C 
BRANCH   3   4
ATOM      4  C   UNL     1      21.280 -15.454  28.875  1.00  0.00     0.053 C 
BRANCH   4   5
ATOM      5  C   UNL     1      20.122 -15.781  29.766  1.00  0.00     0.041 C 
ATOM      6  O   UNL     1      19.591 -14.885  30.472  1.00  0.00    -0.550 OA
ATOM      7  O   UNL     1      19.609 -17.072  29.792  1.00  0.00    -0.550 OA
ENDBRANCH   4   5
ENDBRANCH   3   4
ENDBRANCH   2   3
ENDBRANCH   1   2
BRANCH   1   8
ATOM      8  C   UNL     1      24.317 -14.657  26.499  1.00  0.00     0.000 C 
BRANCH   8   9
ATOM      9  C   UNL     1      25.186 -15.906  26.712  1.00  0.00     0.006 C 
BRANCH   9  10
ATOM     10  C   UNL     1      26.226 -16.097  25.601  1.00  0.00     0.053 C 
BRANCH  10  11
ATOM     11  C   UNL     1      26.206 -17.507  25.104  1.00  0.00     0.041 C 
ATOM     12  O   UNL     1      27.078 -17.905  24.286  1.00  0.00    -0.550 OA
ATOM     13  O   UNL     1      25.254 -18.399  25.581  1.00  0.00    -0.550 OA
ENDBRANCH  10  11
ENDBRANCH   9  10
ENDBRANCH   8   9
ENDBRANCH   1   8
TORSDOF 8
ENDMDL
MODEL 6
REMARK VINA RESULT:    -3.614     16.409     17.903
REMARK INTER + INTRA:          -5.720
REMARK INTER:                  -5.406
REMARK INTRA:                  -0.313
REMARK UNBOUND:                -0.415
REMARK SMILES O=C([O-])CCCCCCCC(=O)[O-]
REMARK SMILES IDX 7 1 6 2 5 3 4 4 2 5 1 6 3 7 8 8 9 9 10 10 11 11 12 12 13 13
REMARK H PARENT
REMARK Flexibility Score: inf
ROOT
ATOM      1  C   UNL     1      12.725  -6.884  21.920  1.00  0.00     0.000 C 
ENDROOT
BRANCH   1   2
ATOM      2  C   UNL     1      13.830  -5.964  22.471  1.00  0.00     0.000 C 
BRANCH   2   3
ATOM      3  C   UNL     1      14.592  -5.152  21.403  1.00  0.00     0.006 C 
BRANCH   3   4
ATOM      4  C   UNL     1      15.703  -5.932  20.682  1.00  0.00     0.053 C 
BRANCH   4   5
ATOM      5  C   UNL     1      16.867  -5.055  20.334  1.00  0.00     0.041 C 
ATOM      6  O   UNL     1      17.875  -5.538  19.757  1.00  0.00    -0.550 OA
ATOM      7  O   UNL     1      16.823  -3.696  20.621  1.00  0.00    -0.550 OA
ENDBRANCH   4   5
ENDBRANCH   3   4
ENDBRANCH   2   3
ENDBRANCH   1   2
BRANCH   1   8
ATOM      8  C   UNL     1      11.625  -7.180  22.954  1.00  0.00     0.000 C 
BRANCH   8   9
ATOM      9  C   UNL     1      11.813  -6.390  24.258  1.00  0.00     0.006 C 
BRANCH   9  10
ATOM     10  C   UNL     1      11.535  -7.237  25.507  1.00  0.00     0.053 C 
BRANCH  10  11
ATOM     11  C   UNL     1      12.445  -6.835  26.624  1.00  0.00     0.041 C 
ATOM     12  O   UNL     1      13.604  -6.408  26.376  1.00  0.00    -0.550 OA
ATOM     13  O   UNL     1      11.996  -6.884  27.937  1.00  0.00    -0.550 OA
ENDBRANCH  10  11
ENDBRANCH   9  10
ENDBRANCH   8   9
ENDBRANCH   1   8
TORSDOF 8
ENDMDL
MODEL 7
REMARK VINA RESULT:    -3.609      1.987      6.141
REMARK INTER + INTRA:          -5.712
REMARK INTER:                  -5.165
REMARK INTRA:                  -0.547
REMARK UNBOUND:                -0.415
REMARK SMILES O=C([O-])CCCCCCCC(=O)[O-]
REMARK SMILES IDX 7 1 6 2 5 3 4 4 2 5 1 6 3 7 8 8 9 9 10 10 11 11 12 12 13 13
REMARK H PARENT
REMARK Flexibility Score: inf
ROOT
ATOM      1  C   UNL     1      27.490 -18.240  24.473  1.00  0.00     0.000 C 
ENDROOT
BRANCH   1   2
ATOM      2  C   UNL     1      27.698 -19.733  24.784  1.00  0.00     0.000 C 
BRANCH   2   3
ATOM      3  C   UNL     1      28.808 -20.034  25.812  1.00  0.00     0.006 C 
BRANCH   3   4
ATOM      4  C   UNL     1      29.573 -18.796  26.307  1.00  0.00     0.053 C 
BRANCH   4   5
ATOM      5  C   UNL     1      29.287 -18.502  27.748  1.00  0.00     0.041 C 
ATOM      6  O   UNL     1      30.194 -18.621  28.612  1.00  0.00    -0.550 OA
ATOM      7  O   UNL     1      28.025 -18.064  28.130  1.00  0.00    -0.550 OA
ENDBRANCH   4   5
ENDBRANCH   3   4
ENDBRANCH   2   3
ENDBRANCH   1   2
BRANCH   1   8
ATOM      8  C   UNL     1      26.161 -17.696  25.026  1.00  0.00     0.000 C 
BRANCH   8   9
ATOM      9  C   UNL     1      26.286 -16.257  25.551  1.00  0.00     0.006 C 
BRANCH   9  10
ATOM     10  C   UNL     1      25.367 -15.984  26.748  1.00  0.00     0.053 C 
BRANCH  10  11
ATOM     11  C   UNL     1      24.529 -14.771  26.498  1.00  0.00     0.041 C 
ATOM     12  O   UNL     1      25.057 -13.627  26.482  1.00  0.00    -0.550 OA
ATOM     13  O   UNL     1      23.173 -14.906  26.232  1.00  0.00    -0.550 OA
ENDBRANCH  10  11
ENDBRANCH   9  10
ENDBRANCH   8   9
ENDBRANCH   1   8
TORSDOF 8
ENDMDL
MODEL 8
REMARK VINA RESULT:    -3.566     16.587     17.370
REMARK INTER + INTRA:          -5.648
REMARK INTER:                  -5.410
REMARK INTRA:                  -0.238
REMARK UNBOUND:                -0.415
REMARK SMILES O=C([O-])CCCCCCCC(=O)[O-]
REMARK SMILES IDX 7 1 6 2 5 3 4 4 2 5 1 6 3 7 8 8 9 9 10 10 11 11 12 12 13 13
REMARK H PARENT
REMARK Flexibility Score: inf
ROOT
ATOM      1  C   UNL     1      12.635  -6.707  22.408  1.00  0.00     0.000 C 
ENDROOT
BRANCH   1   2
ATOM      2  C   UNL     1      11.642  -6.632  23.583  1.00  0.00     0.000 C 
BRANCH   2   3
ATOM      3  C   UNL     1      12.156  -5.866  24.820  1.00  0.00     0.006 C 
BRANCH   3   4
ATOM      4  C   UNL     1      12.892  -6.738  25.850  1.00  0.00     0.053 C 
BRANCH   4   5
ATOM      5  C   UNL     1      11.959  -7.291  26.883  1.00  0.00     0.041 C 
ATOM      6  O   UNL     1      11.287  -8.327  26.641  1.00  0.00    -0.550 OA
ATOM      7  O   UNL     1      11.857  -6.678  28.126  1.00  0.00    -0.550 OA
ENDBRANCH   4   5
ENDBRANCH   3   4
ENDBRANCH   2   3
ENDBRANCH   1   2
BRANCH   1   8
ATOM      8  C   UNL     1      13.857  -5.792  22.601  1.00  0.00     0.000 C 
BRANCH   8   9
ATOM      9  C   UNL     1      14.343  -5.173  21.282  1.00  0.00     0.006 C 
BRANCH   9  10
ATOM     10  C   UNL     1      15.586  -5.878  20.722  1.00  0.00     0.053 C 
BRANCH  10  11
ATOM     11  C   UNL     1      16.649  -4.879  20.391  1.00  0.00     0.041 C 
ATOM     12  O   UNL     1      17.720  -5.251  19.842  1.00  0.00    -0.550 OA
ATOM     13  O   UNL     1      16.437  -3.530  20.644  1.00  0.00    -0.550 OA
ENDBRANCH  10  11
ENDBRANCH   9  10
ENDBRANCH   8   9
ENDBRANCH   1   8
TORSDOF 8
ENDMDL
MODEL 9
REMARK VINA RESULT:    -3.505      1.800      2.319
REMARK INTER + INTRA:          -5.559
REMARK INTER:                  -4.953
REMARK INTRA:                  -0.605
REMARK UNBOUND:                -0.415
REMARK SMILES O=C([O-])CCCCCCCC(=O)[O-]
REMARK SMILES IDX 7 1 6 2 5 3 4 4 2 5 1 6 3 7 8 8 9 9 10 10 11 11 12 12 13 13
REMARK H PARENT
REMARK Flexibility Score: inf
ROOT
ATOM      1  C   UNL     1      26.313 -17.697  24.999  1.00  0.00     0.000 C 
ENDROOT
BRANCH   1   2
ATOM      2  C   UNL     1      26.436 -16.181  25.239  1.00  0.00     0.000 C 
BRANCH   2   3
ATOM      3  C   UNL     1      25.488 -15.615  26.317  1.00  0.00     0.006 C 
BRANCH   3   4
ATOM      4  C   UNL     1      24.325 -16.545  26.697  1.00  0.00     0.053 C 
BRANCH   4   5
ATOM      5  C   UNL     1      23.025 -15.806  26.785  1.00  0.00     0.041 C 
ATOM      6  O   UNL     1      22.753 -14.899  25.956  1.00  0.00    -0.550 OA
ATOM      7  O   UNL     1      22.099 -16.143  27.765  1.00  0.00    -0.550 OA
ENDBRANCH   4   5
ENDBRANCH   3   4
ENDBRANCH   2   3
ENDBRANCH   1   2
BRANCH   1   8
ATOM      8  C   UNL     1      27.620 -18.328  24.489  1.00  0.00     0.000 C 
BRANCH   8   9
ATOM      9  C   UNL     1      28.587 -18.683  25.628  1.00  0.00     0.006 C 
BRANCH   9  10
ATOM     10  C   UNL     1      27.858 -19.100  26.912  1.00  0.00     0.053 C 
BRANCH  10  11
ATOM     11  C   UNL     1      28.291 -18.245  28.060  1.00  0.00     0.041 C 
ATOM     12  O   UNL     1      29.495 -18.245  28.432  1.00  0.00    -0.550 OA
ATOM     13  O   UNL     1      27.377 -17.410  28.689  1.00  0.00    -0.550 OA
ENDBRANCH  10  11
ENDBRANCH   9  10
ENDBRANCH   8   9
ENDBRANCH   1   8
TORSDOF 8
ENDMDL
