MODEL 1
REMARK VINA RESULT:     1.107      0.000      0.000
REMARK INTER + INTRA:           1.296
REMARK INTER:                   1.496
REMARK INTRA:                  -0.200
REMARK UNBOUND:                -0.200
REMARK SMILES CCCCCCCC(=O)[O-]
REMARK SMILES IDX 5 1 6 2 7 3 8 4 9 5 10 6 4 7 3 8 2 9 1 10
REMARK H PARENT
REMARK Flexibility Score: inf
ROOT
ATOM      1  C   UNL     1      15.087   6.582   8.010  1.00  0.00     0.000 C 
ENDROOT
BRANCH   1   2
ATOM      2  C   UNL     1      15.577   6.716   9.461  1.00  0.00     0.006 C 
BRANCH   2   3
ATOM      3  C   UNL     1      15.991   8.151   9.815  1.00  0.00     0.053 C 
BRANCH   3   4
ATOM      4  C   UNL     1      17.465   8.225  10.054  1.00  0.00     0.041 C 
ATOM      5  O   UNL     1      18.123   7.178  10.291  1.00  0.00    -0.550 OA
ATOM      6  O   UNL     1      18.123   9.446   9.967  1.00  0.00    -0.550 OA
ENDBRANCH   3   4
ENDBRANCH   2   3
ENDBRANCH   1   2
BRANCH   1   7
ATOM      7  C   UNL     1      15.539   5.270   7.352  1.00  0.00     0.000 C 
BRANCH   7   8
ATOM      8  C   UNL     1      16.569   5.538   6.246  1.00  0.00    -0.000 C 
BRANCH   8   9
ATOM      9  C   UNL     1      17.695   4.499   6.280  1.00  0.00    -0.003 C 
ATOM     10  C   UNL     1      17.185   3.120   5.875  1.00  0.00     0.004 C 
ENDBRANCH   8   9
ENDBRANCH   7   8
ENDBRANCH   1   7
TORSDOF 6
ENDMDL
MODEL 2
REMARK VINA RESULT:     1.356      2.409      4.837
REMARK INTER + INTRA:           1.632
REMARK INTER:                   2.009
REMARK INTRA:                  -0.378
REMARK UNBOUND:                -0.200
REMARK SMILES CCCCCCCC(=O)[O-]
REMARK SMILES IDX 5 1 6 2 7 3 8 4 9 5 10 6 4 7 3 8 2 9 1 10
REMARK H PARENT
REMARK Flexibility Score: inf
ROOT
ATOM      1  C   UNL     1      15.127   6.431   8.859  1.00  0.00     0.000 C 
ENDROOT
BRANCH   1   2
ATOM      2  C   UNL     1      15.815   6.466   7.484  1.00  0.00     0.006 C 
BRANCH   2   3
ATOM      3  C   UNL     1      15.711   5.130   6.737  1.00  0.00     0.053 C 
BRANCH   3   4
ATOM      4  C   UNL     1      17.073   4.572   6.472  1.00  0.00     0.041 C 
ATOM      5  O   UNL     1      18.100   5.214   6.817  1.00  0.00    -0.550 OA
ATOM      6  O   UNL     1      17.209   3.319   5.887  1.00  0.00    -0.550 OA
ENDBRANCH   3   4
ENDBRANCH   2   3
ENDBRANCH   1   2
BRANCH   1   7
ATOM      7  C   UNL     1      15.891   7.232   9.924  1.00  0.00     0.000 C 
BRANCH   7   8
ATOM      8  C   UNL     1      17.406   7.137   9.699  1.00  0.00    -0.000 C 
BRANCH   8   9
ATOM      9  C   UNL     1      18.124   8.365  10.269  1.00  0.00    -0.003 C 
ATOM     10  C   UNL     1      17.668   9.643   9.573  1.00  0.00     0.004 C 
ENDBRANCH   8   9
ENDBRANCH   7   8
ENDBRANCH   1   7
TORSDOF 6
ENDMDL
