MODEL 1
REMARK VINA RESULT:    -4.803      0.000      0.000
REMARK INTER + INTRA:          -5.178
REMARK INTER:                  -5.084
REMARK INTRA:                  -0.094
REMARK UNBOUND:                -0.094
REMARK SMILES C=C(C)[C@H]1CC=C(C)C(=O)C1
REMARK SMILES IDX 8 1 7 2 6 3 5 4 4 5 11 6 9 7 10 8 2 9 1 10 3 11
REMARK H PARENT
REMARK Flexibility Score: inf
ROOT
ATOM      1  C   UNL     1      -5.497  30.700   4.121  1.00  0.00     0.048 C 
ATOM      2  C   UNL     1      -5.026  31.956   4.801  1.00  0.00    -0.012 C 
ATOM      3  C   UNL     1      -5.433  33.158   4.358  1.00  0.00    -0.019 C 
ATOM      4  C   UNL     1      -4.925  34.444   4.955  1.00  0.00     0.036 C 
ATOM      5  C   UNL     1      -4.580  34.267   6.446  1.00  0.00     0.025 C 
ATOM      6  C   UNL     1      -3.586  33.105   6.631  1.00  0.00     0.089 C 
ATOM      7  C   UNL     1      -4.089  31.863   5.947  1.00  0.00     0.158 C 
ATOM      8  O   UNL     1      -3.669  30.738   6.332  1.00  0.00    -0.295 OA
ENDROOT
BRANCH   5   9
ATOM      9  C   UNL     1      -4.053  35.558   7.058  1.00  0.00    -0.077 C 
ATOM     10  C   UNL     1      -3.953  35.712   8.389  1.00  0.00     0.008 C 
ATOM     11  C   UNL     1      -3.628  36.698   6.167  1.00  0.00     0.039 C 
ENDBRANCH   5   9
TORSDOF 1
ENDMDL
MODEL 2
REMARK VINA RESULT:    -4.689      2.085      4.256
REMARK INTER + INTRA:          -5.058
REMARK INTER:                  -4.961
REMARK INTRA:                  -0.097
REMARK UNBOUND:                -0.094
REMARK SMILES C=C(C)[C@H]1CC=C(C)C(=O)C1
REMARK SMILES IDX 8 1 7 2 6 3 5 4 4 5 11 6 9 7 10 8 2 9 1 10 3 11
REMARK H PARENT
REMARK Flexibility Score: inf
ROOT
ATOM      1  C   UNL     1      -3.625  37.243   4.077  1.00  0.00     0.048 C 
ATOM      2  C   UNL     1      -3.964  35.832   4.471  1.00  0.00    -0.012 C 
ATOM      3  C   UNL     1      -4.974  35.184   3.864  1.00  0.00    -0.019 C 
ATOM      4  C   UNL     1      -5.401  33.801   4.280  1.00  0.00     0.036 C 
ATOM      5  C   UNL     1      -4.211  32.993   4.832  1.00  0.00     0.025 C 
ATOM      6  C   UNL     1      -3.528  33.762   5.978  1.00  0.00     0.089 C 
ATOM      7  C   UNL     1      -3.195  35.166   5.551  1.00  0.00     0.158 C 
ATOM      8  O   UNL     1      -2.280  35.790   6.153  1.00  0.00    -0.295 OA
ENDROOT
BRANCH   5   9
ATOM      9  C   UNL     1      -4.633  31.596   5.267  1.00  0.00    -0.077 C 
ATOM     10  C   UNL     1      -4.318  31.116   6.482  1.00  0.00     0.008 C 
ATOM     11  C   UNL     1      -5.424  30.719   4.329  1.00  0.00     0.039 C 
ENDBRANCH   5   9
TORSDOF 1
ENDMDL
MODEL 3
REMARK VINA RESULT:    -4.589      2.182      4.570
REMARK INTER + INTRA:          -4.951
REMARK INTER:                  -4.857
REMARK INTRA:                  -0.094
REMARK UNBOUND:                -0.094
REMARK SMILES C=C(C)[C@H]1CC=C(C)C(=O)C1
REMARK SMILES IDX 8 1 7 2 6 3 5 4 4 5 11 6 9 7 10 8 2 9 1 10 3 11
REMARK H PARENT
REMARK Flexibility Score: inf
ROOT
ATOM      1  C   UNL     1      -1.459  35.622   8.972  1.00  0.00     0.048 C 
ATOM      2  C   UNL     1      -2.423  35.047   7.971  1.00  0.00    -0.012 C 
ATOM      3  C   UNL     1      -1.984  34.636   6.768  1.00  0.00    -0.019 C 
ATOM      4  C   UNL     1      -2.923  34.130   5.706  1.00  0.00     0.036 C 
ATOM      5  C   UNL     1      -4.157  33.450   6.330  1.00  0.00     0.025 C 
ATOM      6  C   UNL     1      -4.853  34.408   7.316  1.00  0.00     0.089 C 
ATOM      7  C   UNL     1      -3.865  34.959   8.307  1.00  0.00     0.158 C 
ATOM      8  O   UNL     1      -4.284  35.388   9.416  1.00  0.00    -0.295 OA
ENDROOT
BRANCH   5   9
ATOM      9  C   UNL     1      -5.120  32.944   5.265  1.00  0.00    -0.077 C 
ATOM     10  C   UNL     1      -6.089  33.731   4.766  1.00  0.00     0.008 C 
ATOM     11  C   UNL     1      -4.998  31.534   4.745  1.00  0.00     0.039 C 
ENDBRANCH   5   9
TORSDOF 1
ENDMDL
MODEL 4
REMARK VINA RESULT:    -4.444      8.821     10.049
REMARK INTER + INTRA:          -4.798
REMARK INTER:                  -4.701
REMARK INTRA:                  -0.096
REMARK UNBOUND:                -0.094
REMARK SMILES C=C(C)[C@H]1CC=C(C)C(=O)C1
REMARK SMILES IDX 8 1 7 2 6 3 5 4 4 5 11 6 9 7 10 8 2 9 1 10 3 11
REMARK H PARENT
REMARK Flexibility Score: inf
ROOT
ATOM      1  C   UNL     1      -9.903  37.906  -5.023  1.00  0.00     0.048 C 
ATOM      2  C   UNL     1      -8.944  37.489  -3.942  1.00  0.00    -0.012 C 
ATOM      3  C   UNL     1      -7.626  37.709  -4.086  1.00  0.00    -0.019 C 
ATOM      4  C   UNL     1      -6.621  37.238  -3.068  1.00  0.00     0.036 C 
ATOM      5  C   UNL     1      -7.231  37.212  -1.654  1.00  0.00     0.025 C 
ATOM      6  C   UNL     1      -8.517  36.364  -1.641  1.00  0.00     0.089 C 
ATOM      7  C   UNL     1      -9.457  36.810  -2.727  1.00  0.00     0.158 C 
ATOM      8  O   UNL     1     -10.688  36.560  -2.614  1.00  0.00    -0.295 OA
ENDROOT
BRANCH   5   9
ATOM      9  C   UNL     1      -6.228  36.725  -0.617  1.00  0.00    -0.077 C 
ATOM     10  C   UNL     1      -6.459  35.623   0.117  1.00  0.00     0.008 C 
ATOM     11  C   UNL     1      -4.942  37.480  -0.397  1.00  0.00     0.039 C 
ENDBRANCH   5   9
TORSDOF 1
ENDMDL
MODEL 5
REMARK VINA RESULT:    -4.420      3.241      4.604
REMARK INTER + INTRA:          -4.773
REMARK INTER:                  -4.679
REMARK INTRA:                  -0.094
REMARK UNBOUND:                -0.094
REMARK SMILES C=C(C)[C@H]1CC=C(C)C(=O)C1
REMARK SMILES IDX 8 1 7 2 6 3 5 4 4 5 11 6 9 7 10 8 2 9 1 10 3 11
REMARK H PARENT
REMARK Flexibility Score: inf
ROOT
ATOM      1  C   UNL     1      -8.620  36.376   2.610  1.00  0.00     0.048 C 
ATOM      2  C   UNL     1      -7.561  35.610   3.352  1.00  0.00    -0.012 C 
ATOM      3  C   UNL     1      -7.888  34.880   4.434  1.00  0.00    -0.019 C 
ATOM      4  C   UNL     1      -6.851  34.162   5.256  1.00  0.00     0.036 C 
ATOM      5  C   UNL     1      -5.655  33.727   4.387  1.00  0.00     0.025 C 
ATOM      6  C   UNL     1      -5.069  34.940   3.639  1.00  0.00     0.089 C 
ATOM      7  C   UNL     1      -6.150  35.680   2.901  1.00  0.00     0.158 C 
ATOM      8  O   UNL     1      -5.837  36.402   1.915  1.00  0.00    -0.295 OA
ENDROOT
BRANCH   5   9
ATOM      9  C   UNL     1      -4.593  33.009   5.210  1.00  0.00    -0.077 C 
ATOM     10  C   UNL     1      -3.618  33.687   5.839  1.00  0.00     0.008 C 
ATOM     11  C   UNL     1      -4.622  31.507   5.333  1.00  0.00     0.039 C 
ENDBRANCH   5   9
TORSDOF 1
ENDMDL
MODEL 6
REMARK VINA RESULT:    -4.407      7.170      8.713
REMARK INTER + INTRA:          -4.759
REMARK INTER:                  -4.671
REMARK INTRA:                  -0.088
REMARK UNBOUND:                -0.094
REMARK SMILES C=C(C)[C@H]1CC=C(C)C(=O)C1
REMARK SMILES IDX 8 1 7 2 6 3 5 4 4 5 11 6 9 7 10 8 2 9 1 10 3 11
REMARK H PARENT
REMARK Flexibility Score: inf
ROOT
ATOM      1  C   UNL     1      -4.838  37.905  -2.369  1.00  0.00     0.048 C 
ATOM      2  C   UNL     1      -6.047  37.270  -1.739  1.00  0.00    -0.012 C 
ATOM      3  C   UNL     1      -7.254  37.388  -2.319  1.00  0.00    -0.019 C 
ATOM      4  C   UNL     1      -8.503  36.838  -1.685  1.00  0.00     0.036 C 
ATOM      5  C   UNL     1      -8.194  35.589  -0.837  1.00  0.00     0.025 C 
ATOM      6  C   UNL     1      -7.102  35.905   0.202  1.00  0.00     0.089 C 
ATOM      7  C   UNL     1      -5.905  36.532  -0.460  1.00  0.00     0.158 C 
ATOM      8  O   UNL     1      -4.782  36.461   0.109  1.00  0.00    -0.295 OA
ENDROOT
BRANCH   5   9
ATOM      9  C   UNL     1      -9.449  35.030  -0.180  1.00  0.00    -0.077 C 
ATOM     10  C   UNL     1      -9.891  33.791  -0.454  1.00  0.00     0.008 C 
ATOM     11  C   UNL     1     -10.225  35.870   0.803  1.00  0.00     0.039 C 
ENDBRANCH   5   9
TORSDOF 1
ENDMDL
MODEL 7
REMARK VINA RESULT:    -4.386      2.044      4.504
REMARK INTER + INTRA:          -4.737
REMARK INTER:                  -4.648
REMARK INTRA:                  -0.089
REMARK UNBOUND:                -0.094
REMARK SMILES C=C(C)[C@H]1CC=C(C)C(=O)C1
REMARK SMILES IDX 8 1 7 2 6 3 5 4 4 5 11 6 9 7 10 8 2 9 1 10 3 11
REMARK H PARENT
REMARK Flexibility Score: inf
ROOT
ATOM      1  C   UNL     1      -2.362  35.797   9.722  1.00  0.00     0.048 C 
ATOM      2  C   UNL     1      -3.000  35.209   8.493  1.00  0.00    -0.012 C 
ATOM      3  C   UNL     1      -4.314  34.928   8.482  1.00  0.00    -0.019 C 
ATOM      4  C   UNL     1      -4.980  34.265   7.305  1.00  0.00     0.036 C 
ATOM      5  C   UNL     1      -4.278  34.639   5.986  1.00  0.00     0.025 C 
ATOM      6  C   UNL     1      -2.776  34.310   6.067  1.00  0.00     0.089 C 
ATOM      7  C   UNL     1      -2.166  34.918   7.301  1.00  0.00     0.158 C 
ATOM      8  O   UNL     1      -0.925  35.137   7.328  1.00  0.00    -0.295 OA
ENDROOT
BRANCH   5   9
ATOM      9  C   UNL     1      -4.936  33.964   4.789  1.00  0.00    -0.077 C 
ATOM     10  C   UNL     1      -5.424  34.681   3.762  1.00  0.00     0.008 C 
ATOM     11  C   UNL     1      -5.048  32.462   4.736  1.00  0.00     0.039 C 
ENDBRANCH   5   9
TORSDOF 1
ENDMDL
MODEL 8
REMARK VINA RESULT:    -4.308      9.101     10.357
REMARK INTER + INTRA:          -4.654
REMARK INTER:                  -4.557
REMARK INTRA:                  -0.097
REMARK UNBOUND:                -0.094
REMARK SMILES C=C(C)[C@H]1CC=C(C)C(=O)C1
REMARK SMILES IDX 8 1 7 2 6 3 5 4 4 5 11 6 9 7 10 8 2 9 1 10 3 11
REMARK H PARENT
REMARK Flexibility Score: inf
ROOT
ATOM      1  C   UNL     1     -10.724  37.118  -4.574  1.00  0.00     0.048 C 
ATOM      2  C   UNL     1      -9.555  37.148  -3.628  1.00  0.00    -0.012 C 
ATOM      3  C   UNL     1      -9.718  36.799  -2.340  1.00  0.00    -0.019 C 
ATOM      4  C   UNL     1      -8.596  36.891  -1.340  1.00  0.00     0.036 C 
ATOM      5  C   UNL     1      -7.229  36.668  -2.014  1.00  0.00     0.025 C 
ATOM      6  C   UNL     1      -7.046  37.649  -3.188  1.00  0.00     0.089 C 
ATOM      7  C   UNL     1      -8.226  37.590  -4.118  1.00  0.00     0.158 C 
ATOM      8  O   UNL     1      -8.084  37.963  -5.314  1.00  0.00    -0.295 OA
ENDROOT
BRANCH   5   9
ATOM      9  C   UNL     1      -6.085  36.771  -1.014  1.00  0.00    -0.077 C 
ATOM     10  C   UNL     1      -5.032  37.576  -1.235  1.00  0.00     0.008 C 
ATOM     11  C   UNL     1      -6.119  35.961   0.258  1.00  0.00     0.039 C 
ENDBRANCH   5   9
TORSDOF 1
ENDMDL
MODEL 9
REMARK VINA RESULT:    -4.288      9.415     10.795
REMARK INTER + INTRA:          -4.633
REMARK INTER:                  -4.538
REMARK INTRA:                  -0.095
REMARK UNBOUND:                -0.094
REMARK SMILES C=C(C)[C@H]1CC=C(C)C(=O)C1
REMARK SMILES IDX 8 1 7 2 6 3 5 4 4 5 11 6 9 7 10 8 2 9 1 10 3 11
REMARK H PARENT
REMARK Flexibility Score: inf
ROOT
ATOM      1  C   UNL     1     -10.931  38.026  -5.341  1.00  0.00     0.048 C 
ATOM      2  C   UNL     1     -10.385  37.558  -4.021  1.00  0.00    -0.012 C 
ATOM      3  C   UNL     1     -11.221  37.182  -3.038  1.00  0.00    -0.019 C 
ATOM      4  C   UNL     1     -10.724  36.783  -1.674  1.00  0.00     0.036 C 
ATOM      5  C   UNL     1      -9.323  36.146  -1.756  1.00  0.00     0.025 C 
ATOM      6  C   UNL     1      -8.347  37.094  -2.480  1.00  0.00     0.089 C 
ATOM      7  C   UNL     1      -8.918  37.537  -3.798  1.00  0.00     0.158 C 
ATOM      8  O   UNL     1      -8.135  37.936  -4.703  1.00  0.00    -0.295 OA
ENDROOT
BRANCH   5   9
ATOM      9  C   UNL     1      -8.804  35.750  -0.381  1.00  0.00    -0.077 C 
ATOM     10  C   UNL     1      -9.643  35.433   0.620  1.00  0.00     0.008 C 
ATOM     11  C   UNL     1      -7.320  35.703  -0.118  1.00  0.00     0.039 C 
ENDBRANCH   5   9
TORSDOF 1
ENDMDL
