MODEL 1
REMARK VINA RESULT:    -5.552      0.000      0.000
REMARK INTER + INTRA:         -11.393
REMARK INTER:                 -10.095
REMARK INTRA:                  -1.298
REMARK UNBOUND:                -1.298
REMARK SMILES CCCCCC=CCC=CCCCCCCCC(=O)[O-]
REMARK SMILES IDX 11 1 12 2 13 3 14 4 15 5 16 6 17 7 18 8 19 9 20 10 10 11
REMARK SMILES IDX 9 12 8 13 7 14 6 15 5 16 4 17 3 18 2 19 1 20
REMARK H PARENT
REMARK Flexibility Score: inf
ROOT
ATOM      1  C   UNL     1       4.873  11.556  19.261  1.00  0.00     0.027 C 
ENDROOT
BRANCH   1   2
ATOM      2  C   UNL     1       6.110  11.326  18.380  1.00  0.00     0.004 C 
BRANCH   2   3
ATOM      3  C   UNL     1       5.771  11.276  16.880  1.00  0.00     0.000 C 
BRANCH   3   4
ATOM      4  C   UNL     1       5.485  12.646  16.233  1.00  0.00     0.000 C 
BRANCH   4   5
ATOM      5  C   UNL     1       4.077  12.803  15.624  1.00  0.00     0.000 C 
BRANCH   5   6
ATOM      6  C   UNL     1       3.880  12.118  14.259  1.00  0.00     0.006 C 
BRANCH   6   7
ATOM      7  C   UNL     1       3.069  10.819  14.358  1.00  0.00     0.053 C 
BRANCH   7   8
ATOM      8  C   UNL     1       3.801   9.695  13.696  1.00  0.00     0.041 C 
ATOM      9  O   UNL     1       5.006   9.836  13.358  1.00  0.00    -0.550 OA
ATOM     10  O   UNL     1       3.166   8.476  13.494  1.00  0.00    -0.550 OA
ENDBRANCH   7   8
ENDBRANCH   6   7
ENDBRANCH   5   6
ENDBRANCH   4   5
ENDBRANCH   3   4
ENDBRANCH   2   3
ENDBRANCH   1   2
BRANCH   1  11
ATOM     11  C   UNL     1       3.870  10.449  19.088  1.00  0.00    -0.031 C 
ATOM     12  C   UNL     1       3.116  10.353  17.982  1.00  0.00    -0.027 C 
BRANCH  12  13
ATOM     13  C   UNL     1       2.099   9.258  17.816  1.00  0.00     0.054 C 
BRANCH  13  14
ATOM     14  C   UNL     1       2.717   8.029  17.200  1.00  0.00    -0.027 C 
ATOM     15  C   UNL     1       2.115   6.828  17.123  1.00  0.00    -0.031 C 
BRANCH  15  16
ATOM     16  C   UNL     1       0.707   6.548  17.587  1.00  0.00     0.027 C 
BRANCH  16  17
ATOM     17  C   UNL     1       0.671   5.669  18.854  1.00  0.00     0.004 C 
BRANCH  17  18
ATOM     18  C   UNL     1       2.043   5.493  19.523  1.00  0.00     0.000 C 
BRANCH  18  19
ATOM     19  C   UNL     1       2.463   4.022  19.645  1.00  0.00    -0.003 C 
ATOM     20  C   UNL     1       1.757   3.159  18.603  1.00  0.00     0.004 C 
ENDBRANCH  18  19
ENDBRANCH  17  18
ENDBRANCH  16  17
ENDBRANCH  15  16
ENDBRANCH  13  14
ENDBRANCH  12  13
ENDBRANCH   1  11
TORSDOF 14
ENDMDL
MODEL 2
REMARK VINA RESULT:    -5.474      1.516      1.968
REMARK INTER + INTRA:         -11.252
REMARK INTER:                  -9.709
REMARK INTRA:                  -1.543
REMARK UNBOUND:                -1.298
REMARK SMILES CCCCCC=CCC=CCCCCCCCC(=O)[O-]
REMARK SMILES IDX 11 1 12 2 13 3 14 4 15 5 16 6 17 7 18 8 19 9 20 10 10 11
REMARK SMILES IDX 9 12 8 13 7 14 6 15 5 16 4 17 3 18 2 19 1 20
REMARK H PARENT
REMARK Flexibility Score: inf
ROOT
ATOM      1  C   UNL     1       4.038  12.108  19.119  1.00  0.00     0.027 C 
ENDROOT
BRANCH   1   2
ATOM      2  C   UNL     1       5.167  11.229  19.679  1.00  0.00     0.004 C 
BRANCH   2   3
ATOM      3  C   UNL     1       6.391  11.168  18.749  1.00  0.00     0.000 C 
BRANCH   3   4
ATOM      4  C   UNL     1       6.144  11.683  17.317  1.00  0.00     0.000 C 
BRANCH   4   5
ATOM      5  C   UNL     1       5.838  10.593  16.270  1.00  0.00     0.000 C 
BRANCH   5   6
ATOM      6  C   UNL     1       4.675  10.919  15.315  1.00  0.00     0.006 C 
BRANCH   6   7
ATOM      7  C   UNL     1       4.482  12.426  15.106  1.00  0.00     0.053 C 
BRANCH   7   8
ATOM      8  C   UNL     1       3.064  12.724  14.733  1.00  0.00     0.041 C 
ATOM      9  O   UNL     1       2.491  13.749  15.188  1.00  0.00    -0.550 OA
ATOM     10  O   UNL     1       2.390  11.894  13.845  1.00  0.00    -0.550 OA
ENDBRANCH   7   8
ENDBRANCH   6   7
ENDBRANCH   5   6
ENDBRANCH   4   5
ENDBRANCH   3   4
ENDBRANCH   2   3
ENDBRANCH   1   2
BRANCH   1  11
ATOM     11  C   UNL     1       3.014  11.279  18.393  1.00  0.00    -0.031 C 
ATOM     12  C   UNL     1       3.092   9.939  18.360  1.00  0.00    -0.027 C 
BRANCH  12  13
ATOM     13  C   UNL     1       2.081   9.111  17.619  1.00  0.00     0.054 C 
BRANCH  13  14
ATOM     14  C   UNL     1       2.693   7.829  17.114  1.00  0.00    -0.027 C 
ATOM     15  C   UNL     1       2.083   6.629  17.141  1.00  0.00    -0.031 C 
BRANCH  15  16
ATOM     16  C   UNL     1       0.672   6.400  17.624  1.00  0.00     0.027 C 
BRANCH  16  17
ATOM     17  C   UNL     1       0.628   5.629  18.959  1.00  0.00     0.004 C 
BRANCH  17  18
ATOM     18  C   UNL     1       2.004   5.460  19.621  1.00  0.00     0.000 C 
BRANCH  18  19
ATOM     19  C   UNL     1       2.389   3.990  19.833  1.00  0.00    -0.003 C 
ATOM     20  C   UNL     1       1.993   3.139  18.630  1.00  0.00     0.004 C 
ENDBRANCH  18  19
ENDBRANCH  17  18
ENDBRANCH  16  17
ENDBRANCH  15  16
ENDBRANCH  13  14
ENDBRANCH  12  13
ENDBRANCH   1  11
TORSDOF 14
ENDMDL
MODEL 3
REMARK VINA RESULT:    -5.472      2.246      3.654
REMARK INTER + INTRA:         -11.248
REMARK INTER:                  -9.723
REMARK INTRA:                  -1.525
REMARK UNBOUND:                -1.298
REMARK SMILES CCCCCC=CCC=CCCCCCCCC(=O)[O-]
REMARK SMILES IDX 11 1 12 2 13 3 14 4 15 5 16 6 17 7 18 8 19 9 20 10 10 11
REMARK SMILES IDX 9 12 8 13 7 14 6 15 5 16 4 17 3 18 2 19 1 20
REMARK H PARENT
REMARK Flexibility Score: inf
ROOT
ATOM      1  C   UNL     1       3.886  10.210  14.060  1.00  0.00     0.027 C 
ENDROOT
BRANCH   1   2
ATOM      2  C   UNL     1       3.180  11.570  14.167  1.00  0.00     0.004 C 
BRANCH   2   3
ATOM      3  C   UNL     1       4.159  12.731  14.412  1.00  0.00     0.000 C 
BRANCH   3   4
ATOM      4  C   UNL     1       4.433  13.047  15.896  1.00  0.00     0.000 C 
BRANCH   4   5
ATOM      5  C   UNL     1       5.807  12.588  16.422  1.00  0.00     0.000 C 
BRANCH   5   6
ATOM      6  C   UNL     1       5.800  11.240  17.166  1.00  0.00     0.006 C 
BRANCH   6   7
ATOM      7  C   UNL     1       6.028  11.393  18.676  1.00  0.00     0.053 C 
BRANCH   7   8
ATOM      8  C   UNL     1       4.735  11.254  19.415  1.00  0.00     0.041 C 
ATOM      9  O   UNL     1       4.675  10.552  20.460  1.00  0.00    -0.550 OA
ATOM     10  O   UNL     1       3.607  11.937  18.978  1.00  0.00    -0.550 OA
ENDBRANCH   7   8
ENDBRANCH   6   7
ENDBRANCH   5   6
ENDBRANCH   4   5
ENDBRANCH   3   4
ENDBRANCH   2   3
ENDBRANCH   1   2
BRANCH   1  11
ATOM     11  C   UNL     1       3.382   9.253  15.106  1.00  0.00    -0.031 C 
ATOM     12  C   UNL     1       2.983   9.681  16.313  1.00  0.00    -0.027 C 
BRANCH  12  13
ATOM     13  C   UNL     1       2.498   8.724  17.366  1.00  0.00     0.054 C 
BRANCH  13  14
ATOM     14  C   UNL     1       2.695   7.294  16.934  1.00  0.00    -0.027 C 
ATOM     15  C   UNL     1       1.975   6.252  17.390  1.00  0.00    -0.031 C 
BRANCH  15  16
ATOM     16  C   UNL     1       0.821   6.369  18.355  1.00  0.00     0.027 C 
BRANCH  16  17
ATOM     17  C   UNL     1       0.592   5.070  19.154  1.00  0.00     0.004 C 
BRANCH  17  18
ATOM     18  C   UNL     1       1.705   4.765  20.170  1.00  0.00     0.000 C 
BRANCH  18  19
ATOM     19  C   UNL     1       2.730   3.751  19.645  1.00  0.00    -0.003 C 
ATOM     20  C   UNL     1       2.125   2.867  18.558  1.00  0.00     0.004 C 
ENDBRANCH  18  19
ENDBRANCH  17  18
ENDBRANCH  16  17
ENDBRANCH  15  16
ENDBRANCH  13  14
ENDBRANCH  12  13
ENDBRANCH   1  11
TORSDOF 14
ENDMDL
MODEL 4
REMARK VINA RESULT:    -5.210      2.688      6.719
REMARK INTER + INTRA:         -10.772
REMARK INTER:                  -9.482
REMARK INTRA:                  -1.291
REMARK UNBOUND:                -1.298
REMARK SMILES CCCCCC=CCC=CCCCCCCCC(=O)[O-]
REMARK SMILES IDX 11 1 12 2 13 3 14 4 15 5 16 6 17 7 18 8 19 9 20 10 10 11
REMARK SMILES IDX 9 12 8 13 7 14 6 15 5 16 4 17 3 18 2 19 1 20
REMARK H PARENT
REMARK Flexibility Score: inf
ROOT
ATOM      1  C   UNL     1       3.417   9.175  13.650  1.00  0.00     0.027 C 
ENDROOT
BRANCH   1   2
ATOM      2  C   UNL     1       3.331   8.346  14.940  1.00  0.00     0.004 C 
BRANCH   2   3
ATOM      3  C   UNL     1       3.078   9.210  16.188  1.00  0.00     0.000 C 
BRANCH   3   4
ATOM      4  C   UNL     1       2.282   8.512  17.309  1.00  0.00     0.000 C 
BRANCH   4   5
ATOM      5  C   UNL     1       2.313   6.971  17.276  1.00  0.00     0.000 C 
BRANCH   5   6
ATOM      6  C   UNL     1       1.050   6.284  17.827  1.00  0.00     0.006 C 
BRANCH   6   7
ATOM      7  C   UNL     1       1.202   5.848  19.290  1.00  0.00     0.053 C 
BRANCH   7   8
ATOM      8  C   UNL     1       1.775   4.469  19.367  1.00  0.00     0.041 C 
ATOM      9  O   UNL     1       1.507   3.620  18.476  1.00  0.00    -0.550 OA
ATOM     10  O   UNL     1       2.644   4.133  20.399  1.00  0.00    -0.550 OA
ENDBRANCH   7   8
ENDBRANCH   6   7
ENDBRANCH   5   6
ENDBRANCH   4   5
ENDBRANCH   3   4
ENDBRANCH   2   3
ENDBRANCH   1   2
BRANCH   1  11
ATOM     11  C   UNL     1       3.812  10.597  13.944  1.00  0.00    -0.031 C 
ATOM     12  C   UNL     1       2.909  11.589  13.945  1.00  0.00    -0.027 C 
BRANCH  12  13
ATOM     13  C   UNL     1       3.305  13.013  14.219  1.00  0.00     0.054 C 
BRANCH  13  14
ATOM     14  C   UNL     1       3.087  13.369  15.668  1.00  0.00    -0.027 C 
ATOM     15  C   UNL     1       3.902  13.004  16.675  1.00  0.00    -0.031 C 
BRANCH  15  16
ATOM     16  C   UNL     1       5.188  12.236  16.496  1.00  0.00     0.027 C 
BRANCH  16  17
ATOM     17  C   UNL     1       5.592  11.466  17.770  1.00  0.00     0.004 C 
BRANCH  17  18
ATOM     18  C   UNL     1       4.444  11.290  18.777  1.00  0.00     0.000 C 
BRANCH  18  19
ATOM     19  C   UNL     1       4.928  10.844  20.163  1.00  0.00    -0.003 C 
ATOM     20  C   UNL     1       6.399  11.194  20.371  1.00  0.00     0.004 C 
ENDBRANCH  18  19
ENDBRANCH  17  18
ENDBRANCH  16  17
ENDBRANCH  15  16
ENDBRANCH  13  14
ENDBRANCH  12  13
ENDBRANCH   1  11
TORSDOF 14
ENDMDL
MODEL 5
REMARK VINA RESULT:    -5.103      2.710      6.987
REMARK INTER + INTRA:         -10.577
REMARK INTER:                  -9.229
REMARK INTRA:                  -1.348
REMARK UNBOUND:                -1.298
REMARK SMILES CCCCCC=CCC=CCCCCCCCC(=O)[O-]
REMARK SMILES IDX 11 1 12 2 13 3 14 4 15 5 16 6 17 7 18 8 19 9 20 10 10 11
REMARK SMILES IDX 9 12 8 13 7 14 6 15 5 16 4 17 3 18 2 19 1 20
REMARK H PARENT
REMARK Flexibility Score: inf
ROOT
ATOM      1  C   UNL     1       2.435   9.411  18.620  1.00  0.00     0.027 C 
ENDROOT
BRANCH   1   2
ATOM      2  C   UNL     1       1.881   8.887  17.287  1.00  0.00     0.004 C 
BRANCH   2   3
ATOM      3  C   UNL     1       2.786   7.823  16.643  1.00  0.00     0.000 C 
BRANCH   3   4
ATOM      4  C   UNL     1       2.422   6.366  16.989  1.00  0.00     0.000 C 
BRANCH   4   5
ATOM      5  C   UNL     1       1.010   6.163  17.574  1.00  0.00     0.000 C 
BRANCH   5   6
ATOM      6  C   UNL     1       0.964   5.948  19.098  1.00  0.00     0.006 C 
BRANCH   6   7
ATOM      7  C   UNL     1       0.780   4.475  19.485  1.00  0.00     0.053 C 
BRANCH   7   8
ATOM      8  C   UNL     1       2.035   3.705  19.222  1.00  0.00     0.041 C 
ATOM      9  O   UNL     1       3.109   4.029  19.796  1.00  0.00    -0.550 OA
ATOM     10  O   UNL     1       2.010   2.601  18.378  1.00  0.00    -0.550 OA
ENDBRANCH   7   8
ENDBRANCH   6   7
ENDBRANCH   5   6
ENDBRANCH   4   5
ENDBRANCH   3   4
ENDBRANCH   2   3
ENDBRANCH   1   2
BRANCH   1  11
ATOM     11  C   UNL     1       3.557  10.389  18.395  1.00  0.00    -0.031 C 
ATOM     12  C   UNL     1       4.275  10.879  19.417  1.00  0.00    -0.027 C 
BRANCH  12  13
ATOM     13  C   UNL     1       5.383  11.870  19.196  1.00  0.00     0.054 C 
BRANCH  13  14
ATOM     14  C   UNL     1       6.267  11.451  18.049  1.00  0.00    -0.027 C 
ATOM     15  C   UNL     1       6.089  11.830  16.770  1.00  0.00    -0.031 C 
BRANCH  15  16
ATOM     16  C   UNL     1       5.015  12.781  16.303  1.00  0.00     0.027 C 
BRANCH  16  17
ATOM     17  C   UNL     1       4.753  12.670  14.787  1.00  0.00     0.004 C 
BRANCH  17  18
ATOM     18  C   UNL     1       3.269  12.499  14.427  1.00  0.00     0.000 C 
BRANCH  18  19
ATOM     19  C   UNL     1       2.885  11.039  14.153  1.00  0.00    -0.003 C 
ATOM     20  C   UNL     1       4.125  10.165  13.990  1.00  0.00     0.004 C 
ENDBRANCH  18  19
ENDBRANCH  17  18
ENDBRANCH  16  17
ENDBRANCH  15  16
ENDBRANCH  13  14
ENDBRANCH  12  13
ENDBRANCH   1  11
TORSDOF 14
ENDMDL
MODEL 6
REMARK VINA RESULT:    -5.090      2.243      3.767
REMARK INTER + INTRA:         -10.554
REMARK INTER:                  -9.311
REMARK INTRA:                  -1.243
REMARK UNBOUND:                -1.298
REMARK SMILES CCCCCC=CCC=CCCCCCCCC(=O)[O-]
REMARK SMILES IDX 11 1 12 2 13 3 14 4 15 5 16 6 17 7 18 8 19 9 20 10 10 11
REMARK SMILES IDX 9 12 8 13 7 14 6 15 5 16 4 17 3 18 2 19 1 20
REMARK H PARENT
REMARK Flexibility Score: inf
ROOT
ATOM      1  C   UNL     1       3.868  11.563  13.975  1.00  0.00     0.027 C 
ENDROOT
BRANCH   1   2
ATOM      2  C   UNL     1       3.308  12.837  14.625  1.00  0.00     0.004 C 
BRANCH   2   3
ATOM      3  C   UNL     1       3.991  13.174  15.961  1.00  0.00     0.000 C 
BRANCH   3   4
ATOM      4  C   UNL     1       3.048  13.719  17.053  1.00  0.00     0.000 C 
BRANCH   4   5
ATOM      5  C   UNL     1       3.142  13.006  18.417  1.00  0.00     0.000 C 
BRANCH   5   6
ATOM      6  C   UNL     1       3.448  11.499  18.343  1.00  0.00     0.006 C 
BRANCH   6   7
ATOM      7  C   UNL     1       4.320  11.012  19.507  1.00  0.00     0.053 C 
BRANCH   7   8
ATOM      8  C   UNL     1       5.767  11.251  19.212  1.00  0.00     0.041 C 
ATOM      9  O   UNL     1       6.159  11.372  18.020  1.00  0.00    -0.550 OA
ATOM     10  O   UNL     1       6.675  11.388  20.253  1.00  0.00    -0.550 OA
ENDBRANCH   7   8
ENDBRANCH   6   7
ENDBRANCH   5   6
ENDBRANCH   4   5
ENDBRANCH   3   4
ENDBRANCH   2   3
ENDBRANCH   1   2
BRANCH   1  11
ATOM     11  C   UNL     1       4.000  10.453  14.982  1.00  0.00    -0.031 C 
ATOM     12  C   UNL     1       2.967   9.648  15.278  1.00  0.00    -0.027 C 
BRANCH  12  13
ATOM     13  C   UNL     1       3.092   8.551  16.298  1.00  0.00     0.054 C 
BRANCH  13  14
ATOM     14  C   UNL     1       2.209   8.815  17.491  1.00  0.00    -0.027 C 
ATOM     15  C   UNL     1       1.319   7.937  17.991  1.00  0.00    -0.031 C 
BRANCH  15  16
ATOM     16  C   UNL     1       1.118   6.535  17.470  1.00  0.00     0.027 C 
BRANCH  16  17
ATOM     17  C   UNL     1       0.752   5.541  18.590  1.00  0.00     0.004 C 
BRANCH  17  18
ATOM     18  C   UNL     1       1.840   5.394  19.667  1.00  0.00     0.000 C 
BRANCH  18  19
ATOM     19  C   UNL     1       2.318   3.946  19.839  1.00  0.00    -0.003 C 
ATOM     20  C   UNL     1       2.027   3.118  18.590  1.00  0.00     0.004 C 
ENDBRANCH  18  19
ENDBRANCH  17  18
ENDBRANCH  16  17
ENDBRANCH  15  16
ENDBRANCH  13  14
ENDBRANCH  12  13
ENDBRANCH   1  11
TORSDOF 14
ENDMDL
MODEL 7
REMARK VINA RESULT:    -4.671      2.776      6.899
REMARK INTER + INTRA:          -9.792
REMARK INTER:                  -8.876
REMARK INTRA:                  -0.916
REMARK UNBOUND:                -1.298
REMARK SMILES CCCCCC=CCC=CCCCCCCCC(=O)[O-]
REMARK SMILES IDX 11 1 12 2 13 3 14 4 15 5 16 6 17 7 18 8 19 9 20 10 10 11
REMARK SMILES IDX 9 12 8 13 7 14 6 15 5 16 4 17 3 18 2 19 1 20
REMARK H PARENT
REMARK Flexibility Score: inf
ROOT
ATOM      1  C   UNL     1       4.099  10.131  14.660  1.00  0.00     0.027 C 
ENDROOT
BRANCH   1   2
ATOM      2  C   UNL     1       3.542   8.926  15.434  1.00  0.00     0.004 C 
BRANCH   2   3
ATOM      3  C   UNL     1       2.518   9.330  16.508  1.00  0.00     0.000 C 
BRANCH   3   4
ATOM      4  C   UNL     1       2.415   8.361  17.703  1.00  0.00     0.000 C 
BRANCH   4   5
ATOM      5  C   UNL     1       2.118   6.893  17.334  1.00  0.00     0.000 C 
BRANCH   5   6
ATOM      6  C   UNL     1       0.952   6.252  18.108  1.00  0.00     0.006 C 
BRANCH   6   7
ATOM      7  C   UNL     1       1.357   5.783  19.511  1.00  0.00     0.053 C 
BRANCH   7   8
ATOM      8  C   UNL     1       1.924   4.400  19.457  1.00  0.00     0.041 C 
ATOM      9  O   UNL     1       2.660   3.980  20.389  1.00  0.00    -0.550 OA
ATOM     10  O   UNL     1       1.602   3.558  18.400  1.00  0.00    -0.550 OA
ENDBRANCH   7   8
ENDBRANCH   6   7
ENDBRANCH   5   6
ENDBRANCH   4   5
ENDBRANCH   3   4
ENDBRANCH   2   3
ENDBRANCH   1   2
BRANCH   1  11
ATOM     11  C   UNL     1       4.838  11.069  15.575  1.00  0.00    -0.031 C 
ATOM     12  C   UNL     1       5.545  10.616  16.621  1.00  0.00    -0.027 C 
BRANCH  12  13
ATOM     13  C   UNL     1       6.268  11.553  17.547  1.00  0.00     0.054 C 
BRANCH  13  14
ATOM     14  C   UNL     1       5.883  11.304  18.984  1.00  0.00    -0.027 C 
ATOM     15  C   UNL     1       4.640  11.456  19.479  1.00  0.00    -0.031 C 
BRANCH  15  16
ATOM     16  C   UNL     1       3.435  11.839  18.655  1.00  0.00     0.027 C 
BRANCH  16  17
ATOM     17  C   UNL     1       3.026  13.311  18.866  1.00  0.00     0.004 C 
BRANCH  17  18
ATOM     18  C   UNL     1       2.587  14.022  17.576  1.00  0.00     0.000 C 
BRANCH  18  19
ATOM     19  C   UNL     1       3.175  13.382  16.312  1.00  0.00    -0.003 C 
ATOM     20  C   UNL     1       2.376  13.775  15.073  1.00  0.00     0.004 C 
ENDBRANCH  18  19
ENDBRANCH  17  18
ENDBRANCH  16  17
ENDBRANCH  15  16
ENDBRANCH  13  14
ENDBRANCH  12  13
ENDBRANCH   1  11
TORSDOF 14
ENDMDL
MODEL 8
REMARK VINA RESULT:    -4.656      2.623      6.248
REMARK INTER + INTRA:          -9.764
REMARK INTER:                  -8.312
REMARK INTRA:                  -1.452
REMARK UNBOUND:                -1.298
REMARK SMILES CCCCCC=CCC=CCCCCCCCC(=O)[O-]
REMARK SMILES IDX 11 1 12 2 13 3 14 4 15 5 16 6 17 7 18 8 19 9 20 10 10 11
REMARK SMILES IDX 9 12 8 13 7 14 6 15 5 16 4 17 3 18 2 19 1 20
REMARK H PARENT
REMARK Flexibility Score: inf
ROOT
ATOM      1  C   UNL     1       4.610  11.058  19.314  1.00  0.00     0.027 C 
ENDROOT
BRANCH   1   2
ATOM      2  C   UNL     1       3.497  10.005  19.223  1.00  0.00     0.004 C 
BRANCH   2   3
ATOM      3  C   UNL     1       2.969   9.817  17.790  1.00  0.00     0.000 C 
BRANCH   3   4
ATOM      4  C   UNL     1       1.810   8.810  17.652  1.00  0.00     0.000 C 
BRANCH   4   5
ATOM      5  C   UNL     1       2.233   7.330  17.563  1.00  0.00     0.000 C 
BRANCH   5   6
ATOM      6  C   UNL     1       1.112   6.315  17.854  1.00  0.00     0.006 C 
BRANCH   6   7
ATOM      7  C   UNL     1       1.174   5.754  19.280  1.00  0.00     0.053 C 
BRANCH   7   8
ATOM      8  C   UNL     1       1.840   4.414  19.286  1.00  0.00     0.041 C 
ATOM      9  O   UNL     1       1.607   3.587  18.364  1.00  0.00    -0.550 OA
ATOM     10  O   UNL     1       2.754   4.096  20.283  1.00  0.00    -0.550 OA
ENDBRANCH   7   8
ENDBRANCH   6   7
ENDBRANCH   5   6
ENDBRANCH   4   5
ENDBRANCH   3   4
ENDBRANCH   2   3
ENDBRANCH   1   2
BRANCH   1  11
ATOM     11  C   UNL     1       4.573  11.991  18.134  1.00  0.00    -0.031 C 
ATOM     12  C   UNL     1       5.357  11.797  17.062  1.00  0.00    -0.027 C 
BRANCH  12  13
ATOM     13  C   UNL     1       5.335  12.739  15.891  1.00  0.00     0.054 C 
BRANCH  13  14
ATOM     14  C   UNL     1       4.019  13.468  15.804  1.00  0.00    -0.027 C 
ATOM     15  C   UNL     1       3.057  13.203  14.900  1.00  0.00    -0.031 C 
BRANCH  15  16
ATOM     16  C   UNL     1       3.128  12.094  13.879  1.00  0.00     0.027 C 
BRANCH  16  17
ATOM     17  C   UNL     1       2.748  10.724  14.475  1.00  0.00     0.004 C 
BRANCH  17  18
ATOM     18  C   UNL     1       3.839   9.654  14.313  1.00  0.00     0.000 C 
BRANCH  18  19
ATOM     19  C   UNL     1       3.678   8.828  13.030  1.00  0.00    -0.003 C 
ATOM     20  C   UNL     1       3.048   7.469  13.326  1.00  0.00     0.004 C 
ENDBRANCH  18  19
ENDBRANCH  17  18
ENDBRANCH  16  17
ENDBRANCH  15  16
ENDBRANCH  13  14
ENDBRANCH  12  13
ENDBRANCH   1  11
TORSDOF 14
ENDMDL
MODEL 9
REMARK VINA RESULT:    -4.531      1.796      2.793
REMARK INTER + INTRA:          -9.538
REMARK INTER:                  -8.373
REMARK INTRA:                  -1.165
REMARK UNBOUND:                -1.298
REMARK SMILES CCCCCC=CCC=CCCCCCCCC(=O)[O-]
REMARK SMILES IDX 11 1 12 2 13 3 14 4 15 5 16 6 17 7 18 8 19 9 20 10 10 11
REMARK SMILES IDX 9 12 8 13 7 14 6 15 5 16 4 17 3 18 2 19 1 20
REMARK H PARENT
REMARK Flexibility Score: inf
ROOT
ATOM      1  C   UNL     1       6.511  11.105  16.875  1.00  0.00     0.027 C 
ENDROOT
BRANCH   1   2
ATOM      2  C   UNL     1       6.387  11.917  18.173  1.00  0.00     0.004 C 
BRANCH   2   3
ATOM      3  C   UNL     1       5.697  11.132  19.302  1.00  0.00     0.000 C 
BRANCH   3   4
ATOM      4  C   UNL     1       4.176  11.358  19.413  1.00  0.00     0.000 C 
BRANCH   4   5
ATOM      5  C   UNL     1       3.668  12.701  18.851  1.00  0.00     0.000 C 
BRANCH   5   6
ATOM      6  C   UNL     1       3.047  12.624  17.444  1.00  0.00     0.006 C 
BRANCH   6   7
ATOM      7  C   UNL     1       3.600  13.692  16.492  1.00  0.00     0.053 C 
BRANCH   7   8
ATOM      8  C   UNL     1       3.243  13.364  15.076  1.00  0.00     0.041 C 
ATOM      9  O   UNL     1       4.108  12.873  14.302  1.00  0.00    -0.550 OA
ATOM     10  O   UNL     1       1.944  13.556  14.624  1.00  0.00    -0.550 OA
ENDBRANCH   7   8
ENDBRANCH   6   7
ENDBRANCH   5   6
ENDBRANCH   4   5
ENDBRANCH   3   4
ENDBRANCH   2   3
ENDBRANCH   1   2
BRANCH   1  11
ATOM     11  C   UNL     1       5.378  10.126  16.736  1.00  0.00    -0.031 C 
ATOM     12  C   UNL     1       4.490  10.220  15.735  1.00  0.00    -0.027 C 
BRANCH  12  13
ATOM     13  C   UNL     1       3.345   9.254  15.606  1.00  0.00     0.054 C 
BRANCH  13  14
ATOM     14  C   UNL     1       2.615   9.098  16.916  1.00  0.00    -0.027 C 
ATOM     15  C   UNL     1       2.182   7.924  17.414  1.00  0.00    -0.031 C 
BRANCH  15  16
ATOM     16  C   UNL     1       2.418   6.583  16.764  1.00  0.00     0.027 C 
BRANCH  16  17
ATOM     17  C   UNL     1       2.389   5.426  17.784  1.00  0.00     0.004 C 
BRANCH  17  18
ATOM     18  C   UNL     1       1.207   5.494  18.764  1.00  0.00     0.000 C 
BRANCH  18  19
ATOM     19  C   UNL     1       1.362   4.537  19.953  1.00  0.00    -0.003 C 
ATOM     20  C   UNL     1       2.731   3.863  19.943  1.00  0.00     0.004 C 
ENDBRANCH  18  19
ENDBRANCH  17  18
ENDBRANCH  16  17
ENDBRANCH  15  16
ENDBRANCH  13  14
ENDBRANCH  12  13
ENDBRANCH   1  11
TORSDOF 14
ENDMDL
