MODEL 1
REMARK VINA RESULT:    -7.091      0.000      0.000
REMARK INTER + INTRA:         -10.718
REMARK INTER:                  -8.957
REMARK INTRA:                  -1.761
REMARK UNBOUND:                -1.761
REMARK SMILES O[C@@H]1OC[C@H](Cc2ccc3c(c2)OCO3)[C@@H]1Cc1ccc2c(c1)OCO2
REMARK SMILES IDX 4 1 5 2 16 3 2 4 3 5 6 6 7 7 12 8 8 9 11 10 9 11 10 12 13 13
REMARK SMILES IDX 15 14 14 15 17 16 18 17 23 18 19 19 22 20 20 21 21 22 24 23
REMARK SMILES IDX 26 24 25 25 1 26
REMARK H PARENT 1 27
REMARK Flexibility Score: inf
ROOT
ATOM      1  C   UNL     1      15.640  -8.311  23.062  1.00  0.00     0.168 C 
ATOM      2  C   UNL     1      15.758  -9.407  24.140  1.00  0.00     0.028 C 
ATOM      3  C   UNL     1      17.261  -9.443  24.394  1.00  0.00     0.055 C 
ATOM      4  C   UNL     1      17.729  -8.067  23.920  1.00  0.00     0.250 C 
ATOM      5  O   UNL     1      16.898  -7.703  22.842  1.00  0.00    -0.352 OA
ENDROOT
BRANCH   2   6
ATOM      6  C   UNL     1      14.883  -9.120  25.383  1.00  0.00     0.042 C 
BRANCH   6   7
ATOM      7  C   UNL     1      14.172 -10.357  25.875  1.00  0.00    -0.044 A 
ATOM      8  C   UNL     1      13.346 -10.288  27.020  1.00  0.00     0.054 A 
ATOM      9  C   UNL     1      14.330 -11.595  25.199  1.00  0.00     0.008 A 
ATOM     10  C   UNL     1      12.716 -11.456  27.443  1.00  0.00     0.166 A 
ATOM     11  C   UNL     1      13.676 -12.750  25.661  1.00  0.00     0.051 A 
ATOM     12  C   UNL     1      12.875 -12.635  26.793  1.00  0.00     0.165 A 
ATOM     13  O   UNL     1      11.874 -11.635  28.524  1.00  0.00    -0.454 OA
ATOM     14  O   UNL     1      12.140 -13.616  27.430  1.00  0.00    -0.454 OA
ATOM     15  C   UNL     1      11.478 -13.014  28.552  1.00  0.00     0.468 C 
ENDBRANCH   6   7
ENDBRANCH   2   6
BRANCH   3  16
ATOM     16  C   UNL     1      17.795 -10.024  25.740  1.00  0.00     0.044 C 
BRANCH  16  17
ATOM     17  C   UNL     1      17.764 -11.527  25.899  1.00  0.00    -0.044 A 
ATOM     18  C   UNL     1      17.772 -12.377  24.769  1.00  0.00     0.054 A 
ATOM     19  C   UNL     1      17.776 -12.098  27.201  1.00  0.00     0.008 A 
ATOM     20  C   UNL     1      17.750 -13.752  24.983  1.00  0.00     0.166 A 
ATOM     21  C   UNL     1      17.754 -13.493  27.372  1.00  0.00     0.051 A 
ATOM     22  C   UNL     1      17.739 -14.286  26.230  1.00  0.00     0.165 A 
ATOM     23  O   UNL     1      17.743 -14.768  24.047  1.00  0.00    -0.454 OA
ATOM     24  O   UNL     1      17.721 -15.666  26.140  1.00  0.00    -0.454 OA
ATOM     25  C   UNL     1      17.722 -16.018  24.750  1.00  0.00     0.468 C 
ENDBRANCH  16  17
ENDBRANCH   3  16
BRANCH   4  26
ATOM     26  O   UNL     1      17.678  -7.080  24.922  1.00  0.00    -0.368 OA
ATOM     27  H   UNL     1      17.290  -7.480  25.743  1.00  0.00     0.213 HD
ENDBRANCH   4  26
TORSDOF 5
ENDMDL
MODEL 2
REMARK VINA RESULT:    -7.063      2.781      4.266
REMARK INTER + INTRA:         -10.682
REMARK INTER:                  -8.716
REMARK INTRA:                  -1.965
REMARK UNBOUND:                -1.761
REMARK SMILES O[C@@H]1OC[C@H](Cc2ccc3c(c2)OCO3)[C@@H]1Cc1ccc2c(c1)OCO2
REMARK SMILES IDX 4 1 5 2 16 3 2 4 3 5 6 6 7 7 12 8 8 9 11 10 9 11 10 12 13 13
REMARK SMILES IDX 15 14 14 15 17 16 18 17 23 18 19 19 22 20 20 21 21 22 24 23
REMARK SMILES IDX 26 24 25 25 1 26
REMARK H PARENT 1 27
REMARK Flexibility Score: inf
ROOT
ATOM      1  C   UNL     1      13.420  -5.514  24.223  1.00  0.00     0.168 C 
ATOM      2  C   UNL     1      14.490  -6.581  24.529  1.00  0.00     0.028 C 
ATOM      3  C   UNL     1      14.898  -7.033  23.132  1.00  0.00     0.055 C 
ATOM      4  C   UNL     1      14.493  -5.852  22.250  1.00  0.00     0.250 C 
ATOM      5  O   UNL     1      13.339  -5.288  22.828  1.00  0.00    -0.352 OA
ENDROOT
BRANCH   2   6
ATOM      6  C   UNL     1      15.639  -6.039  25.412  1.00  0.00     0.042 C 
BRANCH   6   7
ATOM      7  C   UNL     1      16.207  -7.102  26.320  1.00  0.00    -0.044 A 
ATOM      8  C   UNL     1      15.356  -8.083  26.878  1.00  0.00     0.054 A 
ATOM      9  C   UNL     1      17.594  -7.121  26.625  1.00  0.00     0.008 A 
ATOM     10  C   UNL     1      15.922  -9.038  27.717  1.00  0.00     0.166 A 
ATOM     11  C   UNL     1      18.123  -8.105  27.479  1.00  0.00     0.051 A 
ATOM     12  C   UNL     1      17.248  -9.049  28.006  1.00  0.00     0.165 A 
ATOM     13  O   UNL     1      15.300 -10.083  28.374  1.00  0.00    -0.454 OA
ATOM     14  O   UNL     1      17.526 -10.100  28.858  1.00  0.00    -0.454 OA
ATOM     15  C   UNL     1      16.297 -10.794  29.121  1.00  0.00     0.468 C 
ENDBRANCH   6   7
ENDBRANCH   2   6
BRANCH   3  16
ATOM     16  C   UNL     1      16.285  -7.718  22.925  1.00  0.00     0.044 C 
BRANCH  16  17
ATOM     17  C   UNL     1      16.484  -9.072  23.566  1.00  0.00    -0.044 A 
ATOM     18  C   UNL     1      15.389  -9.937  23.792  1.00  0.00     0.054 A 
ATOM     19  C   UNL     1      17.795  -9.505  23.905  1.00  0.00     0.008 A 
ATOM     20  C   UNL     1      15.640 -11.173  24.380  1.00  0.00     0.166 A 
ATOM     21  C   UNL     1      18.004 -10.763  24.497  1.00  0.00     0.051 A 
ATOM     22  C   UNL     1      16.892 -11.568  24.720  1.00  0.00     0.165 A 
ATOM     23  O   UNL     1      14.740 -12.170  24.704  1.00  0.00    -0.454 OA
ATOM     24  O   UNL     1      16.842 -12.831  25.277  1.00  0.00    -0.454 OA
ATOM     25  C   UNL     1      15.473 -13.256  25.287  1.00  0.00     0.468 C 
ENDBRANCH  16  17
ENDBRANCH   3  16
BRANCH   4  26
ATOM     26  O   UNL     1      15.497  -4.874  22.124  1.00  0.00    -0.368 OA
ATOM     27  H   UNL     1      15.166  -4.026  22.519  1.00  0.00     0.213 HD
ENDBRANCH   4  26
TORSDOF 5
ENDMDL
MODEL 3
REMARK VINA RESULT:    -7.047      2.956      4.630
REMARK INTER + INTRA:         -10.662
REMARK INTER:                  -8.851
REMARK INTRA:                  -1.811
REMARK UNBOUND:                -1.761
REMARK SMILES O[C@@H]1OC[C@H](Cc2ccc3c(c2)OCO3)[C@@H]1Cc1ccc2c(c1)OCO2
REMARK SMILES IDX 4 1 5 2 16 3 2 4 3 5 6 6 7 7 12 8 8 9 11 10 9 11 10 12 13 13
REMARK SMILES IDX 15 14 14 15 17 16 18 17 23 18 19 19 22 20 20 21 21 22 24 23
REMARK SMILES IDX 26 24 25 25 1 26
REMARK H PARENT 1 27
REMARK Flexibility Score: inf
ROOT
ATOM      1  C   UNL     1      13.125  -5.177  23.895  1.00  0.00     0.168 C 
ATOM      2  C   UNL     1      14.082  -6.254  24.444  1.00  0.00     0.028 C 
ATOM      3  C   UNL     1      14.672  -6.837  23.165  1.00  0.00     0.055 C 
ATOM      4  C   UNL     1      14.464  -5.721  22.142  1.00  0.00     0.250 C 
ATOM      5  O   UNL     1      13.266  -5.066  22.491  1.00  0.00    -0.352 OA
ENDROOT
BRANCH   2   6
ATOM      6  C   UNL     1      15.112  -5.683  25.448  1.00  0.00     0.042 C 
BRANCH   6   7
ATOM      7  C   UNL     1      15.406  -6.648  26.571  1.00  0.00    -0.044 A 
ATOM      8  C   UNL     1      16.667  -6.625  27.209  1.00  0.00     0.054 A 
ATOM      9  C   UNL     1      14.425  -7.585  26.989  1.00  0.00     0.008 A 
ATOM     10  C   UNL     1      16.897  -7.539  28.234  1.00  0.00     0.166 A 
ATOM     11  C   UNL     1      14.701  -8.491  28.028  1.00  0.00     0.051 A 
ATOM     12  C   UNL     1      15.955  -8.433  28.626  1.00  0.00     0.165 A 
ATOM     13  O   UNL     1      18.038  -7.708  28.995  1.00  0.00    -0.454 OA
ATOM     14  O   UNL     1      16.455  -9.209  29.653  1.00  0.00    -0.454 OA
ATOM     15  C   UNL     1      17.796  -8.774  29.924  1.00  0.00     0.468 C 
ENDBRANCH   6   7
ENDBRANCH   2   6
BRANCH   3  16
ATOM     16  C   UNL     1      16.038  -7.590  23.227  1.00  0.00     0.044 C 
BRANCH  16  17
ATOM     17  C   UNL     1      16.010  -9.023  23.706  1.00  0.00    -0.044 A 
ATOM     18  C   UNL     1      17.203  -9.691  24.067  1.00  0.00     0.054 A 
ATOM     19  C   UNL     1      14.766  -9.696  23.842  1.00  0.00     0.008 A 
ATOM     20  C   UNL     1      17.109 -11.008  24.507  1.00  0.00     0.166 A 
ATOM     21  C   UNL     1      14.716 -11.027  24.292  1.00  0.00     0.051 A 
ATOM     22  C   UNL     1      15.918 -11.649  24.613  1.00  0.00     0.165 A 
ATOM     23  O   UNL     1      18.124 -11.857  24.901  1.00  0.00    -0.454 OA
ATOM     24  O   UNL     1      16.125 -12.935  25.075  1.00  0.00    -0.454 OA
ATOM     25  C   UNL     1      17.535 -13.111  25.273  1.00  0.00     0.468 C 
ENDBRANCH  16  17
ENDBRANCH   3  16
BRANCH   4  26
ATOM     26  O   UNL     1      15.523  -4.795  22.097  1.00  0.00    -0.368 OA
ATOM     27  H   UNL     1      16.306  -5.228  21.667  1.00  0.00     0.213 HD
ENDBRANCH   4  26
TORSDOF 5
ENDMDL
MODEL 4
REMARK VINA RESULT:    -6.967      2.808      6.666
REMARK INTER + INTRA:         -10.561
REMARK INTER:                  -8.846
REMARK INTRA:                  -1.716
REMARK UNBOUND:                -1.761
REMARK SMILES O[C@@H]1OC[C@H](Cc2ccc3c(c2)OCO3)[C@@H]1Cc1ccc2c(c1)OCO2
REMARK SMILES IDX 4 1 5 2 16 3 2 4 3 5 6 6 7 7 12 8 8 9 11 10 9 11 10 12 13 13
REMARK SMILES IDX 15 14 14 15 17 16 18 17 23 18 19 19 22 20 20 21 21 22 24 23
REMARK SMILES IDX 26 24 25 25 1 26
REMARK H PARENT 1 27
REMARK Flexibility Score: inf
ROOT
ATOM      1  C   UNL     1      12.942 -13.118  26.868  1.00  0.00     0.168 C 
ATOM      2  C   UNL     1      14.263 -12.327  26.786  1.00  0.00     0.028 C 
ATOM      3  C   UNL     1      14.781 -12.425  28.216  1.00  0.00     0.055 C 
ATOM      4  C   UNL     1      14.070 -13.663  28.762  1.00  0.00     0.250 C 
ATOM      5  O   UNL     1      12.805 -13.712  28.145  1.00  0.00    -0.352 OA
ENDROOT
BRANCH   2   6
ATOM      6  C   UNL     1      15.218 -12.869  25.696  1.00  0.00     0.042 C 
BRANCH   6   7
ATOM      7  C   UNL     1      15.980 -11.763  25.008  1.00  0.00    -0.044 A 
ATOM      8  C   UNL     1      15.310 -10.581  24.617  1.00  0.00     0.054 A 
ATOM      9  C   UNL     1      17.368 -11.901  24.744  1.00  0.00     0.008 A 
ATOM     10  C   UNL     1      16.051  -9.591  23.977  1.00  0.00     0.166 A 
ATOM     11  C   UNL     1      18.077 -10.876  24.094  1.00  0.00     0.051 A 
ATOM     12  C   UNL     1      17.376  -9.732  23.726  1.00  0.00     0.165 A 
ATOM     13  O   UNL     1      15.621  -8.365  23.505  1.00  0.00    -0.454 OA
ATOM     14  O   UNL     1      17.847  -8.603  23.085  1.00  0.00    -0.454 OA
ATOM     15  C   UNL     1      16.748  -7.695  22.922  1.00  0.00     0.468 C 
ENDBRANCH   6   7
ENDBRANCH   2   6
BRANCH   3  16
ATOM     16  C   UNL     1      16.304 -12.218  28.493  1.00  0.00     0.044 C 
BRANCH  16  17
ATOM     17  C   UNL     1      16.774 -10.799  28.714  1.00  0.00    -0.044 A 
ATOM     18  C   UNL     1      16.380 -10.073  29.862  1.00  0.00     0.054 A 
ATOM     19  C   UNL     1      17.663 -10.198  27.781  1.00  0.00     0.008 A 
ATOM     20  C   UNL     1      16.853  -8.773  30.010  1.00  0.00     0.166 A 
ATOM     21  C   UNL     1      18.118  -8.882  27.970  1.00  0.00     0.051 A 
ATOM     22  C   UNL     1      17.684  -8.201  29.103  1.00  0.00     0.165 A 
ATOM     23  O   UNL     1      16.601  -7.877  31.031  1.00  0.00    -0.454 OA
ATOM     24  O   UNL     1      17.992  -6.916  29.505  1.00  0.00    -0.454 OA
ATOM     25  C   UNL     1      17.313  -6.666  30.744  1.00  0.00     0.468 C 
ENDBRANCH  16  17
ENDBRANCH   3  16
BRANCH   4  26
ATOM     26  O   UNL     1      14.768 -14.863  28.526  1.00  0.00    -0.368 OA
ATOM     27  H   UNL     1      15.592 -14.655  28.013  1.00  0.00     0.213 HD
ENDBRANCH   4  26
TORSDOF 5
ENDMDL
MODEL 5
REMARK VINA RESULT:    -6.964      1.221      4.990
REMARK INTER + INTRA:         -10.557
REMARK INTER:                  -8.606
REMARK INTRA:                  -1.951
REMARK UNBOUND:                -1.761
REMARK SMILES O[C@@H]1OC[C@H](Cc2ccc3c(c2)OCO3)[C@@H]1Cc1ccc2c(c1)OCO2
REMARK SMILES IDX 4 1 5 2 16 3 2 4 3 5 6 6 7 7 12 8 8 9 11 10 9 11 10 12 13 13
REMARK SMILES IDX 15 14 14 15 17 16 18 17 23 18 19 19 22 20 20 21 21 22 24 23
REMARK SMILES IDX 26 24 25 25 1 26
REMARK H PARENT 1 27
REMARK Flexibility Score: inf
ROOT
ATOM      1  C   UNL     1      17.216  -6.969  26.756  1.00  0.00     0.168 C 
ATOM      2  C   UNL     1      16.707  -8.388  26.436  1.00  0.00     0.028 C 
ATOM      3  C   UNL     1      15.308  -8.110  25.898  1.00  0.00     0.055 C 
ATOM      4  C   UNL     1      15.392  -6.654  25.441  1.00  0.00     0.250 C 
ATOM      5  O   UNL     1      16.282  -6.002  26.317  1.00  0.00    -0.352 OA
ENDROOT
BRANCH   2   6
ATOM      6  C   UNL     1      17.645  -9.158  25.477  1.00  0.00     0.042 C 
BRANCH   6   7
ATOM      7  C   UNL     1      17.586 -10.650  25.700  1.00  0.00    -0.044 A 
ATOM      8  C   UNL     1      17.676 -11.533  24.600  1.00  0.00     0.054 A 
ATOM      9  C   UNL     1      17.435 -11.176  27.010  1.00  0.00     0.008 A 
ATOM     10  C   UNL     1      17.608 -12.900  24.852  1.00  0.00     0.166 A 
ATOM     11  C   UNL     1      17.371 -12.564  27.219  1.00  0.00     0.051 A 
ATOM     12  C   UNL     1      17.461 -13.394  26.107  1.00  0.00     0.165 A 
ATOM     13  O   UNL     1      17.670 -13.945  23.950  1.00  0.00    -0.454 OA
ATOM     14  O   UNL     1      17.424 -14.774  26.058  1.00  0.00    -0.454 OA
ATOM     15  C   UNL     1      17.555 -15.172  24.685  1.00  0.00     0.468 C 
ENDBRANCH   6   7
ENDBRANCH   2   6
BRANCH   3  16
ATOM     16  C   UNL     1      14.614  -9.171  24.988  1.00  0.00     0.044 C 
BRANCH  16  17
ATOM     17  C   UNL     1      14.064 -10.404  25.669  1.00  0.00    -0.044 A 
ATOM     18  C   UNL     1      13.364 -10.306  26.893  1.00  0.00     0.054 A 
ATOM     19  C   UNL     1      14.208 -11.675  25.048  1.00  0.00     0.008 A 
ATOM     20  C   UNL     1      12.876 -11.478  27.465  1.00  0.00     0.166 A 
ATOM     21  C   UNL     1      13.699 -12.833  25.660  1.00  0.00     0.051 A 
ATOM     22  C   UNL     1      13.039 -12.688  26.876  1.00  0.00     0.165 A 
ATOM     23  O   UNL     1      12.179 -11.631  28.647  1.00  0.00    -0.454 OA
ATOM     24  O   UNL     1      12.454 -13.665  27.660  1.00  0.00    -0.454 OA
ATOM     25  C   UNL     1      11.889 -13.026  28.812  1.00  0.00     0.468 C 
ENDBRANCH  16  17
ENDBRANCH   3  16
BRANCH   4  26
ATOM     26  O   UNL     1      15.831  -6.507  24.111  1.00  0.00    -0.368 OA
ATOM     27  H   UNL     1      15.355  -7.167  23.544  1.00  0.00     0.213 HD
ENDBRANCH   4  26
TORSDOF 5
ENDMDL
MODEL 6
REMARK VINA RESULT:    -6.910      1.659      6.119
REMARK INTER + INTRA:         -10.489
REMARK INTER:                  -9.523
REMARK INTRA:                  -0.966
REMARK UNBOUND:                -1.761
REMARK SMILES O[C@@H]1OC[C@H](Cc2ccc3c(c2)OCO3)[C@@H]1Cc1ccc2c(c1)OCO2
REMARK SMILES IDX 4 1 5 2 16 3 2 4 3 5 6 6 7 7 12 8 8 9 11 10 9 11 10 12 13 13
REMARK SMILES IDX 15 14 14 15 17 16 18 17 23 18 19 19 22 20 20 21 21 22 24 23
REMARK SMILES IDX 26 24 25 25 1 26
REMARK H PARENT 1 27
REMARK Flexibility Score: inf
ROOT
ATOM      1  C   UNL     1      17.730 -13.874  24.001  1.00  0.00     0.168 C 
ATOM      2  C   UNL     1      16.887 -12.730  24.599  1.00  0.00     0.028 C 
ATOM      3  C   UNL     1      16.187 -13.424  25.761  1.00  0.00     0.055 C 
ATOM      4  C   UNL     1      17.090 -14.624  26.047  1.00  0.00     0.250 C 
ATOM      5  O   UNL     1      17.633 -15.029  24.813  1.00  0.00    -0.352 OA
ENDROOT
BRANCH   2   6
ATOM      6  C   UNL     1      17.738 -11.495  24.980  1.00  0.00     0.042 C 
BRANCH   6   7
ATOM      7  C   UNL     1      17.212 -10.227  24.352  1.00  0.00    -0.044 A 
ATOM      8  C   UNL     1      15.863  -9.852  24.543  1.00  0.00     0.054 A 
ATOM      9  C   UNL     1      18.063  -9.407  23.566  1.00  0.00     0.008 A 
ATOM     10  C   UNL     1      15.418  -8.679  23.939  1.00  0.00     0.166 A 
ATOM     11  C   UNL     1      17.572  -8.230  22.973  1.00  0.00     0.051 A 
ATOM     12  C   UNL     1      16.237  -7.903  23.186  1.00  0.00     0.165 A 
ATOM     13  O   UNL     1      14.157  -8.116  23.979  1.00  0.00    -0.454 OA
ATOM     14  O   UNL     1      15.533  -6.812  22.715  1.00  0.00    -0.454 OA
ATOM     15  C   UNL     1      14.187  -6.910  23.203  1.00  0.00     0.468 C 
ENDBRANCH   6   7
ENDBRANCH   2   6
BRANCH   3  16
ATOM     16  C   UNL     1      15.635 -12.567  26.943  1.00  0.00     0.044 C 
BRANCH  16  17
ATOM     17  C   UNL     1      14.460 -13.129  27.709  1.00  0.00    -0.044 A 
ATOM     18  C   UNL     1      13.136 -12.935  27.253  1.00  0.00     0.054 A 
ATOM     19  C   UNL     1      14.688 -13.905  28.878  1.00  0.00     0.008 A 
ATOM     20  C   UNL     1      12.099 -13.485  28.000  1.00  0.00     0.166 A 
ATOM     21  C   UNL     1      13.611 -14.444  29.603  1.00  0.00     0.051 A 
ATOM     22  C   UNL     1      12.326 -14.206  29.126  1.00  0.00     0.165 A 
ATOM     23  O   UNL     1      10.740 -13.421  27.761  1.00  0.00    -0.454 OA
ATOM     24  O   UNL     1      11.120 -14.628  29.655  1.00  0.00    -0.454 OA
ATOM     25  C   UNL     1      10.072 -14.143  28.805  1.00  0.00     0.468 C 
ENDBRANCH  16  17
ENDBRANCH   3  16
BRANCH   4  26
ATOM     26  O   UNL     1      18.124 -14.344  26.960  1.00  0.00    -0.368 OA
ATOM     27  H   UNL     1      18.333 -13.375  26.916  1.00  0.00     0.213 HD
ENDBRANCH   4  26
TORSDOF 5
ENDMDL
MODEL 7
REMARK VINA RESULT:    -6.839      4.825      8.755
REMARK INTER + INTRA:         -10.399
REMARK INTER:                  -9.108
REMARK INTRA:                  -1.291
REMARK UNBOUND:                -1.761
REMARK SMILES O[C@@H]1OC[C@H](Cc2ccc3c(c2)OCO3)[C@@H]1Cc1ccc2c(c1)OCO2
REMARK SMILES IDX 4 1 5 2 16 3 2 4 3 5 6 6 7 7 12 8 8 9 11 10 9 11 10 12 13 13
REMARK SMILES IDX 15 14 14 15 17 16 18 17 23 18 19 19 22 20 20 21 21 22 24 23
REMARK SMILES IDX 26 24 25 25 1 26
REMARK H PARENT 1 27
REMARK Flexibility Score: inf
ROOT
ATOM      1  C   UNL     1      11.015 -14.515  28.873  1.00  0.00     0.168 C 
ATOM      2  C   UNL     1      12.264 -14.169  29.707  1.00  0.00     0.028 C 
ATOM      3  C   UNL     1      12.169 -15.169  30.853  1.00  0.00     0.055 C 
ATOM      4  C   UNL     1      11.290 -16.279  30.277  1.00  0.00     0.250 C 
ATOM      5  O   UNL     1      10.375 -15.661  29.401  1.00  0.00    -0.352 OA
ENDROOT
BRANCH   2   6
ATOM      6  C   UNL     1      13.571 -14.231  28.880  1.00  0.00     0.042 C 
BRANCH   6   7
ATOM      7  C   UNL     1      14.377 -12.960  28.995  1.00  0.00    -0.044 A 
ATOM      8  C   UNL     1      15.495 -12.755  28.155  1.00  0.00     0.054 A 
ATOM      9  C   UNL     1      14.024 -11.968  29.947  1.00  0.00     0.008 A 
ATOM     10  C   UNL     1      16.214 -11.572  28.302  1.00  0.00     0.166 A 
ATOM     11  C   UNL     1      14.779 -10.788  30.062  1.00  0.00     0.051 A 
ATOM     12  C   UNL     1      15.872 -10.630  29.216  1.00  0.00     0.165 A 
ATOM     13  O   UNL     1      17.332 -11.153  27.606  1.00  0.00    -0.454 OA
ATOM     14  O   UNL     1      16.756  -9.571  29.141  1.00  0.00    -0.454 OA
ATOM     15  C   UNL     1      17.714  -9.867  28.114  1.00  0.00     0.468 C 
ENDBRANCH   6   7
ENDBRANCH   2   6
BRANCH   3  16
ATOM     16  C   UNL     1      13.456 -15.535  31.657  1.00  0.00     0.044 C 
BRANCH  16  17
ATOM     17  C   UNL     1      13.691 -14.791  32.951  1.00  0.00    -0.044 A 
ATOM     18  C   UNL     1      14.023 -13.417  32.949  1.00  0.00     0.054 A 
ATOM     19  C   UNL     1      13.530 -15.467  34.191  1.00  0.00     0.008 A 
ATOM     20  C   UNL     1      14.220 -12.788  34.174  1.00  0.00     0.166 A 
ATOM     21  C   UNL     1      13.737 -14.793  35.407  1.00  0.00     0.051 A 
ATOM     22  C   UNL     1      14.085 -13.447  35.352  1.00  0.00     0.165 A 
ATOM     23  O   UNL     1      14.557 -11.471  34.420  1.00  0.00    -0.454 OA
ATOM     24  O   UNL     1      14.335 -12.579  36.398  1.00  0.00    -0.454 OA
ATOM     25  C   UNL     1      14.644 -11.294  35.841  1.00  0.00     0.468 C 
ENDBRANCH  16  17
ENDBRANCH   3  16
BRANCH   4  26
ATOM     26  O   UNL     1      12.015 -17.273  29.594  1.00  0.00    -0.368 OA
ATOM     27  H   UNL     1      11.606 -17.407  28.700  1.00  0.00     0.213 HD
ENDBRANCH   4  26
TORSDOF 5
ENDMDL
MODEL 8
REMARK VINA RESULT:    -6.771      1.983      5.622
REMARK INTER + INTRA:         -10.313
REMARK INTER:                  -8.300
REMARK INTRA:                  -2.013
REMARK UNBOUND:                -1.761
REMARK SMILES O[C@@H]1OC[C@H](Cc2ccc3c(c2)OCO3)[C@@H]1Cc1ccc2c(c1)OCO2
REMARK SMILES IDX 4 1 5 2 16 3 2 4 3 5 6 6 7 7 12 8 8 9 11 10 9 11 10 12 13 13
REMARK SMILES IDX 15 14 14 15 17 16 18 17 23 18 19 19 22 20 20 21 21 22 24 23
REMARK SMILES IDX 26 24 25 25 1 26
REMARK H PARENT 1 27
REMARK Flexibility Score: inf
ROOT
ATOM      1  C   UNL     1      16.998 -14.255  27.182  1.00  0.00     0.168 C 
ATOM      2  C   UNL     1      16.138 -13.038  26.783  1.00  0.00     0.028 C 
ATOM      3  C   UNL     1      16.614 -12.764  25.362  1.00  0.00     0.055 C 
ATOM      4  C   UNL     1      17.202 -14.106  24.924  1.00  0.00     0.250 C 
ATOM      5  O   UNL     1      17.756 -14.702  26.074  1.00  0.00    -0.352 OA
ENDROOT
BRANCH   2   6
ATOM      6  C   UNL     1      14.621 -13.303  26.935  1.00  0.00     0.042 C 
BRANCH   6   7
ATOM      7  C   UNL     1      13.904 -12.144  27.584  1.00  0.00    -0.044 A 
ATOM      8  C   UNL     1      14.642 -11.156  28.276  1.00  0.00     0.054 A 
ATOM      9  C   UNL     1      12.491 -12.040  27.510  1.00  0.00     0.008 A 
ATOM     10  C   UNL     1      13.938 -10.110  28.867  1.00  0.00     0.166 A 
ATOM     11  C   UNL     1      11.821 -10.966  28.122  1.00  0.00     0.051 A 
ATOM     12  C   UNL     1      12.587 -10.020  28.794  1.00  0.00     0.165 A 
ATOM     13  O   UNL     1      14.433  -9.041  29.589  1.00  0.00    -0.454 OA
ATOM     14  O   UNL     1      12.164  -8.890  29.466  1.00  0.00    -0.454 OA
ATOM     15  C   UNL     1      13.323  -8.229  29.995  1.00  0.00     0.468 C 
ENDBRANCH   6   7
ENDBRANCH   2   6
BRANCH   3  16
ATOM     16  C   UNL     1      15.692 -11.965  24.388  1.00  0.00     0.044 C 
BRANCH  16  17
ATOM     17  C   UNL     1      15.323 -10.557  24.793  1.00  0.00    -0.044 A 
ATOM     18  C   UNL     1      16.305  -9.654  25.257  1.00  0.00     0.054 A 
ATOM     19  C   UNL     1      13.977 -10.117  24.661  1.00  0.00     0.008 A 
ATOM     20  C   UNL     1      15.901  -8.369  25.608  1.00  0.00     0.166 A 
ATOM     21  C   UNL     1      13.612  -8.809  25.026  1.00  0.00     0.051 A 
ATOM     22  C   UNL     1      14.611  -7.965  25.499  1.00  0.00     0.165 A 
ATOM     23  O   UNL     1      16.670  -7.327  26.090  1.00  0.00    -0.454 OA
ATOM     24  O   UNL     1      14.503  -6.650  25.912  1.00  0.00    -0.454 OA
ATOM     25  C   UNL     1      15.808  -6.201  26.302  1.00  0.00     0.468 C 
ENDBRANCH  16  17
ENDBRANCH   3  16
BRANCH   4  26
ATOM     26  O   UNL     1      16.257 -14.971  24.341  1.00  0.00    -0.368 OA
ATOM     27  H   UNL     1      16.623 -15.309  23.483  1.00  0.00     0.213 HD
ENDBRANCH   4  26
TORSDOF 5
ENDMDL
MODEL 9
REMARK VINA RESULT:    -6.667      2.573      6.719
REMARK INTER + INTRA:         -10.181
REMARK INTER:                  -8.110
REMARK INTRA:                  -2.072
REMARK UNBOUND:                -1.761
REMARK SMILES O[C@@H]1OC[C@H](Cc2ccc3c(c2)OCO3)[C@@H]1Cc1ccc2c(c1)OCO2
REMARK SMILES IDX 4 1 5 2 16 3 2 4 3 5 6 6 7 7 12 8 8 9 11 10 9 11 10 12 13 13
REMARK SMILES IDX 15 14 14 15 17 16 18 17 23 18 19 19 22 20 20 21 21 22 24 23
REMARK SMILES IDX 26 24 25 25 1 26
REMARK H PARENT 1 27
REMARK Flexibility Score: inf
ROOT
ATOM      1  C   UNL     1      10.998 -13.435  27.809  1.00  0.00     0.168 C 
ATOM      2  C   UNL     1      12.323 -12.648  27.805  1.00  0.00     0.028 C 
ATOM      3  C   UNL     1      12.822 -12.858  29.230  1.00  0.00     0.055 C 
ATOM      4  C   UNL     1      12.098 -14.130  29.671  1.00  0.00     0.250 C 
ATOM      5  O   UNL     1      10.841 -14.124  29.035  1.00  0.00    -0.352 OA
ENDROOT
BRANCH   2   6
ATOM      6  C   UNL     1      13.290 -13.111  26.689  1.00  0.00     0.042 C 
BRANCH   6   7
ATOM      7  C   UNL     1      14.102 -11.968  26.130  1.00  0.00    -0.044 A 
ATOM      8  C   UNL     1      15.328 -12.227  25.477  1.00  0.00     0.054 A 
ATOM      9  C   UNL     1      13.645 -10.631  26.260  1.00  0.00     0.008 A 
ATOM     10  C   UNL     1      16.048 -11.142  24.984  1.00  0.00     0.166 A 
ATOM     11  C   UNL     1      14.405  -9.564  25.748  1.00  0.00     0.051 A 
ATOM     12  C   UNL     1      15.606  -9.866  25.115  1.00  0.00     0.165 A 
ATOM     13  O   UNL     1      17.259 -11.143  24.319  1.00  0.00    -0.454 OA
ATOM     14  O   UNL     1      16.516  -9.001  24.539  1.00  0.00    -0.454 OA
ATOM     15  C   UNL     1      17.598  -9.784  24.013  1.00  0.00     0.468 C 
ENDBRANCH   6   7
ENDBRANCH   2   6
BRANCH   3  16
ATOM     16  C   UNL     1      14.342 -12.681  29.541  1.00  0.00     0.044 C 
BRANCH  16  17
ATOM     17  C   UNL     1      14.884 -11.271  29.535  1.00  0.00    -0.044 A 
ATOM     18  C   UNL     1      16.167 -10.988  29.015  1.00  0.00     0.054 A 
ATOM     19  C   UNL     1      14.075 -10.204  30.014  1.00  0.00     0.008 A 
ATOM     20  C   UNL     1      16.605  -9.667  29.031  1.00  0.00     0.166 A 
ATOM     21  C   UNL     1      14.556  -8.883  30.012  1.00  0.00     0.051 A 
ATOM     22  C   UNL     1      15.835  -8.659  29.511  1.00  0.00     0.165 A 
ATOM     23  O   UNL     1      17.810  -9.155  28.592  1.00  0.00    -0.454 OA
ATOM     24  O   UNL     1      16.518  -7.463  29.401  1.00  0.00    -0.454 OA
ATOM     25  C   UNL     1      17.798  -7.738  28.814  1.00  0.00     0.468 C 
ENDBRANCH  16  17
ENDBRANCH   3  16
BRANCH   4  26
ATOM     26  O   UNL     1      12.793 -15.312  29.353  1.00  0.00    -0.368 OA
ATOM     27  H   UNL     1      12.888 -15.370  28.368  1.00  0.00     0.213 HD
ENDBRANCH   4  26
TORSDOF 5
ENDMDL
