MODEL 1
REMARK VINA RESULT:     5.656      0.000      0.000
REMARK INTER + INTRA:           8.103
REMARK INTER:                   9.292
REMARK INTRA:                  -1.190
REMARK UNBOUND:                -1.190
REMARK SMILES COc1ccc([C@H]2CC(=O)c3c(O)cc(O[C@H]4O[C@H](CO[C@H]5O[C@H](C)[C@H](O)[C@H](O)[C@H]5O)[C@@H](O)[C@@H](O)[C@H]4O)cc3O2)cc1O
REMARK SMILES IDX 19 1 32 2 34 3 36 4 17 5 18 6 20 7 21 8 22 9 25 10 24 11
REMARK SMILES IDX 26 12 23 13 28 14 30 15 27 16 29 18 31 20 33 22 35 24 16 26
REMARK SMILES IDX 15 27 14 28 38 29 12 30 39 31 11 32 40 33 9 34 7 35 10 36
REMARK SMILES IDX 8 37 13 38 6 40 41 41 5 42 42 43 4 44 3 45 43 46 2 48 1 49
REMARK SMILES IDX 37 50
REMARK H PARENT 27 17 29 19 31 21 33 23 35 25 13 39 43 47 37 51
REMARK Flexibility Score: inf
ROOT
ATOM      1  C   UNL     1      20.036  82.670   8.448  1.00  0.00     0.180 C 
ATOM      2  C   UNL     1      18.510  82.441   8.386  1.00  0.00     0.177 C 
ATOM      3  C   UNL     1      17.875  83.500   7.469  1.00  0.00     0.180 C 
ATOM      4  C   UNL     1      18.608  83.513   6.111  1.00  0.00     0.214 C 
ATOM      5  C   UNL     1      20.143  83.585   6.290  1.00  0.00     0.339 C 
ATOM      6  O   UNL     1      20.605  82.554   7.150  1.00  0.00    -0.332 OA
ENDROOT
BRANCH   1   7
ATOM      7  C   UNL     1      20.738  81.671   9.375  1.00  0.00     0.198 C 
BRANCH   7   8
ATOM      8  O   UNL     1      19.798  81.102  10.264  1.00  0.00    -0.347 OA
BRANCH   8   9
ATOM      9  C   UNL     1      20.160  79.776  10.626  1.00  0.00     0.281 C 
ATOM     10  C   UNL     1      21.478  78.875  13.655  1.00  0.00     0.041 C 
ATOM     11  C   UNL     1      21.095  80.111  12.829  1.00  0.00     0.150 C 
ATOM     12  C   UNL     1      19.677  80.665  13.171  1.00  0.00     0.174 C 
ATOM     13  O   UNL     1      21.322  79.822  11.448  1.00  0.00    -0.344 OA
ATOM     14  C   UNL     1      18.529  79.804  12.586  1.00  0.00     0.179 C 
ATOM     15  C   UNL     1      18.987  79.043  11.324  1.00  0.00     0.202 C 
BRANCH  12  16
ATOM     16  O   UNL     1      19.517  80.931  14.545  1.00  0.00    -0.388 OA
ATOM     17  H   UNL     1      19.436  81.910  14.667  1.00  0.00     0.211 HD
ENDBRANCH  12  16
BRANCH  14  18
ATOM     18  O   UNL     1      18.051  78.875  13.529  1.00  0.00    -0.387 OA
ATOM     19  H   UNL     1      17.114  79.124  13.738  1.00  0.00     0.211 HD
ENDBRANCH  14  18
BRANCH  15  20
ATOM     20  O   UNL     1      17.895  78.892  10.456  1.00  0.00    -0.385 OA
ATOM     21  H   UNL     1      17.146  78.523  10.999  1.00  0.00     0.211 HD
ENDBRANCH  15  20
ENDBRANCH   8   9
ENDBRANCH   7   8
ENDBRANCH   1   7
BRANCH   2  22
ATOM     22  O   UNL     1      17.943  82.546   9.671  1.00  0.00    -0.387 OA
ATOM     23  H   UNL     1      18.582  83.056  10.242  1.00  0.00     0.211 HD
ENDBRANCH   2  22
BRANCH   3  24
ATOM     24  O   UNL     1      17.949  84.764   8.085  1.00  0.00    -0.387 OA
ATOM     25  H   UNL     1      18.242  84.614   9.021  1.00  0.00     0.211 HD
ENDBRANCH   3  24
BRANCH   5  26
ATOM     26  O   UNL     1      20.569  84.867   6.766  1.00  0.00    -0.462 OA
BRANCH  26  27
ATOM     27  C   UNL     1      21.298  85.779   5.988  1.00  0.00     0.130 A 
ATOM     28  C   UNL     1      22.084  85.370   4.894  1.00  0.00     0.093 A 
ATOM     29  C   UNL     1      21.264  87.132   6.340  1.00  0.00     0.094 A 
ATOM     30  C   UNL     1      22.865  86.298   4.194  1.00  0.00     0.133 A 
ATOM     31  C   UNL     1      22.055  88.062   5.661  1.00  0.00     0.138 A 
ATOM     32  C   UNL     1      22.862  87.654   4.586  1.00  0.00     0.102 A 
ATOM     33  O   UNL     1      22.066  89.394   6.087  1.00  0.00    -0.484 OA
ATOM     34  C   UNL     1      23.733  88.669   3.956  1.00  0.00     0.174 C 
ATOM     35  C   UNL     1      22.661  90.465   5.347  1.00  0.00     0.211 C 
ATOM     36  O   UNL     1      24.334  88.430   2.876  1.00  0.00    -0.294 OA
ATOM     37  C   UNL     1      23.955  89.980   4.651  1.00  0.00     0.131 C 
BRANCH  30  38
ATOM     38  O   UNL     1      23.653  85.869   3.127  1.00  0.00    -0.507 OA
ATOM     39  H   UNL     1      24.524  86.328   2.895  1.00  0.00     0.293 HD
ENDBRANCH  30  38
BRANCH  35  40
ATOM     40  C   UNL     1      22.890  91.650   6.281  1.00  0.00    -0.003 A 
ATOM     41  C   UNL     1      21.904  91.993   7.227  1.00  0.00     0.057 A 
ATOM     42  C   UNL     1      24.036  92.466   6.190  1.00  0.00     0.011 A 
ATOM     43  C   UNL     1      22.085  93.062   8.110  1.00  0.00     0.158 A 
ATOM     44  C   UNL     1      24.224  93.531   7.075  1.00  0.00     0.051 A 
ATOM     45  C   UNL     1      23.258  93.832   8.051  1.00  0.00     0.160 A 
BRANCH  43  46
ATOM     46  O   UNL     1      21.087  93.340   9.044  1.00  0.00    -0.504 OA
ATOM     47  H   UNL     1      20.251  92.776   9.125  1.00  0.00     0.293 HD
ENDBRANCH  43  46
BRANCH  45  48
ATOM     48  O   UNL     1      23.430  94.880   8.970  1.00  0.00    -0.493 OA
ATOM     49  C   UNL     1      24.006  94.732  10.262  1.00  0.00     0.278 C 
ENDBRANCH  45  48
ENDBRANCH  35  40
ENDBRANCH  26  27
ENDBRANCH   5  26
BRANCH   4  50
ATOM     50  O   UNL     1      18.133  84.533   5.266  1.00  0.00    -0.384 OA
ATOM     51  H   UNL     1      18.775  85.289   5.307  1.00  0.00     0.211 HD
ENDBRANCH   4  50
TORSDOF 15
ENDMDL
MODEL 2
REMARK VINA RESULT:     5.751      1.420      2.452
REMARK INTER + INTRA:           8.259
REMARK INTER:                   3.008
REMARK INTRA:                   5.251
REMARK UNBOUND:                -1.190
REMARK SMILES COc1ccc([C@H]2CC(=O)c3c(O)cc(O[C@H]4O[C@H](CO[C@H]5O[C@H](C)[C@H](O)[C@H](O)[C@H]5O)[C@@H](O)[C@@H](O)[C@H]4O)cc3O2)cc1O
REMARK SMILES IDX 19 1 32 2 34 3 36 4 17 5 18 6 20 7 21 8 22 9 25 10 24 11
REMARK SMILES IDX 26 12 23 13 28 14 30 15 27 16 29 18 31 20 33 22 35 24 16 26
REMARK SMILES IDX 15 27 14 28 38 29 12 30 39 31 11 32 40 33 9 34 7 35 10 36
REMARK SMILES IDX 8 37 13 38 6 40 41 41 5 42 42 43 4 44 3 45 43 46 2 48 1 49
REMARK SMILES IDX 37 50
REMARK H PARENT 27 17 29 19 31 21 33 23 35 25 13 39 43 47 37 51
REMARK Flexibility Score: inf
ROOT
ATOM      1  C   UNL     1      18.388  85.009   8.225  1.00  0.00     0.180 C 
ATOM      2  C   UNL     1      17.875  86.463   8.303  1.00  0.00     0.177 C 
ATOM      3  C   UNL     1      18.460  87.272   7.132  1.00  0.00     0.180 C 
ATOM      4  C   UNL     1      18.182  86.533   5.807  1.00  0.00     0.214 C 
ATOM      5  C   UNL     1      18.587  85.043   5.887  1.00  0.00     0.339 C 
ATOM      6  O   UNL     1      17.979  84.408   7.003  1.00  0.00    -0.332 OA
ENDROOT
BRANCH   1   7
ATOM      7  C   UNL     1      17.876  84.147   9.383  1.00  0.00     0.198 C 
BRANCH   7   8
ATOM      8  O   UNL     1      18.472  82.867   9.327  1.00  0.00    -0.347 OA
BRANCH   8   9
ATOM      9  C   UNL     1      19.484  82.720  10.315  1.00  0.00     0.281 C 
ATOM     10  C   UNL     1      19.320  80.556  12.964  1.00  0.00     0.041 C 
ATOM     11  C   UNL     1      18.472  81.116  11.813  1.00  0.00     0.150 C 
ATOM     12  C   UNL     1      18.455  80.193  10.555  1.00  0.00     0.174 C 
ATOM     13  O   UNL     1      18.868  82.468  11.574  1.00  0.00    -0.344 OA
ATOM     14  C   UNL     1      19.770  80.253   9.738  1.00  0.00     0.179 C 
ATOM     15  C   UNL     1      20.488  81.605   9.930  1.00  0.00     0.202 C 
BRANCH  12  16
ATOM     16  O   UNL     1      18.056  78.876  10.856  1.00  0.00    -0.388 OA
ATOM     17  H   UNL     1      17.318  78.915  11.514  1.00  0.00     0.211 HD
ENDBRANCH  12  16
BRANCH  14  18
ATOM     18  O   UNL     1      20.649  79.215  10.101  1.00  0.00    -0.387 OA
ATOM     19  H   UNL     1      21.069  78.880   9.267  1.00  0.00     0.211 HD
ENDBRANCH  14  18
BRANCH  15  20
ATOM     20  O   UNL     1      21.181  81.930   8.754  1.00  0.00    -0.385 OA
ATOM     21  H   UNL     1      20.859  82.829   8.472  1.00  0.00     0.211 HD
ENDBRANCH  15  20
ENDBRANCH   8   9
ENDBRANCH   7   8
ENDBRANCH   1   7
BRANCH   2  22
ATOM     22  O   UNL     1      18.270  87.061   9.516  1.00  0.00    -0.387 OA
ATOM     23  H   UNL     1      17.458  87.147  10.089  1.00  0.00     0.211 HD
ENDBRANCH   2  22
BRANCH   3  24
ATOM     24  O   UNL     1      19.843  87.447   7.323  1.00  0.00    -0.387 OA
ATOM     25  H   UNL     1      20.298  86.701   6.851  1.00  0.00     0.211 HD
ENDBRANCH   3  24
BRANCH   5  26
ATOM     26  O   UNL     1      20.009  84.873   5.924  1.00  0.00    -0.462 OA
BRANCH  26  27
ATOM     27  C   UNL     1      20.910  85.761   5.317  1.00  0.00     0.130 A 
ATOM     28  C   UNL     1      21.850  85.337   4.359  1.00  0.00     0.093 A 
ATOM     29  C   UNL     1      20.890  87.104   5.710  1.00  0.00     0.094 A 
ATOM     30  C   UNL     1      22.789  86.237   3.839  1.00  0.00     0.133 A 
ATOM     31  C   UNL     1      21.836  88.003   5.212  1.00  0.00     0.138 A 
ATOM     32  C   UNL     1      22.793  87.579   4.276  1.00  0.00     0.102 A 
ATOM     33  O   UNL     1      21.844  89.319   5.686  1.00  0.00    -0.484 OA
ATOM     34  C   UNL     1      23.813  88.557   3.845  1.00  0.00     0.174 C 
ATOM     35  C   UNL     1      22.616  90.374   5.100  1.00  0.00     0.211 C 
ATOM     36  O   UNL     1      24.579  88.313   2.875  1.00  0.00    -0.294 OA
ATOM     37  C   UNL     1      23.983  89.832   4.618  1.00  0.00     0.131 C 
BRANCH  30  38
ATOM     38  O   UNL     1      23.726  85.792   2.907  1.00  0.00    -0.507 OA
ATOM     39  H   UNL     1      24.649  86.203   2.847  1.00  0.00     0.293 HD
ENDBRANCH  30  38
BRANCH  35  40
ATOM     40  C   UNL     1      22.744  91.515   6.104  1.00  0.00    -0.003 A 
ATOM     41  C   UNL     1      21.703  91.756   7.022  1.00  0.00     0.057 A 
ATOM     42  C   UNL     1      23.849  92.391   6.108  1.00  0.00     0.011 A 
ATOM     43  C   UNL     1      21.791  92.783   7.968  1.00  0.00     0.158 A 
ATOM     44  C   UNL     1      23.944  93.414   7.055  1.00  0.00     0.051 A 
ATOM     45  C   UNL     1      22.924  93.613   8.002  1.00  0.00     0.160 A 
BRANCH  43  46
ATOM     46  O   UNL     1      20.742  92.960   8.870  1.00  0.00    -0.504 OA
ATOM     47  H   UNL     1      20.809  92.672   9.838  1.00  0.00     0.293 HD
ENDBRANCH  43  46
BRANCH  45  48
ATOM     48  O   UNL     1      23.003  94.616   8.981  1.00  0.00    -0.493 OA
ATOM     49  C   UNL     1      23.602  94.447  10.260  1.00  0.00     0.278 C 
ENDBRANCH  45  48
ENDBRANCH  35  40
ENDBRANCH  26  27
ENDBRANCH   5  26
BRANCH   4  50
ATOM     50  O   UNL     1      18.782  87.178   4.709  1.00  0.00    -0.384 OA
ATOM     51  H   UNL     1      19.671  86.763   4.558  1.00  0.00     0.211 HD
ENDBRANCH   4  50
TORSDOF 15
ENDMDL
MODEL 3
REMARK VINA RESULT:     6.436      0.894      1.511
REMARK INTER + INTRA:           9.385
REMARK INTER:                   7.182
REMARK INTRA:                   2.203
REMARK UNBOUND:                -1.190
REMARK SMILES COc1ccc([C@H]2CC(=O)c3c(O)cc(O[C@H]4O[C@H](CO[C@H]5O[C@H](C)[C@H](O)[C@H](O)[C@H]5O)[C@@H](O)[C@@H](O)[C@H]4O)cc3O2)cc1O
REMARK SMILES IDX 19 1 32 2 34 3 36 4 17 5 18 6 20 7 21 8 22 9 25 10 24 11
REMARK SMILES IDX 26 12 23 13 28 14 30 15 27 16 29 18 31 20 33 22 35 24 16 26
REMARK SMILES IDX 15 27 14 28 38 29 12 30 39 31 11 32 40 33 9 34 7 35 10 36
REMARK SMILES IDX 8 37 13 38 6 40 41 41 5 42 42 43 4 44 3 45 43 46 2 48 1 49
REMARK SMILES IDX 37 50
REMARK H PARENT 27 17 29 19 31 21 33 23 35 25 13 39 43 47 37 51
REMARK Flexibility Score: inf
ROOT
ATOM      1  C   UNL     1      20.181  82.861   8.564  1.00  0.00     0.180 C 
ATOM      2  C   UNL     1      18.712  82.573   8.184  1.00  0.00     0.177 C 
ATOM      3  C   UNL     1      18.264  83.568   7.099  1.00  0.00     0.180 C 
ATOM      4  C   UNL     1      19.275  83.551   5.934  1.00  0.00     0.214 C 
ATOM      5  C   UNL     1      20.731  83.687   6.437  1.00  0.00     0.339 C 
ATOM      6  O   UNL     1      21.022  82.711   7.428  1.00  0.00    -0.332 OA
ENDROOT
BRANCH   1   7
ATOM      7  C   UNL     1      20.690  81.930   9.669  1.00  0.00     0.198 C 
BRANCH   7   8
ATOM      8  O   UNL     1      19.863  80.787   9.751  1.00  0.00    -0.347 OA
BRANCH   8   9
ATOM      9  C   UNL     1      18.817  80.967  10.696  1.00  0.00     0.281 C 
ATOM     10  C   UNL     1      18.217  78.893  13.354  1.00  0.00     0.041 C 
ATOM     11  C   UNL     1      19.078  79.009  12.088  1.00  0.00     0.150 C 
ATOM     12  C   UNL     1      20.500  79.590  12.361  1.00  0.00     0.174 C 
ATOM     13  O   UNL     1      18.321  79.690  11.085  1.00  0.00    -0.344 OA
ATOM     14  C   UNL     1      20.495  81.119  12.610  1.00  0.00     0.179 C 
ATOM     15  C   UNL     1      19.296  81.797  11.914  1.00  0.00     0.202 C 
BRANCH  12  16
ATOM     16  O   UNL     1      21.194  78.875  13.357  1.00  0.00    -0.388 OA
ATOM     17  H   UNL     1      21.047  79.324  14.226  1.00  0.00     0.211 HD
ENDBRANCH  12  16
BRANCH  14  18
ATOM     18  O   UNL     1      20.451  81.417  13.985  1.00  0.00    -0.387 OA
ATOM     19  H   UNL     1      20.128  82.351  14.073  1.00  0.00     0.211 HD
ENDBRANCH  14  18
BRANCH  15  20
ATOM     20  O   UNL     1      19.659  83.096  11.531  1.00  0.00    -0.385 OA
ATOM     21  H   UNL     1      18.849  83.513  11.128  1.00  0.00     0.211 HD
ENDBRANCH  15  20
ENDBRANCH   8   9
ENDBRANCH   7   8
ENDBRANCH   1   7
BRANCH   2  22
ATOM     22  O   UNL     1      17.875  82.711   9.308  1.00  0.00    -0.387 OA
ATOM     23  H   UNL     1      17.012  83.099   8.996  1.00  0.00     0.211 HD
ENDBRANCH   2  22
BRANCH   3  24
ATOM     24  O   UNL     1      18.167  84.858   7.653  1.00  0.00    -0.387 OA
ATOM     25  H   UNL     1      17.363  85.285   7.256  1.00  0.00     0.211 HD
ENDBRANCH   3  24
BRANCH   5  26
ATOM     26  O   UNL     1      21.007  85.004   6.931  1.00  0.00    -0.462 OA
BRANCH  26  27
ATOM     27  C   UNL     1      21.549  86.028   6.140  1.00  0.00     0.130 A 
ATOM     28  C   UNL     1      22.192  85.770   4.915  1.00  0.00     0.093 A 
ATOM     29  C   UNL     1      21.473  87.344   6.611  1.00  0.00     0.094 A 
ATOM     30  C   UNL     1      22.794  86.810   4.196  1.00  0.00     0.133 A 
ATOM     31  C   UNL     1      22.089  88.384   5.910  1.00  0.00     0.138 A 
ATOM     32  C   UNL     1      22.755  88.127   4.701  1.00  0.00     0.102 A 
ATOM     33  O   UNL     1      22.069  89.676   6.446  1.00  0.00    -0.484 OA
ATOM     34  C   UNL     1      23.451  89.255   4.046  1.00  0.00     0.174 C 
ATOM     35  C   UNL     1      22.473  90.846   5.726  1.00  0.00     0.211 C 
ATOM     36  O   UNL     1      23.902  89.149   2.875  1.00  0.00    -0.294 OA
ATOM     37  C   UNL     1      23.681  90.522   4.815  1.00  0.00     0.131 C 
BRANCH  30  38
ATOM     38  O   UNL     1      23.445  86.530   2.994  1.00  0.00    -0.507 OA
ATOM     39  H   UNL     1      23.316  87.108   2.175  1.00  0.00     0.293 HD
ENDBRANCH  30  38
BRANCH  35  40
ATOM     40  C   UNL     1      22.754  91.970   6.718  1.00  0.00    -0.003 A 
ATOM     41  C   UNL     1      21.791  92.296   7.694  1.00  0.00     0.057 A 
ATOM     42  C   UNL     1      23.928  92.750   6.656  1.00  0.00     0.011 A 
ATOM     43  C   UNL     1      22.020  93.310   8.630  1.00  0.00     0.158 A 
ATOM     44  C   UNL     1      24.163  93.759   7.593  1.00  0.00     0.051 A 
ATOM     45  C   UNL     1      23.218  94.041   8.596  1.00  0.00     0.160 A 
BRANCH  43  46
ATOM     46  O   UNL     1      21.043  93.573   9.590  1.00  0.00    -0.504 OA
ATOM     47  H   UNL     1      20.996  94.455  10.083  1.00  0.00     0.293 HD
ENDBRANCH  43  46
BRANCH  45  48
ATOM     48  O   UNL     1      23.438  95.032   9.567  1.00  0.00    -0.493 OA
ATOM     49  C   UNL     1      23.899  94.777  10.889  1.00  0.00     0.278 C 
ENDBRANCH  45  48
ENDBRANCH  35  40
ENDBRANCH  26  27
ENDBRANCH   5  26
BRANCH   4  50
ATOM     50  O   UNL     1      18.969  84.515   4.957  1.00  0.00    -0.384 OA
ATOM     51  H   UNL     1      18.697  84.038   4.130  1.00  0.00     0.211 HD
ENDBRANCH   4  50
TORSDOF 15
ENDMDL
