MODEL 1
REMARK VINA RESULT:    -7.537      0.000      0.000
REMARK INTER + INTRA:          -9.179
REMARK INTER:                  -8.858
REMARK INTRA:                  -0.321
REMARK UNBOUND:                -0.321
REMARK SMILES O=c1c(O)c(-c2ccc(O)c(O)c2)oc2cc(O)ccc12
REMARK SMILES IDX 5 1 3 2 2 3 1 4 21 5 15 6 14 7 16 8 17 9 19 10 20 11 6 12
REMARK SMILES IDX 7 13 8 14 9 15 13 16 11 17 10 18 12 20 4 22 18 24
REMARK H PARENT 10 19 12 21 4 23 18 25
REMARK Flexibility Score: inf
ROOT
ATOM      1  C   UNL     1      23.195  63.059  32.364  1.00  0.00     0.180 A 
ATOM      2  C   UNL     1      22.771  63.251  33.695  1.00  0.00     0.208 A 
ATOM      3  C   UNL     1      23.671  62.979  34.738  1.00  0.00     0.235 A 
ATOM      4  O   UNL     1      23.318  63.153  35.937  1.00  0.00    -0.285 OA
ATOM      5  C   UNL     1      24.957  62.504  34.434  1.00  0.00     0.069 A 
ATOM      6  C   UNL     1      25.297  62.315  33.076  1.00  0.00     0.142 A 
ATOM      7  O   UNL     1      24.419  62.594  32.120  1.00  0.00    -0.452 OA
ATOM      8  C   UNL     1      26.565  61.835  32.733  1.00  0.00     0.094 A 
ATOM      9  C   UNL     1      27.502  61.541  33.732  1.00  0.00     0.119 A 
ATOM     10  C   UNL     1      27.168  61.729  35.078  1.00  0.00     0.047 A 
ATOM     11  C   UNL     1      25.903  62.208  35.432  1.00  0.00     0.020 A 
ENDROOT
BRANCH   1  12
ATOM     12  C   UNL     1      22.313  63.342  31.209  1.00  0.00     0.025 A 
ATOM     13  C   UNL     1      21.617  62.288  30.597  1.00  0.00     0.016 A 
ATOM     14  C   UNL     1      20.796  62.529  29.493  1.00  0.00     0.051 A 
ATOM     15  C   UNL     1      20.669  63.824  28.975  1.00  0.00     0.157 A 
ATOM     16  C   UNL     1      22.201  64.638  30.674  1.00  0.00     0.062 A 
ATOM     17  C   UNL     1      21.379  64.883  29.567  1.00  0.00     0.158 A 
BRANCH  15  18
ATOM     18  O   UNL     1      19.847  64.061  27.875  1.00  0.00    -0.504 OA
ATOM     19  H   UNL     1      20.213  64.440  27.009  1.00  0.00     0.293 HD
ENDBRANCH  15  18
BRANCH  17  20
ATOM     20  O   UNL     1      21.286  66.180  29.065  1.00  0.00    -0.504 OA
ATOM     21  H   UNL     1      22.101  66.704  28.773  1.00  0.00     0.293 HD
ENDBRANCH  17  20
ENDBRANCH   1  12
BRANCH   2  22
ATOM     22  O   UNL     1      21.469  63.678  33.969  1.00  0.00    -0.502 OA
ATOM     23  H   UNL     1      21.217  64.118  34.846  1.00  0.00     0.293 HD
ENDBRANCH   2  22
BRANCH   9  24
ATOM     24  O   UNL     1      28.767  61.062  33.400  1.00  0.00    -0.508 OA
ATOM     25  H   UNL     1      29.509  61.004  34.088  1.00  0.00     0.293 HD
ENDBRANCH   9  24
TORSDOF 5
ENDMDL
MODEL 2
REMARK VINA RESULT:    -7.442      1.780      2.417
REMARK INTER + INTRA:          -9.068
REMARK INTER:                  -8.772
REMARK INTRA:                  -0.296
REMARK UNBOUND:                -0.321
REMARK SMILES O=c1c(O)c(-c2ccc(O)c(O)c2)oc2cc(O)ccc12
REMARK SMILES IDX 5 1 3 2 2 3 1 4 21 5 15 6 14 7 16 8 17 9 19 10 20 11 6 12
REMARK SMILES IDX 7 13 8 14 9 15 13 16 11 17 10 18 12 20 4 22 18 24
REMARK H PARENT 10 19 12 21 4 23 18 25
REMARK Flexibility Score: inf
ROOT
ATOM      1  C   UNL     1      23.291  63.524  31.010  1.00  0.00     0.180 A 
ATOM      2  C   UNL     1      22.308  63.662  32.011  1.00  0.00     0.208 A 
ATOM      3  C   UNL     1      22.628  63.298  33.328  1.00  0.00     0.235 A 
ATOM      4  O   UNL     1      21.768  63.422  34.243  1.00  0.00    -0.285 OA
ATOM      5  C   UNL     1      23.905  62.788  33.613  1.00  0.00     0.069 A 
ATOM      6  C   UNL     1      24.826  62.658  32.551  1.00  0.00     0.142 A 
ATOM      7  O   UNL     1      24.486  63.023  31.320  1.00  0.00    -0.452 OA
ATOM      8  C   UNL     1      26.104  62.146  32.793  1.00  0.00     0.094 A 
ATOM      9  C   UNL     1      26.478  61.761  34.087  1.00  0.00     0.119 A 
ATOM     10  C   UNL     1      25.567  61.891  35.142  1.00  0.00     0.047 A 
ATOM     11  C   UNL     1      24.286  62.401  34.911  1.00  0.00     0.020 A 
ENDROOT
BRANCH   1  12
ATOM     12  C   UNL     1      23.038  63.902  29.601  1.00  0.00     0.025 A 
ATOM     13  C   UNL     1      23.124  65.251  29.222  1.00  0.00     0.016 A 
ATOM     14  C   UNL     1      22.869  65.633  27.903  1.00  0.00     0.051 A 
ATOM     15  C   UNL     1      22.509  64.675  26.946  1.00  0.00     0.157 A 
ATOM     16  C   UNL     1      22.656  62.945  28.643  1.00  0.00     0.062 A 
ATOM     17  C   UNL     1      22.399  63.325  27.320  1.00  0.00     0.158 A 
BRANCH  15  18
ATOM     18  O   UNL     1      22.258  65.059  25.630  1.00  0.00    -0.504 OA
ATOM     19  H   UNL     1      23.010  65.246  24.978  1.00  0.00     0.293 HD
ENDBRANCH  15  18
BRANCH  17  20
ATOM     20  O   UNL     1      22.028  62.350  26.395  1.00  0.00    -0.504 OA
ATOM     21  H   UNL     1      22.040  62.522  25.398  1.00  0.00     0.293 HD
ENDBRANCH  17  20
ENDBRANCH   1  12
BRANCH   2  22
ATOM     22  O   UNL     1      21.030  64.125  31.688  1.00  0.00    -0.502 OA
ATOM     23  H   UNL     1      20.659  64.992  32.060  1.00  0.00     0.293 HD
ENDBRANCH   2  22
BRANCH   9  24
ATOM     24  O   UNL     1      27.749  61.250  34.337  1.00  0.00    -0.508 OA
ATOM     25  H   UNL     1      27.948  60.260  34.252  1.00  0.00     0.293 HD
ENDBRANCH   9  24
TORSDOF 5
ENDMDL
MODEL 3
REMARK VINA RESULT:    -7.236      1.957      2.226
REMARK INTER + INTRA:          -8.826
REMARK INTER:                  -8.678
REMARK INTRA:                  -0.147
REMARK UNBOUND:                -0.321
REMARK SMILES O=c1c(O)c(-c2ccc(O)c(O)c2)oc2cc(O)ccc12
REMARK SMILES IDX 5 1 3 2 2 3 1 4 21 5 15 6 14 7 16 8 17 9 19 10 20 11 6 12
REMARK SMILES IDX 7 13 8 14 9 15 13 16 11 17 10 18 12 20 4 22 18 24
REMARK H PARENT 10 19 12 21 4 23 18 25
REMARK Flexibility Score: inf
ROOT
ATOM      1  C   UNL     1      23.579  62.639  32.546  1.00  0.00     0.180 A 
ATOM      2  C   UNL     1      23.705  63.013  33.900  1.00  0.00     0.208 A 
ATOM      3  C   UNL     1      24.418  62.174  34.769  1.00  0.00     0.235 A 
ATOM      4  O   UNL     1      24.553  62.492  35.984  1.00  0.00    -0.285 OA
ATOM      5  C   UNL     1      24.970  60.979  34.279  1.00  0.00     0.069 A 
ATOM      6  C   UNL     1      24.780  60.665  32.916  1.00  0.00     0.142 A 
ATOM      7  O   UNL     1      24.106  61.491  32.124  1.00  0.00    -0.452 OA
ATOM      8  C   UNL     1      25.306  59.480  32.392  1.00  0.00     0.094 A 
ATOM      9  C   UNL     1      26.023  58.601  33.215  1.00  0.00     0.119 A 
ATOM     10  C   UNL     1      26.214  58.912  34.566  1.00  0.00     0.047 A 
ATOM     11  C   UNL     1      25.692  60.093  35.100  1.00  0.00     0.020 A 
ENDROOT
BRANCH   1  12
ATOM     12  C   UNL     1      22.859  63.479  31.562  1.00  0.00     0.025 A 
ATOM     13  C   UNL     1      23.572  64.087  30.518  1.00  0.00     0.016 A 
ATOM     14  C   UNL     1      22.915  64.899  29.591  1.00  0.00     0.051 A 
ATOM     15  C   UNL     1      21.538  65.129  29.702  1.00  0.00     0.157 A 
ATOM     16  C   UNL     1      21.479  63.728  31.683  1.00  0.00     0.062 A 
ATOM     17  C   UNL     1      20.818  64.543  30.756  1.00  0.00     0.158 A 
BRANCH  15  18
ATOM     18  O   UNL     1      20.886  65.938  28.774  1.00  0.00    -0.504 OA
ATOM     19  H   UNL     1      21.398  66.539  28.140  1.00  0.00     0.293 HD
ENDBRANCH  15  18
BRANCH  17  20
ATOM     20  O   UNL     1      19.449  64.764  30.903  1.00  0.00    -0.504 OA
ATOM     21  H   UNL     1      18.987  65.568  30.499  1.00  0.00     0.293 HD
ENDBRANCH  17  20
ENDBRANCH   1  12
BRANCH   2  22
ATOM     22  O   UNL     1      23.103  64.183  34.370  1.00  0.00    -0.502 OA
ATOM     23  H   UNL     1      22.810  64.292  35.333  1.00  0.00     0.293 HD
ENDBRANCH   2  22
BRANCH   9  24
ATOM     24  O   UNL     1      26.550  57.418  32.702  1.00  0.00    -0.508 OA
ATOM     25  H   UNL     1      26.708  56.609  33.291  1.00  0.00     0.293 HD
ENDBRANCH   9  24
TORSDOF 5
ENDMDL
MODEL 4
REMARK VINA RESULT:    -7.117      2.094      3.826
REMARK INTER + INTRA:          -8.686
REMARK INTER:                  -8.505
REMARK INTRA:                  -0.181
REMARK UNBOUND:                -0.321
REMARK SMILES O=c1c(O)c(-c2ccc(O)c(O)c2)oc2cc(O)ccc12
REMARK SMILES IDX 5 1 3 2 2 3 1 4 21 5 15 6 14 7 16 8 17 9 19 10 20 11 6 12
REMARK SMILES IDX 7 13 8 14 9 15 13 16 11 17 10 18 12 20 4 22 18 24
REMARK H PARENT 10 19 12 21 4 23 18 25
REMARK Flexibility Score: inf
ROOT
ATOM      1  C   UNL     1      23.686  62.923  30.810  1.00  0.00     0.180 A 
ATOM      2  C   UNL     1      24.721  61.977  30.967  1.00  0.00     0.208 A 
ATOM      3  C   UNL     1      25.050  61.544  32.261  1.00  0.00     0.235 A 
ATOM      4  O   UNL     1      25.965  60.691  32.427  1.00  0.00    -0.285 OA
ATOM      5  C   UNL     1      24.360  62.074  33.363  1.00  0.00     0.069 A 
ATOM      6  C   UNL     1      23.353  63.034  33.124  1.00  0.00     0.142 A 
ATOM      7  O   UNL     1      23.066  63.410  31.883  1.00  0.00    -0.452 OA
ATOM      8  C   UNL     1      22.650  63.593  34.196  1.00  0.00     0.094 A 
ATOM      9  C   UNL     1      22.939  63.201  35.510  1.00  0.00     0.119 A 
ATOM     10  C   UNL     1      23.936  62.248  35.749  1.00  0.00     0.047 A 
ATOM     11  C   UNL     1      24.645  61.685  34.685  1.00  0.00     0.020 A 
ENDROOT
BRANCH   1  12
ATOM     12  C   UNL     1      23.268  63.416  29.478  1.00  0.00     0.025 A 
ATOM     13  C   UNL     1      23.391  64.781  29.177  1.00  0.00     0.016 A 
ATOM     14  C   UNL     1      22.983  65.271  27.934  1.00  0.00     0.051 A 
ATOM     15  C   UNL     1      22.430  64.407  26.979  1.00  0.00     0.157 A 
ATOM     16  C   UNL     1      22.693  62.554  28.526  1.00  0.00     0.062 A 
ATOM     17  C   UNL     1      22.281  63.042  27.280  1.00  0.00     0.158 A 
BRANCH  15  18
ATOM     18  O   UNL     1      22.026  64.899  25.740  1.00  0.00    -0.504 OA
ATOM     19  H   UNL     1      21.057  65.122  25.547  1.00  0.00     0.293 HD
ENDBRANCH  15  18
BRANCH  17  20
ATOM     20  O   UNL     1      21.721  62.159  26.357  1.00  0.00    -0.504 OA
ATOM     21  H   UNL     1      20.826  62.335  25.919  1.00  0.00     0.293 HD
ENDBRANCH  17  20
ENDBRANCH   1  12
BRANCH   2  22
ATOM     22  O   UNL     1      25.423  61.505  29.856  1.00  0.00    -0.502 OA
ATOM     23  H   UNL     1      25.350  60.546  29.537  1.00  0.00     0.293 HD
ENDBRANCH   2  22
BRANCH   9  24
ATOM     24  O   UNL     1      22.244  63.752  36.584  1.00  0.00    -0.508 OA
ATOM     25  H   UNL     1      22.481  63.522  37.542  1.00  0.00     0.293 HD
ENDBRANCH   9  24
TORSDOF 5
ENDMDL
MODEL 5
REMARK VINA RESULT:    -7.019      5.257      7.615
REMARK INTER + INTRA:          -8.571
REMARK INTER:                  -8.272
REMARK INTRA:                  -0.299
REMARK UNBOUND:                -0.321
REMARK SMILES O=c1c(O)c(-c2ccc(O)c(O)c2)oc2cc(O)ccc12
REMARK SMILES IDX 5 1 3 2 2 3 1 4 21 5 15 6 14 7 16 8 17 9 19 10 20 11 6 12
REMARK SMILES IDX 7 13 8 14 9 15 13 16 11 17 10 18 12 20 4 22 18 24
REMARK H PARENT 10 19 12 21 4 23 18 25
REMARK Flexibility Score: inf
ROOT
ATOM      1  C   UNL     1      23.734  63.522  26.816  1.00  0.00     0.180 A 
ATOM      2  C   UNL     1      22.721  62.544  26.739  1.00  0.00     0.208 A 
ATOM      3  C   UNL     1      21.574  62.694  27.533  1.00  0.00     0.235 A 
ATOM      4  O   UNL     1      20.649  61.837  27.475  1.00  0.00    -0.285 OA
ATOM      5  C   UNL     1      21.470  63.797  28.396  1.00  0.00     0.069 A 
ATOM      6  C   UNL     1      22.538  64.720  28.432  1.00  0.00     0.142 A 
ATOM      7  O   UNL     1      23.602  64.546  27.657  1.00  0.00    -0.452 OA
ATOM      8  C   UNL     1      22.477  65.827  29.285  1.00  0.00     0.094 A 
ATOM      9  C   UNL     1      21.358  66.025  30.105  1.00  0.00     0.119 A 
ATOM     10  C   UNL     1      20.298  65.113  30.069  1.00  0.00     0.047 A 
ATOM     11  C   UNL     1      20.350  64.003  29.221  1.00  0.00     0.020 A 
ENDROOT
BRANCH   1  12
ATOM     12  C   UNL     1      24.965  63.446  25.997  1.00  0.00     0.025 A 
ATOM     13  C   UNL     1      26.040  62.658  26.438  1.00  0.00     0.016 A 
ATOM     14  C   UNL     1      27.219  62.589  25.692  1.00  0.00     0.051 A 
ATOM     15  C   UNL     1      27.347  63.317  24.502  1.00  0.00     0.157 A 
ATOM     16  C   UNL     1      25.105  64.192  24.813  1.00  0.00     0.062 A 
ATOM     17  C   UNL     1      26.285  64.125  24.063  1.00  0.00     0.158 A 
BRANCH  15  18
ATOM     18  O   UNL     1      28.524  63.243  23.759  1.00  0.00    -0.504 OA
ATOM     19  H   UNL     1      28.994  64.075  23.424  1.00  0.00     0.293 HD
ENDBRANCH  15  18
BRANCH  17  20
ATOM     20  O   UNL     1      26.387  64.874  22.891  1.00  0.00    -0.504 OA
ATOM     21  H   UNL     1      26.097  65.842  22.844  1.00  0.00     0.293 HD
ENDBRANCH  17  20
ENDBRANCH   1  12
BRANCH   2  22
ATOM     22  O   UNL     1      22.874  61.431  25.908  1.00  0.00    -0.502 OA
ATOM     23  H   UNL     1      23.677  60.817  25.968  1.00  0.00     0.293 HD
ENDBRANCH   2  22
BRANCH   9  24
ATOM     24  O   UNL     1      21.289  67.125  30.957  1.00  0.00    -0.508 OA
ATOM     25  H   UNL     1      20.991  68.035  30.625  1.00  0.00     0.293 HD
ENDBRANCH   9  24
TORSDOF 5
ENDMDL
MODEL 6
REMARK VINA RESULT:    -6.986      1.948      2.949
REMARK INTER + INTRA:          -8.532
REMARK INTER:                  -8.220
REMARK INTRA:                  -0.312
REMARK UNBOUND:                -0.321
REMARK SMILES O=c1c(O)c(-c2ccc(O)c(O)c2)oc2cc(O)ccc12
REMARK SMILES IDX 5 1 3 2 2 3 1 4 21 5 15 6 14 7 16 8 17 9 19 10 20 11 6 12
REMARK SMILES IDX 7 13 8 14 9 15 13 16 11 17 10 18 12 20 4 22 18 24
REMARK H PARENT 10 19 12 21 4 23 18 25
REMARK Flexibility Score: inf
ROOT
ATOM      1  C   UNL     1      22.980  62.764  31.350  1.00  0.00     0.180 A 
ATOM      2  C   UNL     1      23.178  61.620  30.549  1.00  0.00     0.208 A 
ATOM      3  C   UNL     1      24.080  60.637  30.985  1.00  0.00     0.235 A 
ATOM      4  O   UNL     1      24.266  59.600  30.290  1.00  0.00    -0.285 OA
ATOM      5  C   UNL     1      24.775  60.823  32.190  1.00  0.00     0.069 A 
ATOM      6  C   UNL     1      24.539  62.006  32.923  1.00  0.00     0.142 A 
ATOM      7  O   UNL     1      23.670  62.908  32.480  1.00  0.00    -0.452 OA
ATOM      8  C   UNL     1      25.219  62.233  34.124  1.00  0.00     0.094 A 
ATOM      9  C   UNL     1      26.135  61.288  34.605  1.00  0.00     0.119 A 
ATOM     10  C   UNL     1      26.369  60.114  33.881  1.00  0.00     0.047 A 
ATOM     11  C   UNL     1      25.696  59.878  32.679  1.00  0.00     0.020 A 
ENDROOT
BRANCH   1  12
ATOM     12  C   UNL     1      22.033  63.836  30.970  1.00  0.00     0.025 A 
ATOM     13  C   UNL     1      20.706  63.779  31.423  1.00  0.00     0.016 A 
ATOM     14  C   UNL     1      19.791  64.770  31.060  1.00  0.00     0.051 A 
ATOM     15  C   UNL     1      20.183  65.824  30.224  1.00  0.00     0.157 A 
ATOM     16  C   UNL     1      22.419  64.884  30.113  1.00  0.00     0.062 A 
ATOM     17  C   UNL     1      21.503  65.878  29.746  1.00  0.00     0.158 A 
BRANCH  15  18
ATOM     18  O   UNL     1      19.268  66.811  29.865  1.00  0.00    -0.504 OA
ATOM     19  H   UNL     1      18.921  66.895  28.917  1.00  0.00     0.293 HD
ENDBRANCH  15  18
BRANCH  17  20
ATOM     20  O   UNL     1      21.921  66.905  28.901  1.00  0.00    -0.504 OA
ATOM     21  H   UNL     1      21.569  67.003  27.957  1.00  0.00     0.293 HD
ENDBRANCH  17  20
ENDBRANCH   1  12
BRANCH   2  22
ATOM     22  O   UNL     1      22.509  61.486  29.330  1.00  0.00    -0.502 OA
ATOM     23  H   UNL     1      22.309  62.278  28.731  1.00  0.00     0.293 HD
ENDBRANCH   2  22
BRANCH   9  24
ATOM     24  O   UNL     1      26.817  61.505  35.800  1.00  0.00    -0.508 OA
ATOM     25  H   UNL     1      27.796  61.265  35.902  1.00  0.00     0.293 HD
ENDBRANCH   9  24
TORSDOF 5
ENDMDL
MODEL 7
REMARK VINA RESULT:    -6.891      5.121      7.083
REMARK INTER + INTRA:          -8.420
REMARK INTER:                  -8.101
REMARK INTRA:                  -0.319
REMARK UNBOUND:                -0.321
REMARK SMILES O=c1c(O)c(-c2ccc(O)c(O)c2)oc2cc(O)ccc12
REMARK SMILES IDX 5 1 3 2 2 3 1 4 21 5 15 6 14 7 16 8 17 9 19 10 20 11 6 12
REMARK SMILES IDX 7 13 8 14 9 15 13 16 11 17 10 18 12 20 4 22 18 24
REMARK H PARENT 10 19 12 21 4 23 18 25
REMARK Flexibility Score: inf
ROOT
ATOM      1  C   UNL     1      24.005  63.512  27.283  1.00  0.00     0.180 A 
ATOM      2  C   UNL     1      24.921  62.570  27.793  1.00  0.00     0.208 A 
ATOM      3  C   UNL     1      26.078  62.281  27.052  1.00  0.00     0.235 A 
ATOM      4  O   UNL     1      26.918  61.448  27.492  1.00  0.00    -0.285 OA
ATOM      5  C   UNL     1      26.283  62.918  25.817  1.00  0.00     0.069 A 
ATOM      6  C   UNL     1      25.307  63.831  25.365  1.00  0.00     0.142 A 
ATOM      7  O   UNL     1      24.231  64.084  26.102  1.00  0.00    -0.452 OA
ATOM      8  C   UNL     1      25.471  64.479  24.136  1.00  0.00     0.094 A 
ATOM      9  C   UNL     1      26.603  64.225  23.350  1.00  0.00     0.119 A 
ATOM     10  C   UNL     1      27.573  63.322  23.798  1.00  0.00     0.047 A 
ATOM     11  C   UNL     1      27.418  62.669  25.024  1.00  0.00     0.020 A 
ENDROOT
BRANCH   1  12
ATOM     12  C   UNL     1      22.772  63.885  28.013  1.00  0.00     0.025 A 
ATOM     13  C   UNL     1      21.552  63.289  27.659  1.00  0.00     0.016 A 
ATOM     14  C   UNL     1      20.373  63.641  28.320  1.00  0.00     0.051 A 
ATOM     15  C   UNL     1      20.393  64.607  29.336  1.00  0.00     0.157 A 
ATOM     16  C   UNL     1      22.786  64.869  29.019  1.00  0.00     0.062 A 
ATOM     17  C   UNL     1      21.606  65.226  29.683  1.00  0.00     0.158 A 
BRANCH  15  18
ATOM     18  O   UNL     1      19.216  64.954  29.995  1.00  0.00    -0.504 OA
ATOM     19  H   UNL     1      18.985  65.919  30.198  1.00  0.00     0.293 HD
ENDBRANCH  15  18
BRANCH  17  20
ATOM     20  O   UNL     1      21.657  66.200  30.679  1.00  0.00    -0.504 OA
ATOM     21  H   UNL     1      21.052  66.173  31.490  1.00  0.00     0.293 HD
ENDBRANCH  17  20
ENDBRANCH   1  12
BRANCH   2  22
ATOM     22  O   UNL     1      24.666  61.915  29.001  1.00  0.00    -0.502 OA
ATOM     23  H   UNL     1      23.732  61.834  29.385  1.00  0.00     0.293 HD
ENDBRANCH   2  22
BRANCH   9  24
ATOM     24  O   UNL     1      26.775  64.866  22.125  1.00  0.00    -0.508 OA
ATOM     25  H   UNL     1      26.036  65.421  21.710  1.00  0.00     0.293 HD
ENDBRANCH   9  24
TORSDOF 5
ENDMDL
MODEL 8
REMARK VINA RESULT:    -6.855      8.890     10.493
REMARK INTER + INTRA:          -8.379
REMARK INTER:                  -8.090
REMARK INTRA:                  -0.288
REMARK UNBOUND:                -0.321
REMARK SMILES O=c1c(O)c(-c2ccc(O)c(O)c2)oc2cc(O)ccc12
REMARK SMILES IDX 5 1 3 2 2 3 1 4 21 5 15 6 14 7 16 8 17 9 19 10 20 11 6 12
REMARK SMILES IDX 7 13 8 14 9 15 13 16 11 17 10 18 12 20 4 22 18 24
REMARK H PARENT 10 19 12 21 4 23 18 25
REMARK Flexibility Score: inf
ROOT
ATOM      1  C   UNL     1      18.097  57.042  26.790  1.00  0.00     0.180 A 
ATOM      2  C   UNL     1      19.336  57.241  27.432  1.00  0.00     0.208 A 
ATOM      3  C   UNL     1      19.741  56.328  28.418  1.00  0.00     0.235 A 
ATOM      4  O   UNL     1      20.851  56.479  29.000  1.00  0.00    -0.285 OA
ATOM      5  C   UNL     1      18.899  55.257  28.755  1.00  0.00     0.069 A 
ATOM      6  C   UNL     1      17.663  55.140  28.083  1.00  0.00     0.142 A 
ATOM      7  O   UNL     1      17.322  56.020  27.149  1.00  0.00    -0.452 OA
ATOM      8  C   UNL     1      16.792  54.092  28.397  1.00  0.00     0.094 A 
ATOM      9  C   UNL     1      17.142  53.153  29.377  1.00  0.00     0.119 A 
ATOM     10  C   UNL     1      18.367  53.266  30.043  1.00  0.00     0.047 A 
ATOM     11  C   UNL     1      19.244  54.310  29.738  1.00  0.00     0.020 A 
ENDROOT
BRANCH   1  12
ATOM     12  C   UNL     1      17.607  57.949  25.727  1.00  0.00     0.025 A 
ATOM     13  C   UNL     1      17.798  57.602  24.380  1.00  0.00     0.016 A 
ATOM     14  C   UNL     1      17.362  58.453  23.362  1.00  0.00     0.051 A 
ATOM     15  C   UNL     1      16.743  59.671  23.674  1.00  0.00     0.157 A 
ATOM     16  C   UNL     1      17.004  59.182  26.037  1.00  0.00     0.062 A 
ATOM     17  C   UNL     1      16.567  60.037  25.019  1.00  0.00     0.158 A 
BRANCH  15  18
ATOM     18  O   UNL     1      16.308  60.516  22.655  1.00  0.00    -0.504 OA
ATOM     19  H   UNL     1      15.337  60.794  22.573  1.00  0.00     0.293 HD
ENDBRANCH  15  18
BRANCH  17  20
ATOM     20  O   UNL     1      15.968  61.249  25.362  1.00  0.00    -0.504 OA
ATOM     21  H   UNL     1      16.407  62.140  25.170  1.00  0.00     0.293 HD
ENDBRANCH  17  20
ENDBRANCH   1  12
BRANCH   2  22
ATOM     22  O   UNL     1      20.131  58.344  27.111  1.00  0.00    -0.502 OA
ATOM     23  H   UNL     1      19.743  59.271  26.979  1.00  0.00     0.293 HD
ENDBRANCH   2  22
BRANCH   9  24
ATOM     24  O   UNL     1      16.281  52.106  29.696  1.00  0.00    -0.508 OA
ATOM     25  H   UNL     1      15.421  51.951  29.182  1.00  0.00     0.293 HD
ENDBRANCH   9  24
TORSDOF 5
ENDMDL
MODEL 9
REMARK VINA RESULT:    -6.793      2.336      6.524
REMARK INTER + INTRA:          -8.305
REMARK INTER:                  -8.358
REMARK INTRA:                   0.053
REMARK UNBOUND:                -0.321
REMARK SMILES O=c1c(O)c(-c2ccc(O)c(O)c2)oc2cc(O)ccc12
REMARK SMILES IDX 5 1 3 2 2 3 1 4 21 5 15 6 14 7 16 8 17 9 19 10 20 11 6 12
REMARK SMILES IDX 7 13 8 14 9 15 13 16 11 17 10 18 12 20 4 22 18 24
REMARK H PARENT 10 19 12 21 4 23 18 25
REMARK Flexibility Score: inf
ROOT
ATOM      1  C   UNL     1      23.100  63.086  31.018  1.00  0.00     0.180 A 
ATOM      2  C   UNL     1      21.846  63.718  31.139  1.00  0.00     0.208 A 
ATOM      3  C   UNL     1      21.287  64.336  30.009  1.00  0.00     0.235 A 
ATOM      4  O   UNL     1      20.161  64.899  30.090  1.00  0.00    -0.285 OA
ATOM      5  C   UNL     1      21.996  64.328  28.797  1.00  0.00     0.069 A 
ATOM      6  C   UNL     1      23.257  63.694  28.763  1.00  0.00     0.142 A 
ATOM      7  O   UNL     1      23.745  63.113  29.853  1.00  0.00    -0.452 OA
ATOM      8  C   UNL     1      23.998  63.673  27.577  1.00  0.00     0.094 A 
ATOM      9  C   UNL     1      23.492  64.278  26.418  1.00  0.00     0.119 A 
ATOM     10  C   UNL     1      22.241  64.905  26.449  1.00  0.00     0.047 A 
ATOM     11  C   UNL     1      21.494  64.932  27.630  1.00  0.00     0.020 A 
ENDROOT
BRANCH   1  12
ATOM     12  C   UNL     1      23.747  62.397  32.157  1.00  0.00     0.025 A 
ATOM     13  C   UNL     1      24.229  61.090  31.991  1.00  0.00     0.016 A 
ATOM     14  C   UNL     1      24.825  60.414  33.059  1.00  0.00     0.051 A 
ATOM     15  C   UNL     1      24.933  61.029  34.314  1.00  0.00     0.157 A 
ATOM     16  C   UNL     1      23.838  63.004  33.424  1.00  0.00     0.062 A 
ATOM     17  C   UNL     1      24.433  62.329  34.496  1.00  0.00     0.158 A 
BRANCH  15  18
ATOM     18  O   UNL     1      25.530  60.352  35.376  1.00  0.00    -0.504 OA
ATOM     19  H   UNL     1      26.477  60.555  35.670  1.00  0.00     0.293 HD
ENDBRANCH  15  18
BRANCH  17  20
ATOM     20  O   UNL     1      24.513  62.963  35.736  1.00  0.00    -0.504 OA
ATOM     21  H   UNL     1      24.009  63.817  35.937  1.00  0.00     0.293 HD
ENDBRANCH  17  20
ENDBRANCH   1  12
BRANCH   2  22
ATOM     22  O   UNL     1      21.187  63.753  32.371  1.00  0.00    -0.502 OA
ATOM     23  H   UNL     1      21.545  64.276  33.162  1.00  0.00     0.293 HD
ENDBRANCH   2  22
BRANCH   9  24
ATOM     24  O   UNL     1      24.223  64.261  25.233  1.00  0.00    -0.508 OA
ATOM     25  H   UNL     1      24.991  64.903  25.075  1.00  0.00     0.293 HD
ENDBRANCH   9  24
TORSDOF 5
ENDMDL
