MODEL 1
REMARK VINA RESULT:    -5.141      0.000      0.000
REMARK INTER + INTRA:         -10.017
REMARK INTER:                  -7.996
REMARK INTRA:                  -2.021
REMARK UNBOUND:                -2.021
REMARK SMILES C[C@@]12C[C@@]3(O)O[C@@H](O1)[C@]1(COC(=O)c4ccccc4)[C@H]3C[C@@]12O[C@H]1O[C@H](CO)[C@H](O)[C@H](O)[C@H]1O
REMARK SMILES IDX 1 1 2 2 3 3 4 4 20 5 21 6 22 7 9 8 7 9 8 10 6 11 23 12 24 13
REMARK SMILES IDX 33 14 25 15 31 16 26 17 29 18 34 19 32 21 27 23 28 24 30 26
REMARK SMILES IDX 5 28 10 30 11 31 12 32 13 33 14 34 15 35 19 36 16 37 18 38
REMARK SMILES IDX 17 39
REMARK H PARENT 34 20 32 22 28 25 30 27 5 29
REMARK Flexibility Score: inf
ROOT
ATOM      1  C   UNL     1      21.127  -1.323   7.943  1.00  0.00     0.046 C 
ATOM      2  C   UNL     1      20.679   0.092   7.571  1.00  0.00     0.104 C 
ATOM      3  C   UNL     1      20.169   0.887   8.827  1.00  0.00     0.104 C 
ATOM      4  C   UNL     1      19.682   2.250   8.220  1.00  0.00     0.175 C 
ATOM      5  C   UNL     1      18.754   2.001   6.986  1.00  0.00     0.070 C 
ATOM      6  C   UNL     1      18.194   0.571   6.936  1.00  0.00     0.050 C 
ATOM      7  C   UNL     1      19.600   0.142   6.424  1.00  0.00     0.115 C 
ATOM      8  C   UNL     1      19.829   1.588   5.987  1.00  0.00     0.096 C 
ATOM      9  C   UNL     1      21.158   2.023   6.578  1.00  0.00     0.267 C 
ATOM     10  O   UNL     1      21.768   0.839   7.066  1.00  0.00    -0.342 OA
ATOM     11  O   UNL     1      20.833   2.863   7.675  1.00  0.00    -0.320 OA
ENDROOT
BRANCH   7  12
ATOM     12  O   UNL     1      19.842  -0.802   5.378  1.00  0.00    -0.339 OA
BRANCH  12  13
ATOM     13  C   UNL     1      18.969  -1.922   5.295  1.00  0.00     0.282 C 
ATOM     14  C   UNL     1      19.631  -3.152   4.621  1.00  0.00     0.202 C 
ATOM     15  O   UNL     1      17.791  -1.551   4.591  1.00  0.00    -0.341 OA
ATOM     16  C   UNL     1      19.893  -2.871   3.126  1.00  0.00     0.179 C 
ATOM     17  C   UNL     1      18.070  -1.157   3.255  1.00  0.00     0.178 C 
ATOM     18  C   UNL     1      18.615  -2.353   2.443  1.00  0.00     0.177 C 
BRANCH  14  19
ATOM     19  O   UNL     1      20.827  -3.485   5.271  1.00  0.00    -0.385 OA
ATOM     20  H   UNL     1      20.720  -4.407   5.622  1.00  0.00     0.211 HD
ENDBRANCH  14  19
BRANCH  16  21
ATOM     21  O   UNL     1      20.397  -4.006   2.464  1.00  0.00    -0.387 OA
ATOM     22  H   UNL     1      19.634  -4.488   2.052  1.00  0.00     0.211 HD
ENDBRANCH  16  21
BRANCH  17  23
ATOM     23  C   UNL     1      16.787  -0.591   2.636  1.00  0.00     0.191 C 
BRANCH  23  24
ATOM     24  O   UNL     1      16.697  -0.957   1.286  1.00  0.00    -0.394 OA
ATOM     25  H   UNL     1      17.627  -1.126   0.984  1.00  0.00     0.210 HD
ENDBRANCH  23  24
ENDBRANCH  17  23
BRANCH  18  26
ATOM     26  O   UNL     1      17.642  -3.367   2.384  1.00  0.00    -0.387 OA
ATOM     27  H   UNL     1      17.207  -3.302   1.494  1.00  0.00     0.211 HD
ENDBRANCH  18  26
ENDBRANCH  12  13
ENDBRANCH   7  12
BRANCH   4  28
ATOM     28  O   UNL     1      19.088   3.081   9.178  1.00  0.00    -0.365 OA
ATOM     29  H   UNL     1      19.432   2.789  10.062  1.00  0.00     0.214 HD
ENDBRANCH   4  28
BRANCH   8  30
ATOM     30  C   UNL     1      19.547   1.944   4.512  1.00  0.00     0.249 C 
BRANCH  30  31
ATOM     31  O   UNL     1      20.753   1.904   3.751  1.00  0.00    -0.461 OA
BRANCH  31  32
ATOM     32  C   UNL     1      20.873   1.289   2.499  1.00  0.00     0.338 C 
ATOM     33  O   UNL     1      20.218   1.723   1.511  1.00  0.00    -0.246 OA
BRANCH  32  34
ATOM     34  C   UNL     1      21.785   0.137   2.335  1.00  0.00     0.060 A 
ATOM     35  C   UNL     1      22.558  -0.315   3.420  1.00  0.00     0.015 A 
ATOM     36  C   UNL     1      21.889  -0.530   1.099  1.00  0.00     0.015 A 
ATOM     37  C   UNL     1      23.416  -1.410   3.271  1.00  0.00     0.001 A 
ATOM     38  C   UNL     1      22.748  -1.624   0.956  1.00  0.00     0.001 A 
ATOM     39  C   UNL     1      23.511  -2.063   2.040  1.00  0.00     0.000 A 
ENDBRANCH  32  34
ENDBRANCH  31  32
ENDBRANCH  30  31
ENDBRANCH   8  30
TORSDOF 12
ENDMDL
MODEL 2
REMARK VINA RESULT:    -5.099      1.995      6.229
REMARK INTER + INTRA:          -9.951
REMARK INTER:                  -7.955
REMARK INTRA:                  -1.996
REMARK UNBOUND:                -2.021
REMARK SMILES C[C@@]12C[C@@]3(O)O[C@@H](O1)[C@]1(COC(=O)c4ccccc4)[C@H]3C[C@@]12O[C@H]1O[C@H](CO)[C@H](O)[C@H](O)[C@H]1O
REMARK SMILES IDX 1 1 2 2 3 3 4 4 20 5 21 6 22 7 9 8 7 9 8 10 6 11 23 12 24 13
REMARK SMILES IDX 33 14 25 15 31 16 26 17 29 18 34 19 32 21 27 23 28 24 30 26
REMARK SMILES IDX 5 28 10 30 11 31 12 32 13 33 14 34 15 35 19 36 16 37 18 38
REMARK SMILES IDX 17 39
REMARK H PARENT 34 20 32 22 28 25 30 27 5 29
REMARK Flexibility Score: inf
ROOT
ATOM      1  C   UNL     1      19.751   0.172   0.041  1.00  0.00     0.046 C 
ATOM      2  C   UNL     1      21.135  -0.342   0.442  1.00  0.00     0.104 C 
ATOM      3  C   UNL     1      21.958  -0.826  -0.806  1.00  0.00     0.104 C 
ATOM      4  C   UNL     1      23.280  -1.389  -0.173  1.00  0.00     0.175 C 
ATOM      5  C   UNL     1      22.952  -2.361   1.007  1.00  0.00     0.070 C 
ATOM      6  C   UNL     1      21.502  -2.870   0.980  1.00  0.00     0.050 C 
ATOM      7  C   UNL     1      21.104  -1.473   1.540  1.00  0.00     0.115 C 
ATOM      8  C   UNL     1      22.539  -1.317   2.039  1.00  0.00     0.096 C 
ATOM      9  C   UNL     1      23.042   0.020   1.525  1.00  0.00     0.267 C 
ATOM     10  O   UNL     1      21.900   0.695   1.023  1.00  0.00    -0.342 OA
ATOM     11  O   UNL     1      23.911  -0.286   0.445  1.00  0.00    -0.320 OA
ENDROOT
BRANCH   7  12
ATOM     12  O   UNL     1      20.130  -1.243   2.561  1.00  0.00    -0.339 OA
BRANCH  12  13
ATOM     13  C   UNL     1      19.037  -2.149   2.636  1.00  0.00     0.282 C 
ATOM     14  C   UNL     1      17.730  -1.477   3.131  1.00  0.00     0.202 C 
ATOM     15  O   UNL     1      19.382  -3.236   3.485  1.00  0.00    -0.341 OA
ATOM     16  C   UNL     1      17.867  -1.058   4.610  1.00  0.00     0.179 C 
ATOM     17  C   UNL     1      19.645  -2.811   4.814  1.00  0.00     0.178 C 
ATOM     18  C   UNL     1      18.364  -2.240   5.462  1.00  0.00     0.177 C 
BRANCH  14  19
ATOM     19  O   UNL     1      17.417  -0.365   2.337  1.00  0.00    -0.385 OA
ATOM     20  H   UNL     1      18.000  -0.409   1.534  1.00  0.00     0.211 HD
ENDBRANCH  14  19
BRANCH  16  21
ATOM     21  O   UNL     1      16.662  -0.539   5.118  1.00  0.00    -0.387 OA
ATOM     22  H   UNL     1      16.047  -1.298   5.292  1.00  0.00     0.211 HD
ENDBRANCH  16  21
BRANCH  17  23
ATOM     23  C   UNL     1      20.196  -4.002   5.608  1.00  0.00     0.191 C 
BRANCH  23  24
ATOM     24  O   UNL     1      19.953  -3.828   6.977  1.00  0.00    -0.394 OA
ATOM     25  H   UNL     1      20.177  -4.693   7.408  1.00  0.00     0.210 HD
ENDBRANCH  23  24
ENDBRANCH  17  23
BRANCH  18  26
ATOM     26  O   UNL     1      17.381  -3.244   5.532  1.00  0.00    -0.387 OA
ATOM     27  H   UNL     1      16.655  -2.900   6.115  1.00  0.00     0.211 HD
ENDBRANCH  18  26
ENDBRANCH  12  13
ENDBRANCH   7  12
BRANCH   4  28
ATOM     28  O   UNL     1      24.125  -1.970  -1.127  1.00  0.00    -0.365 OA
ATOM     29  H   UNL     1      24.133  -2.946  -0.943  1.00  0.00     0.214 HD
ENDBRANCH   4  28
BRANCH   8  30
ATOM     30  C   UNL     1      22.829  -1.677   3.511  1.00  0.00     0.249 C 
BRANCH  30  31
ATOM     31  O   UNL     1      22.780  -0.509   4.328  1.00  0.00    -0.461 OA
BRANCH  31  32
ATOM     32  C   UNL     1      22.280  -0.483   5.636  1.00  0.00     0.338 C 
ATOM     33  O   UNL     1      22.832  -1.166   6.542  1.00  0.00    -0.246 OA
BRANCH  32  34
ATOM     34  C   UNL     1      21.109   0.362   5.953  1.00  0.00     0.060 A 
ATOM     35  C   UNL     1      20.668   1.335   5.038  1.00  0.00     0.015 A 
ATOM     36  C   UNL     1      20.413   0.202   7.167  1.00  0.00     0.015 A 
ATOM     37  C   UNL     1      19.556   2.131   5.333  1.00  0.00     0.001 A 
ATOM     38  C   UNL     1      19.302   1.000   7.455  1.00  0.00     0.001 A 
ATOM     39  C   UNL     1      18.874   1.964   6.540  1.00  0.00     0.000 A 
ENDBRANCH  32  34
ENDBRANCH  31  32
ENDBRANCH  30  31
ENDBRANCH   8  30
TORSDOF 12
ENDMDL
MODEL 3
REMARK VINA RESULT:    -5.091      2.220      3.029
REMARK INTER + INTRA:          -9.939
REMARK INTER:                  -8.168
REMARK INTRA:                  -1.771
REMARK UNBOUND:                -2.021
REMARK SMILES C[C@@]12C[C@@]3(O)O[C@@H](O1)[C@]1(COC(=O)c4ccccc4)[C@H]3C[C@@]12O[C@H]1O[C@H](CO)[C@H](O)[C@H](O)[C@H]1O
REMARK SMILES IDX 1 1 2 2 3 3 4 4 20 5 21 6 22 7 9 8 7 9 8 10 6 11 23 12 24 13
REMARK SMILES IDX 33 14 25 15 31 16 26 17 29 18 34 19 32 21 27 23 28 24 30 26
REMARK SMILES IDX 5 28 10 30 11 31 12 32 13 33 14 34 15 35 19 36 16 37 18 38
REMARK SMILES IDX 17 39
REMARK H PARENT 34 20 32 22 28 25 30 27 5 29
REMARK Flexibility Score: inf
ROOT
ATOM      1  C   UNL     1      20.598  -3.910   7.046  1.00  0.00     0.046 C 
ATOM      2  C   UNL     1      21.456  -2.645   6.984  1.00  0.00     0.104 C 
ATOM      3  C   UNL     1      21.915  -2.185   8.415  1.00  0.00     0.104 C 
ATOM      4  C   UNL     1      22.687  -0.847   8.135  1.00  0.00     0.175 C 
ATOM      5  C   UNL     1      21.842   0.093   7.214  1.00  0.00     0.070 C 
ATOM      6  C   UNL     1      20.353  -0.287   7.175  1.00  0.00     0.050 C 
ATOM      7  C   UNL     1      20.773  -1.445   6.223  1.00  0.00     0.115 C 
ATOM      8  C   UNL     1      22.041  -0.656   5.901  1.00  0.00     0.096 C 
ATOM      9  C   UNL     1      23.213  -1.597   6.114  1.00  0.00     0.267 C 
ATOM     10  O   UNL     1      22.647  -2.889   6.263  1.00  0.00    -0.342 OA
ATOM     11  O   UNL     1      23.802  -1.203   7.344  1.00  0.00    -0.320 OA
ENDROOT
BRANCH   7  12
ATOM     12  O   UNL     1      20.056  -1.851   5.055  1.00  0.00    -0.339 OA
BRANCH  12  13
ATOM     13  C   UNL     1      18.741  -1.337   4.885  1.00  0.00     0.282 C 
ATOM     14  C   UNL     1      17.690  -2.447   4.630  1.00  0.00     0.202 C 
ATOM     15  O   UNL     1      18.735  -0.399   3.817  1.00  0.00    -0.341 OA
ATOM     16  C   UNL     1      17.927  -3.108   3.255  1.00  0.00     0.179 C 
ATOM     17  C   UNL     1      19.096  -0.998   2.581  1.00  0.00     0.178 C 
ATOM     18  C   UNL     1      18.036  -2.038   2.154  1.00  0.00     0.177 C 
BRANCH  14  19
ATOM     19  O   UNL     1      17.734  -3.411   5.647  1.00  0.00    -0.385 OA
ATOM     20  H   UNL     1      16.867  -3.894   5.627  1.00  0.00     0.211 HD
ENDBRANCH  14  19
BRANCH  16  21
ATOM     21  O   UNL     1      16.926  -4.049   2.950  1.00  0.00    -0.387 OA
ATOM     22  H   UNL     1      16.043  -3.615   3.081  1.00  0.00     0.211 HD
ENDBRANCH  16  21
BRANCH  17  23
ATOM     23  C   UNL     1      19.255   0.109   1.531  1.00  0.00     0.191 C 
BRANCH  23  24
ATOM     24  O   UNL     1      19.039  -0.406   0.245  1.00  0.00    -0.394 OA
ATOM     25  H   UNL     1      18.790  -1.359   0.369  1.00  0.00     0.210 HD
ENDBRANCH  23  24
ENDBRANCH  17  23
BRANCH  18  26
ATOM     26  O   UNL     1      16.798  -1.400   1.962  1.00  0.00    -0.387 OA
ATOM     27  H   UNL     1      16.156  -2.096   1.663  1.00  0.00     0.211 HD
ENDBRANCH  18  26
ENDBRANCH  12  13
ENDBRANCH   7  12
BRANCH   4  28
ATOM     28  O   UNL     1      23.101  -0.212   9.312  1.00  0.00    -0.365 OA
ATOM     29  H   UNL     1      22.728   0.708   9.287  1.00  0.00     0.214 HD
ENDBRANCH   4  28
BRANCH   8  30
ATOM     30  C   UNL     1      22.039   0.214   4.626  1.00  0.00     0.249 C 
BRANCH  30  31
ATOM     31  O   UNL     1      23.071  -0.206   3.735  1.00  0.00    -0.461 OA
BRANCH  31  32
ATOM     32  C   UNL     1      23.270   0.323   2.454  1.00  0.00     0.338 C 
ATOM     33  O   UNL     1      23.825   1.447   2.309  1.00  0.00    -0.246 OA
BRANCH  32  34
ATOM     34  C   UNL     1      22.837  -0.449   1.270  1.00  0.00     0.060 A 
ATOM     35  C   UNL     1      22.730   0.179   0.015  1.00  0.00     0.015 A 
ATOM     36  C   UNL     1      22.535  -1.820   1.374  1.00  0.00     0.015 A 
ATOM     37  C   UNL     1      22.328  -0.550  -1.109  1.00  0.00     0.001 A 
ATOM     38  C   UNL     1      22.135  -2.544   0.247  1.00  0.00     0.001 A 
ATOM     39  C   UNL     1      22.031  -1.910  -0.993  1.00  0.00     0.000 A 
ENDBRANCH  32  34
ENDBRANCH  31  32
ENDBRANCH  30  31
ENDBRANCH   8  30
TORSDOF 12
ENDMDL
MODEL 4
REMARK VINA RESULT:    -4.860      1.906      5.926
REMARK INTER + INTRA:          -9.580
REMARK INTER:                  -7.666
REMARK INTRA:                  -1.914
REMARK UNBOUND:                -2.021
REMARK SMILES C[C@@]12C[C@@]3(O)O[C@@H](O1)[C@]1(COC(=O)c4ccccc4)[C@H]3C[C@@]12O[C@H]1O[C@H](CO)[C@H](O)[C@H](O)[C@H]1O
REMARK SMILES IDX 1 1 2 2 3 3 4 4 20 5 21 6 22 7 9 8 7 9 8 10 6 11 23 12 24 13
REMARK SMILES IDX 33 14 25 15 31 16 26 17 29 18 34 19 32 21 27 23 28 24 30 26
REMARK SMILES IDX 5 28 10 30 11 31 12 32 13 33 14 34 15 35 19 36 16 37 18 38
REMARK SMILES IDX 17 39
REMARK H PARENT 34 20 32 22 28 25 30 27 5 29
REMARK Flexibility Score: inf
ROOT
ATOM      1  C   UNL     1      17.698  -0.516   0.959  1.00  0.00     0.046 C 
ATOM      2  C   UNL     1      19.098   0.093   0.857  1.00  0.00     0.104 C 
ATOM      3  C   UNL     1      19.522   0.324  -0.639  1.00  0.00     0.104 C 
ATOM      4  C   UNL     1      20.994   0.855  -0.520  1.00  0.00     0.175 C 
ATOM      5  C   UNL     1      21.834  -0.062   0.428  1.00  0.00     0.070 C 
ATOM      6  C   UNL     1      21.197  -1.444   0.645  1.00  0.00     0.050 C 
ATOM      7  C   UNL     1      20.210  -0.729   1.613  1.00  0.00     0.115 C 
ATOM      8  C   UNL     1      21.237   0.393   1.755  1.00  0.00     0.096 C 
ATOM      9  C   UNL     1      20.508   1.696   1.476  1.00  0.00     0.267 C 
ATOM     10  O   UNL     1      19.128   1.370   1.462  1.00  0.00    -0.342 OA
ATOM     11  O   UNL     1      20.906   2.085   0.170  1.00  0.00    -0.320 OA
ENDROOT
BRANCH   7  12
ATOM     12  O   UNL     1      19.772  -1.247   2.872  1.00  0.00    -0.339 OA
BRANCH  12  13
ATOM     13  C   UNL     1      19.982  -2.632   3.116  1.00  0.00     0.282 C 
ATOM     14  C   UNL     1      18.707  -3.353   3.625  1.00  0.00     0.202 C 
ATOM     15  O   UNL     1      21.042  -2.792   4.049  1.00  0.00    -0.341 OA
ATOM     16  C   UNL     1      18.336  -2.859   5.039  1.00  0.00     0.179 C 
ATOM     17  C   UNL     1      20.740  -2.204   5.306  1.00  0.00     0.178 C 
ATOM     18  C   UNL     1      19.556  -2.937   5.975  1.00  0.00     0.177 C 
BRANCH  14  19
ATOM     19  O   UNL     1      17.639  -3.147   2.741  1.00  0.00    -0.385 OA
ATOM     20  H   UNL     1      17.974  -2.563   2.012  1.00  0.00     0.211 HD
ENDBRANCH  14  19
BRANCH  16  21
ATOM     21  O   UNL     1      17.244  -3.569   5.570  1.00  0.00    -0.387 OA
ATOM     22  H   UNL     1      16.634  -2.918   6.006  1.00  0.00     0.211 HD
ENDBRANCH  16  21
BRANCH  17  23
ATOM     23  C   UNL     1      21.998  -2.247   6.181  1.00  0.00     0.191 C 
BRANCH  23  24
ATOM     24  O   UNL     1      22.757  -3.387   5.885  1.00  0.00    -0.394 OA
ATOM     25  H   UNL     1      23.454  -3.095   5.241  1.00  0.00     0.210 HD
ENDBRANCH  23  24
ENDBRANCH  17  23
BRANCH  18  26
ATOM     26  O   UNL     1      19.906  -4.277   6.216  1.00  0.00    -0.387 OA
ATOM     27  H   UNL     1      19.105  -4.828   6.013  1.00  0.00     0.211 HD
ENDBRANCH  18  26
ENDBRANCH  12  13
ENDBRANCH   7  12
BRANCH   4  28
ATOM     28  O   UNL     1      21.602   1.033  -1.769  1.00  0.00    -0.365 OA
ATOM     29  H   UNL     1      21.789   0.126  -2.127  1.00  0.00     0.214 HD
ENDBRANCH   4  28
BRANCH   8  30
ATOM     30  C   UNL     1      22.187   0.346   2.970  1.00  0.00     0.249 C 
BRANCH  30  31
ATOM     31  O   UNL     1      22.079   1.547   3.733  1.00  0.00    -0.461 OA
BRANCH  31  32
ATOM     32  C   UNL     1      22.121   1.597   5.132  1.00  0.00     0.338 C 
ATOM     33  O   UNL     1      23.199   1.878   5.726  1.00  0.00    -0.246 OA
BRANCH  32  34
ATOM     34  C   UNL     1      20.892   1.335   5.910  1.00  0.00     0.060 A 
ATOM     35  C   UNL     1      19.641   1.292   5.267  1.00  0.00     0.015 A 
ATOM     36  C   UNL     1      20.952   1.115   7.300  1.00  0.00     0.015 A 
ATOM     37  C   UNL     1      18.477   1.037   5.999  1.00  0.00     0.001 A 
ATOM     38  C   UNL     1      19.784   0.860   8.026  1.00  0.00     0.001 A 
ATOM     39  C   UNL     1      18.548   0.821   7.377  1.00  0.00     0.000 A 
ENDBRANCH  32  34
ENDBRANCH  31  32
ENDBRANCH  30  31
ENDBRANCH   8  30
TORSDOF 12
ENDMDL
MODEL 5
REMARK VINA RESULT:    -4.859      3.049      5.996
REMARK INTER + INTRA:          -9.579
REMARK INTER:                  -7.730
REMARK INTRA:                  -1.850
REMARK UNBOUND:                -2.021
REMARK SMILES C[C@@]12C[C@@]3(O)O[C@@H](O1)[C@]1(COC(=O)c4ccccc4)[C@H]3C[C@@]12O[C@H]1O[C@H](CO)[C@H](O)[C@H](O)[C@H]1O
REMARK SMILES IDX 1 1 2 2 3 3 4 4 20 5 21 6 22 7 9 8 7 9 8 10 6 11 23 12 24 13
REMARK SMILES IDX 33 14 25 15 31 16 26 17 29 18 34 19 32 21 27 23 28 24 30 26
REMARK SMILES IDX 5 28 10 30 11 31 12 32 13 33 14 34 15 35 19 36 16 37 18 38
REMARK SMILES IDX 17 39
REMARK H PARENT 34 20 32 22 28 25 30 27 5 29
REMARK Flexibility Score: inf
ROOT
ATOM      1  C   UNL     1      18.144   3.111   2.241  1.00  0.00     0.046 C 
ATOM      2  C   UNL     1      18.931   2.406   1.134  1.00  0.00     0.104 C 
ATOM      3  C   UNL     1      18.420   2.820  -0.294  1.00  0.00     0.104 C 
ATOM      4  C   UNL     1      19.282   1.931  -1.259  1.00  0.00     0.175 C 
ATOM      5  C   UNL     1      19.263   0.438  -0.793  1.00  0.00     0.070 C 
ATOM      6  C   UNL     1      18.106   0.125   0.171  1.00  0.00     0.050 C 
ATOM      7  C   UNL     1      18.954   0.836   1.265  1.00  0.00     0.115 C 
ATOM      8  C   UNL     1      20.192   0.575   0.408  1.00  0.00     0.096 C 
ATOM      9  C   UNL     1      20.908   1.904   0.251  1.00  0.00     0.267 C 
ATOM     10  O   UNL     1      20.292   2.786   1.176  1.00  0.00    -0.342 OA
ATOM     11  O   UNL     1      20.620   2.340  -1.069  1.00  0.00    -0.320 OA
ENDROOT
BRANCH   7  12
ATOM     12  O   UNL     1      19.103   0.383   2.614  1.00  0.00    -0.339 OA
BRANCH  12  13
ATOM     13  C   UNL     1      17.923   0.001   3.308  1.00  0.00     0.282 C 
ATOM     14  C   UNL     1      18.042   0.182   4.843  1.00  0.00     0.202 C 
ATOM     15  O   UNL     1      17.607  -1.349   2.995  1.00  0.00    -0.341 OA
ATOM     16  C   UNL     1      19.063  -0.819   5.426  1.00  0.00     0.179 C 
ATOM     17  C   UNL     1      18.627  -2.245   3.413  1.00  0.00     0.178 C 
ATOM     18  C   UNL     1      18.746  -2.249   4.953  1.00  0.00     0.177 C 
BRANCH  14  19
ATOM     19  O   UNL     1      18.415   1.496   5.156  1.00  0.00    -0.385 OA
ATOM     20  H   UNL     1      19.355   1.463   5.473  1.00  0.00     0.211 HD
ENDBRANCH  14  19
BRANCH  16  21
ATOM     21  O   UNL     1      19.117  -0.749   6.830  1.00  0.00    -0.387 OA
ATOM     22  H   UNL     1      18.791  -1.613   7.195  1.00  0.00     0.211 HD
ENDBRANCH  16  21
BRANCH  17  23
ATOM     23  C   UNL     1      18.304  -3.641   2.867  1.00  0.00     0.191 C 
BRANCH  23  24
ATOM     24  O   UNL     1      16.921  -3.864   2.891  1.00  0.00    -0.394 OA
ATOM     25  H   UNL     1      16.686  -4.037   3.840  1.00  0.00     0.210 HD
ENDBRANCH  23  24
ENDBRANCH  17  23
BRANCH  18  26
ATOM     26  O   UNL     1      17.540  -2.699   5.519  1.00  0.00    -0.387 OA
ATOM     27  H   UNL     1      17.085  -3.253   4.832  1.00  0.00     0.211 HD
ENDBRANCH  18  26
ENDBRANCH  12  13
ENDBRANCH   7  12
BRANCH   4  28
ATOM     28  O   UNL     1      18.906   2.078  -2.600  1.00  0.00    -0.365 OA
ATOM     29  H   UNL     1      17.975   2.423  -2.599  1.00  0.00     0.214 HD
ENDBRANCH   4  28
BRANCH   8  30
ATOM     30  C   UNL     1      21.045  -0.667   0.742  1.00  0.00     0.249 C 
BRANCH  30  31
ATOM     31  O   UNL     1      22.393  -0.475   0.315  1.00  0.00    -0.461 OA
BRANCH  31  32
ATOM     32  C   UNL     1      22.953  -1.076  -0.818  1.00  0.00     0.338 C 
ATOM     33  O   UNL     1      23.972  -1.813  -0.709  1.00  0.00    -0.246 OA
BRANCH  32  34
ATOM     34  C   UNL     1      22.336  -0.856  -2.144  1.00  0.00     0.060 A 
ATOM     35  C   UNL     1      21.475  -1.823  -2.695  1.00  0.00     0.015 A 
ATOM     36  C   UNL     1      22.590   0.324  -2.870  1.00  0.00     0.015 A 
ATOM     37  C   UNL     1      20.884  -1.614  -3.945  1.00  0.00     0.001 A 
ATOM     38  C   UNL     1      21.995   0.527  -4.119  1.00  0.00     0.001 A 
ATOM     39  C   UNL     1      21.144  -0.440  -4.656  1.00  0.00     0.000 A 
ENDBRANCH  32  34
ENDBRANCH  31  32
ENDBRANCH  30  31
ENDBRANCH   8  30
TORSDOF 12
ENDMDL
MODEL 6
REMARK VINA RESULT:    -4.853      2.192      5.462
REMARK INTER + INTRA:          -9.569
REMARK INTER:                  -8.204
REMARK INTRA:                  -1.365
REMARK UNBOUND:                -2.021
REMARK SMILES C[C@@]12C[C@@]3(O)O[C@@H](O1)[C@]1(COC(=O)c4ccccc4)[C@H]3C[C@@]12O[C@H]1O[C@H](CO)[C@H](O)[C@H](O)[C@H]1O
REMARK SMILES IDX 1 1 2 2 3 3 4 4 20 5 21 6 22 7 9 8 7 9 8 10 6 11 23 12 24 13
REMARK SMILES IDX 33 14 25 15 31 16 26 17 29 18 34 19 32 21 27 23 28 24 30 26
REMARK SMILES IDX 5 28 10 30 11 31 12 32 13 33 14 34 15 35 19 36 16 37 18 38
REMARK SMILES IDX 17 39
REMARK H PARENT 34 20 32 22 28 25 30 27 5 29
REMARK Flexibility Score: inf
ROOT
ATOM      1  C   UNL     1      23.738  -2.134   3.888  1.00  0.00     0.046 C 
ATOM      2  C   UNL     1      23.269  -1.750   5.292  1.00  0.00     0.104 C 
ATOM      3  C   UNL     1      24.073  -2.520   6.402  1.00  0.00     0.104 C 
ATOM      4  C   UNL     1      23.383  -2.059   7.735  1.00  0.00     0.175 C 
ATOM      5  C   UNL     1      21.829  -2.190   7.622  1.00  0.00     0.070 C 
ATOM      6  C   UNL     1      21.386  -3.115   6.477  1.00  0.00     0.050 C 
ATOM      7  C   UNL     1      21.720  -1.933   5.522  1.00  0.00     0.115 C 
ATOM      8  C   UNL     1      21.575  -0.990   6.716  1.00  0.00     0.096 C 
ATOM      9  C   UNL     1      22.833  -0.141   6.763  1.00  0.00     0.267 C 
ATOM     10  O   UNL     1      23.504  -0.378   5.536  1.00  0.00    -0.342 OA
ATOM     11  O   UNL     1      23.611  -0.668   7.827  1.00  0.00    -0.320 OA
ENDROOT
BRANCH   7  12
ATOM     12  O   UNL     1      20.931  -1.535   4.398  1.00  0.00    -0.339 OA
BRANCH  12  13
ATOM     13  C   UNL     1      20.687  -2.511   3.394  1.00  0.00     0.282 C 
ATOM     14  C   UNL     1      20.379  -1.886   2.009  1.00  0.00     0.202 C 
ATOM     15  O   UNL     1      19.616  -3.352   3.802  1.00  0.00    -0.341 OA
ATOM     16  C   UNL     1      19.023  -1.150   2.039  1.00  0.00     0.179 C 
ATOM     17  C   UNL     1      18.404  -2.630   3.964  1.00  0.00     0.178 C 
ATOM     18  C   UNL     1      17.925  -2.068   2.608  1.00  0.00     0.177 C 
BRANCH  14  19
ATOM     19  O   UNL     1      21.402  -1.006   1.627  1.00  0.00    -0.385 OA
ATOM     20  H   UNL     1      21.734  -0.572   2.456  1.00  0.00     0.211 HD
ENDBRANCH  14  19
BRANCH  16  21
ATOM     21  O   UNL     1      18.667  -0.661   0.769  1.00  0.00    -0.387 OA
ATOM     22  H   UNL     1      17.979  -1.266   0.386  1.00  0.00     0.211 HD
ENDBRANCH  16  21
BRANCH  17  23
ATOM     23  C   UNL     1      17.360  -3.562   4.590  1.00  0.00     0.191 C 
BRANCH  23  24
ATOM     24  O   UNL     1      17.423  -3.492   5.989  1.00  0.00    -0.394 OA
ATOM     25  H   UNL     1      18.334  -3.166   6.207  1.00  0.00     0.210 HD
ENDBRANCH  23  24
ENDBRANCH  17  23
BRANCH  18  26
ATOM     26  O   UNL     1      17.662  -3.128   1.723  1.00  0.00    -0.387 OA
ATOM     27  H   UNL     1      16.684  -3.128   1.550  1.00  0.00     0.211 HD
ENDBRANCH  18  26
ENDBRANCH  12  13
ENDBRANCH   7  12
BRANCH   4  28
ATOM     28  O   UNL     1      23.896  -2.718   8.859  1.00  0.00    -0.365 OA
ATOM     29  H   UNL     1      23.120  -2.936   9.440  1.00  0.00     0.214 HD
ENDBRANCH   4  28
BRANCH   8  30
ATOM     30  C   UNL     1      20.219  -0.279   6.907  1.00  0.00     0.249 C 
BRANCH  30  31
ATOM     31  O   UNL     1      20.419   1.062   7.350  1.00  0.00    -0.461 OA
BRANCH  31  32
ATOM     32  C   UNL     1      19.978   1.558   8.583  1.00  0.00     0.338 C 
ATOM     33  O   UNL     1      19.302   2.622   8.636  1.00  0.00    -0.246 OA
BRANCH  32  34
ATOM     34  C   UNL     1      20.296   0.819   9.823  1.00  0.00     0.060 A 
ATOM     35  C   UNL     1      19.262   0.319  10.636  1.00  0.00     0.015 A 
ATOM     36  C   UNL     1      21.633   0.596  10.207  1.00  0.00     0.015 A 
ATOM     37  C   UNL     1      19.560  -0.387  11.806  1.00  0.00     0.001 A 
ATOM     38  C   UNL     1      21.924  -0.111  11.378  1.00  0.00     0.001 A 
ATOM     39  C   UNL     1      20.889  -0.602  12.177  1.00  0.00     0.000 A 
ENDBRANCH  32  34
ENDBRANCH  31  32
ENDBRANCH  30  31
ENDBRANCH   8  30
TORSDOF 12
ENDMDL
MODEL 7
REMARK VINA RESULT:    -4.799      2.137      5.957
REMARK INTER + INTRA:          -9.485
REMARK INTER:                  -7.558
REMARK INTRA:                  -1.927
REMARK UNBOUND:                -2.021
REMARK SMILES C[C@@]12C[C@@]3(O)O[C@@H](O1)[C@]1(COC(=O)c4ccccc4)[C@H]3C[C@@]12O[C@H]1O[C@H](CO)[C@H](O)[C@H](O)[C@H]1O
REMARK SMILES IDX 1 1 2 2 3 3 4 4 20 5 21 6 22 7 9 8 7 9 8 10 6 11 23 12 24 13
REMARK SMILES IDX 33 14 25 15 31 16 26 17 29 18 34 19 32 21 27 23 28 24 30 26
REMARK SMILES IDX 5 28 10 30 11 31 12 32 13 33 14 34 15 35 19 36 16 37 18 38
REMARK SMILES IDX 17 39
REMARK H PARENT 34 20 32 22 28 25 30 27 5 29
REMARK Flexibility Score: inf
ROOT
ATOM      1  C   UNL     1      17.660  -3.474   5.227  1.00  0.00     0.046 C 
ATOM      2  C   UNL     1      17.918  -2.291   4.292  1.00  0.00     0.104 C 
ATOM      3  C   UNL     1      17.380  -2.571   2.841  1.00  0.00     0.104 C 
ATOM      4  C   UNL     1      17.821  -1.295   2.040  1.00  0.00     0.175 C 
ATOM      5  C   UNL     1      19.331  -0.980   2.297  1.00  0.00     0.070 C 
ATOM      6  C   UNL     1      20.104  -2.177   2.872  1.00  0.00     0.050 C 
ATOM      7  C   UNL     1      19.426  -1.839   4.232  1.00  0.00     0.115 C 
ATOM      8  C   UNL     1      19.197  -0.421   3.710  1.00  0.00     0.096 C 
ATOM      9  C   UNL     1      17.725  -0.109   3.913  1.00  0.00     0.267 C 
ATOM     10  O   UNL     1      17.222  -1.145   4.741  1.00  0.00    -0.342 OA
ATOM     11  O   UNL     1      17.131  -0.212   2.628  1.00  0.00    -0.320 OA
ENDROOT
BRANCH   7  12
ATOM     12  O   UNL     1      20.076  -1.867   5.505  1.00  0.00    -0.339 OA
BRANCH  12  13
ATOM     13  C   UNL     1      21.131  -2.805   5.679  1.00  0.00     0.282 C 
ATOM     14  C   UNL     1      21.180  -3.396   7.111  1.00  0.00     0.202 C 
ATOM     15  O   UNL     1      22.370  -2.188   5.358  1.00  0.00    -0.341 OA
ATOM     16  C   UNL     1      21.584  -2.308   8.129  1.00  0.00     0.179 C 
ATOM     17  C   UNL     1      22.658  -1.095   6.218  1.00  0.00     0.178 C 
ATOM     18  C   UNL     1      22.864  -1.587   7.668  1.00  0.00     0.177 C 
BRANCH  14  19
ATOM     19  O   UNL     1      19.940  -3.951   7.458  1.00  0.00    -0.385 OA
ATOM     20  H   UNL     1      20.117  -4.870   7.790  1.00  0.00     0.211 HD
ENDBRANCH  14  19
BRANCH  16  21
ATOM     21  O   UNL     1      21.739  -2.837   9.423  1.00  0.00    -0.387 OA
ATOM     22  H   UNL     1      21.080  -2.394  10.019  1.00  0.00     0.211 HD
ENDBRANCH  16  21
BRANCH  17  23
ATOM     23  C   UNL     1      23.900  -0.370   5.686  1.00  0.00     0.191 C 
BRANCH  23  24
ATOM     24  O   UNL     1      23.572   0.938   5.302  1.00  0.00    -0.394 OA
ATOM     25  H   UNL     1      24.270   1.524   5.696  1.00  0.00     0.210 HD
ENDBRANCH  23  24
ENDBRANCH  17  23
BRANCH  18  26
ATOM     26  O   UNL     1      23.966  -2.459   7.719  1.00  0.00    -0.387 OA
ATOM     27  H   UNL     1      24.732  -1.939   8.077  1.00  0.00     0.211 HD
ENDBRANCH  18  26
ENDBRANCH  12  13
ENDBRANCH   7  12
BRANCH   4  28
ATOM     28  O   UNL     1      17.519  -1.390   0.675  1.00  0.00    -0.365 OA
ATOM     29  H   UNL     1      18.257  -1.904   0.255  1.00  0.00     0.214 HD
ENDBRANCH   4  28
BRANCH   8  30
ATOM     30  C   UNL     1      20.223   0.662   4.104  1.00  0.00     0.249 C 
BRANCH  30  31
ATOM     31  O   UNL     1      19.759   1.401   5.232  1.00  0.00    -0.461 OA
BRANCH  31  32
ATOM     32  C   UNL     1      20.594   2.084   6.124  1.00  0.00     0.338 C 
ATOM     33  O   UNL     1      21.279   3.068   5.727  1.00  0.00    -0.246 OA
BRANCH  32  34
ATOM     34  C   UNL     1      20.660   1.657   7.537  1.00  0.00     0.060 A 
ATOM     35  C   UNL     1      21.799   1.942   8.312  1.00  0.00     0.015 A 
ATOM     36  C   UNL     1      19.585   0.968   8.133  1.00  0.00     0.015 A 
ATOM     37  C   UNL     1      21.861   1.545   9.652  1.00  0.00     0.001 A 
ATOM     38  C   UNL     1      19.653   0.575   9.473  1.00  0.00     0.001 A 
ATOM     39  C   UNL     1      20.789   0.862  10.232  1.00  0.00     0.000 A 
ENDBRANCH  32  34
ENDBRANCH  31  32
ENDBRANCH  30  31
ENDBRANCH   8  30
TORSDOF 12
ENDMDL
MODEL 8
REMARK VINA RESULT:    -4.798      2.315      5.899
REMARK INTER + INTRA:          -9.484
REMARK INTER:                  -8.367
REMARK INTRA:                  -1.117
REMARK UNBOUND:                -2.021
REMARK SMILES C[C@@]12C[C@@]3(O)O[C@@H](O1)[C@]1(COC(=O)c4ccccc4)[C@H]3C[C@@]12O[C@H]1O[C@H](CO)[C@H](O)[C@H](O)[C@H]1O
REMARK SMILES IDX 1 1 2 2 3 3 4 4 20 5 21 6 22 7 9 8 7 9 8 10 6 11 23 12 24 13
REMARK SMILES IDX 33 14 25 15 31 16 26 17 29 18 34 19 32 21 27 23 28 24 30 26
REMARK SMILES IDX 5 28 10 30 11 31 12 32 13 33 14 34 15 35 19 36 16 37 18 38
REMARK SMILES IDX 17 39
REMARK H PARENT 34 20 32 22 28 25 30 27 5 29
REMARK Flexibility Score: inf
ROOT
ATOM      1  C   UNL     1      17.910  -0.284   5.632  1.00  0.00     0.046 C 
ATOM      2  C   UNL     1      18.442  -1.045   4.416  1.00  0.00     0.104 C 
ATOM      3  C   UNL     1      17.381  -2.064   3.861  1.00  0.00     0.104 C 
ATOM      4  C   UNL     1      18.148  -2.789   2.699  1.00  0.00     0.175 C 
ATOM      5  C   UNL     1      19.554  -3.269   3.185  1.00  0.00     0.070 C 
ATOM      6  C   UNL     1      19.672  -3.327   4.717  1.00  0.00     0.050 C 
ATOM      7  C   UNL     1      19.814  -1.778   4.668  1.00  0.00     0.115 C 
ATOM      8  C   UNL     1      20.249  -1.912   3.210  1.00  0.00     0.096 C 
ATOM      9  C   UNL     1      19.378  -0.967   2.401  1.00  0.00     0.267 C 
ATOM     10  O   UNL     1      18.706  -0.155   3.350  1.00  0.00    -0.342 OA
ATOM     11  O   UNL     1      18.430  -1.790   1.741  1.00  0.00    -0.320 OA
ENDROOT
BRANCH   7  12
ATOM     12  O   UNL     1      20.728  -1.011   5.455  1.00  0.00    -0.339 OA
BRANCH  12  13
ATOM     13  C   UNL     1      20.912  -1.403   6.810  1.00  0.00     0.282 C 
ATOM     14  C   UNL     1      21.292  -0.218   7.733  1.00  0.00     0.202 C 
ATOM     15  O   UNL     1      21.906  -2.417   6.877  1.00  0.00    -0.341 OA
ATOM     16  C   UNL     1      22.702   0.307   7.385  1.00  0.00     0.179 C 
ATOM     17  C   UNL     1      23.168  -1.956   6.416  1.00  0.00     0.178 C 
ATOM     18  C   UNL     1      23.714  -0.853   7.349  1.00  0.00     0.177 C 
BRANCH  14  19
ATOM     19  O   UNL     1      20.349   0.814   7.624  1.00  0.00    -0.385 OA
ATOM     20  H   UNL     1      20.784   1.553   7.124  1.00  0.00     0.211 HD
ENDBRANCH  14  19
BRANCH  16  21
ATOM     21  O   UNL     1      23.117   1.315   8.274  1.00  0.00    -0.387 OA
ATOM     22  H   UNL     1      22.923   1.011   9.199  1.00  0.00     0.211 HD
ENDBRANCH  16  21
BRANCH  17  23
ATOM     23  C   UNL     1      24.125  -3.152   6.336  1.00  0.00     0.191 C 
BRANCH  23  24
ATOM     24  O   UNL     1      23.450  -4.336   6.663  1.00  0.00    -0.394 OA
ATOM     25  H   UNL     1      23.300  -4.814   5.805  1.00  0.00     0.210 HD
ENDBRANCH  23  24
ENDBRANCH  17  23
BRANCH  18  26
ATOM     26  O   UNL     1      23.908  -1.377   8.639  1.00  0.00    -0.387 OA
ATOM     27  H   UNL     1      23.462  -0.759   9.275  1.00  0.00     0.211 HD
ENDBRANCH  18  26
ENDBRANCH  12  13
ENDBRANCH   7  12
BRANCH   4  28
ATOM     28  O   UNL     1      17.397  -3.824   2.127  1.00  0.00    -0.365 OA
ATOM     29  H   UNL     1      16.846  -4.213   2.855  1.00  0.00     0.214 HD
ENDBRANCH   4  28
BRANCH   8  30
ATOM     30  C   UNL     1      21.763  -1.927   2.912  1.00  0.00     0.249 C 
BRANCH  30  31
ATOM     31  O   UNL     1      22.052  -1.135   1.761  1.00  0.00    -0.461 OA
BRANCH  31  32
ATOM     32  C   UNL     1      22.404  -1.660   0.513  1.00  0.00     0.338 C 
ATOM     33  O   UNL     1      23.294  -2.551   0.425  1.00  0.00    -0.246 OA
BRANCH  32  34
ATOM     34  C   UNL     1      21.718  -1.175  -0.704  1.00  0.00     0.060 A 
ATOM     35  C   UNL     1      21.931  -1.814  -1.940  1.00  0.00     0.015 A 
ATOM     36  C   UNL     1      20.837  -0.078  -0.646  1.00  0.00     0.015 A 
ATOM     37  C   UNL     1      21.277  -1.362  -3.091  1.00  0.00     0.001 A 
ATOM     38  C   UNL     1      20.186   0.368  -1.800  1.00  0.00     0.001 A 
ATOM     39  C   UNL     1      20.406  -0.272  -3.021  1.00  0.00     0.000 A 
ENDBRANCH  32  34
ENDBRANCH  31  32
ENDBRANCH  30  31
ENDBRANCH   8  30
TORSDOF 12
ENDMDL
MODEL 9
REMARK VINA RESULT:    -4.761      1.918      4.901
REMARK INTER + INTRA:          -9.426
REMARK INTER:                  -7.730
REMARK INTRA:                  -1.696
REMARK UNBOUND:                -2.021
REMARK SMILES C[C@@]12C[C@@]3(O)O[C@@H](O1)[C@]1(COC(=O)c4ccccc4)[C@H]3C[C@@]12O[C@H]1O[C@H](CO)[C@H](O)[C@H](O)[C@H]1O
REMARK SMILES IDX 1 1 2 2 3 3 4 4 20 5 21 6 22 7 9 8 7 9 8 10 6 11 23 12 24 13
REMARK SMILES IDX 33 14 25 15 31 16 26 17 29 18 34 19 32 21 27 23 28 24 30 26
REMARK SMILES IDX 5 28 10 30 11 31 12 32 13 33 14 34 15 35 19 36 16 37 18 38
REMARK SMILES IDX 17 39
REMARK H PARENT 34 20 32 22 28 25 30 27 5 29
REMARK Flexibility Score: inf
ROOT
ATOM      1  C   UNL     1      18.512   2.147   3.378  1.00  0.00     0.046 C 
ATOM      2  C   UNL     1      18.985   1.684   4.757  1.00  0.00     0.104 C 
ATOM      3  C   UNL     1      18.869   2.833   5.824  1.00  0.00     0.104 C 
ATOM      4  C   UNL     1      19.481   2.188   7.118  1.00  0.00     0.175 C 
ATOM      5  C   UNL     1      20.855   1.514   6.799  1.00  0.00     0.070 C 
ATOM      6  C   UNL     1      21.472   2.006   5.480  1.00  0.00     0.050 C 
ATOM      7  C   UNL     1      20.442   1.083   4.766  1.00  0.00     0.115 C 
ATOM      8  C   UNL     1      20.329   0.286   6.065  1.00  0.00     0.096 C 
ATOM      9  C   UNL     1      18.850   0.187   6.394  1.00  0.00     0.267 C 
ATOM     10  O   UNL     1      18.166   0.636   5.236  1.00  0.00    -0.342 OA
ATOM     11  O   UNL     1      18.630   1.109   7.451  1.00  0.00    -0.320 OA
ENDROOT
BRANCH   7  12
ATOM     12  O   UNL     1      20.722   0.262   3.630  1.00  0.00    -0.339 OA
BRANCH  12  13
ATOM     13  C   UNL     1      21.787   0.666   2.779  1.00  0.00     0.282 C 
ATOM     14  C   UNL     1      21.495   0.398   1.280  1.00  0.00     0.202 C 
ATOM     15  O   UNL     1      22.983   0.006   3.173  1.00  0.00    -0.341 OA
ATOM     16  C   UNL     1      21.457  -1.120   1.002  1.00  0.00     0.179 C 
ATOM     17  C   UNL     1      22.879  -1.404   3.045  1.00  0.00     0.178 C 
ATOM     18  C   UNL     1      22.719  -1.802   1.561  1.00  0.00     0.177 C 
BRANCH  14  19
ATOM     19  O   UNL     1      20.284   0.993   0.900  1.00  0.00    -0.385 OA
ATOM     20  H   UNL     1      20.295   1.922   1.252  1.00  0.00     0.211 HD
ENDBRANCH  14  19
BRANCH  16  21
ATOM     21  O   UNL     1      21.297  -1.394  -0.369  1.00  0.00    -0.387 OA
ATOM     22  H   UNL     1      20.622  -2.116  -0.463  1.00  0.00     0.211 HD
ENDBRANCH  16  21
BRANCH  17  23
ATOM     23  C   UNL     1      24.125  -2.044   3.670  1.00  0.00     0.191 C 
BRANCH  23  24
ATOM     24  O   UNL     1      23.761  -2.867   4.745  1.00  0.00    -0.394 OA
ATOM     25  H   UNL     1      24.591  -3.332   5.028  1.00  0.00     0.210 HD
ENDBRANCH  23  24
ENDBRANCH  17  23
BRANCH  18  26
ATOM     26  O   UNL     1      23.856  -1.401   0.838  1.00  0.00    -0.387 OA
ATOM     27  H   UNL     1      23.564  -1.232  -0.095  1.00  0.00     0.211 HD
ENDBRANCH  18  26
ENDBRANCH  12  13
ENDBRANCH   7  12
BRANCH   4  28
ATOM     28  O   UNL     1      19.563   3.096   8.181  1.00  0.00    -0.365 OA
ATOM     29  H   UNL     1      18.734   2.984   8.717  1.00  0.00     0.214 HD
ENDBRANCH   4  28
BRANCH   8  30
ATOM     30  C   UNL     1      21.183  -0.993   6.197  1.00  0.00     0.249 C 
BRANCH  30  31
ATOM     31  O   UNL     1      20.409  -2.052   6.759  1.00  0.00    -0.461 OA
BRANCH  31  32
ATOM     32  C   UNL     1      20.184  -3.282   6.130  1.00  0.00     0.338 C 
ATOM     33  O   UNL     1      20.757  -4.325   6.549  1.00  0.00    -0.246 OA
BRANCH  32  34
ATOM     34  C   UNL     1      19.260  -3.355   4.978  1.00  0.00     0.060 A 
ATOM     35  C   UNL     1      19.741  -3.166   3.669  1.00  0.00     0.015 A 
ATOM     36  C   UNL     1      17.890  -3.621   5.169  1.00  0.00     0.015 A 
ATOM     37  C   UNL     1      18.870  -3.242   2.577  1.00  0.00     0.001 A 
ATOM     38  C   UNL     1      17.025  -3.696   4.073  1.00  0.00     0.001 A 
ATOM     39  C   UNL     1      17.514  -3.506   2.779  1.00  0.00     0.000 A 
ENDBRANCH  32  34
ENDBRANCH  31  32
ENDBRANCH  30  31
ENDBRANCH   8  30
TORSDOF 12
ENDMDL
