MODEL 1
REMARK VINA RESULT:    -4.182      0.000      0.000
REMARK INTER + INTRA:          -4.544
REMARK INTER:                  -4.426
REMARK INTRA:                  -0.118
REMARK UNBOUND:                -0.118
REMARK SMILES CC(C)[C@@H]1CC[C@@H](C)CC1=O
REMARK SMILES IDX 8 1 7 2 6 3 5 4 4 5 10 6 11 7 9 8 2 9 1 10 3 11
REMARK H PARENT
REMARK Flexibility Score: inf
ROOT
ATOM      1  C   UNL     1     -17.025 -19.238  13.141  1.00  0.00     0.008 C 
ATOM      2  C   UNL     1     -15.774 -19.665  13.915  1.00  0.00    -0.007 C 
ATOM      3  C   UNL     1     -15.537 -18.732  15.122  1.00  0.00     0.004 C 
ATOM      4  C   UNL     1     -14.274 -19.131  15.909  1.00  0.00     0.012 C 
ATOM      5  C   UNL     1     -13.014 -19.136  15.008  1.00  0.00     0.058 C 
ATOM      6  C   UNL     1     -13.322 -20.002  13.799  1.00  0.00     0.136 C 
ATOM      7  O   UNL     1     -12.654 -20.988  13.522  1.00  0.00    -0.299 OA
ATOM      8  C   UNL     1     -14.544 -19.680  12.990  1.00  0.00     0.079 C 
ENDROOT
BRANCH   5   9
ATOM      9  C   UNL     1     -11.717 -19.582  15.762  1.00  0.00    -0.007 C 
ATOM     10  C   UNL     1     -11.064 -18.387  16.483  1.00  0.00     0.008 C 
ATOM     11  C   UNL     1     -11.982 -20.690  16.798  1.00  0.00     0.008 C 
ENDBRANCH   5   9
TORSDOF 1
ENDMDL
MODEL 2
REMARK VINA RESULT:    -4.157      4.058      5.338
REMARK INTER + INTRA:          -4.518
REMARK INTER:                  -4.357
REMARK INTRA:                  -0.162
REMARK UNBOUND:                -0.118
REMARK SMILES CC(C)[C@@H]1CC[C@@H](C)CC1=O
REMARK SMILES IDX 8 1 7 2 6 3 5 4 4 5 10 6 11 7 9 8 2 9 1 10 3 11
REMARK H PARENT
REMARK Flexibility Score: inf
ROOT
ATOM      1  C   UNL     1     -14.967 -14.157  11.866  1.00  0.00     0.008 C 
ATOM      2  C   UNL     1     -15.811 -15.333  12.369  1.00  0.00    -0.007 C 
ATOM      3  C   UNL     1     -14.963 -16.267  13.259  1.00  0.00     0.004 C 
ATOM      4  C   UNL     1     -15.784 -17.468  13.765  1.00  0.00     0.012 C 
ATOM      5  C   UNL     1     -16.391 -18.283  12.595  1.00  0.00     0.058 C 
ATOM      6  C   UNL     1     -17.148 -17.311  11.707  1.00  0.00     0.136 C 
ATOM      7  O   UNL     1     -18.342 -17.439  11.478  1.00  0.00    -0.299 OA
ATOM      8  C   UNL     1     -16.415 -16.110  11.186  1.00  0.00     0.079 C 
ENDROOT
BRANCH   5   9
ATOM      9  C   UNL     1     -17.271 -19.486  13.071  1.00  0.00    -0.007 C 
ATOM     10  C   UNL     1     -16.974 -20.747  12.238  1.00  0.00     0.008 C 
ATOM     11  C   UNL     1     -17.063 -19.824  14.559  1.00  0.00     0.008 C 
ENDBRANCH   5   9
TORSDOF 1
ENDMDL
MODEL 3
REMARK VINA RESULT:    -4.152      1.753      4.328
REMARK INTER + INTRA:          -4.513
REMARK INTER:                  -4.339
REMARK INTRA:                  -0.174
REMARK UNBOUND:                -0.118
REMARK SMILES CC(C)[C@@H]1CC[C@@H](C)CC1=O
REMARK SMILES IDX 8 1 7 2 6 3 5 4 4 5 10 6 11 7 9 8 2 9 1 10 3 11
REMARK H PARENT
REMARK Flexibility Score: inf
ROOT
ATOM      1  C   UNL     1     -10.233 -21.360  14.487  1.00  0.00     0.008 C 
ATOM      2  C   UNL     1     -11.697 -20.941  14.653  1.00  0.00    -0.007 C 
ATOM      3  C   UNL     1     -12.346 -20.676  13.278  1.00  0.00     0.004 C 
ATOM      4  C   UNL     1     -13.816 -20.237  13.418  1.00  0.00     0.012 C 
ATOM      5  C   UNL     1     -13.957 -18.975  14.305  1.00  0.00     0.058 C 
ATOM      6  C   UNL     1     -13.238 -19.255  15.614  1.00  0.00     0.136 C 
ATOM      7  O   UNL     1     -13.814 -19.208  16.691  1.00  0.00    -0.299 OA
ATOM      8  C   UNL     1     -11.806 -19.698  15.554  1.00  0.00     0.079 C 
ENDROOT
BRANCH   5   9
ATOM      9  C   UNL     1     -15.441 -18.526  14.509  1.00  0.00    -0.007 C 
ATOM     10  C   UNL     1     -15.731 -17.222  13.740  1.00  0.00     0.008 C 
ATOM     11  C   UNL     1     -16.454 -19.593  14.057  1.00  0.00     0.008 C 
ENDBRANCH   5   9
TORSDOF 1
ENDMDL
MODEL 4
REMARK VINA RESULT:    -4.106     16.582     17.802
REMARK INTER + INTRA:          -4.464
REMARK INTER:                  -4.297
REMARK INTRA:                  -0.168
REMARK UNBOUND:                -0.118
REMARK SMILES CC(C)[C@@H]1CC[C@@H](C)CC1=O
REMARK SMILES IDX 8 1 7 2 6 3 5 4 4 5 10 6 11 7 9 8 2 9 1 10 3 11
REMARK H PARENT
REMARK Flexibility Score: inf
ROOT
ATOM      1  C   UNL     1     -19.482 -15.664  -1.665  1.00  0.00     0.008 C 
ATOM      2  C   UNL     1     -19.730 -14.412  -0.817  1.00  0.00    -0.007 C 
ATOM      3  C   UNL     1     -20.305 -13.273  -1.685  1.00  0.00     0.004 C 
ATOM      4  C   UNL     1     -20.549 -11.996  -0.858  1.00  0.00     0.012 C 
ATOM      5  C   UNL     1     -19.255 -11.508  -0.161  1.00  0.00     0.058 C 
ATOM      6  C   UNL     1     -18.685 -12.682   0.616  1.00  0.00     0.136 C 
ATOM      7  O   UNL     1     -18.507 -12.633   1.825  1.00  0.00    -0.299 OA
ATOM      8  C   UNL     1     -18.433 -13.964  -0.122  1.00  0.00     0.079 C 
ENDROOT
BRANCH   5   9
ATOM      9  C   UNL     1     -19.472 -10.238   0.727  1.00  0.00    -0.007 C 
ATOM     10  C   UNL     1     -18.507  -9.110   0.317  1.00  0.00     0.008 C 
ATOM     11  C   UNL     1     -20.913  -9.699   0.652  1.00  0.00     0.008 C 
ENDBRANCH   5   9
TORSDOF 1
ENDMDL
MODEL 5
REMARK VINA RESULT:    -3.975      2.808      4.057
REMARK INTER + INTRA:          -4.325
REMARK INTER:                  -4.154
REMARK INTRA:                  -0.171
REMARK UNBOUND:                -0.118
REMARK SMILES CC(C)[C@@H]1CC[C@@H](C)CC1=O
REMARK SMILES IDX 8 1 7 2 6 3 5 4 4 5 10 6 11 7 9 8 2 9 1 10 3 11
REMARK H PARENT
REMARK Flexibility Score: inf
ROOT
ATOM      1  C   UNL     1     -15.779 -16.507  13.803  1.00  0.00     0.008 C 
ATOM      2  C   UNL     1     -15.491 -18.011  13.752  1.00  0.00    -0.007 C 
ATOM      3  C   UNL     1     -14.096 -18.276  13.145  1.00  0.00     0.004 C 
ATOM      4  C   UNL     1     -13.788 -19.783  13.067  1.00  0.00     0.012 C 
ATOM      5  C   UNL     1     -14.858 -20.547  12.248  1.00  0.00     0.058 C 
ATOM      6  C   UNL     1     -16.216 -20.194  12.832  1.00  0.00     0.136 C 
ATOM      7  O   UNL     1     -16.971 -21.047  13.276  1.00  0.00    -0.299 OA
ATOM      8  C   UNL     1     -16.580 -18.743  12.950  1.00  0.00     0.079 C 
ENDROOT
BRANCH   5   9
ATOM      9  C   UNL     1     -14.604 -22.090  12.186  1.00  0.00    -0.007 C 
ATOM     10  C   UNL     1     -14.330 -22.542  10.739  1.00  0.00     0.008 C 
ATOM     11  C   UNL     1     -13.424 -22.535  13.068  1.00  0.00     0.008 C 
ENDBRANCH   5   9
TORSDOF 1
ENDMDL
MODEL 6
REMARK VINA RESULT:    -3.970      2.268      4.198
REMARK INTER + INTRA:          -4.320
REMARK INTER:                  -4.163
REMARK INTRA:                  -0.157
REMARK UNBOUND:                -0.118
REMARK SMILES CC(C)[C@@H]1CC[C@@H](C)CC1=O
REMARK SMILES IDX 8 1 7 2 6 3 5 4 4 5 10 6 11 7 9 8 2 9 1 10 3 11
REMARK H PARENT
REMARK Flexibility Score: inf
ROOT
ATOM      1  C   UNL     1     -12.562 -23.134  10.832  1.00  0.00     0.008 C 
ATOM      2  C   UNL     1     -13.322 -22.423  11.957  1.00  0.00    -0.007 C 
ATOM      3  C   UNL     1     -14.773 -22.122  11.525  1.00  0.00     0.004 C 
ATOM      4  C   UNL     1     -15.556 -21.392  12.633  1.00  0.00     0.012 C 
ATOM      5  C   UNL     1     -14.861 -20.073  13.054  1.00  0.00     0.058 C 
ATOM      6  C   UNL     1     -13.418 -20.407  13.394  1.00  0.00     0.136 C 
ATOM      7  O   UNL     1     -12.944 -20.178  14.497  1.00  0.00    -0.299 OA
ATOM      8  C   UNL     1     -12.597 -21.129  12.366  1.00  0.00     0.079 C 
ENDROOT
BRANCH   5   9
ATOM      9  C   UNL     1     -15.602 -19.326  14.211  1.00  0.00    -0.007 C 
ATOM     10  C   UNL     1     -15.568 -17.802  13.990  1.00  0.00     0.008 C 
ATOM     11  C   UNL     1     -17.071 -19.765  14.359  1.00  0.00     0.008 C 
ENDBRANCH   5   9
TORSDOF 1
ENDMDL
MODEL 7
REMARK VINA RESULT:    -3.912      2.624      3.702
REMARK INTER + INTRA:          -4.258
REMARK INTER:                  -4.123
REMARK INTRA:                  -0.135
REMARK UNBOUND:                -0.118
REMARK SMILES CC(C)[C@@H]1CC[C@@H](C)CC1=O
REMARK SMILES IDX 8 1 7 2 6 3 5 4 4 5 10 6 11 7 9 8 2 9 1 10 3 11
REMARK H PARENT
REMARK Flexibility Score: inf
ROOT
ATOM      1  C   UNL     1     -17.901 -15.618  11.049  1.00  0.00     0.008 C 
ATOM      2  C   UNL     1     -17.376 -16.475  12.206  1.00  0.00    -0.007 C 
ATOM      3  C   UNL     1     -16.017 -15.941  12.704  1.00  0.00     0.004 C 
ATOM      4  C   UNL     1     -15.459 -16.796  13.858  1.00  0.00     0.012 C 
ATOM      5  C   UNL     1     -15.309 -18.283  13.451  1.00  0.00     0.058 C 
ATOM      6  C   UNL     1     -16.647 -18.741  12.896  1.00  0.00     0.136 C 
ATOM      7  O   UNL     1     -17.266 -19.674  13.386  1.00  0.00    -0.299 OA
ATOM      8  C   UNL     1     -17.257 -17.948  11.777  1.00  0.00     0.079 C 
ENDROOT
BRANCH   5   9
ATOM      9  C   UNL     1     -14.789 -19.192  14.613  1.00  0.00    -0.007 C 
ATOM     10  C   UNL     1     -13.249 -19.216  14.643  1.00  0.00     0.008 C 
ATOM     11  C   UNL     1     -15.296 -18.741  15.995  1.00  0.00     0.008 C 
ENDBRANCH   5   9
TORSDOF 1
ENDMDL
MODEL 8
REMARK VINA RESULT:    -3.892      3.228      4.174
REMARK INTER + INTRA:          -4.238
REMARK INTER:                  -4.067
REMARK INTRA:                  -0.171
REMARK UNBOUND:                -0.118
REMARK SMILES CC(C)[C@@H]1CC[C@@H](C)CC1=O
REMARK SMILES IDX 8 1 7 2 6 3 5 4 4 5 10 6 11 7 9 8 2 9 1 10 3 11
REMARK H PARENT
REMARK Flexibility Score: inf
ROOT
ATOM      1  C   UNL     1     -15.103 -15.577  13.688  1.00  0.00     0.008 C 
ATOM      2  C   UNL     1     -15.531 -16.948  13.154  1.00  0.00    -0.007 C 
ATOM      3  C   UNL     1     -15.728 -17.945  14.315  1.00  0.00     0.004 C 
ATOM      4  C   UNL     1     -16.143 -19.338  13.803  1.00  0.00     0.012 C 
ATOM      5  C   UNL     1     -15.111 -19.913  12.801  1.00  0.00     0.058 C 
ATOM      6  C   UNL     1     -14.891 -18.867  11.722  1.00  0.00     0.136 C 
ATOM      7  O   UNL     1     -15.105 -19.100  10.541  1.00  0.00    -0.299 OA
ATOM      8  C   UNL     1     -14.496 -17.483  12.148  1.00  0.00     0.079 C 
ENDROOT
BRANCH   5   9
ATOM      9  C   UNL     1     -15.522 -21.308  12.223  1.00  0.00    -0.007 C 
ATOM     10  C   UNL     1     -14.498 -22.388  12.619  1.00  0.00     0.008 C 
ATOM     11  C   UNL     1     -16.916 -21.761  12.695  1.00  0.00     0.008 C 
ENDBRANCH   5   9
TORSDOF 1
ENDMDL
MODEL 9
REMARK VINA RESULT:    -3.879      1.821      4.742
REMARK INTER + INTRA:          -4.224
REMARK INTER:                  -4.063
REMARK INTRA:                  -0.160
REMARK UNBOUND:                -0.118
REMARK SMILES CC(C)[C@@H]1CC[C@@H](C)CC1=O
REMARK SMILES IDX 8 1 7 2 6 3 5 4 4 5 10 6 11 7 9 8 2 9 1 10 3 11
REMARK H PARENT
REMARK Flexibility Score: inf
ROOT
ATOM      1  C   UNL     1     -11.004 -20.010  14.679  1.00  0.00     0.008 C 
ATOM      2  C   UNL     1     -12.513 -20.239  14.548  1.00  0.00    -0.007 C 
ATOM      3  C   UNL     1     -12.847 -20.901  13.195  1.00  0.00     0.004 C 
ATOM      4  C   UNL     1     -14.361 -21.128  13.030  1.00  0.00     0.012 C 
ATOM      5  C   UNL     1     -15.158 -19.806  13.166  1.00  0.00     0.058 C 
ATOM      6  C   UNL     1     -14.740 -19.153  14.472  1.00  0.00     0.136 C 
ATOM      7  O   UNL     1     -15.545 -18.900  15.356  1.00  0.00    -0.299 OA
ATOM      8  C   UNL     1     -13.277 -18.912  14.707  1.00  0.00     0.079 C 
ENDROOT
BRANCH   5   9
ATOM      9  C   UNL     1     -16.706 -20.003  13.051  1.00  0.00    -0.007 C 
ATOM     10  C   UNL     1     -17.340 -18.882  12.205  1.00  0.00     0.008 C 
ATOM     11  C   UNL     1     -17.089 -21.359  12.431  1.00  0.00     0.008 C 
ENDBRANCH   5   9
TORSDOF 1
ENDMDL
