MODEL 1
REMARK VINA RESULT:    -7.556      0.000      0.000
REMARK INTER + INTRA:         -24.207
REMARK INTER:                 -17.937
REMARK INTRA:                  -6.270
REMARK UNBOUND:                -6.270
REMARK SMILES O=C(OC[C@@H]1O[C@@H](OC(=O)c2cc(O)c(O)c(O)c2)[C@@H](OC(=O)c2cc(O)c(O)c(O)c2)[C@H](OC(=O)c2cc(O)c(O)c(O)c2)[C@@H]1OC(=O)c1cc(O)c(O)c(O)c1)c1cc(O)c(O)c(O)c1
REMARK SMILES IDX 5 1 46 2 33 3 20 4 7 5 6 6 4 7 3 8 2 9 1 10 59 11 60 12
REMARK SMILES IDX 61 13 67 14 63 15 65 16 62 17 64 19 66 21 47 23 48 24 49 25
REMARK SMILES IDX 50 26 58 27 51 28 56 29 52 30 54 31 57 32 53 34 55 36 34 38
REMARK SMILES IDX 35 39 36 40 37 41 45 42 38 43 43 44 39 45 41 46 44 47 40 49
REMARK SMILES IDX 42 51 8 53 9 54 10 55 11 56 19 57 12 58 17 59 13 60 15 61
REMARK SMILES IDX 18 62 14 64 16 66 21 68 22 69 23 70 24 71 32 72 25 73 30 74
REMARK SMILES IDX 26 75 28 76 31 77 27 79 29 81
REMARK H PARENT 62 18 64 20 66 22 57 33 53 35 55 37 44 48 40 50 42 52 18 63
REMARK H PARENT 14 65 16 67 31 78 27 80 29 82
REMARK Flexibility Score: inf
ROOT
ATOM      1  C   UNL     1      42.088  26.215  22.462  1.00  0.00     0.205 C 
ATOM      2  C   UNL     1      43.051  27.403  22.679  1.00  0.00     0.254 C 
ATOM      3  C   UNL     1      42.446  28.360  23.726  1.00  0.00     0.267 C 
ATOM      4  C   UNL     1      41.010  28.743  23.325  1.00  0.00     0.290 C 
ATOM      5  C   UNL     1      40.189  27.477  23.018  1.00  0.00     0.357 C 
ATOM      6  O   UNL     1      40.818  26.679  22.027  1.00  0.00    -0.329 OA
ENDROOT
BRANCH   1   7
ATOM      7  C   UNL     1      42.649  25.231  21.421  1.00  0.00     0.269 C 
BRANCH   7   8
ATOM      8  O   UNL     1      42.872  23.951  22.009  1.00  0.00    -0.459 OA
BRANCH   8   9
ATOM      9  C   UNL     1      43.377  22.845  21.314  1.00  0.00     0.338 C 
ATOM     10  O   UNL     1      42.590  21.999  20.811  1.00  0.00    -0.246 OA
BRANCH   9  11
ATOM     11  C   UNL     1      44.839  22.694  21.144  1.00  0.00     0.067 A 
ATOM     12  C   UNL     1      45.371  21.494  20.654  1.00  0.00     0.066 A 
ATOM     13  C   UNL     1      46.750  21.332  20.505  1.00  0.00     0.162 A 
ATOM     14  C   UNL     1      45.711  23.741  21.476  1.00  0.00     0.066 A 
ATOM     15  C   UNL     1      47.625  22.378  20.848  1.00  0.00     0.200 A 
ATOM     16  C   UNL     1      47.095  23.600  21.332  1.00  0.00     0.162 A 
BRANCH  13  17
ATOM     17  O   UNL     1      47.237  20.113  20.029  1.00  0.00    -0.504 OA
ATOM     18  H   UNL     1      47.427  19.951  19.047  1.00  0.00     0.293 HD
ENDBRANCH  13  17
BRANCH  15  19
ATOM     19  O   UNL     1      49.000  22.169  20.704  1.00  0.00    -0.502 OA
ATOM     20  H   UNL     1      49.707  22.749  21.126  1.00  0.00     0.293 HD
ENDBRANCH  15  19
BRANCH  16  21
ATOM     21  O   UNL     1      47.899  24.692  21.670  1.00  0.00    -0.504 OA
ATOM     22  H   UNL     1      47.667  25.372  22.376  1.00  0.00     0.293 HD
ENDBRANCH  16  21
ENDBRANCH   9  11
ENDBRANCH   8   9
ENDBRANCH   7   8
ENDBRANCH   1   7
BRANCH   2  23
ATOM     23  O   UNL     1      43.240  28.094  21.444  1.00  0.00    -0.452 OA
BRANCH  23  24
ATOM     24  C   UNL     1      44.473  28.599  21.009  1.00  0.00     0.338 C 
ATOM     25  O   UNL     1      45.430  27.815  20.761  1.00  0.00    -0.246 OA
BRANCH  24  26
ATOM     26  C   UNL     1      44.645  30.056  20.840  1.00  0.00     0.067 A 
ATOM     27  C   UNL     1      45.928  30.632  20.843  1.00  0.00     0.066 A 
ATOM     28  C   UNL     1      43.525  30.881  20.664  1.00  0.00     0.066 A 
ATOM     29  C   UNL     1      46.090  32.009  20.673  1.00  0.00     0.162 A 
ATOM     30  C   UNL     1      43.677  32.261  20.501  1.00  0.00     0.162 A 
ATOM     31  C   UNL     1      44.962  32.832  20.506  1.00  0.00     0.200 A 
BRANCH  29  32
ATOM     32  O   UNL     1      47.380  32.543  20.653  1.00  0.00    -0.504 OA
ATOM     33  H   UNL     1      47.566  33.480  20.316  1.00  0.00     0.293 HD
ENDBRANCH  29  32
BRANCH  30  34
ATOM     34  O   UNL     1      42.553  33.074  20.338  1.00  0.00    -0.504 OA
ATOM     35  H   UNL     1      42.548  34.035  20.664  1.00  0.00     0.293 HD
ENDBRANCH  30  34
BRANCH  31  36
ATOM     36  O   UNL     1      45.131  34.207  20.338  1.00  0.00    -0.502 OA
ATOM     37  H   UNL     1      45.374  34.821  21.111  1.00  0.00     0.293 HD
ENDBRANCH  31  36
ENDBRANCH  24  26
ENDBRANCH  23  24
ENDBRANCH   2  23
BRANCH   3  38
ATOM     38  O   UNL     1      43.229  29.548  23.841  1.00  0.00    -0.450 OA
BRANCH  38  39
ATOM     39  C   UNL     1      43.310  30.335  24.994  1.00  0.00     0.338 C 
ATOM     40  O   UNL     1      43.804  29.858  26.052  1.00  0.00    -0.246 OA
BRANCH  39  41
ATOM     41  C   UNL     1      42.805  31.728  24.965  1.00  0.00     0.067 A 
ATOM     42  C   UNL     1      41.919  32.202  25.947  1.00  0.00     0.066 A 
ATOM     43  C   UNL     1      43.207  32.596  23.937  1.00  0.00     0.066 A 
ATOM     44  C   UNL     1      41.415  33.509  25.887  1.00  0.00     0.162 A 
ATOM     45  C   UNL     1      42.709  33.900  23.867  1.00  0.00     0.162 A 
ATOM     46  C   UNL     1      41.806  34.360  24.839  1.00  0.00     0.200 A 
BRANCH  44  47
ATOM     47  O   UNL     1      40.525  33.967  26.863  1.00  0.00    -0.504 OA
ATOM     48  H   UNL     1      39.920  34.765  26.704  1.00  0.00     0.293 HD
ENDBRANCH  44  47
BRANCH  45  49
ATOM     49  O   UNL     1      43.125  34.730  22.826  1.00  0.00    -0.504 OA
ATOM     50  H   UNL     1      42.704  35.634  22.660  1.00  0.00     0.293 HD
ENDBRANCH  45  49
BRANCH  46  51
ATOM     51  O   UNL     1      41.311  35.661  24.755  1.00  0.00    -0.502 OA
ATOM     52  H   UNL     1      41.555  36.383  25.424  1.00  0.00     0.293 HD
ENDBRANCH  46  51
ENDBRANCH  39  41
ENDBRANCH  38  39
ENDBRANCH   3  38
BRANCH   5  53
ATOM     53  O   UNL     1      39.961  26.718  24.207  1.00  0.00    -0.428 OA
BRANCH  53  54
ATOM     54  C   UNL     1      38.822  25.929  24.412  1.00  0.00     0.340 C 
ATOM     55  O   UNL     1      37.907  26.325  25.185  1.00  0.00    -0.246 OA
BRANCH  54  56
ATOM     56  C   UNL     1      38.715  24.616  23.737  1.00  0.00     0.067 A 
ATOM     57  C   UNL     1      37.523  24.252  23.089  1.00  0.00     0.066 A 
ATOM     58  C   UNL     1      39.802  23.727  23.726  1.00  0.00     0.066 A 
ATOM     59  C   UNL     1      37.413  23.011  22.445  1.00  0.00     0.162 A 
ATOM     60  C   UNL     1      39.702  22.489  23.077  1.00  0.00     0.162 A 
ATOM     61  C   UNL     1      38.504  22.124  22.441  1.00  0.00     0.200 A 
BRANCH  59  62
ATOM     62  O   UNL     1      36.227  22.654  21.809  1.00  0.00    -0.504 OA
ATOM     63  H   UNL     1      36.219  22.037  21.005  1.00  0.00     0.293 HD
ENDBRANCH  59  62
BRANCH  60  64
ATOM     64  O   UNL     1      40.794  21.622  23.083  1.00  0.00    -0.504 OA
ATOM     65  H   UNL     1      40.683  20.620  22.983  1.00  0.00     0.293 HD
ENDBRANCH  60  64
BRANCH  61  66
ATOM     66  O   UNL     1      38.415  20.881  21.809  1.00  0.00    -0.502 OA
ATOM     67  H   UNL     1      38.004  20.071  22.271  1.00  0.00     0.293 HD
ENDBRANCH  61  66
ENDBRANCH  54  56
ENDBRANCH  53  54
ENDBRANCH   5  53
BRANCH   4  68
ATOM     68  O   UNL     1      40.378  29.473  24.381  1.00  0.00    -0.448 OA
BRANCH  68  69
ATOM     69  C   UNL     1      39.069  29.973  24.302  1.00  0.00     0.339 C 
ATOM     70  O   UNL     1      38.187  29.563  25.105  1.00  0.00    -0.246 OA
BRANCH  69  71
ATOM     71  C   UNL     1      38.732  31.011  23.306  1.00  0.00     0.067 A 
ATOM     72  C   UNL     1      39.675  31.990  22.945  1.00  0.00     0.066 A 
ATOM     73  C   UNL     1      37.464  31.030  22.702  1.00  0.00     0.066 A 
ATOM     74  C   UNL     1      39.367  32.951  21.972  1.00  0.00     0.162 A 
ATOM     75  C   UNL     1      37.138  31.995  21.739  1.00  0.00     0.162 A 
ATOM     76  C   UNL     1      38.107  32.955  21.356  1.00  0.00     0.200 A 
BRANCH  74  77
ATOM     77  O   UNL     1      40.315  33.904  21.598  1.00  0.00    -0.504 OA
ATOM     78  H   UNL     1      40.724  33.907  20.676  1.00  0.00     0.293 HD
ENDBRANCH  74  77
BRANCH  75  79
ATOM     79  O   UNL     1      35.845  31.965  21.206  1.00  0.00    -0.504 OA
ATOM     80  H   UNL     1      35.150  31.278  21.449  1.00  0.00     0.293 HD
ENDBRANCH  75  79
BRANCH  76  81
ATOM     81  O   UNL     1      37.860  33.910  20.368  1.00  0.00    -0.502 OA
ATOM     82  H   UNL     1      38.556  34.227  19.716  1.00  0.00     0.293 HD
ENDBRANCH  76  81
ENDBRANCH  69  71
ENDBRANCH  68  69
ENDBRANCH   4  68
TORSDOF 31
ENDMDL
MODEL 2
REMARK VINA RESULT:    -7.539      0.121      2.063
REMARK INTER + INTRA:         -24.167
REMARK INTER:                 -18.001
REMARK INTRA:                  -6.167
REMARK UNBOUND:                -6.270
REMARK SMILES O=C(OC[C@@H]1O[C@@H](OC(=O)c2cc(O)c(O)c(O)c2)[C@@H](OC(=O)c2cc(O)c(O)c(O)c2)[C@H](OC(=O)c2cc(O)c(O)c(O)c2)[C@@H]1OC(=O)c1cc(O)c(O)c(O)c1)c1cc(O)c(O)c(O)c1
REMARK SMILES IDX 5 1 46 2 33 3 20 4 7 5 6 6 4 7 3 8 2 9 1 10 59 11 60 12
REMARK SMILES IDX 61 13 67 14 63 15 65 16 62 17 64 19 66 21 47 23 48 24 49 25
REMARK SMILES IDX 50 26 58 27 51 28 56 29 52 30 54 31 57 32 53 34 55 36 34 38
REMARK SMILES IDX 35 39 36 40 37 41 45 42 38 43 43 44 39 45 41 46 44 47 40 49
REMARK SMILES IDX 42 51 8 53 9 54 10 55 11 56 19 57 12 58 17 59 13 60 15 61
REMARK SMILES IDX 18 62 14 64 16 66 21 68 22 69 23 70 24 71 32 72 25 73 30 74
REMARK SMILES IDX 26 75 28 76 31 77 27 79 29 81
REMARK H PARENT 62 18 64 20 66 22 57 33 53 35 55 37 44 48 40 50 42 52 18 63
REMARK H PARENT 14 65 16 67 31 78 27 80 29 82
REMARK Flexibility Score: inf
ROOT
ATOM      1  C   UNL     1      42.069  26.167  22.467  1.00  0.00     0.205 C 
ATOM      2  C   UNL     1      43.056  27.335  22.687  1.00  0.00     0.254 C 
ATOM      3  C   UNL     1      42.477  28.295  23.745  1.00  0.00     0.267 C 
ATOM      4  C   UNL     1      41.046  28.709  23.356  1.00  0.00     0.290 C 
ATOM      5  C   UNL     1      40.199  27.461  23.046  1.00  0.00     0.357 C 
ATOM      6  O   UNL     1      40.806  26.659  22.045  1.00  0.00    -0.329 OA
ENDROOT
BRANCH   1   7
ATOM      7  C   UNL     1      42.604  25.180  21.416  1.00  0.00     0.269 C 
BRANCH   7   8
ATOM      8  O   UNL     1      42.877  23.912  22.009  1.00  0.00    -0.459 OA
BRANCH   8   9
ATOM      9  C   UNL     1      43.348  22.799  21.302  1.00  0.00     0.338 C 
ATOM     10  O   UNL     1      42.536  21.985  20.787  1.00  0.00    -0.246 OA
BRANCH   9  11
ATOM     11  C   UNL     1      44.805  22.604  21.135  1.00  0.00     0.067 A 
ATOM     12  C   UNL     1      45.685  23.680  21.310  1.00  0.00     0.066 A 
ATOM     13  C   UNL     1      47.061  23.513  21.138  1.00  0.00     0.162 A 
ATOM     14  C   UNL     1      45.324  21.346  20.793  1.00  0.00     0.066 A 
ATOM     15  C   UNL     1      47.581  22.255  20.784  1.00  0.00     0.200 A 
ATOM     16  C   UNL     1      46.699  21.158  20.619  1.00  0.00     0.162 A 
BRANCH  13  17
ATOM     17  O   UNL     1      47.899  24.617  21.305  1.00  0.00    -0.504 OA
ATOM     18  H   UNL     1      48.648  24.631  21.988  1.00  0.00     0.293 HD
ENDBRANCH  13  17
BRANCH  15  19
ATOM     19  O   UNL     1      48.962  22.134  20.601  1.00  0.00    -0.502 OA
ATOM     20  H   UNL     1      49.417  22.157  19.702  1.00  0.00     0.293 HD
ENDBRANCH  15  19
BRANCH  16  21
ATOM     21  O   UNL     1      47.143  19.873  20.292  1.00  0.00    -0.504 OA
ATOM     22  H   UNL     1      47.757  19.663  19.522  1.00  0.00     0.293 HD
ENDBRANCH  16  21
ENDBRANCH   9  11
ENDBRANCH   8   9
ENDBRANCH   7   8
ENDBRANCH   1   7
BRANCH   2  23
ATOM     23  O   UNL     1      43.250  28.031  21.455  1.00  0.00    -0.452 OA
BRANCH  23  24
ATOM     24  C   UNL     1      44.486  28.534  21.026  1.00  0.00     0.338 C 
ATOM     25  O   UNL     1      45.445  27.749  20.789  1.00  0.00    -0.246 OA
BRANCH  24  26
ATOM     26  C   UNL     1      44.658  29.990  20.848  1.00  0.00     0.067 A 
ATOM     27  C   UNL     1      43.544  30.825  20.654  1.00  0.00     0.066 A 
ATOM     28  C   UNL     1      45.940  30.557  20.882  1.00  0.00     0.066 A 
ATOM     29  C   UNL     1      43.707  32.204  20.495  1.00  0.00     0.162 A 
ATOM     30  C   UNL     1      46.114  31.934  20.718  1.00  0.00     0.162 A 
ATOM     31  C   UNL     1      44.996  32.764  20.522  1.00  0.00     0.200 A 
BRANCH  29  32
ATOM     32  O   UNL     1      42.576  33.006  20.333  1.00  0.00    -0.504 OA
ATOM     33  H   UNL     1      41.883  33.108  21.065  1.00  0.00     0.293 HD
ENDBRANCH  29  32
BRANCH  30  34
ATOM     34  O   UNL     1      47.396  32.485  20.741  1.00  0.00    -0.504 OA
ATOM     35  H   UNL     1      47.712  33.114  20.010  1.00  0.00     0.293 HD
ENDBRANCH  30  34
BRANCH  31  36
ATOM     36  O   UNL     1      45.152  34.142  20.362  1.00  0.00    -0.502 OA
ATOM     37  H   UNL     1      45.064  34.595  19.457  1.00  0.00     0.293 HD
ENDBRANCH  31  36
ENDBRANCH  24  26
ENDBRANCH  23  24
ENDBRANCH   2  23
BRANCH   3  38
ATOM     38  O   UNL     1      43.284  29.467  23.862  1.00  0.00    -0.450 OA
BRANCH  38  39
ATOM     39  C   UNL     1      43.344  30.277  25.001  1.00  0.00     0.338 C 
ATOM     40  O   UNL     1      43.818  29.820  26.078  1.00  0.00    -0.246 OA
BRANCH  39  41
ATOM     41  C   UNL     1      42.840  31.668  24.936  1.00  0.00     0.067 A 
ATOM     42  C   UNL     1      43.228  32.536  23.901  1.00  0.00     0.066 A 
ATOM     43  C   UNL     1      41.964  32.142  25.926  1.00  0.00     0.066 A 
ATOM     44  C   UNL     1      42.778  33.864  23.872  1.00  0.00     0.162 A 
ATOM     45  C   UNL     1      41.511  33.463  25.906  1.00  0.00     0.162 A 
ATOM     46  C   UNL     1      41.921  34.332  24.882  1.00  0.00     0.200 A 
BRANCH  44  47
ATOM     47  O   UNL     1      43.180  34.722  22.843  1.00  0.00    -0.504 OA
ATOM     48  H   UNL     1      43.300  34.395  21.890  1.00  0.00     0.293 HD
ENDBRANCH  44  47
BRANCH  45  49
ATOM     49  O   UNL     1      40.648  33.899  26.913  1.00  0.00    -0.504 OA
ATOM     50  H   UNL     1      39.720  34.246  26.710  1.00  0.00     0.293 HD
ENDBRANCH  45  49
BRANCH  46  51
ATOM     51  O   UNL     1      41.467  35.651  24.878  1.00  0.00    -0.502 OA
ATOM     52  H   UNL     1      40.829  36.006  24.174  1.00  0.00     0.293 HD
ENDBRANCH  46  51
ENDBRANCH  39  41
ENDBRANCH  38  39
ENDBRANCH   3  38
BRANCH   5  53
ATOM     53  O   UNL     1      39.964  26.698  24.231  1.00  0.00    -0.428 OA
BRANCH  53  54
ATOM     54  C   UNL     1      38.824  25.908  24.427  1.00  0.00     0.340 C 
ATOM     55  O   UNL     1      37.907  26.300  25.199  1.00  0.00    -0.246 OA
BRANCH  54  56
ATOM     56  C   UNL     1      38.719  24.599  23.745  1.00  0.00     0.067 A 
ATOM     57  C   UNL     1      37.531  24.240  23.087  1.00  0.00     0.066 A 
ATOM     58  C   UNL     1      39.806  23.709  23.736  1.00  0.00     0.066 A 
ATOM     59  C   UNL     1      37.424  23.003  22.436  1.00  0.00     0.162 A 
ATOM     60  C   UNL     1      39.708  22.474  23.080  1.00  0.00     0.162 A 
ATOM     61  C   UNL     1      38.514  22.115  22.435  1.00  0.00     0.200 A 
BRANCH  59  62
ATOM     62  O   UNL     1      36.242  22.652  21.789  1.00  0.00    -0.504 OA
ATOM     63  H   UNL     1      35.442  23.273  21.768  1.00  0.00     0.293 HD
ENDBRANCH  59  62
BRANCH  60  64
ATOM     64  O   UNL     1      40.798  21.605  23.089  1.00  0.00    -0.504 OA
ATOM     65  H   UNL     1      41.746  21.936  23.235  1.00  0.00     0.293 HD
ENDBRANCH  60  64
BRANCH  61  66
ATOM     66  O   UNL     1      38.427  20.875  21.796  1.00  0.00    -0.502 OA
ATOM     67  H   UNL     1      39.017  20.639  20.998  1.00  0.00     0.293 HD
ENDBRANCH  61  66
ENDBRANCH  54  56
ENDBRANCH  53  54
ENDBRANCH   5  53
BRANCH   4  68
ATOM     68  O   UNL     1      40.435  29.443  24.422  1.00  0.00    -0.448 OA
BRANCH  68  69
ATOM     69  C   UNL     1      39.124  29.939  24.370  1.00  0.00     0.339 C 
ATOM     70  O   UNL     1      38.264  29.539  25.200  1.00  0.00    -0.246 OA
BRANCH  69  71
ATOM     71  C   UNL     1      38.759  30.962  23.367  1.00  0.00     0.067 A 
ATOM     72  C   UNL     1      37.466  30.991  22.813  1.00  0.00     0.066 A 
ATOM     73  C   UNL     1      39.698  31.922  22.958  1.00  0.00     0.066 A 
ATOM     74  C   UNL     1      37.109  31.983  21.889  1.00  0.00     0.162 A 
ATOM     75  C   UNL     1      39.359  32.910  22.024  1.00  0.00     0.162 A 
ATOM     76  C   UNL     1      38.043  32.953  21.498  1.00  0.00     0.200 A 
BRANCH  74  77
ATOM     77  O   UNL     1      35.818  32.024  21.363  1.00  0.00    -0.504 OA
ATOM     78  H   UNL     1      35.564  31.484  20.549  1.00  0.00     0.293 HD
ENDBRANCH  74  77
BRANCH  75  79
ATOM     79  O   UNL     1      40.358  33.812  21.645  1.00  0.00    -0.504 OA
ATOM     80  H   UNL     1      40.726  33.888  20.710  1.00  0.00     0.293 HD
ENDBRANCH  75  79
BRANCH  76  81
ATOM     81  O   UNL     1      37.631  33.942  20.603  1.00  0.00    -0.502 OA
ATOM     82  H   UNL     1      36.824  34.524  20.752  1.00  0.00     0.293 HD
ENDBRANCH  76  81
ENDBRANCH  69  71
ENDBRANCH  68  69
ENDBRANCH   4  68
TORSDOF 31
ENDMDL
MODEL 3
REMARK VINA RESULT:    -7.455      2.631      9.145
REMARK INTER + INTRA:         -23.968
REMARK INTER:                 -18.024
REMARK INTRA:                  -5.944
REMARK UNBOUND:                -6.270
REMARK SMILES O=C(OC[C@@H]1O[C@@H](OC(=O)c2cc(O)c(O)c(O)c2)[C@@H](OC(=O)c2cc(O)c(O)c(O)c2)[C@H](OC(=O)c2cc(O)c(O)c(O)c2)[C@@H]1OC(=O)c1cc(O)c(O)c(O)c1)c1cc(O)c(O)c(O)c1
REMARK SMILES IDX 5 1 46 2 33 3 20 4 7 5 6 6 4 7 3 8 2 9 1 10 59 11 60 12
REMARK SMILES IDX 61 13 67 14 63 15 65 16 62 17 64 19 66 21 47 23 48 24 49 25
REMARK SMILES IDX 50 26 58 27 51 28 56 29 52 30 54 31 57 32 53 34 55 36 34 38
REMARK SMILES IDX 35 39 36 40 37 41 45 42 38 43 43 44 39 45 41 46 44 47 40 49
REMARK SMILES IDX 42 51 8 53 9 54 10 55 11 56 19 57 12 58 17 59 13 60 15 61
REMARK SMILES IDX 18 62 14 64 16 66 21 68 22 69 23 70 24 71 32 72 25 73 30 74
REMARK SMILES IDX 26 75 28 76 31 77 27 79 29 81
REMARK H PARENT 62 18 64 20 66 22 57 33 53 35 55 37 44 48 40 50 42 52 18 63
REMARK H PARENT 14 65 16 67 31 78 27 80 29 82
REMARK Flexibility Score: inf
ROOT
ATOM      1  C   UNL     1      42.290  27.634  21.831  1.00  0.00     0.205 C 
ATOM      2  C   UNL     1      43.589  26.881  22.194  1.00  0.00     0.254 C 
ATOM      3  C   UNL     1      44.763  27.881  22.217  1.00  0.00     0.267 C 
ATOM      4  C   UNL     1      44.808  28.674  20.898  1.00  0.00     0.290 C 
ATOM      5  C   UNL     1      43.423  29.271  20.590  1.00  0.00     0.357 C 
ATOM      6  O   UNL     1      42.420  28.268  20.568  1.00  0.00    -0.329 OA
ENDROOT
BRANCH   1   7
ATOM      7  C   UNL     1      41.088  26.675  21.794  1.00  0.00     0.269 C 
BRANCH   7   8
ATOM      8  O   UNL     1      40.000  27.202  22.553  1.00  0.00    -0.459 OA
BRANCH   8   9
ATOM      9  C   UNL     1      39.245  26.455  23.465  1.00  0.00     0.338 C 
ATOM     10  O   UNL     1      38.835  26.985  24.533  1.00  0.00    -0.246 OA
BRANCH   9  11
ATOM     11  C   UNL     1      38.902  25.051  23.152  1.00  0.00     0.067 A 
ATOM     12  C   UNL     1      39.799  24.020  23.463  1.00  0.00     0.066 A 
ATOM     13  C   UNL     1      39.494  22.692  23.158  1.00  0.00     0.162 A 
ATOM     14  C   UNL     1      37.682  24.731  22.537  1.00  0.00     0.066 A 
ATOM     15  C   UNL     1      38.277  22.372  22.531  1.00  0.00     0.200 A 
ATOM     16  C   UNL     1      37.357  23.407  22.226  1.00  0.00     0.162 A 
BRANCH  13  17
ATOM     17  O   UNL     1      40.426  21.699  23.470  1.00  0.00    -0.504 OA
ATOM     18  H   UNL     1      41.209  21.866  24.091  1.00  0.00     0.293 HD
ENDBRANCH  13  17
BRANCH  15  19
ATOM     19  O   UNL     1      38.019  21.033  22.224  1.00  0.00    -0.502 OA
ATOM     20  H   UNL     1      37.096  20.654  22.078  1.00  0.00     0.293 HD
ENDBRANCH  15  19
BRANCH  16  21
ATOM     21  O   UNL     1      36.118  23.165  21.626  1.00  0.00    -0.504 OA
ATOM     22  H   UNL     1      35.240  23.163  22.118  1.00  0.00     0.293 HD
ENDBRANCH  16  21
ENDBRANCH   9  11
ENDBRANCH   8   9
ENDBRANCH   7   8
ENDBRANCH   1   7
BRANCH   2  23
ATOM     23  O   UNL     1      43.838  25.866  21.221  1.00  0.00    -0.452 OA
BRANCH  23  24
ATOM     24  C   UNL     1      43.996  24.508  21.529  1.00  0.00     0.338 C 
ATOM     25  O   UNL     1      43.078  23.878  22.122  1.00  0.00    -0.246 OA
BRANCH  24  26
ATOM     26  C   UNL     1      45.246  23.817  21.151  1.00  0.00     0.067 A 
ATOM     27  C   UNL     1      46.421  23.997  21.902  1.00  0.00     0.066 A 
ATOM     28  C   UNL     1      45.269  22.962  20.040  1.00  0.00     0.066 A 
ATOM     29  C   UNL     1      47.599  23.335  21.549  1.00  0.00     0.162 A 
ATOM     30  C   UNL     1      46.445  22.301  19.675  1.00  0.00     0.162 A 
ATOM     31  C   UNL     1      47.617  22.487  20.429  1.00  0.00     0.200 A 
BRANCH  29  32
ATOM     32  O   UNL     1      48.739  23.516  22.334  1.00  0.00    -0.504 OA
ATOM     33  H   UNL     1      49.441  24.210  22.106  1.00  0.00     0.293 HD
ENDBRANCH  29  32
BRANCH  30  34
ATOM     34  O   UNL     1      46.458  21.461  18.560  1.00  0.00    -0.504 OA
ATOM     35  H   UNL     1      47.121  21.602  17.804  1.00  0.00     0.293 HD
ENDBRANCH  30  34
BRANCH  31  36
ATOM     36  O   UNL     1      48.799  21.829  20.081  1.00  0.00    -0.502 OA
ATOM     37  H   UNL     1      48.922  20.830  20.217  1.00  0.00     0.293 HD
ENDBRANCH  31  36
ENDBRANCH  24  26
ENDBRANCH  23  24
ENDBRANCH   2  23
BRANCH   3  38
ATOM     38  O   UNL     1      46.005  27.201  22.393  1.00  0.00    -0.450 OA
BRANCH  38  39
ATOM     39  C   UNL     1      47.170  27.794  22.891  1.00  0.00     0.338 C 
ATOM     40  O   UNL     1      47.094  28.714  23.751  1.00  0.00    -0.246 OA
BRANCH  39  41
ATOM     41  C   UNL     1      48.491  27.341  22.395  1.00  0.00     0.067 A 
ATOM     42  C   UNL     1      49.655  27.509  23.164  1.00  0.00     0.066 A 
ATOM     43  C   UNL     1      48.594  26.739  21.131  1.00  0.00     0.066 A 
ATOM     44  C   UNL     1      50.905  27.114  22.668  1.00  0.00     0.162 A 
ATOM     45  C   UNL     1      49.835  26.344  20.627  1.00  0.00     0.162 A 
ATOM     46  C   UNL     1      50.998  26.535  21.391  1.00  0.00     0.200 A 
BRANCH  44  47
ATOM     47  O   UNL     1      52.058  27.297  23.437  1.00  0.00    -0.504 OA
ATOM     48  H   UNL     1      52.937  27.591  23.024  1.00  0.00     0.293 HD
ENDBRANCH  44  47
BRANCH  45  49
ATOM     49  O   UNL     1      49.898  25.756  19.363  1.00  0.00    -0.504 OA
ATOM     50  H   UNL     1      49.502  24.844  19.175  1.00  0.00     0.293 HD
ENDBRANCH  45  49
BRANCH  46  51
ATOM     51  O   UNL     1      52.232  26.142  20.873  1.00  0.00    -0.502 OA
ATOM     52  H   UNL     1      52.963  25.741  21.451  1.00  0.00     0.293 HD
ENDBRANCH  46  51
ENDBRANCH  39  41
ENDBRANCH  38  39
ENDBRANCH   3  38
BRANCH   5  53
ATOM     53  O   UNL     1      43.091  30.297  21.529  1.00  0.00    -0.428 OA
BRANCH  53  54
ATOM     54  C   UNL     1      42.395  31.462  21.184  1.00  0.00     0.340 C 
ATOM     55  O   UNL     1      43.014  32.451  20.704  1.00  0.00    -0.246 OA
BRANCH  54  56
ATOM     56  C   UNL     1      40.935  31.534  21.416  1.00  0.00     0.067 A 
ATOM     57  C   UNL     1      40.165  32.507  20.759  1.00  0.00     0.066 A 
ATOM     58  C   UNL     1      40.304  30.627  22.282  1.00  0.00     0.066 A 
ATOM     59  C   UNL     1      38.780  32.581  20.970  1.00  0.00     0.162 A 
ATOM     60  C   UNL     1      38.920  30.690  22.492  1.00  0.00     0.162 A 
ATOM     61  C   UNL     1      38.155  31.673  21.842  1.00  0.00     0.200 A 
BRANCH  59  62
ATOM     62  O   UNL     1      38.023  33.551  20.319  1.00  0.00    -0.504 OA
ATOM     63  H   UNL     1      37.102  33.348  19.950  1.00  0.00     0.293 HD
ENDBRANCH  59  62
BRANCH  60  64
ATOM     64  O   UNL     1      38.316  29.781  23.359  1.00  0.00    -0.504 OA
ATOM     65  H   UNL     1      37.706  30.082  24.111  1.00  0.00     0.293 HD
ENDBRANCH  60  64
BRANCH  61  66
ATOM     66  O   UNL     1      36.778  31.731  22.070  1.00  0.00    -0.502 OA
ATOM     67  H   UNL     1      36.263  32.610  22.030  1.00  0.00     0.293 HD
ENDBRANCH  61  66
ENDBRANCH  54  56
ENDBRANCH  53  54
ENDBRANCH   5  53
BRANCH   4  68
ATOM     68  O   UNL     1      45.771  29.730  20.987  1.00  0.00    -0.448 OA
BRANCH  68  69
ATOM     69  C   UNL     1      46.420  30.282  19.873  1.00  0.00     0.339 C 
ATOM     70  O   UNL     1      45.789  31.035  19.084  1.00  0.00    -0.246 OA
BRANCH  69  71
ATOM     71  C   UNL     1      47.856  30.014  19.645  1.00  0.00     0.067 A 
ATOM     72  C   UNL     1      48.287  29.381  18.465  1.00  0.00     0.066 A 
ATOM     73  C   UNL     1      48.810  30.392  20.603  1.00  0.00     0.066 A 
ATOM     74  C   UNL     1      49.652  29.161  18.232  1.00  0.00     0.162 A 
ATOM     75  C   UNL     1      50.176  30.163  20.391  1.00  0.00     0.162 A 
ATOM     76  C   UNL     1      50.604  29.558  19.183  1.00  0.00     0.200 A 
BRANCH  74  77
ATOM     77  O   UNL     1      50.076  28.558  17.048  1.00  0.00    -0.504 OA
ATOM     78  H   UNL     1      51.039  28.604  16.749  1.00  0.00     0.293 HD
ENDBRANCH  74  77
BRANCH  75  79
ATOM     79  O   UNL     1      51.061  30.541  21.406  1.00  0.00    -0.504 OA
ATOM     80  H   UNL     1      51.593  31.396  21.401  1.00  0.00     0.293 HD
ENDBRANCH  75  79
BRANCH  76  81
ATOM     81  O   UNL     1      51.953  29.349  18.891  1.00  0.00    -0.502 OA
ATOM     82  H   UNL     1      52.277  28.683  18.212  1.00  0.00     0.293 HD
ENDBRANCH  76  81
ENDBRANCH  69  71
ENDBRANCH  68  69
ENDBRANCH   4  68
TORSDOF 31
ENDMDL
MODEL 4
REMARK VINA RESULT:    -7.427      2.292      9.617
REMARK INTER + INTRA:         -23.901
REMARK INTER:                 -18.684
REMARK INTRA:                  -5.217
REMARK UNBOUND:                -6.270
REMARK SMILES O=C(OC[C@@H]1O[C@@H](OC(=O)c2cc(O)c(O)c(O)c2)[C@@H](OC(=O)c2cc(O)c(O)c(O)c2)[C@H](OC(=O)c2cc(O)c(O)c(O)c2)[C@@H]1OC(=O)c1cc(O)c(O)c(O)c1)c1cc(O)c(O)c(O)c1
REMARK SMILES IDX 5 1 46 2 33 3 20 4 7 5 6 6 4 7 3 8 2 9 1 10 59 11 60 12
REMARK SMILES IDX 61 13 67 14 63 15 65 16 62 17 64 19 66 21 47 23 48 24 49 25
REMARK SMILES IDX 50 26 58 27 51 28 56 29 52 30 54 31 57 32 53 34 55 36 34 38
REMARK SMILES IDX 35 39 36 40 37 41 45 42 38 43 43 44 39 45 41 46 44 47 40 49
REMARK SMILES IDX 42 51 8 53 9 54 10 55 11 56 19 57 12 58 17 59 13 60 15 61
REMARK SMILES IDX 18 62 14 64 16 66 21 68 22 69 23 70 24 71 32 72 25 73 30 74
REMARK SMILES IDX 26 75 28 76 31 77 27 79 29 81
REMARK H PARENT 62 18 64 20 66 22 57 33 53 35 55 37 44 48 40 50 42 52 18 63
REMARK H PARENT 14 65 16 67 31 78 27 80 29 82
REMARK Flexibility Score: inf
ROOT
ATOM      1  C   UNL     1      43.092  29.543  21.873  1.00  0.00     0.205 C 
ATOM      2  C   UNL     1      44.540  30.014  21.616  1.00  0.00     0.254 C 
ATOM      3  C   UNL     1      45.389  28.812  21.154  1.00  0.00     0.267 C 
ATOM      4  C   UNL     1      45.243  27.648  22.150  1.00  0.00     0.290 C 
ATOM      5  C   UNL     1      43.755  27.358  22.413  1.00  0.00     0.357 C 
ATOM      6  O   UNL     1      43.071  28.519  22.856  1.00  0.00    -0.329 OA
ENDROOT
BRANCH   1   7
ATOM      7  C   UNL     1      42.205  30.709  22.339  1.00  0.00     0.269 C 
BRANCH   7   8
ATOM      8  O   UNL     1      41.151  30.944  21.407  1.00  0.00    -0.459 OA
BRANCH   8   9
ATOM      9  C   UNL     1      40.655  32.212  21.084  1.00  0.00     0.338 C 
ATOM     10  O   UNL     1      41.415  33.081  20.577  1.00  0.00    -0.246 OA
BRANCH   9  11
ATOM     11  C   UNL     1      39.225  32.517  21.310  1.00  0.00     0.067 A 
ATOM     12  C   UNL     1      38.698  33.756  20.922  1.00  0.00     0.066 A 
ATOM     13  C   UNL     1      37.355  34.063  21.145  1.00  0.00     0.162 A 
ATOM     14  C   UNL     1      38.380  31.578  21.919  1.00  0.00     0.066 A 
ATOM     15  C   UNL     1      36.509  33.126  21.766  1.00  0.00     0.200 A 
ATOM     16  C   UNL     1      37.030  31.865  22.149  1.00  0.00     0.162 A 
BRANCH  13  17
ATOM     17  O   UNL     1      36.877  35.317  20.758  1.00  0.00    -0.504 OA
ATOM     18  H   UNL     1      37.384  35.916  20.116  1.00  0.00     0.293 HD
ENDBRANCH  13  17
BRANCH  15  19
ATOM     19  O   UNL     1      35.175  33.480  21.990  1.00  0.00    -0.502 OA
ATOM     20  H   UNL     1      34.886  34.286  22.521  1.00  0.00     0.293 HD
ENDBRANCH  15  19
BRANCH  16  21
ATOM     21  O   UNL     1      36.247  30.874  22.748  1.00  0.00    -0.504 OA
ATOM     22  H   UNL     1      36.618  30.078  23.241  1.00  0.00     0.293 HD
ENDBRANCH  16  21
ENDBRANCH   9  11
ENDBRANCH   8   9
ENDBRANCH   7   8
ENDBRANCH   1   7
BRANCH   2  23
ATOM     23  O   UNL     1      45.084  30.556  22.820  1.00  0.00    -0.452 OA
BRANCH  23  24
ATOM     24  C   UNL     1      45.716  31.805  22.901  1.00  0.00     0.338 C 
ATOM     25  O   UNL     1      46.966  31.878  23.059  1.00  0.00    -0.246 OA
BRANCH  24  26
ATOM     26  C   UNL     1      44.909  33.038  22.797  1.00  0.00     0.067 A 
ATOM     27  C   UNL     1      44.881  33.778  21.602  1.00  0.00     0.066 A 
ATOM     28  C   UNL     1      44.152  33.478  23.892  1.00  0.00     0.066 A 
ATOM     29  C   UNL     1      44.110  34.939  21.501  1.00  0.00     0.162 A 
ATOM     30  C   UNL     1      43.382  34.641  23.803  1.00  0.00     0.162 A 
ATOM     31  C   UNL     1      43.360  35.378  22.606  1.00  0.00     0.200 A 
BRANCH  29  32
ATOM     32  O   UNL     1      44.083  35.632  20.291  1.00  0.00    -0.504 OA
ATOM     33  H   UNL     1      43.580  36.505  20.185  1.00  0.00     0.293 HD
ENDBRANCH  29  32
BRANCH  30  34
ATOM     34  O   UNL     1      42.642  35.076  24.904  1.00  0.00    -0.504 OA
ATOM     35  H   UNL     1      42.784  35.998  25.303  1.00  0.00     0.293 HD
ENDBRANCH  30  34
BRANCH  31  36
ATOM     36  O   UNL     1      42.592  36.539  22.500  1.00  0.00    -0.502 OA
ATOM     37  H   UNL     1      42.316  37.083  23.312  1.00  0.00     0.293 HD
ENDBRANCH  31  36
ENDBRANCH  24  26
ENDBRANCH  23  24
ENDBRANCH   2  23
BRANCH   3  38
ATOM     38  O   UNL     1      46.767  29.172  21.057  1.00  0.00    -0.450 OA
BRANCH  38  39
ATOM     39  C   UNL     1      47.605  28.819  19.994  1.00  0.00     0.338 C 
ATOM     40  O   UNL     1      47.324  29.181  18.819  1.00  0.00    -0.246 OA
BRANCH  39  41
ATOM     41  C   UNL     1      48.818  28.011  20.258  1.00  0.00     0.067 A 
ATOM     42  C   UNL     1      49.496  27.353  19.217  1.00  0.00     0.066 A 
ATOM     43  C   UNL     1      49.303  27.885  21.569  1.00  0.00     0.066 A 
ATOM     44  C   UNL     1      50.619  26.557  19.482  1.00  0.00     0.162 A 
ATOM     45  C   UNL     1      50.421  27.093  21.845  1.00  0.00     0.162 A 
ATOM     46  C   UNL     1      51.080  26.420  20.803  1.00  0.00     0.200 A 
BRANCH  44  47
ATOM     47  O   UNL     1      51.279  25.899  18.440  1.00  0.00    -0.504 OA
ATOM     48  H   UNL     1      50.777  25.343  17.755  1.00  0.00     0.293 HD
ENDBRANCH  44  47
BRANCH  45  49
ATOM     49  O   UNL     1      50.868  26.986  23.162  1.00  0.00    -0.504 OA
ATOM     50  H   UNL     1      51.852  26.970  23.395  1.00  0.00     0.293 HD
ENDBRANCH  45  49
BRANCH  46  51
ATOM     51  O   UNL     1      52.190  25.627  21.092  1.00  0.00    -0.502 OA
ATOM     52  H   UNL     1      52.709  25.710  21.960  1.00  0.00     0.293 HD
ENDBRANCH  46  51
ENDBRANCH  39  41
ENDBRANCH  38  39
ENDBRANCH   3  38
BRANCH   5  53
ATOM     53  O   UNL     1      43.128  26.816  21.248  1.00  0.00    -0.428 OA
BRANCH  53  54
ATOM     54  C   UNL     1      41.891  26.160  21.272  1.00  0.00     0.340 C 
ATOM     55  O   UNL     1      40.840  26.778  20.950  1.00  0.00    -0.246 OA
BRANCH  54  56
ATOM     56  C   UNL     1      41.825  24.747  21.706  1.00  0.00     0.067 A 
ATOM     57  C   UNL     1      42.585  23.770  21.042  1.00  0.00     0.066 A 
ATOM     58  C   UNL     1      41.016  24.369  22.790  1.00  0.00     0.066 A 
ATOM     59  C   UNL     1      42.530  22.428  21.448  1.00  0.00     0.162 A 
ATOM     60  C   UNL     1      40.964  23.032  23.206  1.00  0.00     0.162 A 
ATOM     61  C   UNL     1      41.715  22.056  22.531  1.00  0.00     0.200 A 
BRANCH  59  62
ATOM     62  O   UNL     1      43.282  21.464  20.782  1.00  0.00    -0.504 OA
ATOM     63  H   UNL     1      44.150  21.108  21.164  1.00  0.00     0.293 HD
ENDBRANCH  59  62
BRANCH  60  64
ATOM     64  O   UNL     1      40.150  22.681  24.283  1.00  0.00    -0.504 OA
ATOM     65  H   UNL     1      39.824  23.367  24.954  1.00  0.00     0.293 HD
ENDBRANCH  60  64
BRANCH  61  66
ATOM     66  O   UNL     1      41.643  20.725  22.949  1.00  0.00    -0.502 OA
ATOM     67  H   UNL     1      40.784  20.181  22.866  1.00  0.00     0.293 HD
ENDBRANCH  61  66
ENDBRANCH  54  56
ENDBRANCH  53  54
ENDBRANCH   5  53
BRANCH   4  68
ATOM     68  O   UNL     1      45.872  26.471  21.633  1.00  0.00    -0.448 OA
BRANCH  68  69
ATOM     69  C   UNL     1      46.426  25.468  22.443  1.00  0.00     0.339 C 
ATOM     70  O   UNL     1      46.370  25.569  23.698  1.00  0.00    -0.246 OA
BRANCH  69  71
ATOM     71  C   UNL     1      47.039  24.273  21.827  1.00  0.00     0.067 A 
ATOM     72  C   UNL     1      46.234  23.229  21.335  1.00  0.00     0.066 A 
ATOM     73  C   UNL     1      48.435  24.166  21.720  1.00  0.00     0.066 A 
ATOM     74  C   UNL     1      46.815  22.113  20.717  1.00  0.00     0.162 A 
ATOM     75  C   UNL     1      49.029  23.049  21.119  1.00  0.00     0.162 A 
ATOM     76  C   UNL     1      48.209  22.019  20.594  1.00  0.00     0.200 A 
BRANCH  74  77
ATOM     77  O   UNL     1      46.012  21.093  20.207  1.00  0.00    -0.504 OA
ATOM     78  H   UNL     1      46.403  20.332  19.672  1.00  0.00     0.293 HD
ENDBRANCH  74  77
BRANCH  75  79
ATOM     79  O   UNL     1      50.426  23.003  21.078  1.00  0.00    -0.504 OA
ATOM     80  H   UNL     1      51.027  23.699  21.489  1.00  0.00     0.293 HD
ENDBRANCH  75  79
BRANCH  76  81
ATOM     81  O   UNL     1      48.739  20.905  19.939  1.00  0.00    -0.502 OA
ATOM     82  H   UNL     1      49.217  20.956  19.057  1.00  0.00     0.293 HD
ENDBRANCH  76  81
ENDBRANCH  69  71
ENDBRANCH  68  69
ENDBRANCH   4  68
TORSDOF 31
ENDMDL
MODEL 5
REMARK VINA RESULT:    -7.409      2.074      8.000
REMARK INTER + INTRA:         -23.857
REMARK INTER:                 -16.157
REMARK INTRA:                  -7.700
REMARK UNBOUND:                -6.270
REMARK SMILES O=C(OC[C@@H]1O[C@@H](OC(=O)c2cc(O)c(O)c(O)c2)[C@@H](OC(=O)c2cc(O)c(O)c(O)c2)[C@H](OC(=O)c2cc(O)c(O)c(O)c2)[C@@H]1OC(=O)c1cc(O)c(O)c(O)c1)c1cc(O)c(O)c(O)c1
REMARK SMILES IDX 5 1 46 2 33 3 20 4 7 5 6 6 4 7 3 8 2 9 1 10 59 11 60 12
REMARK SMILES IDX 61 13 67 14 63 15 65 16 62 17 64 19 66 21 47 23 48 24 49 25
REMARK SMILES IDX 50 26 58 27 51 28 56 29 52 30 54 31 57 32 53 34 55 36 34 38
REMARK SMILES IDX 35 39 36 40 37 41 45 42 38 43 43 44 39 45 41 46 44 47 40 49
REMARK SMILES IDX 42 51 8 53 9 54 10 55 11 56 19 57 12 58 17 59 13 60 15 61
REMARK SMILES IDX 18 62 14 64 16 66 21 68 22 69 23 70 24 71 32 72 25 73 30 74
REMARK SMILES IDX 26 75 28 76 31 77 27 79 29 81
REMARK H PARENT 62 18 64 20 66 22 57 33 53 35 55 37 44 48 40 50 42 52 18 63
REMARK H PARENT 14 65 16 67 31 78 27 80 29 82
REMARK Flexibility Score: inf
ROOT
ATOM      1  C   UNL     1      44.896  27.376  25.397  1.00  0.00     0.205 C 
ATOM      2  C   UNL     1      43.747  28.117  24.679  1.00  0.00     0.254 C 
ATOM      3  C   UNL     1      43.935  27.987  23.154  1.00  0.00     0.267 C 
ATOM      4  C   UNL     1      45.354  28.433  22.757  1.00  0.00     0.290 C 
ATOM      5  C   UNL     1      46.400  27.713  23.627  1.00  0.00     0.357 C 
ATOM      6  O   UNL     1      46.152  27.914  25.009  1.00  0.00    -0.329 OA
ENDROOT
BRANCH   1   7
ATOM      7  C   UNL     1      44.752  27.479  26.925  1.00  0.00     0.269 C 
BRANCH   7   8
ATOM      8  O   UNL     1      43.406  27.225  27.322  1.00  0.00    -0.459 OA
BRANCH   8   9
ATOM      9  C   UNL     1      42.935  25.978  27.748  1.00  0.00     0.338 C 
ATOM     10  O   UNL     1      43.465  25.403  28.737  1.00  0.00    -0.246 OA
BRANCH   9  11
ATOM     11  C   UNL     1      41.788  25.354  27.053  1.00  0.00     0.067 A 
ATOM     12  C   UNL     1      40.485  25.811  27.292  1.00  0.00     0.066 A 
ATOM     13  C   UNL     1      39.392  25.220  26.656  1.00  0.00     0.162 A 
ATOM     14  C   UNL     1      41.984  24.295  26.154  1.00  0.00     0.066 A 
ATOM     15  C   UNL     1      39.588  24.151  25.763  1.00  0.00     0.200 A 
ATOM     16  C   UNL     1      40.903  23.690  25.505  1.00  0.00     0.162 A 
BRANCH  13  17
ATOM     17  O   UNL     1      38.110  25.697  26.937  1.00  0.00    -0.504 OA
ATOM     18  H   UNL     1      37.786  25.856  27.884  1.00  0.00     0.293 HD
ENDBRANCH  13  17
BRANCH  15  19
ATOM     19  O   UNL     1      38.465  23.572  25.162  1.00  0.00    -0.502 OA
ATOM     20  H   UNL     1      38.502  22.987  24.342  1.00  0.00     0.293 HD
ENDBRANCH  15  19
BRANCH  16  21
ATOM     21  O   UNL     1      41.179  22.650  24.613  1.00  0.00    -0.504 OA
ATOM     22  H   UNL     1      41.993  22.609  24.022  1.00  0.00     0.293 HD
ENDBRANCH  16  21
ENDBRANCH   9  11
ENDBRANCH   8   9
ENDBRANCH   7   8
ENDBRANCH   1   7
BRANCH   2  23
ATOM     23  O   UNL     1      43.763  29.495  25.053  1.00  0.00    -0.452 OA
BRANCH  23  24
ATOM     24  C   UNL     1      42.710  30.139  25.718  1.00  0.00     0.338 C 
ATOM     25  O   UNL     1      42.913  30.724  26.817  1.00  0.00    -0.246 OA
BRANCH  24  26
ATOM     26  C   UNL     1      41.359  30.132  25.120  1.00  0.00     0.067 A 
ATOM     27  C   UNL     1      40.424  29.144  25.475  1.00  0.00     0.066 A 
ATOM     28  C   UNL     1      40.993  31.120  24.196  1.00  0.00     0.066 A 
ATOM     29  C   UNL     1      39.143  29.144  24.917  1.00  0.00     0.162 A 
ATOM     30  C   UNL     1      39.717  31.124  23.627  1.00  0.00     0.162 A 
ATOM     31  C   UNL     1      38.786  30.133  23.984  1.00  0.00     0.200 A 
BRANCH  29  32
ATOM     32  O   UNL     1      38.231  28.165  25.314  1.00  0.00    -0.504 OA
ATOM     33  H   UNL     1      37.674  28.262  26.155  1.00  0.00     0.293 HD
ENDBRANCH  29  32
BRANCH  30  34
ATOM     34  O   UNL     1      39.368  32.107  22.698  1.00  0.00    -0.504 OA
ATOM     35  H   UNL     1      39.922  32.951  22.593  1.00  0.00     0.293 HD
ENDBRANCH  30  34
BRANCH  31  36
ATOM     36  O   UNL     1      37.505  30.126  23.429  1.00  0.00    -0.502 OA
ATOM     37  H   UNL     1      36.839  30.875  23.595  1.00  0.00     0.293 HD
ENDBRANCH  31  36
ENDBRANCH  24  26
ENDBRANCH  23  24
ENDBRANCH   2  23
BRANCH   3  38
ATOM     38  O   UNL     1      42.983  28.789  22.456  1.00  0.00    -0.450 OA
BRANCH  38  39
ATOM     39  C   UNL     1      42.112  28.309  21.473  1.00  0.00     0.338 C 
ATOM     40  O   UNL     1      41.959  28.948  20.395  1.00  0.00    -0.246 OA
BRANCH  39  41
ATOM     41  C   UNL     1      41.365  27.052  21.709  1.00  0.00     0.067 A 
ATOM     42  C   UNL     1      41.849  25.818  21.242  1.00  0.00     0.066 A 
ATOM     43  C   UNL     1      40.146  27.083  22.405  1.00  0.00     0.066 A 
ATOM     44  C   UNL     1      41.114  24.639  21.435  1.00  0.00     0.162 A 
ATOM     45  C   UNL     1      39.405  25.915  22.601  1.00  0.00     0.162 A 
ATOM     46  C   UNL     1      39.883  24.689  22.112  1.00  0.00     0.200 A 
BRANCH  44  47
ATOM     47  O   UNL     1      41.599  23.419  20.956  1.00  0.00    -0.504 OA
ATOM     48  H   UNL     1      42.021  23.334  20.038  1.00  0.00     0.293 HD
ENDBRANCH  44  47
BRANCH  45  49
ATOM     49  O   UNL     1      38.193  25.988  23.290  1.00  0.00    -0.504 OA
ATOM     50  H   UNL     1      37.722  25.163  23.635  1.00  0.00     0.293 HD
ENDBRANCH  45  49
BRANCH  46  51
ATOM     51  O   UNL     1      39.130  23.531  22.309  1.00  0.00    -0.502 OA
ATOM     52  H   UNL     1      38.477  23.181  21.616  1.00  0.00     0.293 HD
ENDBRANCH  46  51
ENDBRANCH  39  41
ENDBRANCH  38  39
ENDBRANCH   3  38
BRANCH   5  53
ATOM     53  O   UNL     1      46.442  26.317  23.320  1.00  0.00    -0.428 OA
BRANCH  53  54
ATOM     54  C   UNL     1      47.349  25.754  22.413  1.00  0.00     0.340 C 
ATOM     55  O   UNL     1      48.402  26.375  22.103  1.00  0.00    -0.246 OA
BRANCH  54  56
ATOM     56  C   UNL     1      47.045  24.442  21.800  1.00  0.00     0.067 A 
ATOM     57  C   UNL     1      48.090  23.587  21.411  1.00  0.00     0.066 A 
ATOM     58  C   UNL     1      45.716  24.030  21.613  1.00  0.00     0.066 A 
ATOM     59  C   UNL     1      47.812  22.341  20.833  1.00  0.00     0.162 A 
ATOM     60  C   UNL     1      45.431  22.783  21.043  1.00  0.00     0.162 A 
ATOM     61  C   UNL     1      46.479  21.937  20.644  1.00  0.00     0.200 A 
BRANCH  59  62
ATOM     62  O   UNL     1      48.853  21.501  20.445  1.00  0.00    -0.504 OA
ATOM     63  H   UNL     1      49.374  21.659  19.591  1.00  0.00     0.293 HD
ENDBRANCH  59  62
BRANCH  60  64
ATOM     64  O   UNL     1      44.103  22.398  20.863  1.00  0.00    -0.504 OA
ATOM     65  H   UNL     1      43.333  22.936  21.245  1.00  0.00     0.293 HD
ENDBRANCH  60  64
BRANCH  61  66
ATOM     66  O   UNL     1      46.179  20.701  20.065  1.00  0.00    -0.502 OA
ATOM     67  H   UNL     1      45.497  20.066  20.477  1.00  0.00     0.293 HD
ENDBRANCH  61  66
ENDBRANCH  54  56
ENDBRANCH  53  54
ENDBRANCH   5  53
BRANCH   4  68
ATOM     68  O   UNL     1      45.599  28.138  21.378  1.00  0.00    -0.448 OA
BRANCH  68  69
ATOM     69  C   UNL     1      46.319  28.984  20.521  1.00  0.00     0.339 C 
ATOM     70  O   UNL     1      47.224  28.511  19.782  1.00  0.00    -0.246 OA
BRANCH  69  71
ATOM     71  C   UNL     1      45.989  30.423  20.452  1.00  0.00     0.067 A 
ATOM     72  C   UNL     1      44.649  30.849  20.421  1.00  0.00     0.066 A 
ATOM     73  C   UNL     1      47.012  31.385  20.421  1.00  0.00     0.066 A 
ATOM     74  C   UNL     1      44.337  32.216  20.394  1.00  0.00     0.162 A 
ATOM     75  C   UNL     1      46.714  32.753  20.377  1.00  0.00     0.162 A 
ATOM     76  C   UNL     1      45.361  33.174  20.383  1.00  0.00     0.200 A 
BRANCH  74  77
ATOM     77  O   UNL     1      43.006  32.634  20.391  1.00  0.00    -0.504 OA
ATOM     78  H   UNL     1      42.598  33.087  19.587  1.00  0.00     0.293 HD
ENDBRANCH  74  77
BRANCH  75  79
ATOM     79  O   UNL     1      47.787  33.647  20.317  1.00  0.00    -0.504 OA
ATOM     80  H   UNL     1      48.052  34.158  19.491  1.00  0.00     0.293 HD
ENDBRANCH  75  79
BRANCH  76  81
ATOM     81  O   UNL     1      45.000  34.523  20.391  1.00  0.00    -0.502 OA
ATOM     82  H   UNL     1      44.273  34.900  20.974  1.00  0.00     0.293 HD
ENDBRANCH  76  81
ENDBRANCH  69  71
ENDBRANCH  68  69
ENDBRANCH   4  68
TORSDOF 31
ENDMDL
MODEL 6
REMARK VINA RESULT:    -7.352      2.730      7.763
REMARK INTER + INTRA:         -23.723
REMARK INTER:                 -16.079
REMARK INTRA:                  -7.644
REMARK UNBOUND:                -6.270
REMARK SMILES O=C(OC[C@@H]1O[C@@H](OC(=O)c2cc(O)c(O)c(O)c2)[C@@H](OC(=O)c2cc(O)c(O)c(O)c2)[C@H](OC(=O)c2cc(O)c(O)c(O)c2)[C@@H]1OC(=O)c1cc(O)c(O)c(O)c1)c1cc(O)c(O)c(O)c1
REMARK SMILES IDX 5 1 46 2 33 3 20 4 7 5 6 6 4 7 3 8 2 9 1 10 59 11 60 12
REMARK SMILES IDX 61 13 67 14 63 15 65 16 62 17 64 19 66 21 47 23 48 24 49 25
REMARK SMILES IDX 50 26 58 27 51 28 56 29 52 30 54 31 57 32 53 34 55 36 34 38
REMARK SMILES IDX 35 39 36 40 37 41 45 42 38 43 43 44 39 45 41 46 44 47 40 49
REMARK SMILES IDX 42 51 8 53 9 54 10 55 11 56 19 57 12 58 17 59 13 60 15 61
REMARK SMILES IDX 18 62 14 64 16 66 21 68 22 69 23 70 24 71 32 72 25 73 30 74
REMARK SMILES IDX 26 75 28 76 31 77 27 79 29 81
REMARK H PARENT 62 18 64 20 66 22 57 33 53 35 55 37 44 48 40 50 42 52 18 63
REMARK H PARENT 14 65 16 67 31 78 27 80 29 82
REMARK Flexibility Score: inf
ROOT
ATOM      1  C   UNL     1      47.054  28.150  22.077  1.00  0.00     0.205 C 
ATOM      2  C   UNL     1      45.579  27.763  22.324  1.00  0.00     0.254 C 
ATOM      3  C   UNL     1      44.675  28.599  21.396  1.00  0.00     0.267 C 
ATOM      4  C   UNL     1      44.997  30.096  21.551  1.00  0.00     0.290 C 
ATOM      5  C   UNL     1      46.510  30.331  21.404  1.00  0.00     0.357 C 
ATOM      6  O   UNL     1      47.250  29.536  22.316  1.00  0.00    -0.329 OA
ENDROOT
BRANCH   1   7
ATOM      7  C   UNL     1      47.998  27.342  22.983  1.00  0.00     0.269 C 
BRANCH   7   8
ATOM      8  O   UNL     1      47.675  25.953  22.936  1.00  0.00    -0.459 OA
BRANCH   8   9
ATOM      9  C   UNL     1      47.974  25.114  21.857  1.00  0.00     0.338 C 
ATOM     10  O   UNL     1      49.073  25.228  21.250  1.00  0.00    -0.246 OA
BRANCH   9  11
ATOM     11  C   UNL     1      47.008  24.068  21.455  1.00  0.00     0.067 A 
ATOM     12  C   UNL     1      45.633  24.335  21.470  1.00  0.00     0.066 A 
ATOM     13  C   UNL     1      44.709  23.352  21.109  1.00  0.00     0.162 A 
ATOM     14  C   UNL     1      47.451  22.797  21.059  1.00  0.00     0.066 A 
ATOM     15  C   UNL     1      45.153  22.074  20.724  1.00  0.00     0.200 A 
ATOM     16  C   UNL     1      46.543  21.799  20.691  1.00  0.00     0.162 A 
BRANCH  13  17
ATOM     17  O   UNL     1      43.347  23.658  21.156  1.00  0.00    -0.504 OA
ATOM     18  H   UNL     1      42.916  24.312  20.514  1.00  0.00     0.293 HD
ENDBRANCH  13  17
BRANCH  15  19
ATOM     19  O   UNL     1      44.195  21.111  20.390  1.00  0.00    -0.502 OA
ATOM     20  H   UNL     1      44.358  20.352  19.747  1.00  0.00     0.293 HD
ENDBRANCH  15  19
BRANCH  16  21
ATOM     21  O   UNL     1      47.060  20.562  20.297  1.00  0.00    -0.504 OA
ATOM     22  H   UNL     1      47.114  20.248  19.342  1.00  0.00     0.293 HD
ENDBRANCH  16  21
ENDBRANCH   9  11
ENDBRANCH   8   9
ENDBRANCH   7   8
ENDBRANCH   1   7
BRANCH   2  23
ATOM     23  O   UNL     1      45.243  28.021  23.687  1.00  0.00    -0.452 OA
BRANCH  23  24
ATOM     24  C   UNL     1      44.659  27.075  24.542  1.00  0.00     0.338 C 
ATOM     25  O   UNL     1      45.237  25.976  24.766  1.00  0.00    -0.246 OA
BRANCH  24  26
ATOM     26  C   UNL     1      43.362  27.375  25.183  1.00  0.00     0.067 A 
ATOM     27  C   UNL     1      42.513  26.336  25.604  1.00  0.00     0.066 A 
ATOM     28  C   UNL     1      42.969  28.706  25.386  1.00  0.00     0.066 A 
ATOM     29  C   UNL     1      41.291  26.621  26.219  1.00  0.00     0.162 A 
ATOM     30  C   UNL     1      41.745  29.001  25.993  1.00  0.00     0.162 A 
ATOM     31  C   UNL     1      40.899  27.958  26.411  1.00  0.00     0.200 A 
BRANCH  29  32
ATOM     32  O   UNL     1      40.487  25.566  26.650  1.00  0.00    -0.504 OA
ATOM     33  H   UNL     1      39.823  25.113  26.034  1.00  0.00     0.293 HD
ENDBRANCH  29  32
BRANCH  30  34
ATOM     34  O   UNL     1      41.359  30.329  26.179  1.00  0.00    -0.504 OA
ATOM     35  H   UNL     1      40.779  30.808  25.498  1.00  0.00     0.293 HD
ENDBRANCH  30  34
BRANCH  31  36
ATOM     36  O   UNL     1      39.677  28.235  27.024  1.00  0.00    -0.502 OA
ATOM     37  H   UNL     1      38.955  28.787  26.569  1.00  0.00     0.293 HD
ENDBRANCH  31  36
ENDBRANCH  24  26
ENDBRANCH  23  24
ENDBRANCH   2  23
BRANCH   3  38
ATOM     38  O   UNL     1      43.297  28.385  21.703  1.00  0.00    -0.450 OA
BRANCH  38  39
ATOM     39  C   UNL     1      42.579  27.234  21.363  1.00  0.00     0.338 C 
ATOM     40  O   UNL     1      42.975  26.497  20.419  1.00  0.00    -0.246 OA
BRANCH  39  41
ATOM     41  C   UNL     1      41.347  26.893  22.112  1.00  0.00     0.067 A 
ATOM     42  C   UNL     1      40.942  25.558  22.280  1.00  0.00     0.066 A 
ATOM     43  C   UNL     1      40.557  27.916  22.660  1.00  0.00     0.066 A 
ATOM     44  C   UNL     1      39.753  25.249  22.955  1.00  0.00     0.162 A 
ATOM     45  C   UNL     1      39.368  27.619  23.332  1.00  0.00     0.162 A 
ATOM     46  C   UNL     1      38.958  26.283  23.478  1.00  0.00     0.200 A 
BRANCH  44  47
ATOM     47  O   UNL     1      39.354  23.917  23.107  1.00  0.00    -0.504 OA
ATOM     48  H   UNL     1      39.639  23.195  22.454  1.00  0.00     0.293 HD
ENDBRANCH  44  47
BRANCH  45  49
ATOM     49  O   UNL     1      38.606  28.663  23.856  1.00  0.00    -0.504 OA
ATOM     50  H   UNL     1      38.678  28.947  24.824  1.00  0.00     0.293 HD
ENDBRANCH  45  49
BRANCH  46  51
ATOM     51  O   UNL     1      37.767  26.000  24.145  1.00  0.00    -0.502 OA
ATOM     52  H   UNL     1      37.370  26.622  24.841  1.00  0.00     0.293 HD
ENDBRANCH  46  51
ENDBRANCH  39  41
ENDBRANCH  38  39
ENDBRANCH   3  38
BRANCH   5  53
ATOM     53  O   UNL     1      46.935  30.086  20.061  1.00  0.00    -0.428 OA
BRANCH  53  54
ATOM     54  C   UNL     1      48.204  30.431  19.578  1.00  0.00     0.340 C 
ATOM     55  O   UNL     1      48.625  31.614  19.694  1.00  0.00    -0.246 OA
BRANCH  54  56
ATOM     56  C   UNL     1      49.031  29.405  18.905  1.00  0.00     0.067 A 
ATOM     57  C   UNL     1      49.077  29.346  17.503  1.00  0.00     0.066 A 
ATOM     58  C   UNL     1      49.785  28.489  19.657  1.00  0.00     0.066 A 
ATOM     59  C   UNL     1      49.860  28.378  16.857  1.00  0.00     0.162 A 
ATOM     60  C   UNL     1      50.576  27.525  19.018  1.00  0.00     0.162 A 
ATOM     61  C   UNL     1      50.609  27.462  17.616  1.00  0.00     0.200 A 
BRANCH  59  62
ATOM     62  O   UNL     1      49.899  28.322  15.466  1.00  0.00    -0.504 OA
ATOM     63  H   UNL     1      49.439  29.020  14.893  1.00  0.00     0.293 HD
ENDBRANCH  59  62
BRANCH  60  64
ATOM     64  O   UNL     1      51.313  26.624  19.786  1.00  0.00    -0.504 OA
ATOM     65  H   UNL     1      51.847  25.873  19.364  1.00  0.00     0.293 HD
ENDBRANCH  60  64
BRANCH  61  66
ATOM     66  O   UNL     1      51.393  26.487  16.992  1.00  0.00    -0.502 OA
ATOM     67  H   UNL     1      51.677  25.635  17.475  1.00  0.00     0.293 HD
ENDBRANCH  61  66
ENDBRANCH  54  56
ENDBRANCH  53  54
ENDBRANCH   5  53
BRANCH   4  68
ATOM     68  O   UNL     1      44.299  30.859  20.562  1.00  0.00    -0.448 OA
BRANCH  68  69
ATOM     69  C   UNL     1      43.598  32.040  20.846  1.00  0.00     0.339 C 
ATOM     70  O   UNL     1      44.192  33.151  20.808  1.00  0.00    -0.246 OA
BRANCH  69  71
ATOM     71  C   UNL     1      42.153  31.989  21.150  1.00  0.00     0.067 A 
ATOM     72  C   UNL     1      41.702  31.570  22.415  1.00  0.00     0.066 A 
ATOM     73  C   UNL     1      41.209  32.363  20.180  1.00  0.00     0.066 A 
ATOM     74  C   UNL     1      40.333  31.557  22.715  1.00  0.00     0.162 A 
ATOM     75  C   UNL     1      39.837  32.339  20.461  1.00  0.00     0.162 A 
ATOM     76  C   UNL     1      39.394  31.950  21.750  1.00  0.00     0.200 A 
BRANCH  74  77
ATOM     77  O   UNL     1      39.893  31.166  23.980  1.00  0.00    -0.504 OA
ATOM     78  H   UNL     1      39.200  30.442  24.096  1.00  0.00     0.293 HD
ENDBRANCH  74  77
BRANCH  75  79
ATOM     79  O   UNL     1      38.959  32.697  19.433  1.00  0.00    -0.504 OA
ATOM     80  H   UNL     1      39.033  33.548  18.898  1.00  0.00     0.293 HD
ENDBRANCH  75  79
BRANCH  76  81
ATOM     81  O   UNL     1      38.044  31.954  22.107  1.00  0.00    -0.502 OA
ATOM     82  H   UNL     1      37.294  31.887  21.441  1.00  0.00     0.293 HD
ENDBRANCH  76  81
ENDBRANCH  69  71
ENDBRANCH  68  69
ENDBRANCH   4  68
TORSDOF 31
ENDMDL
MODEL 7
REMARK VINA RESULT:    -7.343      2.073      7.799
REMARK INTER + INTRA:         -23.702
REMARK INTER:                 -16.172
REMARK INTRA:                  -7.529
REMARK UNBOUND:                -6.270
REMARK SMILES O=C(OC[C@@H]1O[C@@H](OC(=O)c2cc(O)c(O)c(O)c2)[C@@H](OC(=O)c2cc(O)c(O)c(O)c2)[C@H](OC(=O)c2cc(O)c(O)c(O)c2)[C@@H]1OC(=O)c1cc(O)c(O)c(O)c1)c1cc(O)c(O)c(O)c1
REMARK SMILES IDX 5 1 46 2 33 3 20 4 7 5 6 6 4 7 3 8 2 9 1 10 59 11 60 12
REMARK SMILES IDX 61 13 67 14 63 15 65 16 62 17 64 19 66 21 47 23 48 24 49 25
REMARK SMILES IDX 50 26 58 27 51 28 56 29 52 30 54 31 57 32 53 34 55 36 34 38
REMARK SMILES IDX 35 39 36 40 37 41 45 42 38 43 43 44 39 45 41 46 44 47 40 49
REMARK SMILES IDX 42 51 8 53 9 54 10 55 11 56 19 57 12 58 17 59 13 60 15 61
REMARK SMILES IDX 18 62 14 64 16 66 21 68 22 69 23 70 24 71 32 72 25 73 30 74
REMARK SMILES IDX 26 75 28 76 31 77 27 79 29 81
REMARK H PARENT 62 18 64 20 66 22 57 33 53 35 55 37 44 48 40 50 42 52 18 63
REMARK H PARENT 14 65 16 67 31 78 27 80 29 82
REMARK Flexibility Score: inf
ROOT
ATOM      1  C   UNL     1      44.766  27.324  25.419  1.00  0.00     0.205 C 
ATOM      2  C   UNL     1      43.641  28.129  24.731  1.00  0.00     0.254 C 
ATOM      3  C   UNL     1      43.831  28.058  23.202  1.00  0.00     0.267 C 
ATOM      4  C   UNL     1      45.264  28.479  22.827  1.00  0.00     0.290 C 
ATOM      5  C   UNL     1      46.285  27.691  23.668  1.00  0.00     0.357 C 
ATOM      6  O   UNL     1      46.038  27.841  25.057  1.00  0.00    -0.329 OA
ENDROOT
BRANCH   1   7
ATOM      7  C   UNL     1      44.620  27.366  26.949  1.00  0.00     0.269 C 
BRANCH   7   8
ATOM      8  O   UNL     1      43.269  27.116  27.333  1.00  0.00    -0.459 OA
BRANCH   8   9
ATOM      9  C   UNL     1      42.804  25.885  27.811  1.00  0.00     0.338 C 
ATOM     10  O   UNL     1      43.313  25.373  28.844  1.00  0.00    -0.246 OA
BRANCH   9  11
ATOM     11  C   UNL     1      41.687  25.207  27.118  1.00  0.00     0.067 A 
ATOM     12  C   UNL     1      41.913  24.013  26.420  1.00  0.00     0.066 A 
ATOM     13  C   UNL     1      40.871  23.371  25.747  1.00  0.00     0.162 A 
ATOM     14  C   UNL     1      40.393  25.748  27.143  1.00  0.00     0.066 A 
ATOM     15  C   UNL     1      39.576  23.919  25.762  1.00  0.00     0.200 A 
ATOM     16  C   UNL     1      39.336  25.119  26.477  1.00  0.00     0.162 A 
BRANCH  13  17
ATOM     17  O   UNL     1      41.146  22.192  25.049  1.00  0.00    -0.504 OA
ATOM     18  H   UNL     1      40.825  22.036  24.101  1.00  0.00     0.293 HD
ENDBRANCH  13  17
BRANCH  15  19
ATOM     19  O   UNL     1      38.566  23.257  25.059  1.00  0.00    -0.502 OA
ATOM     20  H   UNL     1      37.718  22.911  25.480  1.00  0.00     0.293 HD
ENDBRANCH  15  19
BRANCH  16  21
ATOM     21  O   UNL     1      38.072  25.711  26.559  1.00  0.00    -0.504 OA
ATOM     22  H   UNL     1      37.913  26.685  26.756  1.00  0.00     0.293 HD
ENDBRANCH  16  21
ENDBRANCH   9  11
ENDBRANCH   8   9
ENDBRANCH   7   8
ENDBRANCH   1   7
BRANCH   2  23
ATOM     23  O   UNL     1      43.697  29.489  25.163  1.00  0.00    -0.452 OA
BRANCH  23  24
ATOM     24  C   UNL     1      42.654  30.140  25.835  1.00  0.00     0.338 C 
ATOM     25  O   UNL     1      42.863  30.699  26.947  1.00  0.00    -0.246 OA
BRANCH  24  26
ATOM     26  C   UNL     1      41.306  30.172  25.231  1.00  0.00     0.067 A 
ATOM     27  C   UNL     1      40.950  31.187  24.325  1.00  0.00     0.066 A 
ATOM     28  C   UNL     1      40.368  29.180  25.551  1.00  0.00     0.066 A 
ATOM     29  C   UNL     1      39.678  31.210  23.747  1.00  0.00     0.162 A 
ATOM     30  C   UNL     1      39.091  29.199  24.983  1.00  0.00     0.162 A 
ATOM     31  C   UNL     1      38.740  30.217  24.078  1.00  0.00     0.200 A 
BRANCH  29  32
ATOM     32  O   UNL     1      39.369  32.216  22.829  1.00  0.00    -0.504 OA
ATOM     33  H   UNL     1      39.486  32.084  21.832  1.00  0.00     0.293 HD
ENDBRANCH  29  32
BRANCH  30  34
ATOM     34  O   UNL     1      38.162  28.212  25.317  1.00  0.00    -0.504 OA
ATOM     35  H   UNL     1      37.326  28.436  25.848  1.00  0.00     0.293 HD
ENDBRANCH  30  34
BRANCH  31  36
ATOM     36  O   UNL     1      37.471  30.247  23.498  1.00  0.00    -0.502 OA
ATOM     37  H   UNL     1      36.627  30.064  24.033  1.00  0.00     0.293 HD
ENDBRANCH  31  36
ENDBRANCH  24  26
ENDBRANCH  23  24
ENDBRANCH   2  23
BRANCH   3  38
ATOM     38  O   UNL     1      42.906  28.917  22.536  1.00  0.00    -0.450 OA
BRANCH  38  39
ATOM     39  C   UNL     1      42.007  28.500  21.548  1.00  0.00     0.338 C 
ATOM     40  O   UNL     1      41.826  29.205  20.518  1.00  0.00    -0.246 OA
BRANCH  39  41
ATOM     41  C   UNL     1      41.265  27.230  21.725  1.00  0.00     0.067 A 
ATOM     42  C   UNL     1      40.065  27.183  22.456  1.00  0.00     0.066 A 
ATOM     43  C   UNL     1      41.764  26.044  21.164  1.00  0.00     0.066 A 
ATOM     44  C   UNL     1      39.391  25.969  22.652  1.00  0.00     0.162 A 
ATOM     45  C   UNL     1      41.101  24.829  21.355  1.00  0.00     0.162 A 
ATOM     46  C   UNL     1      39.915  24.785  22.105  1.00  0.00     0.200 A 
BRANCH  44  47
ATOM     47  O   UNL     1      38.205  25.933  23.390  1.00  0.00    -0.504 OA
ATOM     48  H   UNL     1      37.846  26.753  23.867  1.00  0.00     0.293 HD
ENDBRANCH  44  47
BRANCH  45  49
ATOM     49  O   UNL     1      41.633  23.670  20.788  1.00  0.00    -0.504 OA
ATOM     50  H   UNL     1      41.069  23.032  20.243  1.00  0.00     0.293 HD
ENDBRANCH  45  49
BRANCH  46  51
ATOM     51  O   UNL     1      39.267  23.565  22.295  1.00  0.00    -0.502 OA
ATOM     52  H   UNL     1      39.628  22.692  21.926  1.00  0.00     0.293 HD
ENDBRANCH  46  51
ENDBRANCH  39  41
ENDBRANCH  38  39
ENDBRANCH   3  38
BRANCH   5  53
ATOM     53  O   UNL     1      46.287  26.309  23.302  1.00  0.00    -0.428 OA
BRANCH  53  54
ATOM     54  C   UNL     1      47.234  25.742  22.440  1.00  0.00     0.340 C 
ATOM     55  O   UNL     1      48.301  26.359  22.176  1.00  0.00    -0.246 OA
BRANCH  54  56
ATOM     56  C   UNL     1      46.957  24.426  21.820  1.00  0.00     0.067 A 
ATOM     57  C   UNL     1      45.632  24.004  21.626  1.00  0.00     0.066 A 
ATOM     58  C   UNL     1      48.011  23.595  21.408  1.00  0.00     0.066 A 
ATOM     59  C   UNL     1      45.360  22.761  21.037  1.00  0.00     0.162 A 
ATOM     60  C   UNL     1      47.746  22.355  20.812  1.00  0.00     0.162 A 
ATOM     61  C   UNL     1      46.420  21.931  20.631  1.00  0.00     0.200 A 
BRANCH  59  62
ATOM     62  O   UNL     1      44.044  22.345  20.852  1.00  0.00    -0.504 OA
ATOM     63  H   UNL     1      43.325  22.984  20.533  1.00  0.00     0.293 HD
ENDBRANCH  59  62
BRANCH  60  64
ATOM     64  O   UNL     1      48.810  21.544  20.415  1.00  0.00    -0.504 OA
ATOM     65  H   UNL     1      48.754  20.533  20.449  1.00  0.00     0.293 HD
ENDBRANCH  60  64
BRANCH  61  66
ATOM     66  O   UNL     1      46.172  20.686  20.046  1.00  0.00    -0.502 OA
ATOM     67  H   UNL     1      45.369  20.528  19.438  1.00  0.00     0.293 HD
ENDBRANCH  61  66
ENDBRANCH  54  56
ENDBRANCH  53  54
ENDBRANCH   5  53
BRANCH   4  68
ATOM     68  O   UNL     1      45.505  28.235  21.438  1.00  0.00    -0.448 OA
BRANCH  68  69
ATOM     69  C   UNL     1      46.275  29.080  20.625  1.00  0.00     0.339 C 
ATOM     70  O   UNL     1      47.223  28.608  19.942  1.00  0.00    -0.246 OA
BRANCH  69  71
ATOM     71  C   UNL     1      45.950  30.520  20.536  1.00  0.00     0.067 A 
ATOM     72  C   UNL     1      44.612  30.949  20.482  1.00  0.00     0.066 A 
ATOM     73  C   UNL     1      46.975  31.478  20.509  1.00  0.00     0.066 A 
ATOM     74  C   UNL     1      44.303  32.316  20.436  1.00  0.00     0.162 A 
ATOM     75  C   UNL     1      46.682  32.847  20.447  1.00  0.00     0.162 A 
ATOM     76  C   UNL     1      45.330  33.272  20.430  1.00  0.00     0.200 A 
BRANCH  74  77
ATOM     77  O   UNL     1      42.974  32.738  20.410  1.00  0.00    -0.504 OA
ATOM     78  H   UNL     1      42.227  32.110  20.153  1.00  0.00     0.293 HD
ENDBRANCH  74  77
BRANCH  75  79
ATOM     79  O   UNL     1      47.758  33.738  20.393  1.00  0.00    -0.504 OA
ATOM     80  H   UNL     1      48.592  33.651  20.952  1.00  0.00     0.293 HD
ENDBRANCH  75  79
BRANCH  76  81
ATOM     81  O   UNL     1      44.972  34.622  20.418  1.00  0.00    -0.502 OA
ATOM     82  H   UNL     1      45.627  35.370  20.569  1.00  0.00     0.293 HD
ENDBRANCH  76  81
ENDBRANCH  69  71
ENDBRANCH  68  69
ENDBRANCH   4  68
TORSDOF 31
ENDMDL
MODEL 8
REMARK VINA RESULT:    -7.342      2.615      8.851
REMARK INTER + INTRA:         -23.699
REMARK INTER:                 -17.543
REMARK INTRA:                  -6.156
REMARK UNBOUND:                -6.270
REMARK SMILES O=C(OC[C@@H]1O[C@@H](OC(=O)c2cc(O)c(O)c(O)c2)[C@@H](OC(=O)c2cc(O)c(O)c(O)c2)[C@H](OC(=O)c2cc(O)c(O)c(O)c2)[C@@H]1OC(=O)c1cc(O)c(O)c(O)c1)c1cc(O)c(O)c(O)c1
REMARK SMILES IDX 5 1 46 2 33 3 20 4 7 5 6 6 4 7 3 8 2 9 1 10 59 11 60 12
REMARK SMILES IDX 61 13 67 14 63 15 65 16 62 17 64 19 66 21 47 23 48 24 49 25
REMARK SMILES IDX 50 26 58 27 51 28 56 29 52 30 54 31 57 32 53 34 55 36 34 38
REMARK SMILES IDX 35 39 36 40 37 41 45 42 38 43 43 44 39 45 41 46 44 47 40 49
REMARK SMILES IDX 42 51 8 53 9 54 10 55 11 56 19 57 12 58 17 59 13 60 15 61
REMARK SMILES IDX 18 62 14 64 16 66 21 68 22 69 23 70 24 71 32 72 25 73 30 74
REMARK SMILES IDX 26 75 28 76 31 77 27 79 29 81
REMARK H PARENT 62 18 64 20 66 22 57 33 53 35 55 37 44 48 40 50 42 52 18 63
REMARK H PARENT 14 65 16 67 31 78 27 80 29 82
REMARK Flexibility Score: inf
ROOT
ATOM      1  C   UNL     1      42.283  27.849  21.973  1.00  0.00     0.205 C 
ATOM      2  C   UNL     1      43.596  27.127  22.346  1.00  0.00     0.254 C 
ATOM      3  C   UNL     1      44.759  28.139  22.308  1.00  0.00     0.267 C 
ATOM      4  C   UNL     1      44.775  28.875  20.956  1.00  0.00     0.290 C 
ATOM      5  C   UNL     1      43.379  29.444  20.645  1.00  0.00     0.357 C 
ATOM      6  O   UNL     1      42.386  28.430  20.681  1.00  0.00    -0.329 OA
ENDROOT
BRANCH   1   7
ATOM      7  C   UNL     1      41.091  26.878  21.996  1.00  0.00     0.269 C 
BRANCH   7   8
ATOM      8  O   UNL     1      40.025  27.407  22.783  1.00  0.00    -0.459 OA
BRANCH   8   9
ATOM      9  C   UNL     1      39.233  26.643  23.647  1.00  0.00     0.338 C 
ATOM     10  O   UNL     1      38.767  27.155  24.701  1.00  0.00    -0.246 OA
BRANCH   9  11
ATOM     11  C   UNL     1      38.917  25.240  23.301  1.00  0.00     0.067 A 
ATOM     12  C   UNL     1      37.760  24.937  22.571  1.00  0.00     0.066 A 
ATOM     13  C   UNL     1      37.442  23.615  22.252  1.00  0.00     0.162 A 
ATOM     14  C   UNL     1      39.763  24.195  23.702  1.00  0.00     0.066 A 
ATOM     15  C   UNL     1      38.284  22.567  22.663  1.00  0.00     0.200 A 
ATOM     16  C   UNL     1      39.464  22.865  23.390  1.00  0.00     0.162 A 
BRANCH  13  17
ATOM     17  O   UNL     1      36.269  23.359  21.538  1.00  0.00    -0.504 OA
ATOM     18  H   UNL     1      36.107  23.732  20.610  1.00  0.00     0.293 HD
ENDBRANCH  13  17
BRANCH  15  19
ATOM     19  O   UNL     1      37.919  21.256  22.342  1.00  0.00    -0.502 OA
ATOM     20  H   UNL     1      37.009  20.991  21.999  1.00  0.00     0.293 HD
ENDBRANCH  15  19
BRANCH  16  21
ATOM     21  O   UNL     1      40.361  21.880  23.812  1.00  0.00    -0.504 OA
ATOM     22  H   UNL     1      40.155  20.894  23.832  1.00  0.00     0.293 HD
ENDBRANCH  16  21
ENDBRANCH   9  11
ENDBRANCH   8   9
ENDBRANCH   7   8
ENDBRANCH   1   7
BRANCH   2  23
ATOM     23  O   UNL     1      43.841  26.074  21.414  1.00  0.00    -0.452 OA
BRANCH  23  24
ATOM     24  C   UNL     1      43.920  24.719  21.765  1.00  0.00     0.338 C 
ATOM     25  O   UNL     1      42.946  24.149  22.330  1.00  0.00    -0.246 OA
BRANCH  24  26
ATOM     26  C   UNL     1      45.152  23.960  21.467  1.00  0.00     0.067 A 
ATOM     27  C   UNL     1      46.416  24.500  21.762  1.00  0.00     0.066 A 
ATOM     28  C   UNL     1      45.070  22.684  20.891  1.00  0.00     0.066 A 
ATOM     29  C   UNL     1      47.580  23.777  21.489  1.00  0.00     0.162 A 
ATOM     30  C   UNL     1      46.229  21.956  20.607  1.00  0.00     0.162 A 
ATOM     31  C   UNL     1      47.491  22.502  20.904  1.00  0.00     0.200 A 
BRANCH  29  32
ATOM     32  O   UNL     1      48.816  24.332  21.822  1.00  0.00    -0.504 OA
ATOM     33  H   UNL     1      49.667  24.074  21.336  1.00  0.00     0.293 HD
ENDBRANCH  29  32
BRANCH  30  34
ATOM     34  O   UNL     1      46.136  20.691  20.024  1.00  0.00    -0.504 OA
ATOM     35  H   UNL     1      45.758  20.570  19.090  1.00  0.00     0.293 HD
ENDBRANCH  30  34
BRANCH  31  36
ATOM     36  O   UNL     1      48.658  21.786  20.632  1.00  0.00    -0.502 OA
ATOM     37  H   UNL     1      48.728  20.785  20.789  1.00  0.00     0.293 HD
ENDBRANCH  31  36
ENDBRANCH  24  26
ENDBRANCH  23  24
ENDBRANCH   2  23
BRANCH   3  38
ATOM     38  O   UNL     1      46.011  27.480  22.493  1.00  0.00    -0.450 OA
BRANCH  38  39
ATOM     39  C   UNL     1      46.846  27.662  23.600  1.00  0.00     0.338 C 
ATOM     40  O   UNL     1      46.463  27.306  24.748  1.00  0.00    -0.246 OA
BRANCH  39  41
ATOM     41  C   UNL     1      48.179  28.283  23.416  1.00  0.00     0.067 A 
ATOM     42  C   UNL     1      48.328  29.679  23.346  1.00  0.00     0.066 A 
ATOM     43  C   UNL     1      49.319  27.473  23.300  1.00  0.00     0.066 A 
ATOM     44  C   UNL     1      49.588  30.256  23.131  1.00  0.00     0.162 A 
ATOM     45  C   UNL     1      50.578  28.037  23.083  1.00  0.00     0.162 A 
ATOM     46  C   UNL     1      50.718  29.431  22.992  1.00  0.00     0.200 A 
BRANCH  44  47
ATOM     47  O   UNL     1      49.723  31.645  23.052  1.00  0.00    -0.504 OA
ATOM     48  H   UNL     1      50.626  32.101  23.134  1.00  0.00     0.293 HD
ENDBRANCH  44  47
BRANCH  45  49
ATOM     49  O   UNL     1      51.686  27.197  22.965  1.00  0.00    -0.504 OA
ATOM     50  H   UNL     1      52.189  26.855  23.773  1.00  0.00     0.293 HD
ENDBRANCH  45  49
BRANCH  46  51
ATOM     51  O   UNL     1      51.979  29.982  22.768  1.00  0.00    -0.502 OA
ATOM     52  H   UNL     1      52.329  30.185  21.838  1.00  0.00     0.293 HD
ENDBRANCH  46  51
ENDBRANCH  39  41
ENDBRANCH  38  39
ENDBRANCH   3  38
BRANCH   5  53
ATOM     53  O   UNL     1      43.050  30.505  21.544  1.00  0.00    -0.428 OA
BRANCH  53  54
ATOM     54  C   UNL     1      42.325  31.642  21.164  1.00  0.00     0.340 C 
ATOM     55  O   UNL     1      42.918  32.624  20.640  1.00  0.00    -0.246 OA
BRANCH  54  56
ATOM     56  C   UNL     1      40.867  31.692  21.409  1.00  0.00     0.067 A 
ATOM     57  C   UNL     1      40.079  32.669  20.778  1.00  0.00     0.066 A 
ATOM     58  C   UNL     1      40.253  30.759  22.261  1.00  0.00     0.066 A 
ATOM     59  C   UNL     1      38.696  32.722  21.002  1.00  0.00     0.162 A 
ATOM     60  C   UNL     1      38.870  30.802  22.483  1.00  0.00     0.162 A 
ATOM     61  C   UNL     1      38.089  31.789  21.860  1.00  0.00     0.200 A 
BRANCH  59  62
ATOM     62  O   UNL     1      37.922  33.696  20.378  1.00  0.00    -0.504 OA
ATOM     63  H   UNL     1      37.632  34.537  20.863  1.00  0.00     0.293 HD
ENDBRANCH  59  62
BRANCH  60  64
ATOM     64  O   UNL     1      38.284  29.868  23.336  1.00  0.00    -0.504 OA
ATOM     65  H   UNL     1      38.285  29.987  24.343  1.00  0.00     0.293 HD
ENDBRANCH  60  64
BRANCH  61  66
ATOM     66  O   UNL     1      36.713  31.826  22.101  1.00  0.00    -0.502 OA
ATOM     67  H   UNL     1      36.211  31.024  22.479  1.00  0.00     0.293 HD
ENDBRANCH  61  66
ENDBRANCH  54  56
ENDBRANCH  53  54
ENDBRANCH   5  53
BRANCH   4  68
ATOM     68  O   UNL     1      45.727  29.943  20.984  1.00  0.00    -0.448 OA
BRANCH  68  69
ATOM     69  C   UNL     1      46.528  30.297  19.888  1.00  0.00     0.339 C 
ATOM     70  O   UNL     1      46.127  31.166  19.067  1.00  0.00    -0.246 OA
BRANCH  69  71
ATOM     71  C   UNL     1      47.860  29.680  19.715  1.00  0.00     0.067 A 
ATOM     72  C   UNL     1      48.995  30.481  19.492  1.00  0.00     0.066 A 
ATOM     73  C   UNL     1      48.010  28.286  19.776  1.00  0.00     0.066 A 
ATOM     74  C   UNL     1      50.264  29.898  19.365  1.00  0.00     0.162 A 
ATOM     75  C   UNL     1      49.270  27.689  19.635  1.00  0.00     0.162 A 
ATOM     76  C   UNL     1      50.413  28.506  19.447  1.00  0.00     0.200 A 
BRANCH  74  77
ATOM     77  O   UNL     1      51.390  30.698  19.171  1.00  0.00    -0.504 OA
ATOM     78  H   UNL     1      51.960  30.613  18.343  1.00  0.00     0.293 HD
ENDBRANCH  74  77
BRANCH  75  79
ATOM     79  O   UNL     1      49.333  26.293  19.678  1.00  0.00    -0.504 OA
ATOM     80  H   UNL     1      48.902  25.729  20.393  1.00  0.00     0.293 HD
ENDBRANCH  75  79
BRANCH  76  81
ATOM     81  O   UNL     1      51.701  27.975  19.350  1.00  0.00    -0.502 OA
ATOM     82  H   UNL     1      51.953  27.246  18.705  1.00  0.00     0.293 HD
ENDBRANCH  76  81
ENDBRANCH  69  71
ENDBRANCH  68  69
ENDBRANCH   4  68
TORSDOF 31
ENDMDL
MODEL 9
REMARK VINA RESULT:    -7.320      2.286      8.076
REMARK INTER + INTRA:         -23.647
REMARK INTER:                 -16.665
REMARK INTRA:                  -6.982
REMARK UNBOUND:                -6.270
REMARK SMILES O=C(OC[C@@H]1O[C@@H](OC(=O)c2cc(O)c(O)c(O)c2)[C@@H](OC(=O)c2cc(O)c(O)c(O)c2)[C@H](OC(=O)c2cc(O)c(O)c(O)c2)[C@@H]1OC(=O)c1cc(O)c(O)c(O)c1)c1cc(O)c(O)c(O)c1
REMARK SMILES IDX 5 1 46 2 33 3 20 4 7 5 6 6 4 7 3 8 2 9 1 10 59 11 60 12
REMARK SMILES IDX 61 13 67 14 63 15 65 16 62 17 64 19 66 21 47 23 48 24 49 25
REMARK SMILES IDX 50 26 58 27 51 28 56 29 52 30 54 31 57 32 53 34 55 36 34 38
REMARK SMILES IDX 35 39 36 40 37 41 45 42 38 43 43 44 39 45 41 46 44 47 40 49
REMARK SMILES IDX 42 51 8 53 9 54 10 55 11 56 19 57 12 58 17 59 13 60 15 61
REMARK SMILES IDX 18 62 14 64 16 66 21 68 22 69 23 70 24 71 32 72 25 73 30 74
REMARK SMILES IDX 26 75 28 76 31 77 27 79 29 81
REMARK H PARENT 62 18 64 20 66 22 57 33 53 35 55 37 44 48 40 50 42 52 18 63
REMARK H PARENT 14 65 16 67 31 78 27 80 29 82
REMARK Flexibility Score: inf
ROOT
ATOM      1  C   UNL     1      45.724  28.311  22.760  1.00  0.00     0.205 C 
ATOM      2  C   UNL     1      44.437  27.457  22.763  1.00  0.00     0.254 C 
ATOM      3  C   UNL     1      43.463  28.005  21.700  1.00  0.00     0.267 C 
ATOM      4  C   UNL     1      43.250  29.516  21.908  1.00  0.00     0.290 C 
ATOM      5  C   UNL     1      44.608  30.234  22.009  1.00  0.00     0.357 C 
ATOM      6  O   UNL     1      45.417  29.671  23.029  1.00  0.00    -0.329 OA
ENDROOT
BRANCH   1   7
ATOM      7  C   UNL     1      46.728  27.803  23.807  1.00  0.00     0.269 C 
BRANCH   7   8
ATOM      8  O   UNL     1      47.002  26.416  23.612  1.00  0.00    -0.459 OA
BRANCH   8   9
ATOM      9  C   UNL     1      47.710  25.902  22.520  1.00  0.00     0.338 C 
ATOM     10  O   UNL     1      48.749  26.484  22.106  1.00  0.00    -0.246 OA
BRANCH   9  11
ATOM     11  C   UNL     1      47.252  24.652  21.875  1.00  0.00     0.067 A 
ATOM     12  C   UNL     1      45.885  24.430  21.658  1.00  0.00     0.066 A 
ATOM     13  C   UNL     1      45.438  23.247  21.066  1.00  0.00     0.162 A 
ATOM     14  C   UNL     1      48.173  23.671  21.478  1.00  0.00     0.066 A 
ATOM     15  C   UNL     1      46.361  22.259  20.678  1.00  0.00     0.200 A 
ATOM     16  C   UNL     1      47.746  22.480  20.881  1.00  0.00     0.162 A 
BRANCH  13  17
ATOM     17  O   UNL     1      44.066  23.062  20.885  1.00  0.00    -0.504 OA
ATOM     18  H   UNL     1      43.516  23.648  20.269  1.00  0.00     0.293 HD
ENDBRANCH  13  17
BRANCH  15  19
ATOM     19  O   UNL     1      45.871  21.080  20.108  1.00  0.00    -0.502 OA
ATOM     20  H   UNL     1      44.892  20.885  19.966  1.00  0.00     0.293 HD
ENDBRANCH  15  19
BRANCH  16  21
ATOM     21  O   UNL     1      48.723  21.556  20.500  1.00  0.00    -0.504 OA
ATOM     22  H   UNL     1      49.280  21.630  19.665  1.00  0.00     0.293 HD
ENDBRANCH  16  21
ENDBRANCH   9  11
ENDBRANCH   8   9
ENDBRANCH   7   8
ENDBRANCH   1   7
BRANCH   2  23
ATOM     23  O   UNL     1      43.829  27.518  24.054  1.00  0.00    -0.452 OA
BRANCH  23  24
ATOM     24  C   UNL     1      43.511  26.391  24.824  1.00  0.00     0.338 C 
ATOM     25  O   UNL     1      44.399  25.539  25.104  1.00  0.00    -0.246 OA
BRANCH  24  26
ATOM     26  C   UNL     1      42.128  26.208  25.309  1.00  0.00     0.067 A 
ATOM     27  C   UNL     1      41.696  24.958  25.788  1.00  0.00     0.066 A 
ATOM     28  C   UNL     1      41.232  27.286  25.305  1.00  0.00     0.066 A 
ATOM     29  C   UNL     1      40.390  24.789  26.256  1.00  0.00     0.162 A 
ATOM     30  C   UNL     1      39.922  27.125  25.764  1.00  0.00     0.162 A 
ATOM     31  C   UNL     1      39.494  25.873  26.241  1.00  0.00     0.200 A 
BRANCH  29  32
ATOM     32  O   UNL     1      40.004  23.542  26.751  1.00  0.00    -0.504 OA
ATOM     33  H   UNL     1      40.131  22.692  26.216  1.00  0.00     0.293 HD
ENDBRANCH  29  32
BRANCH  30  34
ATOM     34  O   UNL     1      39.035  28.203  25.744  1.00  0.00    -0.504 OA
ATOM     35  H   UNL     1      38.848  28.745  26.581  1.00  0.00     0.293 HD
ENDBRANCH  30  34
BRANCH  31  36
ATOM     36  O   UNL     1      38.191  25.696  26.708  1.00  0.00    -0.502 OA
ATOM     37  H   UNL     1      37.676  24.833  26.561  1.00  0.00     0.293 HD
ENDBRANCH  31  36
ENDBRANCH  24  26
ENDBRANCH  23  24
ENDBRANCH   2  23
BRANCH   3  38
ATOM     38  O   UNL     1      42.201  27.342  21.779  1.00  0.00    -0.450 OA
BRANCH  38  39
ATOM     39  C   UNL     1      41.964  26.035  21.341  1.00  0.00     0.338 C 
ATOM     40  O   UNL     1      42.642  25.553  20.392  1.00  0.00    -0.246 OA
BRANCH  39  41
ATOM     41  C   UNL     1      40.906  25.227  21.991  1.00  0.00     0.067 A 
ATOM     42  C   UNL     1      41.124  23.881  22.330  1.00  0.00     0.066 A 
ATOM     43  C   UNL     1      39.658  25.804  22.270  1.00  0.00     0.066 A 
ATOM     44  C   UNL     1      40.102  23.113  22.908  1.00  0.00     0.162 A 
ATOM     45  C   UNL     1      38.633  25.048  22.844  1.00  0.00     0.162 A 
ATOM     46  C   UNL     1      38.849  23.696  23.160  1.00  0.00     0.200 A 
BRANCH  44  47
ATOM     47  O   UNL     1      40.326  21.771  23.231  1.00  0.00    -0.504 OA
ATOM     48  H   UNL     1      39.832  21.018  22.764  1.00  0.00     0.293 HD
ENDBRANCH  44  47
BRANCH  45  49
ATOM     49  O   UNL     1      37.403  25.655  23.099  1.00  0.00    -0.504 OA
ATOM     50  H   UNL     1      36.716  25.238  23.714  1.00  0.00     0.293 HD
ENDBRANCH  45  49
BRANCH  46  51
ATOM     51  O   UNL     1      37.816  22.950  23.726  1.00  0.00    -0.502 OA
ATOM     52  H   UNL     1      36.962  22.731  23.223  1.00  0.00     0.293 HD
ENDBRANCH  46  51
ENDBRANCH  39  41
ENDBRANCH  38  39
ENDBRANCH   3  38
BRANCH   5  53
ATOM     53  O   UNL     1      45.290  30.211  20.753  1.00  0.00    -0.428 OA
BRANCH  53  54
ATOM     54  C   UNL     1      46.349  31.071  20.435  1.00  0.00     0.340 C 
ATOM     55  O   UNL     1      46.191  32.321  20.500  1.00  0.00    -0.246 OA
BRANCH  54  56
ATOM     56  C   UNL     1      47.642  30.502  19.994  1.00  0.00     0.067 A 
ATOM     57  C   UNL     1      47.789  29.112  19.855  1.00  0.00     0.066 A 
ATOM     58  C   UNL     1      48.728  31.341  19.697  1.00  0.00     0.066 A 
ATOM     59  C   UNL     1      49.010  28.564  19.435  1.00  0.00     0.162 A 
ATOM     60  C   UNL     1      49.948  30.801  19.269  1.00  0.00     0.162 A 
ATOM     61  C   UNL     1      50.095  29.410  19.144  1.00  0.00     0.200 A 
BRANCH  59  62
ATOM     62  O   UNL     1      49.151  27.185  19.304  1.00  0.00    -0.504 OA
ATOM     63  H   UNL     1      49.133  26.570  20.109  1.00  0.00     0.293 HD
ENDBRANCH  59  62
BRANCH  60  64
ATOM     64  O   UNL     1      51.014  31.654  18.985  1.00  0.00    -0.504 OA
ATOM     65  H   UNL     1      51.770  31.804  19.643  1.00  0.00     0.293 HD
ENDBRANCH  60  64
BRANCH  61  66
ATOM     66  O   UNL     1      51.321  28.885  18.728  1.00  0.00    -0.502 OA
ATOM     67  H   UNL     1      51.443  28.470  17.805  1.00  0.00     0.293 HD
ENDBRANCH  61  66
ENDBRANCH  54  56
ENDBRANCH  53  54
ENDBRANCH   5  53
BRANCH   4  68
ATOM     68  O   UNL     1      42.503  30.065  20.818  1.00  0.00    -0.448 OA
BRANCH  68  69
ATOM     69  C   UNL     1      41.904  31.333  20.850  1.00  0.00     0.339 C 
ATOM     70  O   UNL     1      42.552  32.347  20.473  1.00  0.00    -0.246 OA
BRANCH  69  71
ATOM     71  C   UNL     1      40.500  31.479  21.288  1.00  0.00     0.067 A 
ATOM     72  C   UNL     1      39.704  32.530  20.800  1.00  0.00     0.066 A 
ATOM     73  C   UNL     1      39.941  30.565  22.195  1.00  0.00     0.066 A 
ATOM     74  C   UNL     1      38.361  32.646  21.187  1.00  0.00     0.162 A 
ATOM     75  C   UNL     1      38.606  30.677  22.603  1.00  0.00     0.162 A 
ATOM     76  C   UNL     1      37.800  31.719  22.078  1.00  0.00     0.200 A 
BRANCH  74  77
ATOM     77  O   UNL     1      37.568  33.675  20.679  1.00  0.00    -0.504 OA
ATOM     78  H   UNL     1      36.995  34.245  21.283  1.00  0.00     0.293 HD
ENDBRANCH  74  77
BRANCH  75  79
ATOM     79  O   UNL     1      38.132  29.746  23.532  1.00  0.00    -0.504 OA
ATOM     80  H   UNL     1      37.791  28.829  23.289  1.00  0.00     0.293 HD
ENDBRANCH  75  79
BRANCH  76  81
ATOM     81  O   UNL     1      36.450  31.855  22.406  1.00  0.00    -0.502 OA
ATOM     82  H   UNL     1      35.921  31.146  22.884  1.00  0.00     0.293 HD
ENDBRANCH  76  81
ENDBRANCH  69  71
ENDBRANCH  68  69
ENDBRANCH   4  68
TORSDOF 31
ENDMDL
