MODEL 1
REMARK VINA RESULT:    10.456      0.000      0.000
REMARK INTER + INTRA:          14.955
REMARK INTER:                  15.346
REMARK INTRA:                  -0.391
REMARK UNBOUND:                -0.391
REMARK SMILES O=C([O-])CCCCCCCC(=O)[O-]
REMARK SMILES IDX 7 1 6 2 5 3 4 4 2 5 1 6 3 7 8 8 9 9 10 10 11 11 12 12 13 13
REMARK H PARENT
REMARK Flexibility Score: inf
ROOT
ATOM      1  C   UNL     1      53.695  56.535  25.000  1.00  0.00     0.000 C 
ENDROOT
BRANCH   1   2
ATOM      2  C   UNL     1      54.307  55.501  24.040  1.00  0.00     0.000 C 
BRANCH   2   3
ATOM      3  C   UNL     1      55.813  55.723  23.812  1.00  0.00     0.006 C 
BRANCH   3   4
ATOM      4  C   UNL     1      56.381  56.819  24.722  1.00  0.00     0.053 C 
BRANCH   4   5
ATOM      5  C   UNL     1      57.403  56.277  25.674  1.00  0.00     0.041 C 
ATOM      6  O   UNL     1      57.669  55.046  25.684  1.00  0.00    -0.550 OA
ATOM      7  O   UNL     1      58.035  57.125  26.575  1.00  0.00    -0.550 OA
ENDBRANCH   4   5
ENDBRANCH   3   4
ENDBRANCH   2   3
ENDBRANCH   1   2
BRANCH   1   8
ATOM      8  C   UNL     1      52.477  55.988  25.759  1.00  0.00     0.000 C 
BRANCH   8   9
ATOM      9  C   UNL     1      52.861  55.575  27.188  1.00  0.00     0.006 C 
BRANCH   9  10
ATOM     10  C   UNL     1      51.692  54.926  27.939  1.00  0.00     0.053 C 
BRANCH  10  11
ATOM     11  C   UNL     1      51.998  53.515  28.336  1.00  0.00     0.041 C 
ATOM     12  O   UNL     1      53.061  52.965  27.948  1.00  0.00    -0.550 OA
ATOM     13  O   UNL     1      51.092  52.797  29.106  1.00  0.00    -0.550 OA
ENDBRANCH  10  11
ENDBRANCH   9  10
ENDBRANCH   8   9
ENDBRANCH   1   8
TORSDOF 8
ENDMDL
MODEL 2
REMARK VINA RESULT:    10.852      9.804     11.531
REMARK INTER + INTRA:          15.536
REMARK INTER:                  15.801
REMARK INTRA:                  -0.266
REMARK UNBOUND:                -0.391
REMARK SMILES O=C([O-])CCCCCCCC(=O)[O-]
REMARK SMILES IDX 7 1 6 2 5 3 4 4 2 5 1 6 3 7 8 8 9 9 10 10 11 11 12 12 13 13
REMARK H PARENT
REMARK Flexibility Score: inf
ROOT
ATOM      1  C   UNL     1      57.145  47.711  18.109  1.00  0.00     0.000 C 
ENDROOT
BRANCH   1   2
ATOM      2  C   UNL     1      56.023  47.976  19.126  1.00  0.00     0.000 C 
BRANCH   2   3
ATOM      3  C   UNL     1      56.211  47.187  20.434  1.00  0.00     0.006 C 
BRANCH   3   4
ATOM      4  C   UNL     1      56.655  48.087  21.594  1.00  0.00     0.053 C 
BRANCH   4   5
ATOM      5  C   UNL     1      57.417  47.320  22.631  1.00  0.00     0.041 C 
ATOM      6  O   UNL     1      56.808  46.758  23.578  1.00  0.00    -0.550 OA
ATOM      7  O   UNL     1      58.804  47.258  22.571  1.00  0.00    -0.550 OA
ENDBRANCH   4   5
ENDBRANCH   3   4
ENDBRANCH   2   3
ENDBRANCH   1   2
BRANCH   1   8
ATOM      8  C   UNL     1      57.022  48.585  16.852  1.00  0.00     0.000 C 
BRANCH   8   9
ATOM      9  C   UNL     1      55.768  49.470  16.919  1.00  0.00     0.006 C 
BRANCH   9  10
ATOM     10  C   UNL     1      55.440  50.117  15.568  1.00  0.00     0.053 C 
BRANCH  10  11
ATOM     11  C   UNL     1      53.968  50.115  15.291  1.00  0.00     0.041 C 
ATOM     12  O   UNL     1      53.401  51.158  14.875  1.00  0.00    -0.550 OA
ATOM     13  O   UNL     1      53.217  48.970  15.526  1.00  0.00    -0.550 OA
ENDBRANCH  10  11
ENDBRANCH   9  10
ENDBRANCH   8   9
ENDBRANCH   1   8
TORSDOF 8
ENDMDL
MODEL 3
REMARK VINA RESULT:    11.073      1.127      6.156
REMARK INTER + INTRA:          15.860
REMARK INTER:                  16.169
REMARK INTRA:                  -0.308
REMARK UNBOUND:                -0.391
REMARK SMILES O=C([O-])CCCCCCCC(=O)[O-]
REMARK SMILES IDX 7 1 6 2 5 3 4 4 2 5 1 6 3 7 8 8 9 9 10 10 11 11 12 12 13 13
REMARK H PARENT
REMARK Flexibility Score: inf
ROOT
ATOM      1  C   UNL     1      53.289  55.920  25.808  1.00  0.00     0.000 C 
ENDROOT
BRANCH   1   2
ATOM      2  C   UNL     1      53.377  54.689  26.724  1.00  0.00     0.000 C 
BRANCH   2   3
ATOM      3  C   UNL     1      52.264  54.660  27.787  1.00  0.00     0.006 C 
BRANCH   3   4
ATOM      4  C   UNL     1      52.340  53.408  28.670  1.00  0.00     0.053 C 
BRANCH   4   5
ATOM      5  C   UNL     1      50.996  52.770  28.847  1.00  0.00     0.041 C 
ATOM      6  O   UNL     1      50.325  52.419  27.841  1.00  0.00    -0.550 OA
ATOM      7  O   UNL     1      50.470  52.597  30.121  1.00  0.00    -0.550 OA
ENDBRANCH   4   5
ENDBRANCH   3   4
ENDBRANCH   2   3
ENDBRANCH   1   2
BRANCH   1   8
ATOM      8  C   UNL     1      53.824  55.645  24.395  1.00  0.00     0.000 C 
BRANCH   8   9
ATOM      9  C   UNL     1      55.038  56.533  24.085  1.00  0.00     0.006 C 
BRANCH   9  10
ATOM     10  C   UNL     1      55.666  57.124  25.354  1.00  0.00     0.053 C 
BRANCH  10  11
ATOM     11  C   UNL     1      56.994  56.503  25.660  1.00  0.00     0.041 C 
ATOM     12  O   UNL     1      57.838  57.125  26.356  1.00  0.00    -0.550 OA
ATOM     13  O   UNL     1      57.313  55.252  25.147  1.00  0.00    -0.550 OA
ENDBRANCH  10  11
ENDBRANCH   9  10
ENDBRANCH   8   9
ENDBRANCH   1   8
TORSDOF 8
ENDMDL
MODEL 4
REMARK VINA RESULT:    12.267      9.595     10.770
REMARK INTER + INTRA:          17.612
REMARK INTER:                  17.962
REMARK INTRA:                  -0.350
REMARK UNBOUND:                -0.391
REMARK SMILES O=C([O-])CCCCCCCC(=O)[O-]
REMARK SMILES IDX 7 1 6 2 5 3 4 4 2 5 1 6 3 7 8 8 9 9 10 10 11 11 12 12 13 13
REMARK H PARENT
REMARK Flexibility Score: inf
ROOT
ATOM      1  C   UNL     1      55.817  48.119  19.107  1.00  0.00     0.000 C 
ENDROOT
BRANCH   1   2
ATOM      2  C   UNL     1      57.069  48.056  18.217  1.00  0.00     0.000 C 
BRANCH   2   3
ATOM      3  C   UNL     1      56.811  48.581  16.794  1.00  0.00     0.006 C 
BRANCH   3   4
ATOM      4  C   UNL     1      55.434  49.245  16.662  1.00  0.00     0.053 C 
BRANCH   4   5
ATOM      5  C   UNL     1      55.456  50.382  15.687  1.00  0.00     0.041 C 
ATOM      6  O   UNL     1      54.507  50.538  14.875  1.00  0.00    -0.550 OA
ATOM      7  O   UNL     1      56.542  51.247  15.652  1.00  0.00    -0.550 OA
ENDBRANCH   4   5
ENDBRANCH   3   4
ENDBRANCH   2   3
ENDBRANCH   1   2
BRANCH   1   8
ATOM      8  C   UNL     1      55.988  47.347  20.424  1.00  0.00     0.000 C 
BRANCH   8   9
ATOM      9  C   UNL     1      56.836  48.148  21.424  1.00  0.00     0.006 C 
BRANCH   9  10
ATOM     10  C   UNL     1      57.781  47.252  22.234  1.00  0.00     0.053 C 
BRANCH  10  11
ATOM     11  C   UNL     1      57.037  46.406  23.221  1.00  0.00     0.041 C 
ATOM     12  O   UNL     1      57.097  45.151  23.152  1.00  0.00    -0.550 OA
ATOM     13  O   UNL     1      56.249  47.005  24.196  1.00  0.00    -0.550 OA
ENDBRANCH  10  11
ENDBRANCH   9  10
ENDBRANCH   8   9
ENDBRANCH   1   8
TORSDOF 8
ENDMDL
MODEL 5
REMARK VINA RESULT:    12.270     12.022     12.810
REMARK INTER + INTRA:          17.617
REMARK INTER:                  17.835
REMARK INTRA:                  -0.219
REMARK UNBOUND:                -0.391
REMARK SMILES O=C([O-])CCCCCCCC(=O)[O-]
REMARK SMILES IDX 7 1 6 2 5 3 4 4 2 5 1 6 3 7 8 8 9 9 10 10 11 11 12 12 13 13
REMARK H PARENT
REMARK Flexibility Score: inf
ROOT
ATOM      1  C   UNL     1      56.216  44.822  19.956  1.00  0.00     0.000 C 
ENDROOT
BRANCH   1   2
ATOM      2  C   UNL     1      55.479  46.117  20.333  1.00  0.00     0.000 C 
BRANCH   2   3
ATOM      3  C   UNL     1      56.334  47.375  20.098  1.00  0.00     0.006 C 
BRANCH   3   4
ATOM      4  C   UNL     1      56.569  48.166  21.391  1.00  0.00     0.053 C 
BRANCH   4   5
ATOM      5  C   UNL     1      57.351  47.373  22.393  1.00  0.00     0.041 C 
ATOM      6  O   UNL     1      56.762  46.802  23.348  1.00  0.00    -0.550 OA
ATOM      7  O   UNL     1      58.734  47.296  22.291  1.00  0.00    -0.550 OA
ENDBRANCH   4   5
ENDBRANCH   3   4
ENDBRANCH   2   3
ENDBRANCH   1   2
BRANCH   1   8
ATOM      8  C   UNL     1      55.342  43.572  20.135  1.00  0.00     0.000 C 
BRANCH   8   9
ATOM      9  C   UNL     1      56.116  42.460  20.860  1.00  0.00     0.006 C 
BRANCH   9  10
ATOM     10  C   UNL     1      55.183  41.436  21.518  1.00  0.00     0.053 C 
BRANCH  10  11
ATOM     11  C   UNL     1      55.164  40.138  20.771  1.00  0.00     0.041 C 
ATOM     12  O   UNL     1      54.160  39.818  20.083  1.00  0.00    -0.550 OA
ATOM     13  O   UNL     1      56.242  39.266  20.862  1.00  0.00    -0.550 OA
ENDBRANCH  10  11
ENDBRANCH   9  10
ENDBRANCH   8   9
ENDBRANCH   1   8
TORSDOF 8
ENDMDL
MODEL 6
REMARK VINA RESULT:    12.351     12.039     13.501
REMARK INTER + INTRA:          17.736
REMARK INTER:                  17.954
REMARK INTRA:                  -0.218
REMARK UNBOUND:                -0.391
REMARK SMILES O=C([O-])CCCCCCCC(=O)[O-]
REMARK SMILES IDX 7 1 6 2 5 3 4 4 2 5 1 6 3 7 8 8 9 9 10 10 11 11 12 12 13 13
REMARK H PARENT
REMARK Flexibility Score: inf
ROOT
ATOM      1  C   UNL     1      56.208  44.861  20.006  1.00  0.00     0.000 C 
ENDROOT
BRANCH   1   2
ATOM      2  C   UNL     1      55.352  43.604  20.227  1.00  0.00     0.000 C 
BRANCH   2   3
ATOM      3  C   UNL     1      56.150  42.446  20.854  1.00  0.00     0.006 C 
BRANCH   3   4
ATOM      4  C   UNL     1      55.236  41.400  21.506  1.00  0.00     0.053 C 
BRANCH   4   5
ATOM      5  C   UNL     1      55.256  40.102  20.759  1.00  0.00     0.041 C 
ATOM      6  O   UNL     1      54.277  39.770  20.041  1.00  0.00    -0.550 OA
ATOM      7  O   UNL     1      56.341  39.243  20.885  1.00  0.00    -0.550 OA
ENDBRANCH   4   5
ENDBRANCH   3   4
ENDBRANCH   2   3
ENDBRANCH   1   2
BRANCH   1   8
ATOM      8  C   UNL     1      55.430  46.159  20.266  1.00  0.00     0.000 C 
BRANCH   8   9
ATOM      9  C   UNL     1      56.339  47.387  20.099  1.00  0.00     0.006 C 
BRANCH   9  10
ATOM     10  C   UNL     1      56.547  48.140  21.418  1.00  0.00     0.053 C 
BRANCH  10  11
ATOM     11  C   UNL     1      57.349  47.339  22.397  1.00  0.00     0.041 C 
ATOM     12  O   UNL     1      56.774  46.718  23.328  1.00  0.00    -0.550 OA
ATOM     13  O   UNL     1      58.735  47.308  22.301  1.00  0.00    -0.550 OA
ENDBRANCH  10  11
ENDBRANCH   9  10
ENDBRANCH   8   9
ENDBRANCH   1   8
TORSDOF 8
ENDMDL
MODEL 7
REMARK VINA RESULT:    13.197     17.025     18.556
REMARK INTER + INTRA:          18.977
REMARK INTER:                  19.153
REMARK INTRA:                  -0.175
REMARK UNBOUND:                -0.391
REMARK SMILES O=C([O-])CCCCCCCC(=O)[O-]
REMARK SMILES IDX 7 1 6 2 5 3 4 4 2 5 1 6 3 7 8 8 9 9 10 10 11 11 12 12 13 13
REMARK H PARENT
REMARK Flexibility Score: inf
ROOT
ATOM      1  C   UNL     1      46.091  40.581  32.658  1.00  0.00     0.000 C 
ENDROOT
BRANCH   1   2
ATOM      2  C   UNL     1      47.439  40.307  31.971  1.00  0.00     0.000 C 
BRANCH   2   3
ATOM      3  C   UNL     1      48.632  40.885  32.753  1.00  0.00     0.006 C 
BRANCH   3   4
ATOM      4  C   UNL     1      49.728  39.840  32.995  1.00  0.00     0.053 C 
BRANCH   4   5
ATOM      5  C   UNL     1      50.360  39.998  34.343  1.00  0.00     0.041 C 
ATOM      6  O   UNL     1      50.444  39.013  35.123  1.00  0.00    -0.550 OA
ATOM      7  O   UNL     1      50.822  41.242  34.753  1.00  0.00    -0.550 OA
ENDBRANCH   4   5
ENDBRANCH   3   4
ENDBRANCH   2   3
ENDBRANCH   1   2
BRANCH   1   8
ATOM      8  C   UNL     1      45.070  39.458  32.425  1.00  0.00     0.000 C 
BRANCH   8   9
ATOM      9  C   UNL     1      43.664  39.895  32.863  1.00  0.00     0.006 C 
BRANCH   9  10
ATOM     10  C   UNL     1      43.051  40.925  31.907  1.00  0.00     0.053 C 
BRANCH  10  11
ATOM     11  C   UNL     1      41.578  41.085  32.130  1.00  0.00     0.041 C 
ATOM     12  O   UNL     1      40.757  40.572  31.325  1.00  0.00    -0.550 OA
ATOM     13  O   UNL     1      41.113  41.829  33.206  1.00  0.00    -0.550 OA
ENDBRANCH  10  11
ENDBRANCH   9  10
ENDBRANCH   8   9
ENDBRANCH   1   8
TORSDOF 8
ENDMDL
