MODEL 1
REMARK VINA RESULT:    -3.422      0.000      0.000
REMARK INTER + INTRA:          -5.435
REMARK INTER:                  -5.222
REMARK INTRA:                  -0.213
REMARK UNBOUND:                -0.213
REMARK SMILES CC1=CCC[C@@H](C)C(=O)C[C@H](C(C)C)C(=O)C1
REMARK SMILES IDX 8 1 9 2 6 3 7 4 5 5 4 6 3 7 2 8 1 9 10 11 11 12 15 13 16 14
REMARK SMILES IDX 17 15 12 17 13 18 14 19
REMARK H PARENT
REMARK Flexibility Score: 70.00
ROOT
ATOM      1  C   UNL     1     -11.533   8.380  32.294  1.00  0.00     0.136 C 
ATOM      2  O   UNL     1     -11.400   8.152  33.486  1.00  0.00    -0.299 OA
ENDROOT
BRANCH   1   3
ATOM      3  C   UNL     1     -10.662   9.447  31.652  1.00  0.00     0.053 C 
ATOM      4  C   UNL     1      -9.209   9.329  32.131  1.00  0.00     0.016 C 
BRANCH   3   5
ATOM      5  C   UNL     1     -11.225  10.859  31.914  1.00  0.00     0.015 C 
BRANCH   5   6
ATOM      6  C   UNL     1     -11.753  11.516  30.623  1.00  0.00     0.028 C 
BRANCH   6   7
ATOM      7  C   UNL     1     -13.198  11.921  30.761  1.00  0.00    -0.028 C 
ATOM      8  C   UNL     1     -14.251  11.161  30.383  1.00  0.00    -0.070 CG0
ATOM      9  C   UNL     1     -15.638  11.704  30.611  1.00  0.00     0.039 C 
ATOM     10  G   UNL     1     -14.104   9.786  29.749  1.00  0.00     0.000 G0
ENDBRANCH   6   7
ENDBRANCH   5   6
ENDBRANCH   3   5
ENDBRANCH   1   3
BRANCH   1  11
ATOM     11  C   UNL     1     -12.606   7.652  31.510  1.00  0.00     0.087 C 
BRANCH  11  12
ATOM     12  C   UNL     1     -14.063   8.100  31.799  1.00  0.00     0.066 C 
BRANCH  12  13
ATOM     13  C   UNL     1     -14.709   8.668  30.541  1.00  0.00     0.140 C 
ATOM     14  O   UNL     1     -15.755   8.168  30.148  1.00  0.00    -0.299 OA
BRANCH  13  15
ATOM     15  C   UNL     1     -14.084   9.792  29.744  1.00  0.00     0.106 CG0
ATOM     16  G   UNL     1     -14.269  11.149  30.406  1.00  0.00     0.000 G0
ENDBRANCH  13  15
ENDBRANCH  12  13
BRANCH  12  17
ATOM     17  C   UNL     1     -14.959   7.054  32.542  1.00  0.00    -0.006 C 
ATOM     18  C   UNL     1     -14.138   5.888  33.123  1.00  0.00     0.008 C 
ATOM     19  C   UNL     1     -15.738   7.719  33.691  1.00  0.00     0.008 C 
ENDBRANCH  12  17
ENDBRANCH  11  12
ENDBRANCH   1  11
TORSDOF 1
ENDMDL
MODEL 2
REMARK VINA RESULT:    -3.385      2.959      5.733
REMARK INTER + INTRA:          -5.378
REMARK INTER:                  -5.553
REMARK INTRA:                   0.175
REMARK UNBOUND:                -0.213
REMARK SMILES CC1=CCC[C@@H](C)C(=O)C[C@H](C(C)C)C(=O)C1
REMARK SMILES IDX 8 1 9 2 6 3 7 4 5 5 4 6 3 7 2 8 1 9 10 11 11 12 15 13 16 14
REMARK SMILES IDX 17 15 12 17 13 18 14 19
REMARK H PARENT
REMARK Flexibility Score: 70.00
ROOT
ATOM      1  C   UNL     1     -16.098   6.318  29.449  1.00  0.00     0.136 C 
ATOM      2  O   UNL     1     -16.871   5.968  28.572  1.00  0.00    -0.299 OA
ENDROOT
BRANCH   1   3
ATOM      3  C   UNL     1     -15.630   5.289  30.464  1.00  0.00     0.053 C 
ATOM      4  C   UNL     1     -14.983   4.086  29.766  1.00  0.00     0.016 C 
BRANCH   3   5
ATOM      5  C   UNL     1     -16.784   4.848  31.386  1.00  0.00     0.015 C 
BRANCH   5   6
ATOM      6  C   UNL     1     -16.549   5.275  32.848  1.00  0.00     0.028 C 
BRANCH   6   7
ATOM      7  C   UNL     1     -15.080   5.318  33.182  1.00  0.00    -0.028 C 
ATOM      8  C   UNL     1     -14.364   6.452  33.362  1.00  0.00    -0.070 CG0
ATOM      9  C   UNL     1     -12.905   6.321  33.716  1.00  0.00     0.039 C 
ATOM     10  G   UNL     1     -14.960   7.846  33.236  1.00  0.00     0.000 G0
ENDBRANCH   6   7
ENDBRANCH   5   6
ENDBRANCH   3   5
ENDBRANCH   1   3
BRANCH   1  11
ATOM     11  C   UNL     1     -15.689   7.774  29.546  1.00  0.00     0.087 C 
BRANCH  11  12
ATOM     12  C   UNL     1     -16.037   8.477  30.885  1.00  0.00     0.066 C 
BRANCH  12  13
ATOM     13  C   UNL     1     -14.850   8.436  31.838  1.00  0.00     0.140 C 
ATOM     14  O   UNL     1     -13.769   8.848  31.440  1.00  0.00    -0.299 OA
BRANCH  13  15
ATOM     15  C   UNL     1     -14.951   7.865  33.237  1.00  0.00     0.106 CG0
ATOM     16  G   UNL     1     -14.369   6.464  33.339  1.00  0.00     0.000 G0
ENDBRANCH  13  15
ENDBRANCH  12  13
BRANCH  12  17
ATOM     17  C   UNL     1     -16.683   9.897  30.757  1.00  0.00    -0.006 C 
ATOM     18  C   UNL     1     -17.026  10.510  32.127  1.00  0.00     0.008 C 
ATOM     19  C   UNL     1     -15.739  10.862  30.016  1.00  0.00     0.008 C 
ENDBRANCH  12  17
ENDBRANCH  11  12
ENDBRANCH   1  11
TORSDOF 1
ENDMDL
MODEL 3
REMARK VINA RESULT:    -3.374      4.995      7.813
REMARK INTER + INTRA:          -5.362
REMARK INTER:                  -5.319
REMARK INTRA:                  -0.043
REMARK UNBOUND:                -0.213
REMARK SMILES CC1=CCC[C@@H](C)C(=O)C[C@H](C(C)C)C(=O)C1
REMARK SMILES IDX 8 1 9 2 6 3 7 4 5 5 4 6 3 7 2 8 1 9 10 11 11 12 15 13 16 14
REMARK SMILES IDX 17 15 12 17 13 18 14 19
REMARK H PARENT
REMARK Flexibility Score: 70.00
ROOT
ATOM      1  C   UNL     1     -15.543   4.222  29.128  1.00  0.00     0.136 C 
ATOM      2  O   UNL     1     -16.746   4.370  29.275  1.00  0.00    -0.299 OA
ENDROOT
BRANCH   1   3
ATOM      3  C   UNL     1     -15.049   3.315  28.014  1.00  0.00     0.053 C 
ATOM      4  C   UNL     1     -15.889   3.502  26.743  1.00  0.00     0.016 C 
BRANCH   3   5
ATOM      5  C   UNL     1     -15.030   1.840  28.461  1.00  0.00     0.015 C 
BRANCH   5   6
ATOM      6  C   UNL     1     -13.600   1.344  28.751  1.00  0.00     0.028 C 
BRANCH   6   7
ATOM      7  C   UNL     1     -13.500   0.714  30.117  1.00  0.00    -0.028 C 
ATOM      8  C   UNL     1     -13.157   1.374  31.247  1.00  0.00    -0.070 CG0
ATOM      9  C   UNL     1     -13.127   0.600  32.540  1.00  0.00     0.039 C 
ATOM     10  G   UNL     1     -12.811   2.854  31.277  1.00  0.00     0.000 G0
ENDBRANCH   6   7
ENDBRANCH   5   6
ENDBRANCH   3   5
ENDBRANCH   1   3
BRANCH   1  11
ATOM     11  C   UNL     1     -14.586   4.880  30.101  1.00  0.00     0.087 C 
BRANCH  11  12
ATOM     12  C   UNL     1     -14.836   4.564  31.599  1.00  0.00     0.066 C 
BRANCH  12  13
ATOM     13  C   UNL     1     -13.722   3.686  32.156  1.00  0.00     0.140 C 
ATOM     14  O   UNL     1     -13.542   3.672  33.366  1.00  0.00    -0.299 OA
BRANCH  13  15
ATOM     15  C   UNL     1     -12.811   2.869  31.266  1.00  0.00     0.106 CG0
ATOM     16  G   UNL     1     -13.174   1.392  31.258  1.00  0.00     0.000 G0
ENDBRANCH  13  15
ENDBRANCH  12  13
BRANCH  12  17
ATOM     17  C   UNL     1     -15.169   5.796  32.506  1.00  0.00    -0.006 C 
ATOM     18  C   UNL     1     -15.049   7.131  31.746  1.00  0.00     0.008 C 
ATOM     19  C   UNL     1     -16.596   5.687  33.074  1.00  0.00     0.008 C 
ENDBRANCH  12  17
ENDBRANCH  11  12
ENDBRANCH   1  11
TORSDOF 1
ENDMDL
MODEL 4
REMARK VINA RESULT:    -3.369      1.799      4.585
REMARK INTER + INTRA:          -5.354
REMARK INTER:                  -5.606
REMARK INTRA:                   0.252
REMARK UNBOUND:                -0.213
REMARK SMILES CC1=CCC[C@@H](C)C(=O)C[C@H](C(C)C)C(=O)C1
REMARK SMILES IDX 8 1 9 2 6 3 7 4 5 5 4 6 3 7 2 8 1 9 10 11 11 12 15 13 16 14
REMARK SMILES IDX 17 15 12 17 13 18 14 19
REMARK H PARENT
REMARK Flexibility Score: 70.00
ROOT
ATOM      1  C   UNL     1     -14.523  10.341  29.431  1.00  0.00     0.136 C 
ATOM      2  O   UNL     1     -15.086   9.673  28.578  1.00  0.00    -0.299 OA
ENDROOT
BRANCH   1   3
ATOM      3  C   UNL     1     -15.311  11.422  30.150  1.00  0.00     0.053 C 
ATOM      4  C   UNL     1     -14.391  12.566  30.597  1.00  0.00     0.016 C 
BRANCH   3   5
ATOM      5  C   UNL     1     -16.100  10.841  31.340  1.00  0.00     0.015 C 
BRANCH   5   6
ATOM      6  C   UNL     1     -16.380   9.336  31.165  1.00  0.00     0.028 C 
BRANCH   6   7
ATOM      7  C   UNL     1     -15.876   8.539  32.341  1.00  0.00    -0.028 C 
ATOM      8  C   UNL     1     -14.923   7.581  32.271  1.00  0.00    -0.070 CG0
ATOM      9  C   UNL     1     -14.514   6.892  33.548  1.00  0.00     0.039 C 
ATOM     10  G   UNL     1     -14.241   7.175  30.974  1.00  0.00     0.000 G0
ENDBRANCH   6   7
ENDBRANCH   5   6
ENDBRANCH   3   5
ENDBRANCH   1   3
BRANCH   1  11
ATOM     11  C   UNL     1     -13.045  10.128  29.691  1.00  0.00     0.087 C 
BRANCH  11  12
ATOM     12  C   UNL     1     -12.702   9.343  30.985  1.00  0.00     0.066 C 
BRANCH  12  13
ATOM     13  C   UNL     1     -12.896   7.847  30.773  1.00  0.00     0.140 C 
ATOM     14  O   UNL     1     -11.940   7.183  30.398  1.00  0.00    -0.299 OA
BRANCH  13  15
ATOM     15  C   UNL     1     -14.234   7.167  30.968  1.00  0.00     0.106 CG0
ATOM     16  G   UNL     1     -14.919   7.586  32.260  1.00  0.00     0.000 G0
ENDBRANCH  13  15
ENDBRANCH  12  13
BRANCH  12  17
ATOM     17  C   UNL     1     -11.334   9.704  31.654  1.00  0.00    -0.006 C 
ATOM     18  C   UNL     1     -11.139  11.225  31.803  1.00  0.00     0.008 C 
ATOM     19  C   UNL     1     -11.221   9.062  33.048  1.00  0.00     0.008 C 
ENDBRANCH  12  17
ENDBRANCH  11  12
ENDBRANCH   1  11
TORSDOF 1
ENDMDL
MODEL 5
REMARK VINA RESULT:    -3.354      4.667      6.558
REMARK INTER + INTRA:          -5.331
REMARK INTER:                  -5.067
REMARK INTRA:                  -0.264
REMARK UNBOUND:                -0.213
REMARK SMILES CC1=CCC[C@@H](C)C(=O)C[C@H](C(C)C)C(=O)C1
REMARK SMILES IDX 8 1 9 2 6 3 7 4 5 5 4 6 3 7 2 8 1 9 10 11 11 12 15 13 16 14
REMARK SMILES IDX 17 15 12 17 13 18 14 19
REMARK H PARENT
REMARK Flexibility Score: 70.00
ROOT
ATOM      1  C   UNL     1     -14.341   4.478  32.853  1.00  0.00     0.136 C 
ATOM      2  O   UNL     1     -14.923   4.017  33.822  1.00  0.00    -0.299 OA
ENDROOT
BRANCH   1   3
ATOM      3  C   UNL     1     -14.908   5.716  32.180  1.00  0.00     0.053 C 
ATOM      4  C   UNL     1     -14.785   6.941  33.096  1.00  0.00     0.016 C 
BRANCH   3   5
ATOM      5  C   UNL     1     -16.367   5.493  31.737  1.00  0.00     0.015 C 
BRANCH   5   6
ATOM      6  C   UNL     1     -16.456   4.648  30.451  1.00  0.00     0.028 C 
BRANCH   6   7
ATOM      7  C   UNL     1     -15.525   5.165  29.384  1.00  0.00    -0.028 C 
ATOM      8  C   UNL     1     -14.596   4.418  28.744  1.00  0.00    -0.070 CG0
ATOM      9  C   UNL     1     -13.759   5.084  27.682  1.00  0.00     0.039 C 
ATOM     10  G   UNL     1     -14.364   2.944  29.035  1.00  0.00     0.000 G0
ENDBRANCH   6   7
ENDBRANCH   5   6
ENDBRANCH   3   5
ENDBRANCH   1   3
BRANCH   1  11
ATOM     11  C   UNL     1     -13.123   3.762  32.305  1.00  0.00     0.087 C 
BRANCH  11  12
ATOM     12  C   UNL     1     -13.414   2.468  31.500  1.00  0.00     0.066 C 
BRANCH  12  13
ATOM     13  C   UNL     1     -13.205   2.704  30.010  1.00  0.00     0.140 C 
ATOM     14  O   UNL     1     -12.060   2.742  29.581  1.00  0.00    -0.299 OA
BRANCH  13  15
ATOM     15  C   UNL     1     -14.357   2.933  29.055  1.00  0.00     0.106 CG0
ATOM     16  G   UNL     1     -14.573   4.406  28.745  1.00  0.00     0.000 G0
ENDBRANCH  13  15
ENDBRANCH  12  13
BRANCH  12  17
ATOM     17  C   UNL     1     -12.718   1.170  32.029  1.00  0.00    -0.006 C 
ATOM     18  C   UNL     1     -13.025   0.904  33.514  1.00  0.00     0.008 C 
ATOM     19  C   UNL     1     -13.162  -0.059  31.214  1.00  0.00     0.008 C 
ENDBRANCH  12  17
ENDBRANCH  11  12
ENDBRANCH   1  11
TORSDOF 1
ENDMDL
MODEL 6
REMARK VINA RESULT:    -3.291      1.911      4.167
REMARK INTER + INTRA:          -5.235
REMARK INTER:                  -5.144
REMARK INTRA:                  -0.091
REMARK UNBOUND:                -0.213
REMARK SMILES CC1=CCC[C@@H](C)C(=O)C[C@H](C(C)C)C(=O)C1
REMARK SMILES IDX 8 1 9 2 6 3 7 4 5 5 4 6 3 7 2 8 1 9 10 11 11 12 15 13 16 14
REMARK SMILES IDX 17 15 12 17 13 18 14 19
REMARK H PARENT
REMARK Flexibility Score: 70.00
ROOT
ATOM      1  C   UNL     1     -10.674   7.946  34.294  1.00  0.00     0.136 C 
ATOM      2  O   UNL     1      -9.615   7.700  34.850  1.00  0.00    -0.299 OA
ENDROOT
BRANCH   1   3
ATOM      3  C   UNL     1     -11.754   6.878  34.276  1.00  0.00     0.053 C 
ATOM      4  C   UNL     1     -11.447   5.805  33.223  1.00  0.00     0.016 C 
BRANCH   3   5
ATOM      5  C   UNL     1     -13.149   7.497  34.054  1.00  0.00     0.015 C 
BRANCH   5   6
ATOM      6  C   UNL     1     -13.762   7.067  32.707  1.00  0.00     0.028 C 
BRANCH   6   7
ATOM      7  C   UNL     1     -14.643   8.147  32.131  1.00  0.00    -0.028 C 
ATOM      8  C   UNL     1     -14.262   9.021  31.172  1.00  0.00    -0.070 CG0
ATOM      9  C   UNL     1     -15.274  10.027  30.687  1.00  0.00     0.039 C 
ATOM     10  G   UNL     1     -12.872   9.032  30.555  1.00  0.00     0.000 G0
ENDBRANCH   6   7
ENDBRANCH   5   6
ENDBRANCH   3   5
ENDBRANCH   1   3
BRANCH   1  11
ATOM     11  C   UNL     1     -10.851   9.269  33.577  1.00  0.00     0.087 C 
BRANCH  11  12
ATOM     12  C   UNL     1     -10.683   9.220  32.036  1.00  0.00     0.066 C 
BRANCH  12  13
ATOM     13  C   UNL     1     -11.882   9.857  31.344  1.00  0.00     0.140 C 
ATOM     14  O   UNL     1     -12.065  11.058  31.485  1.00  0.00    -0.299 OA
BRANCH  13  15
ATOM     15  C   UNL     1     -12.873   9.051  30.532  1.00  0.00     0.106 CG0
ATOM     16  G   UNL     1     -14.252   9.005  31.172  1.00  0.00     0.000 G0
ENDBRANCH  13  15
ENDBRANCH  12  13
BRANCH  12  17
ATOM     17  C   UNL     1      -9.307   9.726  31.487  1.00  0.00    -0.006 C 
ATOM     18  C   UNL     1      -8.158   8.749  31.797  1.00  0.00     0.008 C 
ATOM     19  C   UNL     1      -9.370   9.934  29.962  1.00  0.00     0.008 C 
ENDBRANCH  12  17
ENDBRANCH  11  12
ENDBRANCH   1  11
TORSDOF 1
ENDMDL
MODEL 7
REMARK VINA RESULT:    -3.289      4.697      6.978
REMARK INTER + INTRA:          -5.233
REMARK INTER:                  -5.404
REMARK INTRA:                   0.171
REMARK UNBOUND:                -0.213
REMARK SMILES CC1=CCC[C@@H](C)C(=O)C[C@H](C(C)C)C(=O)C1
REMARK SMILES IDX 8 1 9 2 6 3 7 4 5 5 4 6 3 7 2 8 1 9 10 11 11 12 15 13 16 14
REMARK SMILES IDX 17 15 12 17 13 18 14 19
REMARK H PARENT
REMARK Flexibility Score: 70.00
ROOT
ATOM      1  C   UNL     1     -13.579   1.513  29.564  1.00  0.00     0.136 C 
ATOM      2  O   UNL     1     -14.203   0.591  29.062  1.00  0.00    -0.299 OA
ENDROOT
BRANCH   1   3
ATOM      3  C   UNL     1     -12.672   1.221  30.747  1.00  0.00     0.053 C 
ATOM      4  C   UNL     1     -13.356   0.272  31.740  1.00  0.00     0.016 C 
BRANCH   3   5
ATOM      5  C   UNL     1     -12.219   2.523  31.439  1.00  0.00     0.015 C 
BRANCH   5   6
ATOM      6  C   UNL     1     -12.922   2.728  32.795  1.00  0.00     0.028 C 
BRANCH   6   7
ATOM      7  C   UNL     1     -12.921   4.180  33.204  1.00  0.00    -0.028 C 
ATOM      8  C   UNL     1     -13.868   5.079  32.852  1.00  0.00    -0.070 CG0
ATOM      9  C   UNL     1     -13.733   6.490  33.365  1.00  0.00     0.039 C 
ATOM     10  G   UNL     1     -15.064   4.735  31.977  1.00  0.00     0.000 G0
ENDBRANCH   6   7
ENDBRANCH   5   6
ENDBRANCH   3   5
ENDBRANCH   1   3
BRANCH   1  11
ATOM     11  C   UNL     1     -13.783   2.922  29.046  1.00  0.00     0.087 C 
BRANCH  11  12
ATOM     12  C   UNL     1     -15.070   3.635  29.539  1.00  0.00     0.066 C 
BRANCH  12  13
ATOM     13  C   UNL     1     -14.723   4.776  30.486  1.00  0.00     0.140 C 
ATOM     14  O   UNL     1     -14.116   5.739  30.039  1.00  0.00    -0.299 OA
BRANCH  13  15
ATOM     15  C   UNL     1     -15.063   4.739  31.961  1.00  0.00     0.106 CG0
ATOM     16  G   UNL     1     -13.874   5.085  32.843  1.00  0.00     0.000 G0
ENDBRANCH  13  15
ENDBRANCH  12  13
BRANCH  12  17
ATOM     17  C   UNL     1     -16.090   4.040  28.423  1.00  0.00    -0.006 C 
ATOM     18  C   UNL     1     -15.397   4.364  27.086  1.00  0.00     0.008 C 
ATOM     19  C   UNL     1     -17.111   2.913  28.180  1.00  0.00     0.008 C 
ENDBRANCH  12  17
ENDBRANCH  11  12
ENDBRANCH   1  11
TORSDOF 1
ENDMDL
MODEL 8
REMARK VINA RESULT:    -3.283      3.843      6.330
REMARK INTER + INTRA:          -5.224
REMARK INTER:                  -5.024
REMARK INTRA:                  -0.200
REMARK UNBOUND:                -0.213
REMARK SMILES CC1=CCC[C@@H](C)C(=O)C[C@H](C(C)C)C(=O)C1
REMARK SMILES IDX 8 1 9 2 6 3 7 4 5 5 4 6 3 7 2 8 1 9 10 11 11 12 15 13 16 14
REMARK SMILES IDX 17 15 12 17 13 18 14 19
REMARK H PARENT
REMARK Flexibility Score: 70.00
ROOT
ATOM      1  C   UNL     1     -13.651   3.746  33.236  1.00  0.00     0.136 C 
ATOM      2  O   UNL     1     -12.699   4.310  33.752  1.00  0.00    -0.299 OA
ENDROOT
BRANCH   1   3
ATOM      3  C   UNL     1     -13.560   2.253  32.972  1.00  0.00     0.053 C 
ATOM      4  C   UNL     1     -13.408   1.472  34.284  1.00  0.00     0.016 C 
BRANCH   3   5
ATOM      5  C   UNL     1     -12.416   1.927  31.991  1.00  0.00     0.015 C 
BRANCH   5   6
ATOM      6  C   UNL     1     -12.538   2.726  30.678  1.00  0.00     0.028 C 
BRANCH   6   7
ATOM      7  C   UNL     1     -13.765   2.326  29.899  1.00  0.00    -0.028 C 
ATOM      8  C   UNL     1     -14.595   3.191  29.273  1.00  0.00    -0.070 CG0
ATOM      9  C   UNL     1     -15.769   2.625  28.515  1.00  0.00     0.039 C 
ATOM     10  G   UNL     1     -14.398   4.699  29.288  1.00  0.00     0.000 G0
ENDBRANCH   6   7
ENDBRANCH   5   6
ENDBRANCH   3   5
ENDBRANCH   1   3
BRANCH   1  11
ATOM     11  C   UNL     1     -14.857   4.558  32.807  1.00  0.00     0.087 C 
BRANCH  11  12
ATOM     12  C   UNL     1     -14.571   5.686  31.781  1.00  0.00     0.066 C 
BRANCH  12  13
ATOM     13  C   UNL     1     -15.201   5.359  30.433  1.00  0.00     0.140 C 
ATOM     14  O   UNL     1     -16.390   5.599  30.273  1.00  0.00    -0.299 OA
BRANCH  13  15
ATOM     15  C   UNL     1     -14.422   4.711  29.309  1.00  0.00     0.106 CG0
ATOM     16  G   UNL     1     -14.608   3.202  29.265  1.00  0.00     0.000 G0
ENDBRANCH  13  15
ENDBRANCH  12  13
BRANCH  12  17
ATOM     17  C   UNL     1     -14.872   7.141  32.272  1.00  0.00    -0.006 C 
ATOM     18  C   UNL     1     -15.016   7.224  33.803  1.00  0.00     0.008 C 
ATOM     19  C   UNL     1     -13.755   8.107  31.837  1.00  0.00     0.008 C 
ENDBRANCH  12  17
ENDBRANCH  11  12
ENDBRANCH   1  11
TORSDOF 1
ENDMDL
MODEL 9
REMARK VINA RESULT:    -3.144      4.786      6.586
REMARK INTER + INTRA:          -5.011
REMARK INTER:                  -5.123
REMARK INTRA:                   0.112
REMARK UNBOUND:                -0.213
REMARK SMILES CC1=CCC[C@@H](C)C(=O)C[C@H](C(C)C)C(=O)C1
REMARK SMILES IDX 8 1 9 2 6 3 7 4 5 5 4 6 3 7 2 8 1 9 10 11 11 12 15 13 16 14
REMARK SMILES IDX 17 15 12 17 13 18 14 19
REMARK H PARENT
REMARK Flexibility Score: 70.00
ROOT
ATOM      1  C   UNL     1     -11.659   2.545  31.725  1.00  0.00     0.136 C 
ATOM      2  O   UNL     1     -10.800   3.345  32.059  1.00  0.00    -0.299 OA
ENDROOT
BRANCH   1   3
ATOM      3  C   UNL     1     -12.382   1.756  32.803  1.00  0.00     0.053 C 
ATOM      4  C   UNL     1     -12.734   0.346  32.308  1.00  0.00     0.016 C 
BRANCH   3   5
ATOM      5  C   UNL     1     -13.636   2.504  33.298  1.00  0.00     0.015 C 
BRANCH   5   6
ATOM      6  C   UNL     1     -13.489   4.031  33.152  1.00  0.00     0.028 C 
BRANCH   6   7
ATOM      7  C   UNL     1     -14.683   4.637  32.459  1.00  0.00    -0.028 C 
ATOM      8  C   UNL     1     -14.650   5.226  31.242  1.00  0.00    -0.070 CG0
ATOM      9  C   UNL     1     -15.940   5.763  30.677  1.00  0.00     0.039 C 
ATOM     10  G   UNL     1     -13.381   5.364  30.414  1.00  0.00     0.000 G0
ENDBRANCH   6   7
ENDBRANCH   5   6
ENDBRANCH   3   5
ENDBRANCH   1   3
BRANCH   1  11
ATOM     11  C   UNL     1     -11.924   2.306  30.252  1.00  0.00     0.087 C 
BRANCH  11  12
ATOM     12  C   UNL     1     -13.293   2.814  29.729  1.00  0.00     0.066 C 
BRANCH  12  13
ATOM     13  C   UNL     1     -13.217   4.293  29.372  1.00  0.00     0.140 C 
ATOM     14  O   UNL     1     -12.973   4.600  28.213  1.00  0.00    -0.299 OA
BRANCH  13  15
ATOM     15  C   UNL     1     -13.388   5.387  30.404  1.00  0.00     0.106 CG0
ATOM     16  G   UNL     1     -14.654   5.217  31.229  1.00  0.00     0.000 G0
ENDBRANCH  13  15
ENDBRANCH  12  13
BRANCH  12  17
ATOM     17  C   UNL     1     -13.960   1.939  28.616  1.00  0.00    -0.006 C 
ATOM     18  C   UNL     1     -13.745   0.432  28.849  1.00  0.00     0.008 C 
ATOM     19  C   UNL     1     -15.475   2.208  28.543  1.00  0.00     0.008 C 
ENDBRANCH  12  17
ENDBRANCH  11  12
ENDBRANCH   1  11
TORSDOF 1
ENDMDL
