MODEL 1
REMARK VINA RESULT:    -4.892      0.000      0.000
REMARK INTER + INTRA:          -5.520
REMARK INTER:                  -5.321
REMARK INTRA:                  -0.199
REMARK UNBOUND:                -0.199
REMARK SMILES O=C([O-])c1ccccc1O
REMARK SMILES IDX 4 1 9 2 5 3 8 4 6 5 7 6 2 7 1 8 3 9 10 10
REMARK H PARENT 10 11
REMARK Flexibility Score: inf
ROOT
ATOM      1  C   UNL     1     147.700 145.941 157.132  1.00  0.00     0.039 A 
ATOM      2  C   UNL     1     146.390 146.479 157.222  1.00  0.00     0.124 A 
ATOM      3  C   UNL     1     148.729 146.742 156.603  1.00  0.00     0.014 A 
ATOM      4  C   UNL     1     146.134 147.765 156.730  1.00  0.00     0.047 A 
ATOM      5  C   UNL     1     148.461 148.032 156.137  1.00  0.00     0.001 A 
ATOM      6  C   UNL     1     147.164 148.538 156.191  1.00  0.00     0.004 A 
ENDROOT
BRANCH   1   7
ATOM      7  C   UNL     1     148.018 144.554 157.536  1.00  0.00     0.075 C 
ATOM      8  O   UNL     1     149.156 144.070 157.294  1.00  0.00    -0.545 OA
ATOM      9  O   UNL     1     147.054 143.745 158.124  1.00  0.00    -0.545 OA
ENDBRANCH   1   7
BRANCH   2  10
ATOM     10  O   UNL     1     145.334 145.789 157.820  1.00  0.00    -0.507 OA
ATOM     11  H   UNL     1     144.495 145.520 157.326  1.00  0.00     0.293 HD
ENDBRANCH   2  10
TORSDOF 2
ENDMDL
MODEL 2
REMARK VINA RESULT:    -4.671      3.352      4.242
REMARK INTER + INTRA:          -5.279
REMARK INTER:                  -5.068
REMARK INTRA:                  -0.211
REMARK UNBOUND:                -0.199
REMARK SMILES O=C([O-])c1ccccc1O
REMARK SMILES IDX 4 1 9 2 5 3 8 4 6 5 7 6 2 7 1 8 3 9 10 10
REMARK H PARENT 10 11
REMARK Flexibility Score: inf
ROOT
ATOM      1  C   UNL     1     148.024 148.938 157.334  1.00  0.00     0.039 A 
ATOM      2  C   UNL     1     146.714 148.937 156.788  1.00  0.00     0.124 A 
ATOM      3  C   UNL     1     148.745 147.730 157.374  1.00  0.00     0.014 A 
ATOM      4  C   UNL     1     146.143 147.732 156.361  1.00  0.00     0.047 A 
ATOM      5  C   UNL     1     148.168 146.541 156.923  1.00  0.00     0.001 A 
ATOM      6  C   UNL     1     146.866 146.539 156.426  1.00  0.00     0.004 A 
ENDROOT
BRANCH   1   7
ATOM      7  C   UNL     1     148.647 150.155 157.899  1.00  0.00     0.075 C 
ATOM      8  O   UNL     1     147.947 151.178 158.125  1.00  0.00    -0.545 OA
ATOM      9  O   UNL     1     150.017 150.213 158.125  1.00  0.00    -0.545 OA
ENDBRANCH   1   7
BRANCH   2  10
ATOM     10  O   UNL     1     145.968 150.105 156.622  1.00  0.00    -0.507 OA
ATOM     11  H   UNL     1     144.957 150.123 156.613  1.00  0.00     0.293 HD
ENDBRANCH   2  10
TORSDOF 2
ENDMDL
MODEL 3
REMARK VINA RESULT:    -4.656      2.184      4.040
REMARK INTER + INTRA:          -5.263
REMARK INTER:                  -5.021
REMARK INTRA:                  -0.242
REMARK UNBOUND:                -0.199
REMARK SMILES O=C([O-])c1ccccc1O
REMARK SMILES IDX 4 1 9 2 5 3 8 4 6 5 7 6 2 7 1 8 3 9 10 10
REMARK H PARENT 10 11
REMARK Flexibility Score: inf
ROOT
ATOM      1  C   UNL     1     146.966 146.921 156.739  1.00  0.00     0.039 A 
ATOM      2  C   UNL     1     148.128 146.108 156.771  1.00  0.00     0.124 A 
ATOM      3  C   UNL     1     145.821 146.500 157.441  1.00  0.00     0.014 A 
ATOM      4  C   UNL     1     148.095 144.879 157.444  1.00  0.00     0.047 A 
ATOM      5  C   UNL     1     145.812 145.281 158.125  1.00  0.00     0.001 A 
ATOM      6  C   UNL     1     146.944 144.468 158.118  1.00  0.00     0.004 A 
ENDROOT
BRANCH   1   7
ATOM      7  C   UNL     1     146.898 148.178 155.963  1.00  0.00     0.075 C 
ATOM      8  O   UNL     1     147.249 148.194 154.753  1.00  0.00    -0.545 OA
ATOM      9  O   UNL     1     146.516 149.369 156.569  1.00  0.00    -0.545 OA
ENDBRANCH   1   7
BRANCH   2  10
ATOM     10  O   UNL     1     149.333 146.496 156.185  1.00  0.00    -0.507 OA
ATOM     11  H   UNL     1     149.442 146.661 155.193  1.00  0.00     0.293 HD
ENDBRANCH   2  10
TORSDOF 2
ENDMDL
MODEL 4
REMARK VINA RESULT:    -4.614      3.288      4.821
REMARK INTER + INTRA:          -5.217
REMARK INTER:                  -5.019
REMARK INTRA:                  -0.199
REMARK UNBOUND:                -0.199
REMARK SMILES O=C([O-])c1ccccc1O
REMARK SMILES IDX 4 1 9 2 5 3 8 4 6 5 7 6 2 7 1 8 3 9 10 10
REMARK H PARENT 10 11
REMARK Flexibility Score: inf
ROOT
ATOM      1  C   UNL     1     147.291 149.249 157.002  1.00  0.00     0.039 A 
ATOM      2  C   UNL     1     148.513 148.601 157.317  1.00  0.00     0.124 A 
ATOM      3  C   UNL     1     146.316 148.543 156.271  1.00  0.00     0.014 A 
ATOM      4  C   UNL     1     148.751 147.304 156.845  1.00  0.00     0.047 A 
ATOM      5  C   UNL     1     146.562 147.241 155.827  1.00  0.00     0.001 A 
ATOM      6  C   UNL     1     147.781 146.627 156.105  1.00  0.00     0.004 A 
ENDROOT
BRANCH   1   7
ATOM      7  C   UNL     1     147.016 150.652 157.379  1.00  0.00     0.075 C 
ATOM      8  O   UNL     1     145.969 151.223 156.972  1.00  0.00    -0.545 OA
ATOM      9  O   UNL     1     147.934 151.381 158.125  1.00  0.00    -0.545 OA
ENDBRANCH   1   7
BRANCH   2  10
ATOM     10  O   UNL     1     149.492 149.192 158.118  1.00  0.00    -0.507 OA
ATOM     11  H   UNL     1     149.358 149.399 159.098  1.00  0.00     0.293 HD
ENDBRANCH   2  10
TORSDOF 2
ENDMDL
MODEL 5
REMARK VINA RESULT:    -4.575      0.833      2.332
REMARK INTER + INTRA:          -5.174
REMARK INTER:                  -4.999
REMARK INTRA:                  -0.175
REMARK UNBOUND:                -0.199
REMARK SMILES O=C([O-])c1ccccc1O
REMARK SMILES IDX 4 1 9 2 5 3 8 4 6 5 7 6 2 7 1 8 3 9 10 10
REMARK H PARENT 10 11
REMARK Flexibility Score: inf
ROOT
ATOM      1  C   UNL     1     146.865 146.066 157.162  1.00  0.00     0.039 A 
ATOM      2  C   UNL     1     148.246 146.078 156.836  1.00  0.00     0.124 A 
ATOM      3  C   UNL     1     146.086 147.200 156.864  1.00  0.00     0.014 A 
ATOM      4  C   UNL     1     148.817 147.233 156.285  1.00  0.00     0.047 A 
ATOM      5  C   UNL     1     146.668 148.335 156.295  1.00  0.00     0.001 A 
ATOM      6  C   UNL     1     148.033 148.355 156.015  1.00  0.00     0.004 A 
ENDROOT
BRANCH   1   7
ATOM      7  C   UNL     1     146.220 144.921 157.840  1.00  0.00     0.075 C 
ATOM      8  O   UNL     1     146.888 143.889 158.112  1.00  0.00    -0.545 OA
ATOM      9  O   UNL     1     144.860 144.937 158.125  1.00  0.00    -0.545 OA
ENDBRANCH   1   7
BRANCH   2  10
ATOM     10  O   UNL     1     149.068 144.964 157.008  1.00  0.00    -0.507 OA
ATOM     11  H   UNL     1     149.204 144.504 157.898  1.00  0.00     0.293 HD
ENDBRANCH   2  10
TORSDOF 2
ENDMDL
MODEL 6
REMARK VINA RESULT:    -4.573      1.180      2.224
REMARK INTER + INTRA:          -5.172
REMARK INTER:                  -4.997
REMARK INTRA:                  -0.175
REMARK UNBOUND:                -0.199
REMARK SMILES O=C([O-])c1ccccc1O
REMARK SMILES IDX 4 1 9 2 5 3 8 4 6 5 7 6 2 7 1 8 3 9 10 10
REMARK H PARENT 10 11
REMARK Flexibility Score: inf
ROOT
ATOM      1  C   UNL     1     147.574 145.920 156.892  1.00  0.00     0.039 A 
ATOM      2  C   UNL     1     148.156 146.867 156.011  1.00  0.00     0.124 A 
ATOM      3  C   UNL     1     146.269 146.146 157.368  1.00  0.00     0.014 A 
ATOM      4  C   UNL     1     147.451 148.032 155.683  1.00  0.00     0.047 A 
ATOM      5  C   UNL     1     145.571 147.304 157.013  1.00  0.00     0.001 A 
ATOM      6  C   UNL     1     146.165 148.250 156.180  1.00  0.00     0.004 A 
ENDROOT
BRANCH   1   7
ATOM      7  C   UNL     1     148.301 144.720 157.362  1.00  0.00     0.075 C 
ATOM      8  O   UNL     1     149.499 144.533 157.021  1.00  0.00    -0.545 OA
ATOM      9  O   UNL     1     147.660 143.752 158.125  1.00  0.00    -0.545 OA
ENDBRANCH   1   7
BRANCH   2  10
ATOM     10  O   UNL     1     149.404 146.673 155.417  1.00  0.00    -0.507 OA
ATOM     11  H   UNL     1     149.590 146.853 154.440  1.00  0.00     0.293 HD
ENDBRANCH   2  10
TORSDOF 2
ENDMDL
MODEL 7
REMARK VINA RESULT:    -4.534      9.340     10.674
REMARK INTER + INTRA:          -5.130
REMARK INTER:                  -4.880
REMARK INTRA:                  -0.250
REMARK UNBOUND:                -0.199
REMARK SMILES O=C([O-])c1ccccc1O
REMARK SMILES IDX 4 1 9 2 5 3 8 4 6 5 7 6 2 7 1 8 3 9 10 10
REMARK H PARENT 10 11
REMARK Flexibility Score: inf
ROOT
ATOM      1  C   UNL     1     149.837 156.103 157.387  1.00  0.00     0.039 A 
ATOM      2  C   UNL     1     150.969 155.764 156.603  1.00  0.00     0.124 A 
ATOM      3  C   UNL     1     149.855 157.301 158.125  1.00  0.00     0.014 A 
ATOM      4  C   UNL     1     152.101 156.590 156.627  1.00  0.00     0.047 A 
ATOM      5  C   UNL     1     150.983 158.125 158.120  1.00  0.00     0.001 A 
ATOM      6  C   UNL     1     152.108 157.765 157.380  1.00  0.00     0.004 A 
ENDROOT
BRANCH   1   7
ATOM      7  C   UNL     1     148.651 155.225 157.490  1.00  0.00     0.075 C 
ATOM      8  O   UNL     1     148.795 153.982 157.641  1.00  0.00    -0.545 OA
ATOM      9  O   UNL     1     147.369 155.742 157.355  1.00  0.00    -0.545 OA
ENDBRANCH   1   7
BRANCH   2  10
ATOM     10  O   UNL     1     150.998 154.646 155.768  1.00  0.00    -0.507 OA
ATOM     11  H   UNL     1     151.356 153.746 156.055  1.00  0.00     0.293 HD
ENDBRANCH   2  10
TORSDOF 2
ENDMDL
MODEL 8
REMARK VINA RESULT:    -4.426     12.915     14.113
REMARK INTER + INTRA:          -5.013
REMARK INTER:                  -4.791
REMARK INTRA:                  -0.222
REMARK UNBOUND:                -0.199
REMARK SMILES O=C([O-])c1ccccc1O
REMARK SMILES IDX 4 1 9 2 5 3 8 4 6 5 7 6 2 7 1 8 3 9 10 10
REMARK H PARENT 10 11
REMARK Flexibility Score: inf
ROOT
ATOM      1  C   UNL     1     157.803 148.062 148.523  1.00  0.00     0.039 A 
ATOM      2  C   UNL     1     157.514 148.595 147.241  1.00  0.00     0.124 A 
ATOM      3  C   UNL     1     158.007 146.676 148.653  1.00  0.00     0.014 A 
ATOM      4  C   UNL     1     157.375 147.731 146.147  1.00  0.00     0.047 A 
ATOM      5  C   UNL     1     157.885 145.831 147.548  1.00  0.00     0.001 A 
ATOM      6  C   UNL     1     157.560 146.356 146.299  1.00  0.00     0.004 A 
ENDROOT
BRANCH   1   7
ATOM      7  C   UNL     1     157.862 148.905 149.738  1.00  0.00     0.075 C 
ATOM      8  O   UNL     1     158.124 150.133 149.644  1.00  0.00    -0.545 OA
ATOM      9  O   UNL     1     157.697 148.346 150.999  1.00  0.00    -0.545 OA
ENDBRANCH   1   7
BRANCH   2  10
ATOM     10  O   UNL     1     157.394 149.966 147.006  1.00  0.00    -0.507 OA
ATOM     11  H   UNL     1     158.171 150.555 146.741  1.00  0.00     0.293 HD
ENDBRANCH   2  10
TORSDOF 2
ENDMDL
