MODEL 1
REMARK VINA RESULT:     6.288      0.000      0.000
REMARK INTER + INTRA:           6.630
REMARK INTER:                   6.840
REMARK INTRA:                  -0.210
REMARK UNBOUND:                -0.210
REMARK SMILES CC1=C2C[C@H](C(C)(C)O)CC[C@]2(C)CCC1
REMARK SMILES IDX 6 1 7 2 8 3 5 4 1 5 2 6 3 7 16 8 4 9 12 10 15 11 11 12 14 13
REMARK SMILES IDX 13 14 10 15 9 16
REMARK H PARENT 9 17
REMARK Flexibility Score: inf
ROOT
ATOM      1  C   UNL     1     -22.985  33.781   8.268  1.00  0.00     0.062 C 
ATOM      2  C   UNL     1     -21.886  34.706   8.817  1.00  0.00     0.042 C 
ATOM      3  C   UNL     1     -24.306  34.585   8.218  1.00  0.00     0.042 C 
ENDROOT
BRANCH   1   4
ATOM      4  C   UNL     1     -23.167  32.457   9.116  1.00  0.00     0.024 C 
ATOM      5  C   UNL     1     -26.802  32.411   7.182  1.00  0.00     0.039 C 
ATOM      6  C   UNL     1     -25.835  31.263   7.006  1.00  0.00    -0.074 C 
ATOM      7  C   UNL     1     -24.874  30.973   7.938  1.00  0.00    -0.065 C 
ATOM      8  C   UNL     1     -26.000  30.423   5.759  1.00  0.00     0.031 C 
ATOM      9  C   UNL     1     -24.610  31.887   9.125  1.00  0.00     0.038 C 
ATOM     10  C   UNL     1     -23.904  29.787   7.786  1.00  0.00    -0.011 C 
ATOM     11  C   UNL     1     -24.688  29.773   5.346  1.00  0.00     0.005 C 
ATOM     12  C   UNL     1     -22.461  30.354   7.722  1.00  0.00     0.011 C 
ATOM     13  C   UNL     1     -24.172  28.934   6.507  1.00  0.00     0.011 C 
ATOM     14  C   UNL     1     -24.040  28.832   8.999  1.00  0.00     0.016 C 
ATOM     15  C   UNL     1     -22.113  31.341   8.859  1.00  0.00     0.008 C 
ENDBRANCH   1   4
BRANCH   1  16
ATOM     16  O   UNL     1     -22.628  33.454   6.944  1.00  0.00    -0.390 OA
ATOM     17  H   UNL     1     -22.636  34.291   6.408  1.00  0.00     0.211 HD
ENDBRANCH   1  16
TORSDOF 2
ENDMDL
MODEL 2
REMARK VINA RESULT:     7.703      1.783      4.138
REMARK INTER + INTRA:           8.169
REMARK INTER:                   8.447
REMARK INTRA:                  -0.278
REMARK UNBOUND:                -0.210
REMARK SMILES CC1=C2C[C@H](C(C)(C)O)CC[C@]2(C)CCC1
REMARK SMILES IDX 6 1 7 2 8 3 5 4 1 5 2 6 3 7 16 8 4 9 12 10 15 11 11 12 14 13
REMARK SMILES IDX 13 14 10 15 9 16
REMARK H PARENT 9 17
REMARK Flexibility Score: inf
ROOT
ATOM      1  C   UNL     1     -23.173  28.987   8.105  1.00  0.00     0.062 C 
ATOM      2  C   UNL     1     -24.313  29.236   9.107  1.00  0.00     0.042 C 
ATOM      3  C   UNL     1     -22.078  28.164   8.824  1.00  0.00     0.042 C 
ENDROOT
BRANCH   1   4
ATOM      4  C   UNL     1     -22.569  30.319   7.503  1.00  0.00     0.024 C 
ATOM      5  C   UNL     1     -26.426  30.762   6.131  1.00  0.00     0.039 C 
ATOM      6  C   UNL     1     -25.824  31.800   7.050  1.00  0.00    -0.074 C 
ATOM      7  C   UNL     1     -24.470  31.982   7.153  1.00  0.00    -0.065 C 
ATOM      8  C   UNL     1     -26.794  32.657   7.831  1.00  0.00     0.031 C 
ATOM      9  C   UNL     1     -23.484  31.041   6.478  1.00  0.00     0.038 C 
ATOM     10  C   UNL     1     -23.846  33.058   8.060  1.00  0.00    -0.011 C 
ATOM     11  C   UNL     1     -26.175  33.164   9.125  1.00  0.00     0.005 C 
ATOM     12  C   UNL     1     -22.971  32.340   9.122  1.00  0.00     0.011 C 
ATOM     13  C   UNL     1     -24.908  33.939   8.790  1.00  0.00     0.011 C 
ATOM     14  C   UNL     1     -22.968  34.018   7.218  1.00  0.00     0.016 C 
ATOM     15  C   UNL     1     -21.971  31.317   8.538  1.00  0.00     0.008 C 
ENDBRANCH   1   4
BRANCH   1  16
ATOM     16  O   UNL     1     -23.700  28.191   7.068  1.00  0.00    -0.390 OA
ATOM     17  H   UNL     1     -23.268  27.297   7.116  1.00  0.00     0.211 HD
ENDBRANCH   1  16
TORSDOF 2
ENDMDL
