MODEL 1
REMARK VINA RESULT:    -3.286      0.000      0.000
REMARK INTER + INTRA:          -5.523
REMARK INTER:                  -4.823
REMARK INTRA:                  -0.700
REMARK UNBOUND:                -0.700
REMARK SMILES O=C([O-])CCCCCCCC(=O)[O-]
REMARK SMILES IDX 7 1 6 2 5 3 4 4 2 5 1 6 3 7 8 8 9 9 10 10 11 11 12 12 13 13
REMARK H PARENT
REMARK Flexibility Score: inf
ROOT
ATOM      1  C   UNL     1       5.855  10.154   8.224  1.00  0.00     0.000 C 
ENDROOT
BRANCH   1   2
ATOM      2  C   UNL     1       5.000  11.269   7.598  1.00  0.00     0.000 C 
BRANCH   2   3
ATOM      3  C   UNL     1       5.186  12.667   8.220  1.00  0.00     0.006 C 
BRANCH   3   4
ATOM      4  C   UNL     1       6.117  13.595   7.417  1.00  0.00     0.053 C 
BRANCH   4   5
ATOM      5  C   UNL     1       7.534  13.555   7.906  1.00  0.00     0.041 C 
ATOM      6  O   UNL     1       8.478  13.891   7.144  1.00  0.00    -0.550 OA
ATOM      7  O   UNL     1       7.815  13.108   9.191  1.00  0.00    -0.550 OA
ENDBRANCH   4   5
ENDBRANCH   3   4
ENDBRANCH   2   3
ENDBRANCH   1   2
BRANCH   1   8
ATOM      8  C   UNL     1       6.946   9.631   7.278  1.00  0.00     0.000 C 
BRANCH   8   9
ATOM      9  C   UNL     1       8.341  10.009   7.789  1.00  0.00     0.006 C 
BRANCH   9  10
ATOM     10  C   UNL     1       9.241  10.470   6.640  1.00  0.00     0.053 C 
BRANCH  10  11
ATOM     11  C   UNL     1       9.708   9.298   5.836  1.00  0.00     0.041 C 
ATOM     12  O   UNL     1       9.256   9.105   4.676  1.00  0.00    -0.550 OA
ATOM     13  O   UNL     1      10.680   8.448   6.347  1.00  0.00    -0.550 OA
ENDBRANCH  10  11
ENDBRANCH   9  10
ENDBRANCH   8   9
ENDBRANCH   1   8
TORSDOF 8
ENDMDL
MODEL 2
REMARK VINA RESULT:    -3.226      0.794      4.443
REMARK INTER + INTRA:          -5.435
REMARK INTER:                  -4.829
REMARK INTRA:                  -0.606
REMARK UNBOUND:                -0.700
REMARK SMILES O=C([O-])CCCCCCCC(=O)[O-]
REMARK SMILES IDX 7 1 6 2 5 3 4 4 2 5 1 6 3 7 8 8 9 9 10 10 11 11 12 12 13 13
REMARK H PARENT
REMARK Flexibility Score: inf
ROOT
ATOM      1  C   UNL     1       4.693  10.040   7.633  1.00  0.00     0.000 C 
ENDROOT
BRANCH   1   2
ATOM      2  C   UNL     1       6.080   9.656   8.177  1.00  0.00     0.000 C 
BRANCH   2   3
ATOM      3  C   UNL     1       7.072   9.120   7.126  1.00  0.00     0.006 C 
BRANCH   3   4
ATOM      4  C   UNL     1       8.350   9.967   6.979  1.00  0.00     0.053 C 
BRANCH   4   5
ATOM      5  C   UNL     1       9.200   9.534   5.822  1.00  0.00     0.041 C 
ATOM      6  O   UNL     1       8.832   8.580   5.086  1.00  0.00    -0.550 OA
ATOM      7  O   UNL     1      10.418  10.156   5.580  1.00  0.00    -0.550 OA
ENDBRANCH   4   5
ENDBRANCH   3   4
ENDBRANCH   2   3
ENDBRANCH   1   2
BRANCH   1   8
ATOM      8  C   UNL     1       4.439  11.554   7.653  1.00  0.00     0.000 C 
BRANCH   8   9
ATOM      9  C   UNL     1       5.479  12.274   8.518  1.00  0.00     0.006 C 
BRANCH   9  10
ATOM     10  C   UNL     1       6.185  13.378   7.726  1.00  0.00     0.053 C 
BRANCH  10  11
ATOM     11  C   UNL     1       7.659  13.346   7.981  1.00  0.00     0.041 C 
ATOM     12  O   UNL     1       8.458  13.828   7.136  1.00  0.00    -0.550 OA
ATOM     13  O   UNL     1       8.147  12.832   9.175  1.00  0.00    -0.550 OA
ENDBRANCH  10  11
ENDBRANCH   9  10
ENDBRANCH   8   9
ENDBRANCH   1   8
TORSDOF 8
ENDMDL
MODEL 3
REMARK VINA RESULT:    -3.127      2.040      2.387
REMARK INTER + INTRA:          -5.289
REMARK INTER:                  -4.933
REMARK INTRA:                  -0.356
REMARK UNBOUND:                -0.700
REMARK SMILES O=C([O-])CCCCCCCC(=O)[O-]
REMARK SMILES IDX 7 1 6 2 5 3 4 4 2 5 1 6 3 7 8 8 9 9 10 10 11 11 12 12 13 13
REMARK H PARENT
REMARK Flexibility Score: inf
ROOT
ATOM      1  C   UNL     1       6.730  11.002   7.719  1.00  0.00     0.000 C 
ENDROOT
BRANCH   1   2
ATOM      2  C   UNL     1       7.519  12.276   8.061  1.00  0.00     0.000 C 
BRANCH   2   3
ATOM      3  C   UNL     1       6.815  13.601   7.706  1.00  0.00     0.006 C 
BRANCH   3   4
ATOM      4  C   UNL     1       5.298  13.466   7.479  1.00  0.00     0.053 C 
BRANCH   4   5
ATOM      5  C   UNL     1       4.611  14.793   7.364  1.00  0.00     0.041 C 
ATOM      6  O   UNL     1       4.129  15.165   6.261  1.00  0.00    -0.550 OA
ATOM      7  O   UNL     1       4.538  15.639   8.463  1.00  0.00    -0.550 OA
ENDBRANCH   4   5
ENDBRANCH   3   4
ENDBRANCH   2   3
ENDBRANCH   1   2
BRANCH   1   8
ATOM      8  C   UNL     1       7.630   9.840   7.274  1.00  0.00     0.000 C 
BRANCH   8   9
ATOM      9  C   UNL     1       9.084  10.300   7.122  1.00  0.00     0.006 C 
BRANCH   9  10
ATOM     10  C   UNL     1       9.618   9.980   5.723  1.00  0.00     0.053 C 
BRANCH  10  11
ATOM     11  C   UNL     1      10.801   9.068   5.809  1.00  0.00     0.041 C 
ATOM     12  O   UNL     1      11.784   9.231   5.039  1.00  0.00    -0.550 OA
ATOM     13  O   UNL     1      10.840   8.070   6.773  1.00  0.00    -0.550 OA
ENDBRANCH  10  11
ENDBRANCH   9  10
ENDBRANCH   8   9
ENDBRANCH   1   8
TORSDOF 8
ENDMDL
MODEL 4
REMARK VINA RESULT:    -3.115      1.256      5.169
REMARK INTER + INTRA:          -5.272
REMARK INTER:                  -4.637
REMARK INTRA:                  -0.635
REMARK UNBOUND:                -0.700
REMARK SMILES O=C([O-])CCCCCCCC(=O)[O-]
REMARK SMILES IDX 7 1 6 2 5 3 4 4 2 5 1 6 3 7 8 8 9 9 10 10 11 11 12 12 13 13
REMARK H PARENT
REMARK Flexibility Score: inf
ROOT
ATOM      1  C   UNL     1       6.581   9.902   7.386  1.00  0.00     0.000 C 
ENDROOT
BRANCH   1   2
ATOM      2  C   UNL     1       7.941   9.503   7.984  1.00  0.00     0.000 C 
BRANCH   2   3
ATOM      3  C   UNL     1       9.155  10.275   7.431  1.00  0.00     0.006 C 
BRANCH   3   4
ATOM      4  C   UNL     1       9.530   9.904   5.984  1.00  0.00     0.053 C 
BRANCH   4   5
ATOM      5  C   UNL     1      10.735   9.015   5.910  1.00  0.00     0.041 C 
ATOM      6  O   UNL     1      10.887   8.081   6.741  1.00  0.00    -0.550 OA
ATOM      7  O   UNL     1      11.711   9.243   4.948  1.00  0.00    -0.550 OA
ENDBRANCH   4   5
ENDBRANCH   3   4
ENDBRANCH   2   3
ENDBRANCH   1   2
BRANCH   1   8
ATOM      8  C   UNL     1       5.737  10.765   8.335  1.00  0.00     0.000 C 
BRANCH   8   9
ATOM      9  C   UNL     1       5.455  12.140   7.720  1.00  0.00     0.006 C 
BRANCH   9  10
ATOM     10  C   UNL     1       6.693  13.038   7.790  1.00  0.00     0.053 C 
BRANCH  10  11
ATOM     11  C   UNL     1       7.068  13.307   9.213  1.00  0.00     0.041 C 
ATOM     12  O   UNL     1       6.295  13.965   9.957  1.00  0.00    -0.550 OA
ATOM     13  O   UNL     1       8.245  12.785   9.732  1.00  0.00    -0.550 OA
ENDBRANCH  10  11
ENDBRANCH   9  10
ENDBRANCH   8   9
ENDBRANCH   1   8
TORSDOF 8
ENDMDL
MODEL 5
REMARK VINA RESULT:    -3.096      2.534      5.319
REMARK INTER + INTRA:          -5.244
REMARK INTER:                  -4.672
REMARK INTRA:                  -0.572
REMARK UNBOUND:                -0.700
REMARK SMILES O=C([O-])CCCCCCCC(=O)[O-]
REMARK SMILES IDX 7 1 6 2 5 3 4 4 2 5 1 6 3 7 8 8 9 9 10 10 11 11 12 12 13 13
REMARK H PARENT
REMARK Flexibility Score: inf
ROOT
ATOM      1  C   UNL     1       4.941  11.054   7.575  1.00  0.00     0.000 C 
ENDROOT
BRANCH   1   2
ATOM      2  C   UNL     1       5.857   9.853   7.862  1.00  0.00     0.000 C 
BRANCH   2   3
ATOM      3  C   UNL     1       7.288   9.970   7.301  1.00  0.00     0.006 C 
BRANCH   3   4
ATOM      4  C   UNL     1       8.391   9.924   8.374  1.00  0.00     0.053 C 
BRANCH   4   5
ATOM      5  C   UNL     1       9.001  11.269   8.634  1.00  0.00     0.041 C 
ATOM      6  O   UNL     1       9.483  11.539   9.765  1.00  0.00    -0.550 OA
ATOM      7  O   UNL     1       8.999  12.238   7.640  1.00  0.00    -0.550 OA
ENDBRANCH   4   5
ENDBRANCH   3   4
ENDBRANCH   2   3
ENDBRANCH   1   2
BRANCH   1   8
ATOM      8  C   UNL     1       5.224  12.258   8.486  1.00  0.00     0.000 C 
BRANCH   8   9
ATOM      9  C   UNL     1       5.650  13.479   7.663  1.00  0.00     0.006 C 
BRANCH   9  10
ATOM     10  C   UNL     1       4.701  14.658   7.898  1.00  0.00     0.053 C 
BRANCH  10  11
ATOM     11  C   UNL     1       3.673  14.727   6.813  1.00  0.00     0.041 C 
ATOM     12  O   UNL     1       3.852  15.477   5.818  1.00  0.00    -0.550 OA
ATOM     13  O   UNL     1       2.540  13.926   6.876  1.00  0.00    -0.550 OA
ENDBRANCH  10  11
ENDBRANCH   9  10
ENDBRANCH   8   9
ENDBRANCH   1   8
TORSDOF 8
ENDMDL
MODEL 6
REMARK VINA RESULT:    -3.075      1.360      2.200
REMARK INTER + INTRA:          -5.213
REMARK INTER:                  -4.664
REMARK INTRA:                  -0.549
REMARK UNBOUND:                -0.700
REMARK SMILES O=C([O-])CCCCCCCC(=O)[O-]
REMARK SMILES IDX 7 1 6 2 5 3 4 4 2 5 1 6 3 7 8 8 9 9 10 10 11 11 12 12 13 13
REMARK H PARENT
REMARK Flexibility Score: inf
ROOT
ATOM      1  C   UNL     1       7.692   8.602   7.158  1.00  0.00     0.000 C 
ENDROOT
BRANCH   1   2
ATOM      2  C   UNL     1       6.427   9.433   7.426  1.00  0.00     0.000 C 
BRANCH   2   3
ATOM      3  C   UNL     1       6.596  10.578   8.444  1.00  0.00     0.006 C 
BRANCH   3   4
ATOM      4  C   UNL     1       6.563  11.985   7.819  1.00  0.00     0.053 C 
BRANCH   4   5
ATOM      5  C   UNL     1       7.714  12.840   8.259  1.00  0.00     0.041 C 
ATOM      6  O   UNL     1       8.002  12.937   9.480  1.00  0.00    -0.550 OA
ATOM      7  O   UNL     1       8.443  13.563   7.323  1.00  0.00    -0.550 OA
ENDBRANCH   4   5
ENDBRANCH   3   4
ENDBRANCH   2   3
ENDBRANCH   1   2
BRANCH   1   8
ATOM      8  C   UNL     1       8.989   9.378   7.427  1.00  0.00     0.000 C 
BRANCH   8   9
ATOM      9  C   UNL     1       9.549   9.976   6.131  1.00  0.00     0.006 C 
BRANCH   9  10
ATOM     10  C   UNL     1       9.563   8.937   5.007  1.00  0.00     0.053 C 
BRANCH  10  11
ATOM     11  C   UNL     1      10.946   8.409   4.797  1.00  0.00     0.041 C 
ATOM     12  O   UNL     1      11.942   9.166   4.941  1.00  0.00    -0.550 OA
ATOM     13  O   UNL     1      11.139   7.068   4.492  1.00  0.00    -0.550 OA
ENDBRANCH  10  11
ENDBRANCH   9  10
ENDBRANCH   8   9
ENDBRANCH   1   8
TORSDOF 8
ENDMDL
MODEL 7
REMARK VINA RESULT:    -3.045      1.384      5.312
REMARK INTER + INTRA:          -5.169
REMARK INTER:                  -4.569
REMARK INTRA:                  -0.600
REMARK UNBOUND:                -0.700
REMARK SMILES O=C([O-])CCCCCCCC(=O)[O-]
REMARK SMILES IDX 7 1 6 2 5 3 4 4 2 5 1 6 3 7 8 8 9 9 10 10 11 11 12 12 13 13
REMARK H PARENT
REMARK Flexibility Score: inf
ROOT
ATOM      1  C   UNL     1       7.986   9.084   7.644  1.00  0.00     0.000 C 
ENDROOT
BRANCH   1   2
ATOM      2  C   UNL     1       9.300   9.865   7.484  1.00  0.00     0.000 C 
BRANCH   2   3
ATOM      3  C   UNL     1       9.683  10.218   6.032  1.00  0.00     0.006 C 
BRANCH   3   4
ATOM      4  C   UNL     1       9.631   9.024   5.061  1.00  0.00     0.053 C 
BRANCH   4   5
ATOM      5  C   UNL     1      10.988   8.457   4.769  1.00  0.00     0.041 C 
ATOM      6  O   UNL     1      12.014   9.180   4.872  1.00  0.00    -0.550 OA
ATOM      7  O   UNL     1      11.116   7.142   4.342  1.00  0.00    -0.550 OA
ENDBRANCH   4   5
ENDBRANCH   3   4
ENDBRANCH   2   3
ENDBRANCH   1   2
BRANCH   1   8
ATOM      8  C   UNL     1       6.920   9.857   8.434  1.00  0.00     0.000 C 
BRANCH   8   9
ATOM      9  C   UNL     1       6.318  10.983   7.586  1.00  0.00     0.006 C 
BRANCH   9  10
ATOM     10  C   UNL     1       6.241  12.290   8.381  1.00  0.00     0.053 C 
BRANCH  10  11
ATOM     11  C   UNL     1       7.610  12.848   8.608  1.00  0.00     0.041 C 
ATOM     12  O   UNL     1       8.276  13.305   7.642  1.00  0.00    -0.550 OA
ATOM     13  O   UNL     1       8.131  12.909   9.894  1.00  0.00    -0.550 OA
ENDBRANCH  10  11
ENDBRANCH   9  10
ENDBRANCH   8   9
ENDBRANCH   1   8
TORSDOF 8
ENDMDL
MODEL 8
REMARK VINA RESULT:    -3.028      2.233      3.155
REMARK INTER + INTRA:          -5.144
REMARK INTER:                  -4.522
REMARK INTRA:                  -0.622
REMARK UNBOUND:                -0.700
REMARK SMILES O=C([O-])CCCCCCCC(=O)[O-]
REMARK SMILES IDX 7 1 6 2 5 3 4 4 2 5 1 6 3 7 8 8 9 9 10 10 11 11 12 12 13 13
REMARK H PARENT
REMARK Flexibility Score: inf
ROOT
ATOM      1  C   UNL     1       5.512  10.089   8.348  1.00  0.00     0.000 C 
ENDROOT
BRANCH   1   2
ATOM      2  C   UNL     1       5.213  11.385   7.577  1.00  0.00     0.000 C 
BRANCH   2   3
ATOM      3  C   UNL     1       5.446  12.689   8.366  1.00  0.00     0.006 C 
BRANCH   3   4
ATOM      4  C   UNL     1       5.571  13.945   7.484  1.00  0.00     0.053 C 
BRANCH   4   5
ATOM      5  C   UNL     1       4.259  14.641   7.281  1.00  0.00     0.041 C 
ATOM      6  O   UNL     1       3.374  14.600   8.175  1.00  0.00    -0.550 OA
ATOM      7  O   UNL     1       3.998  15.301   6.087  1.00  0.00    -0.550 OA
ENDBRANCH   4   5
ENDBRANCH   3   4
ENDBRANCH   2   3
ENDBRANCH   1   2
BRANCH   1   8
ATOM      8  C   UNL     1       6.424   9.126   7.575  1.00  0.00     0.000 C 
BRANCH   8   9
ATOM      9  C   UNL     1       7.697   9.839   7.102  1.00  0.00     0.006 C 
BRANCH   9  10
ATOM     10  C   UNL     1       8.754   9.869   8.210  1.00  0.00     0.053 C 
BRANCH  10  11
ATOM     11  C   UNL     1       9.065  11.279   8.601  1.00  0.00     0.041 C 
ATOM     12  O   UNL     1       8.938  12.211   7.763  1.00  0.00    -0.550 OA
ATOM     13  O   UNL     1       9.444  11.571   9.904  1.00  0.00    -0.550 OA
ENDBRANCH  10  11
ENDBRANCH   9  10
ENDBRANCH   8   9
ENDBRANCH   1   8
TORSDOF 8
ENDMDL
MODEL 9
REMARK VINA RESULT:    -3.001      3.137      4.072
REMARK INTER + INTRA:          -5.104
REMARK INTER:                  -4.481
REMARK INTRA:                  -0.623
REMARK UNBOUND:                -0.700
REMARK SMILES O=C([O-])CCCCCCCC(=O)[O-]
REMARK SMILES IDX 7 1 6 2 5 3 4 4 2 5 1 6 3 7 8 8 9 9 10 10 11 11 12 12 13 13
REMARK H PARENT
REMARK Flexibility Score: inf
ROOT
ATOM      1  C   UNL     1       6.779  10.865   7.705  1.00  0.00     0.000 C 
ENDROOT
BRANCH   1   2
ATOM      2  C   UNL     1       5.744  12.000   7.781  1.00  0.00     0.000 C 
BRANCH   2   3
ATOM      3  C   UNL     1       6.306  13.418   7.560  1.00  0.00     0.006 C 
BRANCH   3   4
ATOM      4  C   UNL     1       5.575  14.516   8.356  1.00  0.00     0.053 C 
BRANCH   4   5
ATOM      5  C   UNL     1       4.281  14.926   7.720  1.00  0.00     0.041 C 
ATOM      6  O   UNL     1       3.232  15.011   8.412  1.00  0.00    -0.550 OA
ATOM      7  O   UNL     1       4.223  15.173   6.354  1.00  0.00    -0.550 OA
ENDBRANCH   4   5
ENDBRANCH   3   4
ENDBRANCH   2   3
ENDBRANCH   1   2
BRANCH   1   8
ATOM      8  C   UNL     1       8.219  11.376   7.556  1.00  0.00     0.000 C 
BRANCH   8   9
ATOM      9  C   UNL     1       9.148  10.697   8.569  1.00  0.00     0.006 C 
BRANCH   9  10
ATOM     10  C   UNL     1       8.549  10.739   9.978  1.00  0.00     0.053 C 
BRANCH  10  11
ATOM     11  C   UNL     1       8.950  11.996  10.682  1.00  0.00     0.041 C 
ATOM     12  O   UNL     1       8.177  12.990  10.692  1.00  0.00    -0.550 OA
ATOM     13  O   UNL     1      10.155  12.053  11.371  1.00  0.00    -0.550 OA
ENDBRANCH  10  11
ENDBRANCH   9  10
ENDBRANCH   8   9
ENDBRANCH   1   8
TORSDOF 8
ENDMDL
