MODEL 1
REMARK VINA RESULT:    -5.005      0.000      0.000
REMARK INTER + INTRA:          -9.524
REMARK INTER:                  -7.639
REMARK INTRA:                  -1.886
REMARK UNBOUND:                -1.886
REMARK SMILES OC[C@@H]1O[C@](CO)(O[C@@H]2O[C@H](CO)[C@H](O)[C@@H](O)[C@H]2O)[C@H](O)[C@H]1O
REMARK SMILES IDX 8 1 9 2 11 3 14 4 10 5 16 6 18 7 12 8 13 9 15 11 17 13 19 15
REMARK SMILES IDX 5 17 20 18 4 19 22 20 3 21 6 22 7 23 21 25 23 27 2 29 1 30
REMARK H PARENT 13 10 15 12 17 14 19 16 7 24 21 26 23 28 1 31
REMARK Flexibility Score: inf
ROOT
ATOM      1  O   UNL     1     112.537 110.922 120.467  1.00  0.00    -0.313 OA
ENDROOT
BRANCH   1   2
ATOM      2  C   UNL     1     112.416 111.307 119.097  1.00  0.00     0.285 C 
ATOM      3  C   UNL     1     110.519 112.757 119.374  1.00  0.00     0.178 C 
ATOM      4  C   UNL     1     109.569 111.695 118.755  1.00  0.00     0.177 C 
ATOM      5  O   UNL     1     111.879 112.622 118.970  1.00  0.00    -0.341 OA
ATOM      6  C   UNL     1     110.141 110.281 118.872  1.00  0.00     0.179 C 
ATOM      7  C   UNL     1     111.571 110.268 118.333  1.00  0.00     0.202 C 
BRANCH   3   8
ATOM      8  C   UNL     1     110.406 112.928 120.903  1.00  0.00     0.191 C 
BRANCH   8   9
ATOM      9  O   UNL     1     111.416 113.768 121.399  1.00  0.00    -0.394 OA
ATOM     10  H   UNL     1     112.061 113.184 121.875  1.00  0.00     0.210 HD
ENDBRANCH   8   9
ENDBRANCH   3   8
BRANCH   4  11
ATOM     11  O   UNL     1     108.294 111.736 119.343  1.00  0.00    -0.387 OA
ATOM     12  H   UNL     1     108.171 110.871 119.817  1.00  0.00     0.211 HD
ENDBRANCH   4  11
BRANCH   6  13
ATOM     13  O   UNL     1     109.355 109.383 118.127  1.00  0.00    -0.387 OA
ATOM     14  H   UNL     1     109.843 109.194 117.281  1.00  0.00     0.211 HD
ENDBRANCH   6  13
BRANCH   7  15
ATOM     15  O   UNL     1     111.564 110.567 116.958  1.00  0.00    -0.385 OA
ATOM     16  H   UNL     1     111.368 111.537 116.868  1.00  0.00     0.211 HD
ENDBRANCH   7  15
ENDBRANCH   1   2
BRANCH   1  17
ATOM     17  C   UNL     1     113.881 110.723 120.913  1.00  0.00     0.224 C 
ATOM     18  C   UNL     1     114.080 111.191 122.377  1.00  0.00     0.208 C 
ATOM     19  O   UNL     1     114.704 111.529 120.092  1.00  0.00    -0.337 OA
ATOM     20  C   UNL     1     115.417 111.888 122.368  1.00  0.00     0.180 C 
ATOM     21  C   UNL     1     115.640 112.225 120.892  1.00  0.00     0.179 C 
BRANCH  17  22
ATOM     22  C   UNL     1     114.325 109.247 120.696  1.00  0.00     0.225 C 
BRANCH  22  23
ATOM     23  O   UNL     1     114.118 108.488 121.855  1.00  0.00    -0.391 OA
ATOM     24  H   UNL     1     113.646 109.075 122.499  1.00  0.00     0.210 HD
ENDBRANCH  22  23
ENDBRANCH  17  22
BRANCH  18  25
ATOM     25  O   UNL     1     113.087 112.117 122.738  1.00  0.00    -0.385 OA
ATOM     26  H   UNL     1     112.423 111.629 123.296  1.00  0.00     0.211 HD
ENDBRANCH  18  25
BRANCH  20  27
ATOM     27  O   UNL     1     116.423 111.012 122.821  1.00  0.00    -0.387 OA
ATOM     28  H   UNL     1     116.903 110.670 122.019  1.00  0.00     0.211 HD
ENDBRANCH  20  27
BRANCH  21  29
ATOM     29  C   UNL     1     115.514 113.732 120.624  1.00  0.00     0.191 C 
BRANCH  29  30
ATOM     30  O   UNL     1     114.161 114.095 120.517  1.00  0.00    -0.394 OA
ATOM     31  H   UNL     1     113.682 113.654 121.269  1.00  0.00     0.210 HD
ENDBRANCH  29  30
ENDBRANCH  21  29
ENDBRANCH   1  17
TORSDOF 13
ENDMDL
MODEL 2
REMARK VINA RESULT:    -4.929      8.889     11.917
REMARK INTER + INTRA:          -9.408
REMARK INTER:                  -7.453
REMARK INTRA:                  -1.955
REMARK UNBOUND:                -1.886
REMARK SMILES OC[C@@H]1O[C@](CO)(O[C@@H]2O[C@H](CO)[C@H](O)[C@@H](O)[C@H]2O)[C@H](O)[C@H]1O
REMARK SMILES IDX 8 1 9 2 11 3 14 4 10 5 16 6 18 7 12 8 13 9 15 11 17 13 19 15
REMARK SMILES IDX 5 17 20 18 4 19 22 20 3 21 6 22 7 23 21 25 23 27 2 29 1 30
REMARK H PARENT 13 10 15 12 17 14 19 16 7 24 21 26 23 28 1 31
REMARK Flexibility Score: inf
ROOT
ATOM      1  O   UNL     1     103.002 111.253 114.557  1.00  0.00    -0.313 OA
ENDROOT
BRANCH   1   2
ATOM      2  C   UNL     1     102.906 111.016 115.963  1.00  0.00     0.285 C 
ATOM      3  C   UNL     1     105.239 110.579 116.340  1.00  0.00     0.178 C 
ATOM      4  C   UNL     1     104.972 109.053 116.460  1.00  0.00     0.177 C 
ATOM      5  O   UNL     1     104.104 111.389 116.639  1.00  0.00    -0.341 OA
ATOM      6  C   UNL     1     103.680 108.643 115.751  1.00  0.00     0.179 C 
ATOM      7  C   UNL     1     102.537 109.542 116.222  1.00  0.00     0.202 C 
BRANCH   3   8
ATOM      8  C   UNL     1     105.915 111.027 115.028  1.00  0.00     0.191 C 
BRANCH   8   9
ATOM      9  O   UNL     1     105.993 112.426 114.946  1.00  0.00    -0.394 OA
ATOM     10  H   UNL     1     105.423 112.785 115.674  1.00  0.00     0.210 HD
ENDBRANCH   8   9
ENDBRANCH   3   8
BRANCH   4  11
ATOM     11  O   UNL     1     106.044 108.299 115.955  1.00  0.00    -0.387 OA
ATOM     12  H   UNL     1     105.714 107.367 115.854  1.00  0.00     0.211 HD
ENDBRANCH   4  11
BRANCH   6  13
ATOM     13  O   UNL     1     103.372 107.303 116.052  1.00  0.00    -0.387 OA
ATOM     14  H   UNL     1     102.958 107.292 116.957  1.00  0.00     0.211 HD
ENDBRANCH   6  13
BRANCH   7  15
ATOM     15  O   UNL     1     102.305 109.336 117.595  1.00  0.00    -0.385 OA
ATOM     16  H   UNL     1     102.517 108.386 117.791  1.00  0.00     0.211 HD
ENDBRANCH   7  15
ENDBRANCH   1   2
BRANCH   1  17
ATOM     17  C   UNL     1     102.106 112.249 114.059  1.00  0.00     0.224 C 
ATOM     18  C   UNL     1     102.764 113.120 112.958  1.00  0.00     0.208 C 
ATOM     19  O   UNL     1     101.797 113.099 115.147  1.00  0.00    -0.337 OA
ATOM     20  C   UNL     1     102.305 114.522 113.268  1.00  0.00     0.180 C 
ATOM     21  C   UNL     1     101.880 114.449 114.736  1.00  0.00     0.179 C 
BRANCH  17  22
ATOM     22  C   UNL     1     100.770 111.607 113.586  1.00  0.00     0.225 C 
BRANCH  22  23
ATOM     23  O   UNL     1     100.517 111.911 112.242  1.00  0.00    -0.391 OA
ATOM     24  H   UNL     1      99.645 112.381 112.216  1.00  0.00     0.210 HD
ENDBRANCH  22  23
ENDBRANCH  17  22
BRANCH  18  25
ATOM     25  O   UNL     1     104.165 113.068 113.060  1.00  0.00    -0.385 OA
ATOM     26  H   UNL     1     104.516 112.905 112.143  1.00  0.00     0.211 HD
ENDBRANCH  18  25
BRANCH  20  27
ATOM     27  O   UNL     1     101.201 114.860 112.462  1.00  0.00    -0.387 OA
ATOM     28  H   UNL     1     100.469 115.156 113.068  1.00  0.00     0.211 HD
ENDBRANCH  20  27
BRANCH  21  29
ATOM     29  C   UNL     1     102.859 115.198 115.653  1.00  0.00     0.191 C 
BRANCH  29  30
ATOM     30  O   UNL     1     103.900 114.343 116.054  1.00  0.00    -0.394 OA
ATOM     31  H   UNL     1     104.188 113.838 115.246  1.00  0.00     0.210 HD
ENDBRANCH  29  30
ENDBRANCH  21  29
ENDBRANCH   1  17
TORSDOF 13
ENDMDL
MODEL 3
REMARK VINA RESULT:    -4.905      1.736      5.930
REMARK INTER + INTRA:          -9.371
REMARK INTER:                  -7.438
REMARK INTRA:                  -1.932
REMARK UNBOUND:                -1.886
REMARK SMILES OC[C@@H]1O[C@](CO)(O[C@@H]2O[C@H](CO)[C@H](O)[C@@H](O)[C@H]2O)[C@H](O)[C@H]1O
REMARK SMILES IDX 8 1 9 2 11 3 14 4 10 5 16 6 18 7 12 8 13 9 15 11 17 13 19 15
REMARK SMILES IDX 5 17 20 18 4 19 22 20 3 21 6 22 7 23 21 25 23 27 2 29 1 30
REMARK H PARENT 13 10 15 12 17 14 19 16 7 24 21 26 23 28 1 31
REMARK Flexibility Score: inf
ROOT
ATOM      1  O   UNL     1     114.020 112.280 121.693  1.00  0.00    -0.313 OA
ENDROOT
BRANCH   1   2
ATOM      2  C   UNL     1     115.100 112.446 120.772  1.00  0.00     0.285 C 
ATOM      3  C   UNL     1     115.974 110.214 120.951  1.00  0.00     0.178 C 
ATOM      4  C   UNL     1     117.159 110.708 121.826  1.00  0.00     0.177 C 
ATOM      5  O   UNL     1     115.415 111.222 120.112  1.00  0.00    -0.341 OA
ATOM      6  C   UNL     1     116.837 112.029 122.528  1.00  0.00     0.179 C 
ATOM      7  C   UNL     1     116.324 113.036 121.499  1.00  0.00     0.202 C 
BRANCH   3   8
ATOM      8  C   UNL     1     114.872 109.446 121.710  1.00  0.00     0.191 C 
BRANCH   8   9
ATOM      9  O   UNL     1     113.748 109.231 120.898  1.00  0.00    -0.394 OA
ATOM     10  H   UNL     1     113.604 108.250 120.866  1.00  0.00     0.210 HD
ENDBRANCH   8   9
ENDBRANCH   3   8
BRANCH   4  11
ATOM     11  O   UNL     1     117.533 109.748 122.781  1.00  0.00    -0.387 OA
ATOM     12  H   UNL     1     117.600 110.223 123.651  1.00  0.00     0.211 HD
ENDBRANCH   4  11
BRANCH   6  13
ATOM     13  O   UNL     1     117.996 112.540 123.141  1.00  0.00    -0.387 OA
ATOM     14  H   UNL     1     117.738 112.848 124.050  1.00  0.00     0.211 HD
ENDBRANCH   6  13
BRANCH   7  15
ATOM     15  O   UNL     1     117.342 113.330 120.572  1.00  0.00    -0.385 OA
ATOM     16  H   UNL     1     117.244 114.286 120.320  1.00  0.00     0.211 HD
ENDBRANCH   7  15
ENDBRANCH   1   2
BRANCH   1  17
ATOM     17  C   UNL     1     112.810 112.942 121.317  1.00  0.00     0.224 C 
ATOM     18  C   UNL     1     111.561 112.248 121.916  1.00  0.00     0.208 C 
ATOM     19  O   UNL     1     112.717 112.848 119.909  1.00  0.00    -0.337 OA
ATOM     20  C   UNL     1     110.551 112.265 120.797  1.00  0.00     0.180 C 
ATOM     21  C   UNL     1     111.404 112.471 119.543  1.00  0.00     0.179 C 
BRANCH  17  22
ATOM     22  C   UNL     1     112.873 114.456 121.671  1.00  0.00     0.225 C 
BRANCH  22  23
ATOM     23  O   UNL     1     111.743 114.847 122.401  1.00  0.00    -0.391 OA
ATOM     24  H   UNL     1     111.210 115.435 121.806  1.00  0.00     0.210 HD
ENDBRANCH  22  23
ENDBRANCH  17  22
BRANCH  18  25
ATOM     25  O   UNL     1     111.850 110.913 122.246  1.00  0.00    -0.385 OA
ATOM     26  H   UNL     1     111.083 110.574 122.783  1.00  0.00     0.211 HD
ENDBRANCH  18  25
BRANCH  20  27
ATOM     27  O   UNL     1     109.665 113.348 120.961  1.00  0.00    -0.387 OA
ATOM     28  H   UNL     1     109.423 113.389 121.925  1.00  0.00     0.211 HD
ENDBRANCH  20  27
BRANCH  21  29
ATOM     29  C   UNL     1     111.464 111.202 118.678  1.00  0.00     0.191 C 
BRANCH  29  30
ATOM     30  O   UNL     1     112.744 110.627 118.748  1.00  0.00    -0.394 OA
ATOM     31  H   UNL     1     112.806 109.965 118.008  1.00  0.00     0.210 HD
ENDBRANCH  29  30
ENDBRANCH  21  29
ENDBRANCH   1  17
TORSDOF 13
ENDMDL
MODEL 4
REMARK VINA RESULT:    -4.892      7.322      9.975
REMARK INTER + INTRA:          -9.352
REMARK INTER:                  -7.584
REMARK INTRA:                  -1.768
REMARK UNBOUND:                -1.886
REMARK SMILES OC[C@@H]1O[C@](CO)(O[C@@H]2O[C@H](CO)[C@H](O)[C@@H](O)[C@H]2O)[C@H](O)[C@H]1O
REMARK SMILES IDX 8 1 9 2 11 3 14 4 10 5 16 6 18 7 12 8 13 9 15 11 17 13 19 15
REMARK SMILES IDX 5 17 20 18 4 19 22 20 3 21 6 22 7 23 21 25 23 27 2 29 1 30
REMARK H PARENT 13 10 15 12 17 14 19 16 7 24 21 26 23 28 1 31
REMARK Flexibility Score: inf
ROOT
ATOM      1  O   UNL     1     104.867 108.883 116.141  1.00  0.00    -0.313 OA
ENDROOT
BRANCH   1   2
ATOM      2  C   UNL     1     105.247 108.775 117.514  1.00  0.00     0.285 C 
ATOM      3  C   UNL     1     107.604 108.489 117.137  1.00  0.00     0.178 C 
ATOM      4  C   UNL     1     107.507 106.970 117.449  1.00  0.00     0.177 C 
ATOM      5  O   UNL     1     106.567 109.268 117.731  1.00  0.00    -0.341 OA
ATOM      6  C   UNL     1     106.091 106.433 117.233  1.00  0.00     0.179 C 
ATOM      7  C   UNL     1     105.096 107.316 117.986  1.00  0.00     0.202 C 
BRANCH   3   8
ATOM      8  C   UNL     1     107.785 108.844 115.647  1.00  0.00     0.191 C 
BRANCH   8   9
ATOM      9  O   UNL     1     107.544 110.207 115.414  1.00  0.00    -0.394 OA
ATOM     10  H   UNL     1     108.427 110.658 115.432  1.00  0.00     0.210 HD
ENDBRANCH   8   9
ENDBRANCH   3   8
BRANCH   4  11
ATOM     11  O   UNL     1     108.413 106.224 116.677  1.00  0.00    -0.387 OA
ATOM     12  H   UNL     1     109.276 106.227 117.169  1.00  0.00     0.211 HD
ENDBRANCH   4  11
BRANCH   6  13
ATOM     13  O   UNL     1     105.999 105.114 117.716  1.00  0.00    -0.387 OA
ATOM     14  H   UNL     1     106.263 104.508 116.973  1.00  0.00     0.211 HD
ENDBRANCH   6  13
BRANCH   7  15
ATOM     15  O   UNL     1     105.335 107.229 119.371  1.00  0.00    -0.385 OA
ATOM     16  H   UNL     1     105.429 108.156 119.713  1.00  0.00     0.211 HD
ENDBRANCH   7  15
ENDBRANCH   1   2
BRANCH   1  17
ATOM     17  C   UNL     1     103.862 109.866 115.877  1.00  0.00     0.224 C 
ATOM     18  C   UNL     1     103.912 110.363 114.410  1.00  0.00     0.208 C 
ATOM     19  O   UNL     1     104.146 110.971 116.712  1.00  0.00    -0.337 OA
ATOM     20  C   UNL     1     103.693 111.852 114.513  1.00  0.00     0.180 C 
ATOM     21  C   UNL     1     104.044 112.169 115.969  1.00  0.00     0.179 C 
BRANCH  17  22
ATOM     22  C   UNL     1     102.453 109.339 116.277  1.00  0.00     0.225 C 
BRANCH  22  23
ATOM     23  O   UNL     1     102.057 109.862 117.514  1.00  0.00    -0.391 OA
ATOM     24  H   UNL     1     101.182 109.450 117.730  1.00  0.00     0.210 HD
ENDBRANCH  22  23
ENDBRANCH  17  22
BRANCH  18  25
ATOM     25  O   UNL     1     105.180 110.129 113.852  1.00  0.00    -0.385 OA
ATOM     26  H   UNL     1     105.488 110.990 113.459  1.00  0.00     0.211 HD
ENDBRANCH  18  25
BRANCH  20  27
ATOM     27  O   UNL     1     102.342 112.161 114.263  1.00  0.00    -0.387 OA
ATOM     28  H   UNL     1     101.791 111.446 114.683  1.00  0.00     0.211 HD
ENDBRANCH  20  27
BRANCH  21  29
ATOM     29  C   UNL     1     105.362 112.950 116.082  1.00  0.00     0.191 C 
BRANCH  29  30
ATOM     30  O   UNL     1     106.267 112.259 116.906  1.00  0.00    -0.394 OA
ATOM     31  H   UNL     1     106.724 111.585 116.333  1.00  0.00     0.210 HD
ENDBRANCH  29  30
ENDBRANCH  21  29
ENDBRANCH   1  17
TORSDOF 13
ENDMDL
MODEL 5
REMARK VINA RESULT:    -4.834      7.299      9.745
REMARK INTER + INTRA:          -9.263
REMARK INTER:                  -7.780
REMARK INTRA:                  -1.484
REMARK UNBOUND:                -1.886
REMARK SMILES OC[C@@H]1O[C@](CO)(O[C@@H]2O[C@H](CO)[C@H](O)[C@@H](O)[C@H]2O)[C@H](O)[C@H]1O
REMARK SMILES IDX 8 1 9 2 11 3 14 4 10 5 16 6 18 7 12 8 13 9 15 11 17 13 19 15
REMARK SMILES IDX 5 17 20 18 4 19 22 20 3 21 6 22 7 23 21 25 23 27 2 29 1 30
REMARK H PARENT 13 10 15 12 17 14 19 16 7 24 21 26 23 28 1 31
REMARK Flexibility Score: inf
ROOT
ATOM      1  O   UNL     1     104.391 108.931 115.674  1.00  0.00    -0.313 OA
ENDROOT
BRANCH   1   2
ATOM      2  C   UNL     1     105.047 110.200 115.708  1.00  0.00     0.285 C 
ATOM      3  C   UNL     1     103.062 111.543 115.900  1.00  0.00     0.178 C 
ATOM      4  C   UNL     1     103.161 111.969 114.409  1.00  0.00     0.177 C 
ATOM      5  O   UNL     1     104.307 111.150 116.473  1.00  0.00    -0.341 OA
ATOM      6  C   UNL     1     103.965 110.965 113.581  1.00  0.00     0.179 C 
ATOM      7  C   UNL     1     105.302 110.697 114.271  1.00  0.00     0.202 C 
BRANCH   3   8
ATOM      8  C   UNL     1     101.953 110.518 116.218  1.00  0.00     0.191 C 
BRANCH   8   9
ATOM      9  O   UNL     1     102.080 110.019 117.524  1.00  0.00    -0.394 OA
ATOM     10  H   UNL     1     102.254 110.800 118.111  1.00  0.00     0.210 HD
ENDBRANCH   8   9
ENDBRANCH   3   8
BRANCH   4  11
ATOM     11  O   UNL     1     101.890 112.140 113.834  1.00  0.00    -0.387 OA
ATOM     12  H   UNL     1     101.500 112.956 114.245  1.00  0.00     0.211 HD
ENDBRANCH   4  11
BRANCH   6  13
ATOM     13  O   UNL     1     104.202 111.484 112.295  1.00  0.00    -0.387 OA
ATOM     14  H   UNL     1     104.433 110.718 111.705  1.00  0.00     0.211 HD
ENDBRANCH   6  13
BRANCH   7  15
ATOM     15  O   UNL     1     106.069 111.877 114.297  1.00  0.00    -0.385 OA
ATOM     16  H   UNL     1     105.492 112.612 113.960  1.00  0.00     0.211 HD
ENDBRANCH   7  15
ENDBRANCH   1   2
BRANCH   1  17
ATOM     17  C   UNL     1     105.212 107.827 116.064  1.00  0.00     0.224 C 
ATOM     18  C   UNL     1     104.578 107.018 117.225  1.00  0.00     0.208 C 
ATOM     19  O   UNL     1     106.427 108.373 116.539  1.00  0.00    -0.337 OA
ATOM     20  C   UNL     1     105.737 106.703 118.136  1.00  0.00     0.180 C 
ATOM     21  C   UNL     1     106.796 107.736 117.747  1.00  0.00     0.179 C 
BRANCH  17  22
ATOM     22  C   UNL     1     105.558 106.933 114.839  1.00  0.00     0.225 C 
BRANCH  22  23
ATOM     23  O   UNL     1     105.054 105.637 115.006  1.00  0.00    -0.391 OA
ATOM     24  H   UNL     1     105.797 105.014 114.800  1.00  0.00     0.210 HD
ENDBRANCH  22  23
ENDBRANCH  17  22
BRANCH  18  25
ATOM     25  O   UNL     1     103.650 107.806 117.926  1.00  0.00    -0.385 OA
ATOM     26  H   UNL     1     104.170 108.383 118.548  1.00  0.00     0.211 HD
ENDBRANCH  18  25
BRANCH  20  27
ATOM     27  O   UNL     1     106.214 105.403 117.881  1.00  0.00    -0.387 OA
ATOM     28  H   UNL     1     107.175 105.382 118.141  1.00  0.00     0.211 HD
ENDBRANCH  20  27
BRANCH  21  29
ATOM     29  C   UNL     1     106.989 108.798 118.840  1.00  0.00     0.191 C 
BRANCH  29  30
ATOM     30  O   UNL     1     106.540 108.307 120.078  1.00  0.00    -0.394 OA
ATOM     31  H   UNL     1     105.547 108.259 120.028  1.00  0.00     0.210 HD
ENDBRANCH  29  30
ENDBRANCH  21  29
ENDBRANCH   1  17
TORSDOF 13
ENDMDL
MODEL 6
REMARK VINA RESULT:    -4.773      1.719      5.671
REMARK INTER + INTRA:          -9.170
REMARK INTER:                  -7.314
REMARK INTRA:                  -1.856
REMARK UNBOUND:                -1.886
REMARK SMILES OC[C@@H]1O[C@](CO)(O[C@@H]2O[C@H](CO)[C@H](O)[C@@H](O)[C@H]2O)[C@H](O)[C@H]1O
REMARK SMILES IDX 8 1 9 2 11 3 14 4 10 5 16 6 18 7 12 8 13 9 15 11 17 13 19 15
REMARK SMILES IDX 5 17 20 18 4 19 22 20 3 21 6 22 7 23 21 25 23 27 2 29 1 30
REMARK H PARENT 13 10 15 12 17 14 19 16 7 24 21 26 23 28 1 31
REMARK Flexibility Score: inf
ROOT
ATOM      1  O   UNL     1     114.631 111.729 120.307  1.00  0.00    -0.313 OA
ENDROOT
BRANCH   1   2
ATOM      2  C   UNL     1     115.198 111.853 121.612  1.00  0.00     0.285 C 
ATOM      3  C   UNL     1     116.675 113.682 121.109  1.00  0.00     0.178 C 
ATOM      4  C   UNL     1     117.905 112.733 121.091  1.00  0.00     0.177 C 
ATOM      5  O   UNL     1     115.583 113.198 121.888  1.00  0.00    -0.341 OA
ATOM      6  C   UNL     1     117.503 111.284 120.809  1.00  0.00     0.179 C 
ATOM      7  C   UNL     1     116.381 110.877 121.765  1.00  0.00     0.202 C 
BRANCH   3   8
ATOM      8  C   UNL     1     116.200 114.170 119.725  1.00  0.00     0.191 C 
BRANCH   8   9
ATOM      9  O   UNL     1     114.959 114.821 119.812  1.00  0.00    -0.394 OA
ATOM     10  H   UNL     1     115.106 115.752 119.502  1.00  0.00     0.210 HD
ENDBRANCH   8   9
ENDBRANCH   3   8
BRANCH   4  11
ATOM     11  O   UNL     1     118.862 113.145 120.149  1.00  0.00    -0.387 OA
ATOM     12  H   UNL     1     119.718 113.254 120.641  1.00  0.00     0.211 HD
ENDBRANCH   4  11
BRANCH   6  13
ATOM     13  O   UNL     1     118.608 110.434 121.001  1.00  0.00    -0.387 OA
ATOM     14  H   UNL     1     118.598 110.147 121.953  1.00  0.00     0.211 HD
ENDBRANCH   6  13
BRANCH   7  15
ATOM     15  O   UNL     1     116.855 110.895 123.090  1.00  0.00    -0.385 OA
ATOM     16  H   UNL     1     116.873 111.843 123.384  1.00  0.00     0.211 HD
ENDBRANCH   7  15
ENDBRANCH   1   2
BRANCH   1  17
ATOM     17  C   UNL     1     113.266 111.303 120.289  1.00  0.00     0.224 C 
ATOM     18  C   UNL     1     112.479 111.932 119.112  1.00  0.00     0.208 C 
ATOM     19  O   UNL     1     112.681 111.767 121.490  1.00  0.00    -0.337 OA
ATOM     20  C   UNL     1     111.145 112.300 119.709  1.00  0.00     0.180 C 
ATOM     21  C   UNL     1     111.421 112.347 121.213  1.00  0.00     0.179 C 
BRANCH  17  22
ATOM     22  C   UNL     1     113.170 109.750 120.303  1.00  0.00     0.225 C 
BRANCH  22  23
ATOM     23  O   UNL     1     112.920 109.276 121.597  1.00  0.00    -0.391 OA
ATOM     24  H   UNL     1     112.103 108.717 121.543  1.00  0.00     0.210 HD
ENDBRANCH  22  23
ENDBRANCH  17  22
BRANCH  18  25
ATOM     25  O   UNL     1     113.114 113.103 118.664  1.00  0.00    -0.385 OA
ATOM     26  H   UNL     1     113.466 112.913 117.753  1.00  0.00     0.211 HD
ENDBRANCH  18  25
BRANCH  20  27
ATOM     27  O   UNL     1     110.195 111.300 119.424  1.00  0.00    -0.387 OA
ATOM     28  H   UNL     1     110.314 111.040 118.471  1.00  0.00     0.211 HD
ENDBRANCH  20  27
BRANCH  21  29
ATOM     29  C   UNL     1     111.396 113.785 121.754  1.00  0.00     0.191 C 
BRANCH  29  30
ATOM     30  O   UNL     1     112.667 114.372 121.633  1.00  0.00    -0.394 OA
ATOM     31  H   UNL     1     113.333 113.633 121.668  1.00  0.00     0.210 HD
ENDBRANCH  29  30
ENDBRANCH  21  29
ENDBRANCH   1  17
TORSDOF 13
ENDMDL
MODEL 7
REMARK VINA RESULT:    -4.698      8.684     11.789
REMARK INTER + INTRA:          -9.055
REMARK INTER:                  -7.972
REMARK INTRA:                  -1.083
REMARK UNBOUND:                -1.886
REMARK SMILES OC[C@@H]1O[C@](CO)(O[C@@H]2O[C@H](CO)[C@H](O)[C@@H](O)[C@H]2O)[C@H](O)[C@H]1O
REMARK SMILES IDX 8 1 9 2 11 3 14 4 10 5 16 6 18 7 12 8 13 9 15 11 17 13 19 15
REMARK SMILES IDX 5 17 20 18 4 19 22 20 3 21 6 22 7 23 21 25 23 27 2 29 1 30
REMARK H PARENT 13 10 15 12 17 14 19 16 7 24 21 26 23 28 1 31
REMARK Flexibility Score: inf
ROOT
ATOM      1  O   UNL     1     103.408 112.315 114.510  1.00  0.00    -0.313 OA
ENDROOT
BRANCH   1   2
ATOM      2  C   UNL     1     102.224 112.480 115.293  1.00  0.00     0.285 C 
ATOM      3  C   UNL     1     100.650 112.125 113.511  1.00  0.00     0.178 C 
ATOM      4  C   UNL     1     100.341 113.645 113.431  1.00  0.00     0.177 C 
ATOM      5  O   UNL     1     101.145 111.702 114.779  1.00  0.00    -0.341 OA
ATOM      6  C   UNL     1     101.485 114.491 113.993  1.00  0.00     0.179 C 
ATOM      7  C   UNL     1     101.859 113.975 115.382  1.00  0.00     0.202 C 
BRANCH   3   8
ATOM      8  C   UNL     1     101.515 111.569 112.361  1.00  0.00     0.191 C 
BRANCH   8   9
ATOM      9  O   UNL     1     102.482 112.502 111.952  1.00  0.00    -0.394 OA
ATOM     10  H   UNL     1     102.335 113.318 112.496  1.00  0.00     0.210 HD
ENDBRANCH   8   9
ENDBRANCH   3   8
BRANCH   4  11
ATOM     11  O   UNL     1     100.063 114.048 112.114  1.00  0.00    -0.387 OA
ATOM     12  H   UNL     1      99.184 114.510 112.137  1.00  0.00     0.211 HD
ENDBRANCH   4  11
BRANCH   6  13
ATOM     13  O   UNL     1     101.085 115.836 114.088  1.00  0.00    -0.387 OA
ATOM     14  H   UNL     1     101.908 116.382 114.205  1.00  0.00     0.211 HD
ENDBRANCH   6  13
BRANCH   7  15
ATOM     15  O   UNL     1     100.777 114.157 116.264  1.00  0.00    -0.385 OA
ATOM     16  H   UNL     1     100.610 115.133 116.329  1.00  0.00     0.211 HD
ENDBRANCH   7  15
ENDBRANCH   1   2
BRANCH   1  17
ATOM     17  C   UNL     1     104.480 111.653 115.186  1.00  0.00     0.224 C 
ATOM     18  C   UNL     1     105.098 110.524 114.322  1.00  0.00     0.208 C 
ATOM     19  O   UNL     1     103.924 111.053 116.339  1.00  0.00    -0.337 OA
ATOM     20  C   UNL     1     105.332 109.396 115.295  1.00  0.00     0.180 C 
ATOM     21  C   UNL     1     104.404 109.728 116.466  1.00  0.00     0.179 C 
BRANCH  17  22
ATOM     22  C   UNL     1     105.546 112.678 115.671  1.00  0.00     0.225 C 
BRANCH  22  23
ATOM     23  O   UNL     1     105.211 113.188 116.932  1.00  0.00    -0.391 OA
ATOM     24  H   UNL     1     105.875 112.823 117.572  1.00  0.00     0.210 HD
ENDBRANCH  22  23
ENDBRANCH  17  22
BRANCH  18  25
ATOM     25  O   UNL     1     104.185 110.097 113.343  1.00  0.00    -0.385 OA
ATOM     26  H   UNL     1     104.009 110.877 112.751  1.00  0.00     0.211 HD
ENDBRANCH  18  25
BRANCH  20  27
ATOM     27  O   UNL     1     106.673 109.398 115.726  1.00  0.00    -0.387 OA
ATOM     28  H   UNL     1     107.236 109.148 114.944  1.00  0.00     0.211 HD
ENDBRANCH  20  27
BRANCH  21  29
ATOM     29  C   UNL     1     103.212 108.763 116.543  1.00  0.00     0.191 C 
BRANCH  29  30
ATOM     30  O   UNL     1     102.331 109.159 117.563  1.00  0.00    -0.394 OA
ATOM     31  H   UNL     1     102.511 110.121 117.745  1.00  0.00     0.210 HD
ENDBRANCH  29  30
ENDBRANCH  21  29
ENDBRANCH   1  17
TORSDOF 13
ENDMDL
MODEL 8
REMARK VINA RESULT:    -4.674      7.370      9.735
REMARK INTER + INTRA:          -9.019
REMARK INTER:                  -7.402
REMARK INTRA:                  -1.617
REMARK UNBOUND:                -1.886
REMARK SMILES OC[C@@H]1O[C@](CO)(O[C@@H]2O[C@H](CO)[C@H](O)[C@@H](O)[C@H]2O)[C@H](O)[C@H]1O
REMARK SMILES IDX 8 1 9 2 11 3 14 4 10 5 16 6 18 7 12 8 13 9 15 11 17 13 19 15
REMARK SMILES IDX 5 17 20 18 4 19 22 20 3 21 6 22 7 23 21 25 23 27 2 29 1 30
REMARK H PARENT 13 10 15 12 17 14 19 16 7 24 21 26 23 28 1 31
REMARK Flexibility Score: inf
ROOT
ATOM      1  O   UNL     1     104.474 109.750 116.074  1.00  0.00    -0.313 OA
ENDROOT
BRANCH   1   2
ATOM      2  C   UNL     1     104.346 110.328 114.774  1.00  0.00     0.285 C 
ATOM      3  C   UNL     1     105.211 112.499 115.338  1.00  0.00     0.178 C 
ATOM      4  C   UNL     1     103.784 113.112 115.324  1.00  0.00     0.177 C 
ATOM      5  O   UNL     1     105.342 111.322 114.543  1.00  0.00    -0.341 OA
ATOM      6  C   UNL     1     102.706 112.053 115.557  1.00  0.00     0.179 C 
ATOM      7  C   UNL     1     102.923 110.890 114.588  1.00  0.00     0.202 C 
BRANCH   3   8
ATOM      8  C   UNL     1     105.827 112.297 116.738  1.00  0.00     0.191 C 
BRANCH   8   9
ATOM      9  O   UNL     1     106.929 111.428 116.690  1.00  0.00    -0.394 OA
ATOM     10  H   UNL     1     107.537 111.778 115.990  1.00  0.00     0.210 HD
ENDBRANCH   8   9
ENDBRANCH   3   8
BRANCH   4  11
ATOM     11  O   UNL     1     103.651 114.134 116.280  1.00  0.00    -0.387 OA
ATOM     12  H   UNL     1     103.353 114.945 115.790  1.00  0.00     0.211 HD
ENDBRANCH   4  11
BRANCH   6  13
ATOM     13  O   UNL     1     101.432 112.609 115.337  1.00  0.00    -0.387 OA
ATOM     14  H   UNL     1     101.510 113.590 115.477  1.00  0.00     0.211 HD
ENDBRANCH   6  13
BRANCH   7  15
ATOM     15  O   UNL     1     102.747 111.335 113.264  1.00  0.00    -0.385 OA
ATOM     16  H   UNL     1     102.642 110.529 112.693  1.00  0.00     0.211 HD
ENDBRANCH   7  15
ENDBRANCH   1   2
BRANCH   1  17
ATOM     17  C   UNL     1     105.073 108.452 116.092  1.00  0.00     0.224 C 
ATOM     18  C   UNL     1     104.264 107.454 116.958  1.00  0.00     0.208 C 
ATOM     19  O   UNL     1     106.346 108.601 116.690  1.00  0.00    -0.337 OA
ATOM     20  C   UNL     1     105.314 106.675 117.709  1.00  0.00     0.180 C 
ATOM     21  C   UNL     1     106.551 107.572 117.638  1.00  0.00     0.179 C 
BRANCH  17  22
ATOM     22  C   UNL     1     105.306 107.928 114.645  1.00  0.00     0.225 C 
BRANCH  22  23
ATOM     23  O   UNL     1     104.629 106.720 114.436  1.00  0.00    -0.391 OA
ATOM     24  H   UNL     1     105.222 106.156 113.877  1.00  0.00     0.210 HD
ENDBRANCH  22  23
ENDBRANCH  17  22
BRANCH  18  25
ATOM     25  O   UNL     1     103.461 108.142 117.884  1.00  0.00    -0.385 OA
ATOM     26  H   UNL     1     103.302 107.523 118.647  1.00  0.00     0.211 HD
ENDBRANCH  18  25
BRANCH  20  27
ATOM     27  O   UNL     1     105.566 105.451 117.059  1.00  0.00    -0.387 OA
ATOM     28  H   UNL     1     104.901 105.363 116.324  1.00  0.00     0.211 HD
ENDBRANCH  20  27
BRANCH  21  29
ATOM     29  C   UNL     1     106.883 108.197 119.002  1.00  0.00     0.191 C 
BRANCH  29  30
ATOM     30  O   UNL     1     105.874 107.898 119.932  1.00  0.00    -0.394 OA
ATOM     31  H   UNL     1     105.903 106.915 120.086  1.00  0.00     0.210 HD
ENDBRANCH  29  30
ENDBRANCH  21  29
ENDBRANCH   1  17
TORSDOF 13
ENDMDL
MODEL 9
REMARK VINA RESULT:    -4.655      2.175      4.534
REMARK INTER + INTRA:          -8.989
REMARK INTER:                  -7.038
REMARK INTRA:                  -1.952
REMARK UNBOUND:                -1.886
REMARK SMILES OC[C@@H]1O[C@](CO)(O[C@@H]2O[C@H](CO)[C@H](O)[C@@H](O)[C@H]2O)[C@H](O)[C@H]1O
REMARK SMILES IDX 8 1 9 2 11 3 14 4 10 5 16 6 18 7 12 8 13 9 15 11 17 13 19 15
REMARK SMILES IDX 5 17 20 18 4 19 22 20 3 21 6 22 7 23 21 25 23 27 2 29 1 30
REMARK H PARENT 13 10 15 12 17 14 19 16 7 24 21 26 23 28 1 31
REMARK Flexibility Score: inf
ROOT
ATOM      1  O   UNL     1     115.081 112.478 120.460  1.00  0.00    -0.313 OA
ENDROOT
BRANCH   1   2
ATOM      2  C   UNL     1     114.285 112.757 121.612  1.00  0.00     0.285 C 
ATOM      3  C   UNL     1     113.241 110.597 121.770  1.00  0.00     0.178 C 
ATOM      4  C   UNL     1     111.911 111.157 121.196  1.00  0.00     0.177 C 
ATOM      5  O   UNL     1     114.063 111.583 122.391  1.00  0.00    -0.341 OA
ATOM      6  C   UNL     1     112.134 112.425 120.370  1.00  0.00     0.179 C 
ATOM      7  C   UNL     1     112.960 113.420 121.186  1.00  0.00     0.202 C 
BRANCH   3   8
ATOM      8  C   UNL     1     114.059 109.721 120.798  1.00  0.00     0.191 C 
BRANCH   8   9
ATOM      9  O   UNL     1     115.385 109.575 121.236  1.00  0.00    -0.394 OA
ATOM     10  H   UNL     1     115.443 110.021 122.120  1.00  0.00     0.210 HD
ENDBRANCH   8   9
ENDBRANCH   3   8
BRANCH   4  11
ATOM     11  O   UNL     1     111.241 110.200 120.414  1.00  0.00    -0.387 OA
ATOM     12  H   UNL     1     111.169 110.581 119.499  1.00  0.00     0.211 HD
ENDBRANCH   4  11
BRANCH   6  13
ATOM     13  O   UNL     1     110.896 113.008 120.043  1.00  0.00    -0.387 OA
ATOM     14  H   UNL     1     110.223 112.649 120.680  1.00  0.00     0.211 HD
ENDBRANCH   6  13
BRANCH   7  15
ATOM     15  O   UNL     1     112.233 113.822 122.323  1.00  0.00    -0.385 OA
ATOM     16  H   UNL     1     112.575 113.298 123.093  1.00  0.00     0.211 HD
ENDBRANCH   7  15
ENDBRANCH   1   2
BRANCH   1  17
ATOM     17  C   UNL     1     116.383 113.070 120.478  1.00  0.00     0.224 C 
ATOM     18  C   UNL     1     117.400 112.256 119.638  1.00  0.00     0.208 C 
ATOM     19  O   UNL     1     116.822 113.043 121.823  1.00  0.00    -0.337 OA
ATOM     20  C   UNL     1     118.657 112.259 120.470  1.00  0.00     0.180 C 
ATOM     21  C   UNL     1     118.160 112.591 121.878  1.00  0.00     0.179 C 
BRANCH  17  22
ATOM     22  C   UNL     1     116.319 114.564 120.047  1.00  0.00     0.225 C 
BRANCH  22  23
ATOM     23  O   UNL     1     117.225 114.824 119.012  1.00  0.00    -0.391 OA
ATOM     24  H   UNL     1     117.981 114.194 119.130  1.00  0.00     0.210 HD
ENDBRANCH  22  23
ENDBRANCH  17  22
BRANCH  18  25
ATOM     25  O   UNL     1     116.962 110.930 119.483  1.00  0.00    -0.385 OA
ATOM     26  H   UNL     1     116.137 110.831 120.030  1.00  0.00     0.211 HD
ENDBRANCH  18  25
BRANCH  20  27
ATOM     27  O   UNL     1     119.534 113.264 120.017  1.00  0.00    -0.387 OA
ATOM     28  H   UNL     1     120.368 112.815 119.710  1.00  0.00     0.211 HD
ENDBRANCH  20  27
BRANCH  21  29
ATOM     29  C   UNL     1     118.247 111.378 122.816  1.00  0.00     0.191 C 
BRANCH  29  30
ATOM     30  O   UNL     1     116.958 110.945 123.171  1.00  0.00    -0.394 OA
ATOM     31  H   UNL     1     116.444 111.754 123.439  1.00  0.00     0.210 HD
ENDBRANCH  29  30
ENDBRANCH  21  29
ENDBRANCH   1  17
TORSDOF 13
ENDMDL
