MODEL 1
REMARK VINA RESULT:    -3.475      0.000      0.000
REMARK INTER + INTRA:          -3.940
REMARK INTER:                  -3.881
REMARK INTRA:                  -0.059
REMARK UNBOUND:                -0.059
REMARK SMILES COc1cc2ccc(=O)oc2c(O)c1O
REMARK SMILES IDX 3 1 14 2 12 3 11 4 5 5 4 6 6 7 7 8 8 9 9 10 10 11 2 12 1 13
REMARK SMILES IDX 15 14 13 16
REMARK H PARENT 15 15 13 17
REMARK Flexibility Score: inf
ROOT
ATOM      1  C   UNL     1       9.867   4.580   6.655  1.00  0.00     0.165 A 
ATOM      2  C   UNL     1       9.336   4.570   7.954  1.00  0.00     0.204 A 
ATOM      3  C   UNL     1       9.062   3.352   8.603  1.00  0.00     0.205 A 
ATOM      4  C   UNL     1       9.320   2.138   7.946  1.00  0.00     0.184 A 
ATOM      5  C   UNL     1       9.854   2.146   6.639  1.00  0.00     0.025 A 
ATOM      6  C   UNL     1      10.125   3.361   5.999  1.00  0.00     0.062 A 
ATOM      7  C   UNL     1      10.101   0.921   6.010  1.00  0.00     0.020 A 
ATOM      8  C   UNL     1       9.817  -0.265   6.683  1.00  0.00     0.094 A 
ATOM      9  C   UNL     1       9.290  -0.200   7.977  1.00  0.00     0.336 A 
ATOM     10  O   UNL     1       9.026  -1.259   8.603  1.00  0.00    -0.246 OA
ATOM     11  O   UNL     1       9.064   0.979   8.552  1.00  0.00    -0.419 OA
ENDROOT
BRANCH   1  12
ATOM     12  O   UNL     1      10.124   5.820   6.050  1.00  0.00    -0.493 OA
ATOM     13  C   UNL     1       9.725   6.173   4.729  1.00  0.00     0.278 C 
ENDBRANCH   1  12
BRANCH   2  14
ATOM     14  O   UNL     1       9.086   5.787   8.591  1.00  0.00    -0.502 OA
ATOM     15  H   UNL     1       8.437   5.869   9.364  1.00  0.00     0.293 HD
ENDBRANCH   2  14
BRANCH   3  16
ATOM     16  O   UNL     1       8.535   3.363   9.895  1.00  0.00    -0.502 OA
ATOM     17  H   UNL     1       8.327   4.224  10.387  1.00  0.00     0.293 HD
ENDBRANCH   3  16
TORSDOF 3
ENDMDL
MODEL 2
REMARK VINA RESULT:    -3.421     13.944     16.370
REMARK INTER + INTRA:          -3.881
REMARK INTER:                  -3.822
REMARK INTRA:                  -0.058
REMARK UNBOUND:                -0.059
REMARK SMILES COc1cc2ccc(=O)oc2c(O)c1O
REMARK SMILES IDX 3 1 14 2 12 3 11 4 5 5 4 6 6 7 7 8 8 9 9 10 10 11 2 12 1 13
REMARK SMILES IDX 15 14 13 16
REMARK H PARENT 15 15 13 17
REMARK Flexibility Score: inf
ROOT
ATOM      1  C   UNL     1      -4.441  -6.759   9.689  1.00  0.00     0.165 A 
ATOM      2  C   UNL     1      -4.426  -7.980   8.998  1.00  0.00     0.204 A 
ATOM      3  C   UNL     1      -3.210  -8.536   8.560  1.00  0.00     0.205 A 
ATOM      4  C   UNL     1      -2.003  -7.866   8.815  1.00  0.00     0.184 A 
ATOM      5  C   UNL     1      -2.016  -6.637   9.510  1.00  0.00     0.025 A 
ATOM      6  C   UNL     1      -3.229  -6.088   9.944  1.00  0.00     0.062 A 
ATOM      7  C   UNL     1      -0.798  -5.991   9.750  1.00  0.00     0.020 A 
ATOM      8  C   UNL     1       0.386  -6.572   9.301  1.00  0.00     0.094 A 
ATOM      9  C   UNL     1       0.326  -7.792   8.619  1.00  0.00     0.336 A 
ATOM     10  O   UNL     1       1.383  -8.334   8.205  1.00  0.00    -0.246 OA
ATOM     11  O   UNL     1      -0.846  -8.385   8.405  1.00  0.00    -0.419 OA
ENDROOT
BRANCH   1  12
ATOM     12  O   UNL     1      -5.678  -6.243  10.106  1.00  0.00    -0.493 OA
ATOM     13  C   UNL     1      -6.076  -4.884   9.966  1.00  0.00     0.278 C 
ENDBRANCH   1  12
BRANCH   2  14
ATOM     14  O   UNL     1      -5.635  -8.632   8.754  1.00  0.00    -0.502 OA
ATOM     15  H   UNL     1      -6.250  -8.931   9.502  1.00  0.00     0.293 HD
ENDBRANCH   2  14
BRANCH   3  16
ATOM     16  O   UNL     1      -3.216  -9.752   7.875  1.00  0.00    -0.502 OA
ATOM     17  H   UNL     1      -3.220  -9.803   6.863  1.00  0.00     0.293 HD
ENDBRANCH   3  16
TORSDOF 3
ENDMDL
MODEL 3
REMARK VINA RESULT:    -3.393     22.232     23.145
REMARK INTER + INTRA:          -3.849
REMARK INTER:                  -3.792
REMARK INTRA:                  -0.057
REMARK UNBOUND:                -0.059
REMARK SMILES COc1cc2ccc(=O)oc2c(O)c1O
REMARK SMILES IDX 3 1 14 2 12 3 11 4 5 5 4 6 6 7 7 8 8 9 9 10 10 11 2 12 1 13
REMARK SMILES IDX 15 14 13 16
REMARK H PARENT 15 15 13 17
REMARK Flexibility Score: inf
ROOT
ATOM      1  C   UNL     1      -9.982   5.749  -2.565  1.00  0.00     0.165 A 
ATOM      2  C   UNL     1      -9.973   6.752  -3.547  1.00  0.00     0.204 A 
ATOM      3  C   UNL     1     -10.001   6.412  -4.912  1.00  0.00     0.205 A 
ATOM      4  C   UNL     1     -10.038   5.062  -5.296  1.00  0.00     0.184 A 
ATOM      5  C   UNL     1     -10.047   4.053  -4.310  1.00  0.00     0.025 A 
ATOM      6  C   UNL     1     -10.019   4.396  -2.953  1.00  0.00     0.062 A 
ATOM      7  C   UNL     1     -10.085   2.716  -4.722  1.00  0.00     0.020 A 
ATOM      8  C   UNL     1     -10.112   2.418  -6.082  1.00  0.00     0.094 A 
ATOM      9  C   UNL     1     -10.101   3.469  -7.005  1.00  0.00     0.336 A 
ATOM     10  O   UNL     1     -10.125   3.222  -8.239  1.00  0.00    -0.246 OA
ATOM     11  O   UNL     1     -10.065   4.731  -6.587  1.00  0.00    -0.419 OA
ENDROOT
BRANCH   1  12
ATOM     12  O   UNL     1      -9.952   6.137  -1.217  1.00  0.00    -0.493 OA
ATOM     13  C   UNL     1      -8.770   6.235  -0.430  1.00  0.00     0.278 C 
ENDBRANCH   1  12
BRANCH   2  14
ATOM     14  O   UNL     1      -9.936   8.088  -3.147  1.00  0.00    -0.502 OA
ATOM     15  H   UNL     1     -10.588   8.778  -3.503  1.00  0.00     0.293 HD
ENDBRANCH   2  14
BRANCH   3  16
ATOM     16  O   UNL     1      -9.992   7.424  -5.874  1.00  0.00    -0.502 OA
ATOM     17  H   UNL     1     -10.829   7.708  -6.368  1.00  0.00     0.293 HD
ENDBRANCH   3  16
TORSDOF 3
ENDMDL
MODEL 4
REMARK VINA RESULT:    -3.388     14.015     15.608
REMARK INTER + INTRA:          -3.844
REMARK INTER:                  -3.774
REMARK INTRA:                  -0.069
REMARK UNBOUND:                -0.059
REMARK SMILES COc1cc2ccc(=O)oc2c(O)c1O
REMARK SMILES IDX 3 1 14 2 12 3 11 4 5 5 4 6 6 7 7 8 8 9 9 10 10 11 2 12 1 13
REMARK SMILES IDX 15 14 13 16
REMARK H PARENT 15 15 13 17
REMARK Flexibility Score: inf
ROOT
ATOM      1  C   UNL     1      -3.605  -6.914   8.956  1.00  0.00     0.165 A 
ATOM      2  C   UNL     1      -2.652  -5.935   9.280  1.00  0.00     0.204 A 
ATOM      3  C   UNL     1      -1.283  -6.255   9.308  1.00  0.00     0.205 A 
ATOM      4  C   UNL     1      -0.864  -7.562   9.011  1.00  0.00     0.184 A 
ATOM      5  C   UNL     1      -1.821  -8.548   8.685  1.00  0.00     0.025 A 
ATOM      6  C   UNL     1      -3.182  -8.224   8.659  1.00  0.00     0.062 A 
ATOM      7  C   UNL     1      -1.374  -9.842   8.393  1.00  0.00     0.020 A 
ATOM      8  C   UNL     1      -0.010 -10.121   8.431  1.00  0.00     0.094 A 
ATOM      9  C   UNL     1       0.882  -9.096   8.761  1.00  0.00     0.336 A 
ATOM     10  O   UNL     1       2.118  -9.327   8.801  1.00  0.00    -0.246 OA
ATOM     11  O   UNL     1       0.431  -7.875   9.034  1.00  0.00    -0.419 OA
ENDROOT
BRANCH   1  12
ATOM     12  O   UNL     1      -4.959  -6.547   8.942  1.00  0.00    -0.493 OA
ATOM     13  C   UNL     1      -5.888  -6.843   9.980  1.00  0.00     0.278 C 
ENDBRANCH   1  12
BRANCH   2  14
ATOM     14  O   UNL     1      -3.087  -4.642   9.573  1.00  0.00    -0.502 OA
ATOM     15  H   UNL     1      -2.556  -4.014  10.165  1.00  0.00     0.293 HD
ENDBRANCH   2  14
BRANCH   3  16
ATOM     16  O   UNL     1      -0.351  -5.267   9.632  1.00  0.00    -0.502 OA
ATOM     17  H   UNL     1       0.264  -5.346  10.433  1.00  0.00     0.293 HD
ENDBRANCH   3  16
TORSDOF 3
ENDMDL
MODEL 5
REMARK VINA RESULT:    -3.380     20.513     21.835
REMARK INTER + INTRA:          -3.834
REMARK INTER:                  -3.784
REMARK INTRA:                  -0.051
REMARK UNBOUND:                -0.059
REMARK SMILES COc1cc2ccc(=O)oc2c(O)c1O
REMARK SMILES IDX 3 1 14 2 12 3 11 4 5 5 4 6 6 7 7 8 8 9 9 10 10 11 2 12 1 13
REMARK SMILES IDX 15 14 13 16
REMARK H PARENT 15 15 13 17
REMARK Flexibility Score: inf
ROOT
ATOM      1  C   UNL     1     -10.063  -6.000   1.831  1.00  0.00     0.165 A 
ATOM      2  C   UNL     1     -10.084  -6.868   2.934  1.00  0.00     0.204 A 
ATOM      3  C   UNL     1     -10.101  -6.355   4.244  1.00  0.00     0.205 A 
ATOM      4  C   UNL     1     -10.096  -4.966   4.451  1.00  0.00     0.184 A 
ATOM      5  C   UNL     1     -10.075  -4.092   3.343  1.00  0.00     0.025 A 
ATOM      6  C   UNL     1     -10.058  -4.607   2.042  1.00  0.00     0.062 A 
ATOM      7  C   UNL     1     -10.071  -2.713   3.579  1.00  0.00     0.020 A 
ATOM      8  C   UNL     1     -10.088  -2.242   4.891  1.00  0.00     0.094 A 
ATOM      9  C   UNL     1     -10.109  -3.165   5.941  1.00  0.00     0.336 A 
ATOM     10  O   UNL     1     -10.125  -2.761   7.133  1.00  0.00    -0.246 OA
ATOM     11  O   UNL     1     -10.113  -4.471   5.688  1.00  0.00    -0.419 OA
ENDROOT
BRANCH   1  12
ATOM     12  O   UNL     1     -10.045  -6.558   0.544  1.00  0.00    -0.493 OA
ATOM     13  C   UNL     1     -10.112  -5.808  -0.664  1.00  0.00     0.278 C 
ENDBRANCH   1  12
BRANCH   2  14
ATOM     14  O   UNL     1     -10.088  -8.245   2.709  1.00  0.00    -0.502 OA
ATOM     15  H   UNL     1      -9.264  -8.818   2.849  1.00  0.00     0.293 HD
ENDBRANCH   2  14
BRANCH   3  16
ATOM     16  O   UNL     1     -10.122  -7.235   5.328  1.00  0.00    -0.502 OA
ATOM     17  H   UNL     1      -9.959  -6.926   6.279  1.00  0.00     0.293 HD
ENDBRANCH   3  16
TORSDOF 3
ENDMDL
MODEL 6
REMARK VINA RESULT:    -3.316     20.953     21.891
REMARK INTER + INTRA:          -3.763
REMARK INTER:                  -3.709
REMARK INTRA:                  -0.054
REMARK UNBOUND:                -0.059
REMARK SMILES COc1cc2ccc(=O)oc2c(O)c1O
REMARK SMILES IDX 3 1 14 2 12 3 11 4 5 5 4 6 6 7 7 8 8 9 9 10 10 11 2 12 1 13
REMARK SMILES IDX 15 14 13 16
REMARK H PARENT 15 15 13 17
REMARK Flexibility Score: inf
ROOT
ATOM      1  C   UNL     1     -10.110   5.896  -2.776  1.00  0.00     0.165 A 
ATOM      2  C   UNL     1     -10.111   4.812  -1.884  1.00  0.00     0.204 A 
ATOM      3  C   UNL     1     -10.100   5.033  -0.494  1.00  0.00     0.205 A 
ATOM      4  C   UNL     1     -10.087   6.345   0.005  1.00  0.00     0.184 A 
ATOM      5  C   UNL     1     -10.086   7.436  -0.891  1.00  0.00     0.025 A 
ATOM      6  C   UNL     1     -10.097   7.211  -2.272  1.00  0.00     0.062 A 
ATOM      7  C   UNL     1     -10.073   8.733  -0.365  1.00  0.00     0.020 A 
ATOM      8  C   UNL     1     -10.062   8.912   1.017  1.00  0.00     0.094 A 
ATOM      9  C   UNL     1     -10.064   7.786   1.846  1.00  0.00     0.336 A 
ATOM     10  O   UNL     1     -10.054   7.925   3.096  1.00  0.00    -0.246 OA
ATOM     11  O   UNL     1     -10.076   6.564   1.319  1.00  0.00    -0.419 OA
ENDROOT
BRANCH   1  12
ATOM     12  O   UNL     1     -10.121   5.626  -4.153  1.00  0.00    -0.493 OA
ATOM     13  C   UNL     1      -9.494   6.437  -5.141  1.00  0.00     0.278 C 
ENDBRANCH   1  12
BRANCH   2  14
ATOM     14  O   UNL     1     -10.124   3.515  -2.398  1.00  0.00    -0.502 OA
ATOM     15  H   UNL     1     -10.232   2.700  -1.807  1.00  0.00     0.293 HD
ENDBRANCH   2  14
BRANCH   3  16
ATOM     16  O   UNL     1     -10.102   3.941   0.376  1.00  0.00    -0.502 OA
ATOM     17  H   UNL     1     -10.440   3.028   0.098  1.00  0.00     0.293 HD
ENDBRANCH   3  16
TORSDOF 3
ENDMDL
MODEL 7
REMARK VINA RESULT:    -3.291     23.440     23.962
REMARK INTER + INTRA:          -3.736
REMARK INTER:                  -3.680
REMARK INTRA:                  -0.056
REMARK UNBOUND:                -0.059
REMARK SMILES COc1cc2ccc(=O)oc2c(O)c1O
REMARK SMILES IDX 3 1 14 2 12 3 11 4 5 5 4 6 6 7 7 8 8 9 9 10 10 11 2 12 1 13
REMARK SMILES IDX 15 14 13 16
REMARK H PARENT 15 15 13 17
REMARK Flexibility Score: inf
ROOT
ATOM      1  C   UNL     1      -9.805   5.095  -6.523  1.00  0.00     0.165 A 
ATOM      2  C   UNL     1      -9.307   5.028  -7.833  1.00  0.00     0.204 A 
ATOM      3  C   UNL     1      -8.972   3.788  -8.406  1.00  0.00     0.205 A 
ATOM      4  C   UNL     1      -9.135   2.608  -7.663  1.00  0.00     0.184 A 
ATOM      5  C   UNL     1      -9.636   2.673  -6.344  1.00  0.00     0.025 A 
ATOM      6  C   UNL     1      -9.968   3.910  -5.779  1.00  0.00     0.062 A 
ATOM      7  C   UNL     1      -9.788   1.481  -5.627  1.00  0.00     0.020 A 
ATOM      8  C   UNL     1      -9.445   0.272  -6.227  1.00  0.00     0.094 A 
ATOM      9  C   UNL     1      -8.955   0.280  -7.537  1.00  0.00     0.336 A 
ATOM     10  O   UNL     1      -8.640  -0.801  -8.097  1.00  0.00    -0.246 OA
ATOM     11  O   UNL     1      -8.820   1.428  -8.196  1.00  0.00    -0.419 OA
ENDROOT
BRANCH   1  12
ATOM     12  O   UNL     1     -10.125   6.355  -5.995  1.00  0.00    -0.493 OA
ATOM     13  C   UNL     1      -9.899   6.747  -4.645  1.00  0.00     0.278 C 
ENDBRANCH   1  12
BRANCH   2  14
ATOM     14  O   UNL     1      -9.151   6.211  -8.557  1.00  0.00    -0.502 OA
ATOM     15  H   UNL     1      -9.495   6.315  -9.505  1.00  0.00     0.293 HD
ENDBRANCH   2  14
BRANCH   3  16
ATOM     16  O   UNL     1      -8.479   3.742  -9.711  1.00  0.00    -0.502 OA
ATOM     17  H   UNL     1      -8.806   3.065 -10.390  1.00  0.00     0.293 HD
ENDBRANCH   3  16
TORSDOF 3
ENDMDL
MODEL 8
REMARK VINA RESULT:    -3.280     20.057     21.964
REMARK INTER + INTRA:          -3.723
REMARK INTER:                  -3.671
REMARK INTRA:                  -0.052
REMARK UNBOUND:                -0.059
REMARK SMILES COc1cc2ccc(=O)oc2c(O)c1O
REMARK SMILES IDX 3 1 14 2 12 3 11 4 5 5 4 6 6 7 7 8 8 9 9 10 10 11 2 12 1 13
REMARK SMILES IDX 15 14 13 16
REMARK H PARENT 15 15 13 17
REMARK Flexibility Score: inf
ROOT
ATOM      1  C   UNL     1      -6.178  -9.357   2.873  1.00  0.00     0.165 A 
ATOM      2  C   UNL     1      -5.428  -9.725   1.745  1.00  0.00     0.204 A 
ATOM      3  C   UNL     1      -6.006  -9.691   0.462  1.00  0.00     0.205 A 
ATOM      4  C   UNL     1      -7.342  -9.286   0.309  1.00  0.00     0.184 A 
ATOM      5  C   UNL     1      -8.097  -8.916   1.442  1.00  0.00     0.025 A 
ATOM      6  C   UNL     1      -7.517  -8.952   2.715  1.00  0.00     0.062 A 
ATOM      7  C   UNL     1      -9.426  -8.517   1.259  1.00  0.00     0.020 A 
ATOM      8  C   UNL     1      -9.964  -8.495  -0.026  1.00  0.00     0.094 A 
ATOM      9  C   UNL     1      -9.158  -8.875  -1.104  1.00  0.00     0.336 A 
ATOM     10  O   UNL     1      -9.625  -8.863  -2.273  1.00  0.00    -0.246 OA
ATOM     11  O   UNL     1      -7.898  -9.250  -0.902  1.00  0.00    -0.419 OA
ENDROOT
BRANCH   1  12
ATOM     12  O   UNL     1      -5.558  -9.408   4.131  1.00  0.00    -0.493 OA
ATOM     13  C   UNL     1      -6.252  -9.439   5.373  1.00  0.00     0.278 C 
ENDBRANCH   1  12
BRANCH   2  14
ATOM     14  O   UNL     1      -4.102 -10.125   1.917  1.00  0.00    -0.502 OA
ATOM     15  H   UNL     1      -3.500  -9.713   2.620  1.00  0.00     0.293 HD
ENDBRANCH   2  14
BRANCH   3  16
ATOM     16  O   UNL     1      -5.243 -10.060  -0.647  1.00  0.00    -0.502 OA
ATOM     17  H   UNL     1      -5.431  -9.702  -1.576  1.00  0.00     0.293 HD
ENDBRANCH   3  16
TORSDOF 3
ENDMDL
MODEL 9
REMARK VINA RESULT:    -3.258     19.398     20.808
REMARK INTER + INTRA:          -3.698
REMARK INTER:                  -3.640
REMARK INTRA:                  -0.058
REMARK UNBOUND:                -0.059
REMARK SMILES COc1cc2ccc(=O)oc2c(O)c1O
REMARK SMILES IDX 3 1 14 2 12 3 11 4 5 5 4 6 6 7 7 8 8 9 9 10 10 11 2 12 1 13
REMARK SMILES IDX 15 14 13 16
REMARK H PARENT 15 15 13 17
REMARK Flexibility Score: inf
ROOT
ATOM      1  C   UNL     1      -7.484   9.113  -3.746  1.00  0.00     0.165 A 
ATOM      2  C   UNL     1      -6.436   9.531  -2.911  1.00  0.00     0.204 A 
ATOM      3  C   UNL     1      -6.576   9.478  -1.511  1.00  0.00     0.205 A 
ATOM      4  C   UNL     1      -7.771   9.006  -0.946  1.00  0.00     0.184 A 
ATOM      5  C   UNL     1      -8.826   8.586  -1.784  1.00  0.00     0.025 A 
ATOM      6  C   UNL     1      -8.682   8.640  -3.175  1.00  0.00     0.062 A 
ATOM      7  C   UNL     1     -10.005   8.119  -1.192  1.00  0.00     0.020 A 
ATOM      8  C   UNL     1     -10.107   8.083   0.197  1.00  0.00     0.094 A 
ATOM      9  C   UNL     1      -9.023   8.514   0.967  1.00  0.00     0.336 A 
ATOM     10  O   UNL     1      -9.094   8.489   2.223  1.00  0.00    -0.246 OA
ATOM     11  O   UNL     1      -7.913   8.953   0.378  1.00  0.00    -0.419 OA
ENDROOT
BRANCH   1  12
ATOM     12  O   UNL     1      -7.298   9.184  -5.135  1.00  0.00    -0.493 OA
ATOM     13  C   UNL     1      -7.647   8.152  -6.051  1.00  0.00     0.278 C 
ENDBRANCH   1  12
BRANCH   2  14
ATOM     14  O   UNL     1      -5.256   9.997  -3.491  1.00  0.00    -0.502 OA
ATOM     15  H   UNL     1      -4.398  10.101  -2.962  1.00  0.00     0.293 HD
ENDBRANCH   2  14
BRANCH   3  16
ATOM     16  O   UNL     1      -5.522   9.898  -0.698  1.00  0.00    -0.502 OA
ATOM     17  H   UNL     1      -5.551  10.769  -0.181  1.00  0.00     0.293 HD
ENDBRANCH   3  16
TORSDOF 3
ENDMDL
