MODEL 1
REMARK VINA RESULT:    -2.786      0.000      0.000
REMARK INTER + INTRA:          -3.062
REMARK INTER:                  -3.030
REMARK INTRA:                  -0.031
REMARK UNBOUND:                -0.031
REMARK SMILES CC(=O)[C@@H]1CC[C@H]2[C@@H]3CC=C4C[C@H](O)CC[C@]4(C)[C@H]3CC[C@]12C
REMARK SMILES IDX 4 1 5 2 6 3 7 4 22 5 21 6 20 7 19 8 8 9 9 10 10 11 11 12
REMARK SMILES IDX 17 13 16 14 15 15 13 16 12 17 18 18 23 19 2 20 1 21 3 22
REMARK SMILES IDX 14 23
REMARK H PARENT 14 24
REMARK Flexibility Score: inf
ROOT
ATOM      1  C   UNL     1      27.407  43.627  21.290  1.00  0.00     0.062 C 
ATOM      2  C   UNL     1      25.859  43.712  21.244  1.00  0.00     0.012 C 
ATOM      3  C   UNL     1      25.331  42.284  21.017  1.00  0.00     0.005 C 
ATOM      4  C   UNL     1      26.545  41.391  21.232  1.00  0.00    -0.001 C 
ATOM      5  C   UNL     1      27.734  42.216  20.726  1.00  0.00    -0.020 C 
ATOM      6  C   UNL     1      29.029  41.538  21.238  1.00  0.00     0.008 C 
ATOM      7  C   UNL     1      29.124  40.073  20.750  1.00  0.00     0.005 C 
ATOM      8  C   UNL     1      27.841  39.229  21.055  1.00  0.00     0.003 C 
ATOM      9  C   UNL     1      26.520  39.958  20.657  1.00  0.00     0.000 C 
ATOM     10  C   UNL     1      25.321  39.180  21.220  1.00  0.00     0.031 C 
ATOM     11  C   UNL     1      25.396  37.707  20.937  1.00  0.00    -0.027 C 
ATOM     12  C   UNL     1      26.552  37.040  20.730  1.00  0.00    -0.065 C 
ATOM     13  C   UNL     1      27.887  37.763  20.475  1.00  0.00    -0.008 C 
ATOM     14  C   UNL     1      29.029  36.972  21.188  1.00  0.00     0.014 C 
ATOM     15  C   UNL     1      28.990  35.456  20.932  1.00  0.00     0.033 C 
ATOM     16  C   UNL     1      27.641  34.851  21.331  1.00  0.00     0.118 C 
ATOM     17  C   UNL     1      26.496  35.531  20.570  1.00  0.00     0.063 C 
ATOM     18  C   UNL     1      28.147  37.767  18.942  1.00  0.00     0.016 C 
ATOM     19  C   UNL     1      27.788  42.339  19.169  1.00  0.00     0.012 C 
ENDROOT
BRANCH   1  20
ATOM     20  C   UNL     1      27.936  43.881  22.692  1.00  0.00     0.133 C 
ATOM     21  C   UNL     1      27.008  43.820  23.867  1.00  0.00     0.088 C 
ATOM     22  O   UNL     1      29.120  44.121  22.876  1.00  0.00    -0.300 OA
ENDBRANCH   1  20
BRANCH  16  23
ATOM     23  O   UNL     1      27.454  34.983  22.717  1.00  0.00    -0.393 OA
ATOM     24  H   UNL     1      26.780  35.701  22.849  1.00  0.00     0.210 HD
ENDBRANCH  16  23
TORSDOF 2
ENDMDL
MODEL 2
REMARK VINA RESULT:    -1.172      1.632      6.633
REMARK INTER + INTRA:          -1.306
REMARK INTER:                  -1.322
REMARK INTRA:                   0.016
REMARK UNBOUND:                -0.031
REMARK SMILES CC(=O)[C@@H]1CC[C@H]2[C@@H]3CC=C4C[C@H](O)CC[C@]4(C)[C@H]3CC[C@]12C
REMARK SMILES IDX 4 1 5 2 6 3 7 4 22 5 21 6 20 7 19 8 8 9 9 10 10 11 11 12
REMARK SMILES IDX 17 13 16 14 15 15 13 16 12 17 18 18 23 19 2 20 1 21 3 22
REMARK SMILES IDX 14 23
REMARK H PARENT 14 24
REMARK Flexibility Score: inf
ROOT
ATOM      1  C   UNL     1      26.397  35.391  22.302  1.00  0.00     0.062 C 
ATOM      2  C   UNL     1      27.900  35.170  22.612  1.00  0.00     0.012 C 
ATOM      3  C   UNL     1      28.630  36.489  22.300  1.00  0.00     0.005 C 
ATOM      4  C   UNL     1      27.512  37.505  22.107  1.00  0.00    -0.001 C 
ATOM      5  C   UNL     1      26.363  36.708  21.478  1.00  0.00    -0.020 C 
ATOM      6  C   UNL     1      25.079  37.570  21.584  1.00  0.00     0.008 C 
ATOM      7  C   UNL     1      25.261  38.933  20.877  1.00  0.00     0.005 C 
ATOM      8  C   UNL     1      26.545  39.707  21.331  1.00  0.00     0.003 C 
ATOM      9  C   UNL     1      27.824  38.813  21.347  1.00  0.00     0.000 C 
ATOM     10  C   UNL     1      28.965  39.571  22.040  1.00  0.00     0.031 C 
ATOM     11  C   UNL     1      29.125  40.976  21.534  1.00  0.00    -0.027 C 
ATOM     12  C   UNL     1      28.123  41.693  20.980  1.00  0.00    -0.065 C 
ATOM     13  C   UNL     1      26.793  41.052  20.545  1.00  0.00    -0.008 C 
ATOM     14  C   UNL     1      25.630  42.045  20.863  1.00  0.00     0.014 C 
ATOM     15  C   UNL     1      25.900  43.487  20.402  1.00  0.00     0.033 C 
ATOM     16  C   UNL     1      27.201  44.036  20.995  1.00  0.00     0.118 C 
ATOM     17  C   UNL     1      28.389  43.143  20.615  1.00  0.00     0.063 C 
ATOM     18  C   UNL     1      26.854  40.810  19.011  1.00  0.00     0.016 C 
ATOM     19  C   UNL     1      26.614  36.328  19.982  1.00  0.00     0.012 C 
ENDROOT
BRANCH   1  20
ATOM     20  C   UNL     1      25.566  35.424  23.574  1.00  0.00     0.133 C 
ATOM     21  C   UNL     1      26.241  35.488  24.910  1.00  0.00     0.088 C 
ATOM     22  O   UNL     1      24.345  35.414  23.519  1.00  0.00    -0.300 OA
ENDBRANCH   1  20
BRANCH  16  23
ATOM     23  O   UNL     1      27.083  44.125  22.393  1.00  0.00    -0.393 OA
ATOM     24  H   UNL     1      26.219  43.699  22.636  1.00  0.00     0.210 HD
ENDBRANCH  16  23
TORSDOF 2
ENDMDL
MODEL 3
REMARK VINA RESULT:    -0.619      1.420      6.866
REMARK INTER + INTRA:          -0.705
REMARK INTER:                  -1.229
REMARK INTRA:                   0.524
REMARK UNBOUND:                -0.031
REMARK SMILES CC(=O)[C@@H]1CC[C@H]2[C@@H]3CC=C4C[C@H](O)CC[C@]4(C)[C@H]3CC[C@]12C
REMARK SMILES IDX 4 1 5 2 6 3 7 4 22 5 21 6 20 7 19 8 8 9 9 10 10 11 11 12
REMARK SMILES IDX 17 13 16 14 15 15 13 16 12 17 18 18 23 19 2 20 1 21 3 22
REMARK SMILES IDX 14 23
REMARK H PARENT 14 24
REMARK Flexibility Score: inf
ROOT
ATOM      1  C   UNL     1      27.955  34.098  21.243  1.00  0.00     0.062 C 
ATOM      2  C   UNL     1      28.894  33.955  20.017  1.00  0.00     0.012 C 
ATOM      3  C   UNL     1      29.021  35.348  19.375  1.00  0.00     0.005 C 
ATOM      4  C   UNL     1      28.408  36.295  20.398  1.00  0.00    -0.001 C 
ATOM      5  C   UNL     1      27.283  35.487  21.056  1.00  0.00    -0.020 C 
ATOM      6  C   UNL     1      26.853  36.237  22.341  1.00  0.00     0.008 C 
ATOM      7  C   UNL     1      26.385  37.676  22.018  1.00  0.00     0.005 C 
ATOM      8  C   UNL     1      27.412  38.490  21.160  1.00  0.00     0.003 C 
ATOM      9  C   UNL     1      27.947  37.693  19.929  1.00  0.00     0.000 C 
ATOM     10  C   UNL     1      29.124  38.457  19.302  1.00  0.00     0.031 C 
ATOM     11  C   UNL     1      28.827  39.915  19.092  1.00  0.00    -0.027 C 
ATOM     12  C   UNL     1      27.926  40.610  19.820  1.00  0.00    -0.065 C 
ATOM     13  C   UNL     1      26.903  39.922  20.741  1.00  0.00    -0.008 C 
ATOM     14  C   UNL     1      26.723  40.791  22.027  1.00  0.00     0.014 C 
ATOM     15  C   UNL     1      26.519  42.288  21.742  1.00  0.00     0.033 C 
ATOM     16  C   UNL     1      27.665  42.866  20.906  1.00  0.00     0.118 C 
ATOM     17  C   UNL     1      27.807  42.105  19.582  1.00  0.00     0.063 C 
ATOM     18  C   UNL     1      25.548  39.844  19.983  1.00  0.00     0.016 C 
ATOM     19  C   UNL     1      26.041  35.281  20.130  1.00  0.00     0.012 C 
ENDROOT
BRANCH   1  20
ATOM     20  C   UNL     1      28.718  33.939  22.548  1.00  0.00     0.133 C 
ATOM     21  C   UNL     1      28.996  32.572  23.093  1.00  0.00     0.088 C 
ATOM     22  O   UNL     1      29.124  34.920  23.154  1.00  0.00    -0.300 OA
ENDBRANCH   1  20
BRANCH  16  23
ATOM     23  O   UNL     1      28.863  42.802  21.638  1.00  0.00    -0.393 OA
ATOM     24  H   UNL     1      29.605  42.905  20.985  1.00  0.00     0.210 HD
ENDBRANCH  16  23
TORSDOF 2
ENDMDL
MODEL 4
REMARK VINA RESULT:    -0.398      1.271      6.586
REMARK INTER + INTRA:          -0.464
REMARK INTER:                  -0.972
REMARK INTRA:                   0.508
REMARK UNBOUND:                -0.031
REMARK SMILES CC(=O)[C@@H]1CC[C@H]2[C@@H]3CC=C4C[C@H](O)CC[C@]4(C)[C@H]3CC[C@]12C
REMARK SMILES IDX 4 1 5 2 6 3 7 4 22 5 21 6 20 7 19 8 8 9 9 10 10 11 11 12
REMARK SMILES IDX 17 13 16 14 15 15 13 16 12 17 18 18 23 19 2 20 1 21 3 22
REMARK SMILES IDX 14 23
REMARK H PARENT 14 24
REMARK Flexibility Score: inf
ROOT
ATOM      1  C   UNL     1      27.850  36.215  19.614  1.00  0.00     0.062 C 
ATOM      2  C   UNL     1      28.750  36.646  18.426  1.00  0.00     0.012 C 
ATOM      3  C   UNL     1      28.911  38.174  18.506  1.00  0.00     0.005 C 
ATOM      4  C   UNL     1      28.359  38.543  19.876  1.00  0.00    -0.001 C 
ATOM      5  C   UNL     1      27.224  37.543  20.124  1.00  0.00    -0.020 C 
ATOM      6  C   UNL     1      26.855  37.613  21.627  1.00  0.00     0.008 C 
ATOM      7  C   UNL     1      26.431  39.044  22.033  1.00  0.00     0.005 C 
ATOM      8  C   UNL     1      27.464  40.144  21.615  1.00  0.00     0.003 C 
ATOM      9  C   UNL     1      27.938  40.007  20.134  1.00  0.00     0.000 C 
ATOM     10  C   UNL     1      29.124  40.952  19.890  1.00  0.00     0.031 C 
ATOM     11  C   UNL     1      28.875  42.344  20.397  1.00  0.00    -0.027 C 
ATOM     12  C   UNL     1      28.019  42.635  21.401  1.00  0.00    -0.065 C 
ATOM     13  C   UNL     1      26.997  41.616  21.935  1.00  0.00    -0.008 C 
ATOM     14  C   UNL     1      26.883  41.786  23.483  1.00  0.00     0.014 C 
ATOM     15  C   UNL     1      26.726  43.245  23.940  1.00  0.00     0.033 C 
ATOM     16  C   UNL     1      27.869  44.124  23.425  1.00  0.00     0.118 C 
ATOM     17  C   UNL     1      27.948  44.070  21.894  1.00  0.00     0.063 C 
ATOM     18  C   UNL     1      25.620  41.929  21.284  1.00  0.00     0.016 C 
ATOM     19  C   UNL     1      25.951  37.820  19.260  1.00  0.00     0.012 C 
ENDROOT
BRANCH   1  20
ATOM     20  C   UNL     1      28.640  35.450  20.661  1.00  0.00     0.133 C 
ATOM     21  C   UNL     1      28.866  33.977  20.502  1.00  0.00     0.088 C 
ATOM     22  O   UNL     1      29.111  36.027  21.630  1.00  0.00    -0.300 OA
ENDBRANCH   1  20
BRANCH  16  23
ATOM     23  O   UNL     1      29.083  43.702  23.994  1.00  0.00    -0.393 OA
ATOM     24  H   UNL     1      29.717  44.463  23.917  1.00  0.00     0.210 HD
ENDBRANCH  16  23
TORSDOF 2
ENDMDL
MODEL 5
REMARK VINA RESULT:     0.131      1.700      6.521
REMARK INTER + INTRA:           0.111
REMARK INTER:                  -0.076
REMARK INTRA:                   0.187
REMARK UNBOUND:                -0.031
REMARK SMILES CC(=O)[C@@H]1CC[C@H]2[C@@H]3CC=C4C[C@H](O)CC[C@]4(C)[C@H]3CC[C@]12C
REMARK SMILES IDX 4 1 5 2 6 3 7 4 22 5 21 6 20 7 19 8 8 9 9 10 10 11 11 12
REMARK SMILES IDX 17 13 16 14 15 15 13 16 12 17 18 18 23 19 2 20 1 21 3 22
REMARK SMILES IDX 14 23
REMARK H PARENT 14 24
REMARK Flexibility Score: inf
ROOT
ATOM      1  C   UNL     1      25.993  36.062  19.908  1.00  0.00     0.062 C 
ATOM      2  C   UNL     1      26.755  35.335  21.046  1.00  0.00     0.012 C 
ATOM      3  C   UNL     1      27.567  36.399  21.804  1.00  0.00     0.005 C 
ATOM      4  C   UNL     1      27.033  37.727  21.284  1.00  0.00    -0.001 C 
ATOM      5  C   UNL     1      26.673  37.457  19.818  1.00  0.00    -0.020 C 
ATOM      6  C   UNL     1      25.795  38.635  19.325  1.00  0.00     0.008 C 
ATOM      7  C   UNL     1      26.537  39.984  19.474  1.00  0.00     0.005 C 
ATOM      8  C   UNL     1      27.115  40.225  20.909  1.00  0.00     0.003 C 
ATOM      9  C   UNL     1      27.897  38.994  21.467  1.00  0.00     0.000 C 
ATOM     10  C   UNL     1      28.202  39.219  22.955  1.00  0.00     0.031 C 
ATOM     11  C   UNL     1      28.783  40.576  23.234  1.00  0.00    -0.027 C 
ATOM     12  C   UNL     1      28.572  41.658  22.452  1.00  0.00    -0.065 C 
ATOM     13  C   UNL     1      27.957  41.551  21.045  1.00  0.00    -0.008 C 
ATOM     14  C   UNL     1      27.014  42.775  20.817  1.00  0.00     0.014 C 
ATOM     15  C   UNL     1      27.638  44.124  21.212  1.00  0.00     0.033 C 
ATOM     16  C   UNL     1      28.109  44.123  22.669  1.00  0.00     0.118 C 
ATOM     17  C   UNL     1      29.123  42.996  22.911  1.00  0.00     0.063 C 
ATOM     18  C   UNL     1      29.116  41.598  20.009  1.00  0.00     0.016 C 
ATOM     19  C   UNL     1      27.920  37.308  18.887  1.00  0.00     0.012 C 
ENDROOT
BRANCH   1  20
ATOM     20  C   UNL     1      24.499  36.107  20.179  1.00  0.00     0.133 C 
ATOM     21  C   UNL     1      23.975  36.842  21.375  1.00  0.00     0.088 C 
ATOM     22  O   UNL     1      23.712  35.560  19.420  1.00  0.00    -0.300 OA
ENDBRANCH   1  20
BRANCH  16  23
ATOM     23  O   UNL     1      27.003  43.977  23.524  1.00  0.00    -0.393 OA
ATOM     24  H   UNL     1      27.333  43.530  24.347  1.00  0.00     0.210 HD
ENDBRANCH  16  23
TORSDOF 2
ENDMDL
