MODEL 1
REMARK VINA RESULT:    -3.693      0.000      0.000
REMARK INTER + INTRA:          -7.725
REMARK INTER:                  -6.499
REMARK INTRA:                  -1.226
REMARK UNBOUND:                -1.226
REMARK SMILES CCCCCCC=CCCCCCCCC(=O)[O-]
REMARK SMILES IDX 10 1 11 2 12 3 13 4 14 5 15 6 16 7 17 8 18 9 9 10 8 11 7 12
REMARK SMILES IDX 6 13 5 14 4 15 3 16 2 17 1 18
REMARK H PARENT
REMARK Flexibility Score: inf
ROOT
ATOM      1  C   UNL     1      66.899  29.370  59.876  1.00  0.00     0.004 C 
ENDROOT
BRANCH   1   2
ATOM      2  C   UNL     1      67.096  28.955  61.347  1.00  0.00     0.000 C 
BRANCH   2   3
ATOM      3  C   UNL     1      68.569  28.974  61.807  1.00  0.00     0.000 C 
BRANCH   3   4
ATOM      4  C   UNL     1      69.541  28.592  60.677  1.00  0.00     0.000 C 
BRANCH   4   5
ATOM      5  C   UNL     1      70.866  29.372  60.739  1.00  0.00     0.006 C 
BRANCH   5   6
ATOM      6  C   UNL     1      70.800  30.776  60.117  1.00  0.00     0.053 C 
BRANCH   6   7
ATOM      7  C   UNL     1      71.633  31.765  60.873  1.00  0.00     0.041 C 
ATOM      8  O   UNL     1      71.483  33.000  60.681  1.00  0.00    -0.550 OA
ATOM      9  O   UNL     1      72.594  31.320  61.772  1.00  0.00    -0.550 OA
ENDBRANCH   6   7
ENDBRANCH   5   6
ENDBRANCH   4   5
ENDBRANCH   3   4
ENDBRANCH   2   3
ENDBRANCH   1   2
BRANCH   1  10
ATOM     10  C   UNL     1      65.785  30.406  59.651  1.00  0.00     0.027 C 
BRANCH  10  11
ATOM     11  C   UNL     1      64.819  30.478  60.803  1.00  0.00    -0.031 C 
ATOM     12  C   UNL     1      63.634  29.849  60.771  1.00  0.00    -0.031 C 
BRANCH  12  13
ATOM     13  C   UNL     1      62.669  29.938  61.920  1.00  0.00     0.027 C 
BRANCH  13  14
ATOM     14  C   UNL     1      61.269  30.339  61.431  1.00  0.00     0.004 C 
BRANCH  14  15
ATOM     15  C   UNL     1      61.075  31.863  61.380  1.00  0.00     0.000 C 
BRANCH  15  16
ATOM     16  C   UNL     1      61.160  32.422  59.949  1.00  0.00    -0.000 C 
BRANCH  16  17
ATOM     17  C   UNL     1      61.956  33.735  59.878  1.00  0.00    -0.003 C 
ATOM     18  C   UNL     1      63.096  33.791  60.895  1.00  0.00     0.004 C 
ENDBRANCH  16  17
ENDBRANCH  15  16
ENDBRANCH  14  15
ENDBRANCH  13  14
ENDBRANCH  12  13
ENDBRANCH  10  11
ENDBRANCH   1  10
TORSDOF 13
ENDMDL
MODEL 2
REMARK VINA RESULT:    -3.678      2.840      5.007
REMARK INTER + INTRA:          -7.699
REMARK INTER:                  -5.853
REMARK INTRA:                  -1.846
REMARK UNBOUND:                -1.226
REMARK SMILES CCCCCCC=CCCCCCCCC(=O)[O-]
REMARK SMILES IDX 10 1 11 2 12 3 13 4 14 5 15 6 16 7 17 8 18 9 9 10 8 11 7 12
REMARK SMILES IDX 6 13 5 14 4 15 3 16 2 17 1 18
REMARK H PARENT
REMARK Flexibility Score: inf
ROOT
ATOM      1  C   UNL     1      61.568  30.062  59.575  1.00  0.00     0.004 C 
ENDROOT
BRANCH   1   2
ATOM      2  C   UNL     1      61.195  28.963  60.589  1.00  0.00     0.000 C 
BRANCH   2   3
ATOM      3  C   UNL     1      62.245  28.764  61.703  1.00  0.00     0.000 C 
BRANCH   3   4
ATOM      4  C   UNL     1      63.650  28.483  61.141  1.00  0.00     0.000 C 
BRANCH   4   5
ATOM      5  C   UNL     1      64.662  29.592  61.479  1.00  0.00     0.006 C 
BRANCH   5   6
ATOM      6  C   UNL     1      65.671  29.887  60.358  1.00  0.00     0.053 C 
BRANCH   6   7
ATOM      7  C   UNL     1      66.991  29.220  60.601  1.00  0.00     0.041 C 
ATOM      8  O   UNL     1      67.874  29.215  59.705  1.00  0.00    -0.550 OA
ATOM      9  O   UNL     1      67.233  28.581  61.811  1.00  0.00    -0.550 OA
ENDBRANCH   6   7
ENDBRANCH   5   6
ENDBRANCH   4   5
ENDBRANCH   3   4
ENDBRANCH   2   3
ENDBRANCH   1   2
BRANCH   1  10
ATOM     10  C   UNL     1      61.005  31.454  59.909  1.00  0.00     0.027 C 
BRANCH  10  11
ATOM     11  C   UNL     1      61.942  32.268  60.762  1.00  0.00    -0.031 C 
ATOM     12  C   UNL     1      63.085  32.770  60.272  1.00  0.00    -0.031 C 
BRANCH  12  13
ATOM     13  C   UNL     1      64.022  33.570  61.132  1.00  0.00     0.027 C 
BRANCH  13  14
ATOM     14  C   UNL     1      64.097  35.029  60.657  1.00  0.00     0.004 C 
BRANCH  14  15
ATOM     15  C   UNL     1      63.375  35.997  61.608  1.00  0.00     0.000 C 
BRANCH  15  16
ATOM     16  C   UNL     1      62.193  36.715  60.936  1.00  0.00    -0.000 C 
BRANCH  16  17
ATOM     17  C   UNL     1      61.002  35.778  60.683  1.00  0.00    -0.003 C 
ATOM     18  C   UNL     1      60.511  35.822  59.236  1.00  0.00     0.004 C 
ENDBRANCH  16  17
ENDBRANCH  15  16
ENDBRANCH  14  15
ENDBRANCH  13  14
ENDBRANCH  12  13
ENDBRANCH  10  11
ENDBRANCH   1  10
TORSDOF 13
ENDMDL
MODEL 3
REMARK VINA RESULT:    -3.631      1.045      1.946
REMARK INTER + INTRA:          -7.616
REMARK INTER:                  -6.808
REMARK INTRA:                  -0.808
REMARK UNBOUND:                -1.226
REMARK SMILES CCCCCCC=CCCCCCCCC(=O)[O-]
REMARK SMILES IDX 10 1 11 2 12 3 13 4 14 5 15 6 16 7 17 8 18 9 9 10 8 11 7 12
REMARK SMILES IDX 6 13 5 14 4 15 3 16 2 17 1 18
REMARK H PARENT
REMARK Flexibility Score: inf
ROOT
ATOM      1  C   UNL     1      64.885  29.305  60.179  1.00  0.00     0.004 C 
ENDROOT
BRANCH   1   2
ATOM      2  C   UNL     1      66.321  29.737  60.535  1.00  0.00     0.000 C 
BRANCH   2   3
ATOM      3  C   UNL     1      67.248  28.563  60.915  1.00  0.00     0.000 C 
BRANCH   3   4
ATOM      4  C   UNL     1      68.518  29.032  61.645  1.00  0.00     0.000 C 
BRANCH   4   5
ATOM      5  C   UNL     1      69.807  28.726  60.859  1.00  0.00     0.006 C 
BRANCH   5   6
ATOM      6  C   UNL     1      70.368  29.926  60.080  1.00  0.00     0.053 C 
BRANCH   6   7
ATOM      7  C   UNL     1      71.370  30.698  60.884  1.00  0.00     0.041 C 
ATOM      8  O   UNL     1      72.233  30.094  61.572  1.00  0.00    -0.550 OA
ATOM      9  O   UNL     1      71.332  32.087  60.892  1.00  0.00    -0.550 OA
ENDBRANCH   6   7
ENDBRANCH   5   6
ENDBRANCH   4   5
ENDBRANCH   3   4
ENDBRANCH   2   3
ENDBRANCH   1   2
BRANCH   1  10
ATOM     10  C   UNL     1      64.181  28.480  61.269  1.00  0.00     0.027 C 
BRANCH  10  11
ATOM     11  C   UNL     1      62.856  29.069  61.676  1.00  0.00    -0.031 C 
ATOM     12  C   UNL     1      62.489  30.305  61.303  1.00  0.00    -0.031 C 
BRANCH  12  13
ATOM     13  C   UNL     1      61.172  30.892  61.725  1.00  0.00     0.027 C 
BRANCH  13  14
ATOM     14  C   UNL     1      60.956  32.273  61.089  1.00  0.00     0.004 C 
BRANCH  14  15
ATOM     15  C   UNL     1      62.279  32.977  60.744  1.00  0.00     0.000 C 
BRANCH  15  16
ATOM     16  C   UNL     1      62.078  34.445  60.330  1.00  0.00    -0.000 C 
BRANCH  16  17
ATOM     17  C   UNL     1      62.984  35.406  61.114  1.00  0.00    -0.003 C 
ATOM     18  C   UNL     1      64.302  34.760  61.540  1.00  0.00     0.004 C 
ENDBRANCH  16  17
ENDBRANCH  15  16
ENDBRANCH  14  15
ENDBRANCH  13  14
ENDBRANCH  12  13
ENDBRANCH  10  11
ENDBRANCH   1  10
TORSDOF 13
ENDMDL
MODEL 4
REMARK VINA RESULT:    -3.617     12.239     14.279
REMARK INTER + INTRA:          -7.592
REMARK INTER:                  -6.209
REMARK INTRA:                  -1.383
REMARK UNBOUND:                -1.226
REMARK SMILES CCCCCCC=CCCCCCCCC(=O)[O-]
REMARK SMILES IDX 10 1 11 2 12 3 13 4 14 5 15 6 16 7 17 8 18 9 9 10 8 11 7 12
REMARK SMILES IDX 6 13 5 14 4 15 3 16 2 17 1 18
REMARK H PARENT
REMARK Flexibility Score: inf
ROOT
ATOM      1  C   UNL     1      58.459  29.233  51.561  1.00  0.00     0.004 C 
ENDROOT
BRANCH   1   2
ATOM      2  C   UNL     1      58.159  29.023  50.064  1.00  0.00     0.000 C 
BRANCH   2   3
ATOM      3  C   UNL     1      59.351  28.453  49.265  1.00  0.00     0.000 C 
BRANCH   3   4
ATOM      4  C   UNL     1      59.401  26.916  49.304  1.00  0.00     0.000 C 
BRANCH   4   5
ATOM      5  C   UNL     1      60.543  26.377  50.185  1.00  0.00     0.006 C 
BRANCH   5   6
ATOM      6  C   UNL     1      61.743  27.330  50.312  1.00  0.00     0.053 C 
BRANCH   6   7
ATOM      7  C   UNL     1      62.920  26.859  49.514  1.00  0.00     0.041 C 
ATOM      8  O   UNL     1      63.573  25.848  49.882  1.00  0.00    -0.550 OA
ATOM      9  O   UNL     1      63.309  27.553  48.375  1.00  0.00    -0.550 OA
ENDBRANCH   6   7
ENDBRANCH   5   6
ENDBRANCH   4   5
ENDBRANCH   3   4
ENDBRANCH   2   3
ENDBRANCH   1   2
BRANCH   1  10
ATOM     10  C   UNL     1      57.212  29.450  52.435  1.00  0.00     0.027 C 
BRANCH  10  11
ATOM     11  C   UNL     1      55.963  29.662  51.621  1.00  0.00    -0.031 C 
ATOM     12  C   UNL     1      54.754  29.748  52.194  1.00  0.00    -0.031 C 
BRANCH  12  13
ATOM     13  C   UNL     1      53.510  29.945  51.374  1.00  0.00     0.027 C 
BRANCH  13  14
ATOM     14  C   UNL     1      53.511  29.025  50.143  1.00  0.00     0.004 C 
BRANCH  14  15
ATOM     15  C   UNL     1      53.228  27.557  50.504  1.00  0.00     0.000 C 
BRANCH  15  16
ATOM     16  C   UNL     1      53.308  26.623  49.284  1.00  0.00    -0.000 C 
BRANCH  16  17
ATOM     17  C   UNL     1      54.626  25.833  49.235  1.00  0.00    -0.003 C 
ATOM     18  C   UNL     1      55.562  26.174  50.394  1.00  0.00     0.004 C 
ENDBRANCH  16  17
ENDBRANCH  15  16
ENDBRANCH  14  15
ENDBRANCH  13  14
ENDBRANCH  12  13
ENDBRANCH  10  11
ENDBRANCH   1  10
TORSDOF 13
ENDMDL
MODEL 5
REMARK VINA RESULT:    -3.597     12.321     14.786
REMARK INTER + INTRA:          -7.556
REMARK INTER:                  -5.440
REMARK INTRA:                  -2.116
REMARK UNBOUND:                -1.226
REMARK SMILES CCCCCCC=CCCCCCCCC(=O)[O-]
REMARK SMILES IDX 10 1 11 2 12 3 13 4 14 5 15 6 16 7 17 8 18 9 9 10 8 11 7 12
REMARK SMILES IDX 6 13 5 14 4 15 3 16 2 17 1 18
REMARK H PARENT
REMARK Flexibility Score: inf
ROOT
ATOM      1  C   UNL     1      54.353  25.845  49.219  1.00  0.00     0.004 C 
ENDROOT
BRANCH   1   2
ATOM      2  C   UNL     1      55.806  26.130  49.644  1.00  0.00     0.000 C 
BRANCH   2   3
ATOM      3  C   UNL     1      55.996  26.244  51.172  1.00  0.00     0.000 C 
BRANCH   3   4
ATOM      4  C   UNL     1      56.777  27.508  51.572  1.00  0.00     0.000 C 
BRANCH   4   5
ATOM      5  C   UNL     1      56.984  28.480  50.396  1.00  0.00     0.006 C 
BRANCH   5   6
ATOM      6  C   UNL     1      58.457  28.816  50.110  1.00  0.00     0.053 C 
BRANCH   6   7
ATOM      7  C   UNL     1      59.341  27.612  50.232  1.00  0.00     0.041 C 
ATOM      8  O   UNL     1      60.145  27.511  51.195  1.00  0.00    -0.550 OA
ATOM      9  O   UNL     1      59.293  26.615  49.267  1.00  0.00    -0.550 OA
ENDBRANCH   6   7
ENDBRANCH   5   6
ENDBRANCH   4   5
ENDBRANCH   3   4
ENDBRANCH   2   3
ENDBRANCH   1   2
BRANCH   1  10
ATOM     10  C   UNL     1      53.292  26.615  50.024  1.00  0.00     0.027 C 
BRANCH  10  11
ATOM     11  C   UNL     1      53.506  28.105  49.988  1.00  0.00    -0.031 C 
ATOM     12  C   UNL     1      53.359  28.865  51.084  1.00  0.00    -0.031 C 
BRANCH  12  13
ATOM     13  C   UNL     1      53.559  30.353  51.038  1.00  0.00     0.027 C 
BRANCH  13  14
ATOM     14  C   UNL     1      53.883  30.908  52.433  1.00  0.00     0.004 C 
BRANCH  14  15
ATOM     15  C   UNL     1      54.279  29.806  53.429  1.00  0.00     0.000 C 
BRANCH  15  16
ATOM     16  C   UNL     1      55.647  30.064  54.084  1.00  0.00    -0.000 C 
BRANCH  16  17
ATOM     17  C   UNL     1      56.366  31.281  53.483  1.00  0.00    -0.003 C 
ATOM     18  C   UNL     1      57.800  30.967  53.053  1.00  0.00     0.004 C 
ENDBRANCH  16  17
ENDBRANCH  15  16
ENDBRANCH  14  15
ENDBRANCH  13  14
ENDBRANCH  12  13
ENDBRANCH  10  11
ENDBRANCH   1  10
TORSDOF 13
ENDMDL
MODEL 6
REMARK VINA RESULT:    -3.591      4.055      6.370
REMARK INTER + INTRA:          -7.546
REMARK INTER:                  -5.255
REMARK INTRA:                  -2.290
REMARK UNBOUND:                -1.226
REMARK SMILES CCCCCCC=CCCCCCCCC(=O)[O-]
REMARK SMILES IDX 10 1 11 2 12 3 13 4 14 5 15 6 16 7 17 8 18 9 9 10 8 11 7 12
REMARK SMILES IDX 6 13 5 14 4 15 3 16 2 17 1 18
REMARK H PARENT
REMARK Flexibility Score: inf
ROOT
ATOM      1  C   UNL     1      61.241  34.624  59.023  1.00  0.00     0.004 C 
ENDROOT
BRANCH   1   2
ATOM      2  C   UNL     1      61.636  34.438  60.501  1.00  0.00     0.000 C 
BRANCH   2   3
ATOM      3  C   UNL     1      62.535  35.566  61.052  1.00  0.00     0.000 C 
BRANCH   3   4
ATOM      4  C   UNL     1      63.898  35.044  61.536  1.00  0.00     0.000 C 
BRANCH   4   5
ATOM      5  C   UNL     1      65.084  35.775  60.881  1.00  0.00     0.006 C 
BRANCH   5   6
ATOM      6  C   UNL     1      64.776  36.356  59.492  1.00  0.00     0.053 C 
BRANCH   6   7
ATOM      7  C   UNL     1      65.891  36.112  58.521  1.00  0.00     0.041 C 
ATOM      8  O   UNL     1      65.643  35.674  57.367  1.00  0.00    -0.550 OA
ATOM      9  O   UNL     1      67.206  36.346  58.901  1.00  0.00    -0.550 OA
ENDBRANCH   6   7
ENDBRANCH   5   6
ENDBRANCH   4   5
ENDBRANCH   3   4
ENDBRANCH   2   3
ENDBRANCH   1   2
BRANCH   1  10
ATOM     10  C   UNL     1      61.846  33.584  58.067  1.00  0.00     0.027 C 
BRANCH  10  11
ATOM     11  C   UNL     1      62.747  32.604  58.772  1.00  0.00    -0.031 C 
ATOM     12  C   UNL     1      64.083  32.716  58.729  1.00  0.00    -0.031 C 
BRANCH  12  13
ATOM     13  C   UNL     1      64.976  31.726  59.422  1.00  0.00     0.027 C 
BRANCH  13  14
ATOM     14  C   UNL     1      64.463  31.420  60.838  1.00  0.00     0.004 C 
BRANCH  14  15
ATOM     15  C   UNL     1      64.416  29.913  61.136  1.00  0.00     0.000 C 
BRANCH  15  16
ATOM     16  C   UNL     1      63.065  29.468  61.723  1.00  0.00    -0.000 C 
BRANCH  16  17
ATOM     17  C   UNL     1      62.092  30.641  61.914  1.00  0.00    -0.003 C 
ATOM     18  C   UNL     1      60.830  30.507  61.062  1.00  0.00     0.004 C 
ENDBRANCH  16  17
ENDBRANCH  15  16
ENDBRANCH  14  15
ENDBRANCH  13  14
ENDBRANCH  12  13
ENDBRANCH  10  11
ENDBRANCH   1  10
TORSDOF 13
ENDMDL
MODEL 7
REMARK VINA RESULT:    -3.589     11.665     14.091
REMARK INTER + INTRA:          -7.543
REMARK INTER:                  -5.328
REMARK INTRA:                  -2.215
REMARK UNBOUND:                -1.226
REMARK SMILES CCCCCCC=CCCCCCCCC(=O)[O-]
REMARK SMILES IDX 10 1 11 2 12 3 13 4 14 5 15 6 16 7 17 8 18 9 9 10 8 11 7 12
REMARK SMILES IDX 6 13 5 14 4 15 3 16 2 17 1 18
REMARK H PARENT
REMARK Flexibility Score: inf
ROOT
ATOM      1  C   UNL     1      58.228  29.178  50.989  1.00  0.00     0.004 C 
ENDROOT
BRANCH   1   2
ATOM      2  C   UNL     1      56.932  28.477  51.440  1.00  0.00     0.000 C 
BRANCH   2   3
ATOM      3  C   UNL     1      56.137  27.834  50.283  1.00  0.00     0.000 C 
BRANCH   3   4
ATOM      4  C   UNL     1      56.322  26.308  50.222  1.00  0.00     0.000 C 
BRANCH   4   5
ATOM      5  C   UNL     1      57.000  25.738  51.482  1.00  0.00     0.006 C 
BRANCH   5   6
ATOM      6  C   UNL     1      58.319  24.999  51.207  1.00  0.00     0.053 C 
BRANCH   6   7
ATOM      7  C   UNL     1      59.249  25.055  52.380  1.00  0.00     0.041 C 
ATOM      8  O   UNL     1      59.902  24.034  52.722  1.00  0.00    -0.550 OA
ATOM      9  O   UNL     1      59.374  26.229  53.112  1.00  0.00    -0.550 OA
ENDBRANCH   6   7
ENDBRANCH   5   6
ENDBRANCH   4   5
ENDBRANCH   3   4
ENDBRANCH   2   3
ENDBRANCH   1   2
BRANCH   1  10
ATOM     10  C   UNL     1      58.481  29.132  49.473  1.00  0.00     0.027 C 
BRANCH  10  11
ATOM     11  C   UNL     1      59.622  28.221  49.104  1.00  0.00    -0.031 C 
ATOM     12  C   UNL     1      60.405  27.658  50.036  1.00  0.00    -0.031 C 
BRANCH  12  13
ATOM     13  C   UNL     1      61.551  26.762  49.659  1.00  0.00     0.027 C 
BRANCH  13  14
ATOM     14  C   UNL     1      62.707  27.572  49.053  1.00  0.00     0.004 C 
BRANCH  14  15
ATOM     15  C   UNL     1      63.474  28.386  50.108  1.00  0.00     0.000 C 
BRANCH  15  16
ATOM     16  C   UNL     1      63.650  29.860  49.704  1.00  0.00    -0.000 C 
BRANCH  16  17
ATOM     17  C   UNL     1      62.362  30.677  49.885  1.00  0.00    -0.003 C 
ATOM     18  C   UNL     1      61.908  30.750  51.343  1.00  0.00     0.004 C 
ENDBRANCH  16  17
ENDBRANCH  15  16
ENDBRANCH  14  15
ENDBRANCH  13  14
ENDBRANCH  12  13
ENDBRANCH  10  11
ENDBRANCH   1  10
TORSDOF 13
ENDMDL
MODEL 8
REMARK VINA RESULT:    -3.564      1.708      2.536
REMARK INTER + INTRA:          -7.499
REMARK INTER:                  -5.406
REMARK INTRA:                  -2.093
REMARK UNBOUND:                -1.226
REMARK SMILES CCCCCCC=CCCCCCCCC(=O)[O-]
REMARK SMILES IDX 10 1 11 2 12 3 13 4 14 5 15 6 16 7 17 8 18 9 9 10 8 11 7 12
REMARK SMILES IDX 6 13 5 14 4 15 3 16 2 17 1 18
REMARK H PARENT
REMARK Flexibility Score: inf
ROOT
ATOM      1  C   UNL     1      66.548  29.536  58.190  1.00  0.00     0.004 C 
ENDROOT
BRANCH   1   2
ATOM      2  C   UNL     1      65.660  28.287  58.352  1.00  0.00     0.000 C 
BRANCH   2   3
ATOM      3  C   UNL     1      66.366  27.108  59.054  1.00  0.00     0.000 C 
BRANCH   3   4
ATOM      4  C   UNL     1      66.387  27.265  60.585  1.00  0.00     0.000 C 
BRANCH   4   5
ATOM      5  C   UNL     1      67.809  27.428  61.150  1.00  0.00     0.006 C 
BRANCH   5   6
ATOM      6  C   UNL     1      68.158  28.864  61.572  1.00  0.00     0.053 C 
BRANCH   6   7
ATOM      7  C   UNL     1      69.435  29.338  60.949  1.00  0.00     0.041 C 
ATOM      8  O   UNL     1      69.686  29.082  59.742  1.00  0.00    -0.550 OA
ATOM      9  O   UNL     1      70.361  30.042  61.709  1.00  0.00    -0.550 OA
ENDBRANCH   6   7
ENDBRANCH   5   6
ENDBRANCH   4   5
ENDBRANCH   3   4
ENDBRANCH   2   3
ENDBRANCH   1   2
BRANCH   1  10
ATOM     10  C   UNL     1      66.098  30.748  59.022  1.00  0.00     0.027 C 
BRANCH  10  11
ATOM     11  C   UNL     1      64.773  30.525  59.702  1.00  0.00    -0.031 C 
ATOM     12  C   UNL     1      64.646  30.587  61.036  1.00  0.00    -0.031 C 
BRANCH  12  13
ATOM     13  C   UNL     1      63.324  30.349  61.710  1.00  0.00     0.027 C 
BRANCH  13  14
ATOM     14  C   UNL     1      62.158  30.709  60.776  1.00  0.00     0.004 C 
BRANCH  14  15
ATOM     15  C   UNL     1      61.577  32.102  61.069  1.00  0.00     0.000 C 
BRANCH  15  16
ATOM     16  C   UNL     1      62.114  33.181  60.114  1.00  0.00    -0.000 C 
BRANCH  16  17
ATOM     17  C   UNL     1      62.701  34.388  60.862  1.00  0.00    -0.003 C 
ATOM     18  C   UNL     1      64.170  34.193  61.239  1.00  0.00     0.004 C 
ENDBRANCH  16  17
ENDBRANCH  15  16
ENDBRANCH  14  15
ENDBRANCH  13  14
ENDBRANCH  12  13
ENDBRANCH  10  11
ENDBRANCH   1  10
TORSDOF 13
ENDMDL
MODEL 9
REMARK VINA RESULT:    -3.515     12.008     14.166
REMARK INTER + INTRA:          -7.413
REMARK INTER:                  -5.549
REMARK INTRA:                  -1.863
REMARK UNBOUND:                -1.226
REMARK SMILES CCCCCCC=CCCCCCCCC(=O)[O-]
REMARK SMILES IDX 10 1 11 2 12 3 13 4 14 5 15 6 16 7 17 8 18 9 9 10 8 11 7 12
REMARK SMILES IDX 6 13 5 14 4 15 3 16 2 17 1 18
REMARK H PARENT
REMARK Flexibility Score: inf
ROOT
ATOM      1  C   UNL     1      60.239  28.002  49.256  1.00  0.00     0.004 C 
ENDROOT
BRANCH   1   2
ATOM      2  C   UNL     1      60.041  26.582  49.822  1.00  0.00     0.000 C 
BRANCH   2   3
ATOM      3  C   UNL     1      58.620  26.020  49.607  1.00  0.00     0.000 C 
BRANCH   3   4
ATOM      4  C   UNL     1      58.182  25.084  50.746  1.00  0.00     0.000 C 
BRANCH   4   5
ATOM      5  C   UNL     1      57.544  25.838  51.927  1.00  0.00     0.006 C 
BRANCH   5   6
ATOM      6  C   UNL     1      58.269  25.636  53.268  1.00  0.00     0.053 C 
BRANCH   6   7
ATOM      7  C   UNL     1      59.427  26.574  53.427  1.00  0.00     0.041 C 
ATOM      8  O   UNL     1      60.608  26.142  53.359  1.00  0.00    -0.550 OA
ATOM      9  O   UNL     1      59.200  27.922  53.675  1.00  0.00    -0.550 OA
ENDBRANCH   6   7
ENDBRANCH   5   6
ENDBRANCH   4   5
ENDBRANCH   3   4
ENDBRANCH   2   3
ENDBRANCH   1   2
BRANCH   1  10
ATOM     10  C   UNL     1      58.949  28.833  49.156  1.00  0.00     0.027 C 
BRANCH  10  11
ATOM     11  C   UNL     1      58.358  29.148  50.505  1.00  0.00    -0.031 C 
ATOM     12  C   UNL     1      57.032  29.144  50.711  1.00  0.00    -0.031 C 
BRANCH  12  13
ATOM     13  C   UNL     1      56.448  29.474  52.056  1.00  0.00     0.027 C 
BRANCH  13  14
ATOM     14  C   UNL     1      54.940  29.184  52.087  1.00  0.00     0.004 C 
BRANCH  14  15
ATOM     15  C   UNL     1      54.417  28.636  50.749  1.00  0.00     0.000 C 
BRANCH  15  16
ATOM     16  C   UNL     1      54.067  27.140  50.819  1.00  0.00    -0.000 C 
BRANCH  16  17
ATOM     17  C   UNL     1      54.651  26.343  49.642  1.00  0.00    -0.003 C 
ATOM     18  C   UNL     1      53.597  25.515  48.908  1.00  0.00     0.004 C 
ENDBRANCH  16  17
ENDBRANCH  15  16
ENDBRANCH  14  15
ENDBRANCH  13  14
ENDBRANCH  12  13
ENDBRANCH  10  11
ENDBRANCH   1  10
TORSDOF 13
ENDMDL
