MODEL 1
REMARK VINA RESULT:    -4.694      0.000      0.000
REMARK INTER + INTRA:          -4.831
REMARK INTER:                  -4.831
REMARK INTRA:                   0.000
REMARK UNBOUND:                 0.000
REMARK SMILES CC1(C)[C@@H]2CC[C@@](C)(C2)[C@H]1O
REMARK SMILES IDX 1 1 2 2 4 3 5 4 6 5 7 6 9 7 10 8 8 9 3 10 11 11
REMARK H PARENT 11 12
REMARK Flexibility Score: inf
ROOT
ATOM      1  C   UNL     1     181.663 180.692 187.007  1.00  0.00     0.014 C 
ATOM      2  C   UNL     1     181.726 179.983 185.628  1.00  0.00    -0.006 C 
ATOM      3  C   UNL     1     180.669 178.828 185.577  1.00  0.00    -0.002 C 
ATOM      4  C   UNL     1     180.891 177.917 184.351  1.00  0.00     0.005 C 
ATOM      5  C   UNL     1     180.527 178.836 183.175  1.00  0.00     0.010 C 
ATOM      6  C   UNL     1     180.035 180.120 183.883  1.00  0.00    -0.006 C 
ATOM      7  C   UNL     1     179.410 179.557 185.140  1.00  0.00     0.013 C 
ATOM      8  C   UNL     1     181.266 180.892 184.438  1.00  0.00     0.126 C 
ATOM      9  C   UNL     1     179.075 180.953 183.024  1.00  0.00     0.014 C 
ATOM     10  C   UNL     1     183.183 179.495 185.429  1.00  0.00     0.014 C 
ENDROOT
BRANCH   8  11
ATOM     11  O   UNL     1     180.900 182.178 184.880  1.00  0.00    -0.392 OA
ATOM     12  H   UNL     1     180.555 182.080 185.805  1.00  0.00     0.211 HD
ENDBRANCH   8  11
TORSDOF 1
ENDMDL
MODEL 2
REMARK VINA RESULT:    -4.495      1.452      3.038
REMARK INTER + INTRA:          -4.627
REMARK INTER:                  -4.627
REMARK INTRA:                   0.000
REMARK UNBOUND:                 0.000
REMARK SMILES CC1(C)[C@@H]2CC[C@@](C)(C2)[C@H]1O
REMARK SMILES IDX 1 1 2 2 4 3 5 4 6 5 7 6 9 7 10 8 8 9 3 10 11 11
REMARK H PARENT 11 12
REMARK Flexibility Score: inf
ROOT
ATOM      1  C   UNL     1     180.935 177.359 184.024  1.00  0.00     0.014 C 
ATOM      2  C   UNL     1     180.800 178.865 183.675  1.00  0.00    -0.006 C 
ATOM      3  C   UNL     1     179.369 179.372 184.062  1.00  0.00    -0.002 C 
ATOM      4  C   UNL     1     179.091 180.772 183.474  1.00  0.00     0.005 C 
ATOM      5  C   UNL     1     180.054 181.670 184.264  1.00  0.00     0.010 C 
ATOM      6  C   UNL     1     180.679 180.689 185.283  1.00  0.00    -0.006 C 
ATOM      7  C   UNL     1     179.534 179.731 185.529  1.00  0.00     0.013 C 
ATOM      8  C   UNL     1     181.715 179.792 184.547  1.00  0.00     0.126 C 
ATOM      9  C   UNL     1     181.199 181.383 186.548  1.00  0.00     0.014 C 
ATOM     10  C   UNL     1     181.122 179.018 182.168  1.00  0.00     0.014 C 
ENDROOT
BRANCH   8  11
ATOM     11  O   UNL     1     182.482 179.047 185.464  1.00  0.00    -0.392 OA
ATOM     12  H   UNL     1     183.322 179.552 185.617  1.00  0.00     0.211 HD
ENDBRANCH   8  11
TORSDOF 1
ENDMDL
MODEL 3
REMARK VINA RESULT:    -4.477      1.177      3.243
REMARK INTER + INTRA:          -4.608
REMARK INTER:                  -4.608
REMARK INTRA:                   0.000
REMARK UNBOUND:                 0.000
REMARK SMILES CC1(C)[C@@H]2CC[C@@](C)(C2)[C@H]1O
REMARK SMILES IDX 1 1 2 2 4 3 5 4 6 5 7 6 9 7 10 8 8 9 3 10 11 11
REMARK H PARENT 11 12
REMARK Flexibility Score: inf
ROOT
ATOM      1  C   UNL     1     179.247 180.278 183.345  1.00  0.00     0.014 C 
ATOM      2  C   UNL     1     180.360 179.574 184.164  1.00  0.00    -0.006 C 
ATOM      3  C   UNL     1     181.722 180.323 183.961  1.00  0.00    -0.002 C 
ATOM      4  C   UNL     1     182.904 179.500 184.515  1.00  0.00     0.005 C 
ATOM      5  C   UNL     1     182.660 179.532 186.031  1.00  0.00     0.010 C 
ATOM      6  C   UNL     1     181.433 180.465 186.160  1.00  0.00    -0.006 C 
ATOM      7  C   UNL     1     181.650 181.421 185.008  1.00  0.00     0.013 C 
ATOM      8  C   UNL     1     180.161 179.687 185.715  1.00  0.00     0.126 C 
ATOM      9  C   UNL     1     181.334 181.146 187.531  1.00  0.00     0.014 C 
ATOM     10  C   UNL     1     180.397 178.093 183.712  1.00  0.00     0.014 C 
ENDROOT
BRANCH   8  11
ATOM     11  O   UNL     1     178.991 180.403 186.035  1.00  0.00    -0.392 OA
ATOM     12  H   UNL     1     178.250 179.996 185.516  1.00  0.00     0.211 HD
ENDBRANCH   8  11
TORSDOF 1
ENDMDL
MODEL 4
REMARK VINA RESULT:    -4.462      1.493      3.066
REMARK INTER + INTRA:          -4.592
REMARK INTER:                  -4.592
REMARK INTRA:                   0.000
REMARK UNBOUND:                 0.000
REMARK SMILES CC1(C)[C@@H]2CC[C@@](C)(C2)[C@H]1O
REMARK SMILES IDX 1 1 2 2 4 3 5 4 6 5 7 6 9 7 10 8 8 9 3 10 11 11
REMARK H PARENT 11 12
REMARK Flexibility Score: inf
ROOT
ATOM      1  C   UNL     1     180.611 179.492 181.830  1.00  0.00     0.014 C 
ATOM      2  C   UNL     1     180.657 179.242 183.361  1.00  0.00    -0.006 C 
ATOM      3  C   UNL     1     181.919 179.940 183.974  1.00  0.00    -0.002 C 
ATOM      4  C   UNL     1     182.164 179.481 185.427  1.00  0.00     0.005 C 
ATOM      5  C   UNL     1     180.971 180.089 186.181  1.00  0.00     0.010 C 
ATOM      6  C   UNL     1     180.258 180.913 185.085  1.00  0.00    -0.006 C 
ATOM      7  C   UNL     1     181.421 181.353 184.224  1.00  0.00     0.013 C 
ATOM      8  C   UNL     1     179.493 179.940 184.143  1.00  0.00     0.126 C 
ATOM      9  C   UNL     1     179.421 182.069 185.648  1.00  0.00     0.014 C 
ATOM     10  C   UNL     1     180.635 177.708 183.576  1.00  0.00     0.014 C 
ENDROOT
BRANCH   8  11
ATOM     11  O   UNL     1     178.636 180.645 183.274  1.00  0.00    -0.392 OA
ATOM     12  H   UNL     1     177.772 180.158 183.259  1.00  0.00     0.211 HD
ENDBRANCH   8  11
TORSDOF 1
ENDMDL
MODEL 5
REMARK VINA RESULT:    -4.423      1.421      2.970
REMARK INTER + INTRA:          -4.552
REMARK INTER:                  -4.552
REMARK INTRA:                   0.000
REMARK UNBOUND:                 0.000
REMARK SMILES CC1(C)[C@@H]2CC[C@@](C)(C2)[C@H]1O
REMARK SMILES IDX 1 1 2 2 4 3 5 4 6 5 7 6 9 7 10 8 8 9 3 10 11 11
REMARK H PARENT 11 12
REMARK Flexibility Score: inf
ROOT
ATOM      1  C   UNL     1     179.148 182.101 183.764  1.00  0.00     0.014 C 
ATOM      2  C   UNL     1     180.398 181.528 184.483  1.00  0.00    -0.006 C 
ATOM      3  C   UNL     1     179.992 180.977 185.893  1.00  0.00    -0.002 C 
ATOM      4  C   UNL     1     181.235 180.668 186.754  1.00  0.00     0.005 C 
ATOM      5  C   UNL     1     181.861 179.468 186.027  1.00  0.00     0.010 C 
ATOM      6  C   UNL     1     180.836 179.172 184.909  1.00  0.00    -0.006 C 
ATOM      7  C   UNL     1     179.535 179.565 185.572  1.00  0.00     0.013 C 
ATOM      8  C   UNL     1     180.982 180.248 183.795  1.00  0.00     0.126 C 
ATOM      9  C   UNL     1     180.878 177.718 184.421  1.00  0.00     0.014 C 
ATOM     10  C   UNL     1     181.451 182.662 184.544  1.00  0.00     0.014 C 
ENDROOT
BRANCH   8  11
ATOM     11  O   UNL     1     180.244 179.894 182.648  1.00  0.00    -0.392 OA
ATOM     12  H   UNL     1     180.208 178.903 182.621  1.00  0.00     0.211 HD
ENDBRANCH   8  11
TORSDOF 1
ENDMDL
MODEL 6
REMARK VINA RESULT:    -4.398      2.380      4.077
REMARK INTER + INTRA:          -4.527
REMARK INTER:                  -4.527
REMARK INTRA:                   0.000
REMARK UNBOUND:                 0.000
REMARK SMILES CC1(C)[C@@H]2CC[C@@](C)(C2)[C@H]1O
REMARK SMILES IDX 1 1 2 2 4 3 5 4 6 5 7 6 9 7 10 8 8 9 3 10 11 11
REMARK H PARENT 11 12
REMARK Flexibility Score: inf
ROOT
ATOM      1  C   UNL     1     179.330 180.082 183.779  1.00  0.00     0.014 C 
ATOM      2  C   UNL     1     180.024 181.407 183.369  1.00  0.00    -0.006 C 
ATOM      3  C   UNL     1     179.405 181.939 182.031  1.00  0.00    -0.002 C 
ATOM      4  C   UNL     1     180.250 183.084 181.437  1.00  0.00     0.005 C 
ATOM      5  C   UNL     1     180.039 184.222 182.447  1.00  0.00     0.010 C 
ATOM      6  C   UNL     1     179.010 183.620 183.431  1.00  0.00    -0.006 C 
ATOM      7  C   UNL     1     178.200 182.725 182.519  1.00  0.00     0.013 C 
ATOM      8  C   UNL     1     179.733 182.594 184.350  1.00  0.00     0.126 C 
ATOM      9  C   UNL     1     178.182 184.683 184.164  1.00  0.00     0.014 C 
ATOM     10  C   UNL     1     181.543 181.120 183.274  1.00  0.00     0.014 C 
ENDROOT
BRANCH   8  11
ATOM     11  O   UNL     1     178.901 182.193 185.414  1.00  0.00    -0.392 OA
ATOM     12  H   UNL     1     178.020 181.961 185.023  1.00  0.00     0.211 HD
ENDBRANCH   8  11
TORSDOF 1
ENDMDL
MODEL 7
REMARK VINA RESULT:    -4.364      1.891      2.954
REMARK INTER + INTRA:          -4.492
REMARK INTER:                  -4.492
REMARK INTRA:                   0.000
REMARK UNBOUND:                 0.000
REMARK SMILES CC1(C)[C@@H]2CC[C@@](C)(C2)[C@H]1O
REMARK SMILES IDX 1 1 2 2 4 3 5 4 6 5 7 6 9 7 10 8 8 9 3 10 11 11
REMARK H PARENT 11 12
REMARK Flexibility Score: inf
ROOT
ATOM      1  C   UNL     1     183.312 177.848 183.033  1.00  0.00     0.014 C 
ATOM      2  C   UNL     1     181.843 177.954 183.519  1.00  0.00    -0.006 C 
ATOM      3  C   UNL     1     181.768 178.874 184.785  1.00  0.00    -0.002 C 
ATOM      4  C   UNL     1     180.388 178.776 185.469  1.00  0.00     0.005 C 
ATOM      5  C   UNL     1     179.454 179.440 184.446  1.00  0.00     0.010 C 
ATOM      6  C   UNL     1     180.435 179.934 183.357  1.00  0.00    -0.006 C 
ATOM      7  C   UNL     1     181.663 180.261 184.176  1.00  0.00     0.013 C 
ATOM      8  C   UNL     1     180.908 178.714 182.516  1.00  0.00     0.126 C 
ATOM      9  C   UNL     1     179.888 181.115 182.545  1.00  0.00     0.014 C 
ATOM     10  C   UNL     1     181.337 176.513 183.772  1.00  0.00     0.014 C 
ENDROOT
BRANCH   8  11
ATOM     11  O   UNL     1     181.611 179.132 181.369  1.00  0.00    -0.392 OA
ATOM     12  H   UNL     1     181.585 180.124 181.358  1.00  0.00     0.211 HD
ENDBRANCH   8  11
TORSDOF 1
ENDMDL
MODEL 8
REMARK VINA RESULT:    -4.319      1.029      3.070
REMARK INTER + INTRA:          -4.445
REMARK INTER:                  -4.445
REMARK INTRA:                   0.000
REMARK UNBOUND:                 0.000
REMARK SMILES CC1(C)[C@@H]2CC[C@@](C)(C2)[C@H]1O
REMARK SMILES IDX 1 1 2 2 4 3 5 4 6 5 7 6 9 7 10 8 8 9 3 10 11 11
REMARK H PARENT 11 12
REMARK Flexibility Score: inf
ROOT
ATOM      1  C   UNL     1     181.154 182.169 182.877  1.00  0.00     0.014 C 
ATOM      2  C   UNL     1     180.492 180.980 183.622  1.00  0.00    -0.006 C 
ATOM      3  C   UNL     1     181.284 179.662 183.325  1.00  0.00    -0.002 C 
ATOM      4  C   UNL     1     180.504 178.418 183.802  1.00  0.00     0.005 C 
ATOM      5  C   UNL     1     180.537 178.562 185.331  1.00  0.00     0.010 C 
ATOM      6  C   UNL     1     181.429 179.808 185.539  1.00  0.00    -0.006 C 
ATOM      7  C   UNL     1     182.385 179.700 184.371  1.00  0.00     0.013 C 
ATOM      8  C   UNL     1     180.607 181.079 185.182  1.00  0.00     0.126 C 
ATOM      9  C   UNL     1     182.115 179.837 186.910  1.00  0.00     0.014 C 
ATOM     10  C   UNL     1     179.011 180.924 183.173  1.00  0.00     0.014 C 
ENDROOT
BRANCH   8  11
ATOM     11  O   UNL     1     181.286 182.249 185.577  1.00  0.00    -0.392 OA
ATOM     12  H   UNL     1     181.223 182.301 186.566  1.00  0.00     0.211 HD
ENDBRANCH   8  11
TORSDOF 1
ENDMDL
MODEL 9
REMARK VINA RESULT:    -4.299      1.482      3.176
REMARK INTER + INTRA:          -4.425
REMARK INTER:                  -4.425
REMARK INTRA:                   0.000
REMARK UNBOUND:                 0.000
REMARK SMILES CC1(C)[C@@H]2CC[C@@](C)(C2)[C@H]1O
REMARK SMILES IDX 1 1 2 2 4 3 5 4 6 5 7 6 9 7 10 8 8 9 3 10 11 11
REMARK H PARENT 11 12
REMARK Flexibility Score: inf
ROOT
ATOM      1  C   UNL     1     179.378 181.329 182.297  1.00  0.00     0.014 C 
ATOM      2  C   UNL     1     179.973 180.970 183.684  1.00  0.00    -0.006 C 
ATOM      3  C   UNL     1     179.373 179.612 184.183  1.00  0.00    -0.002 C 
ATOM      4  C   UNL     1     179.707 179.362 185.669  1.00  0.00     0.005 C 
ATOM      5  C   UNL     1     181.226 179.134 185.641  1.00  0.00     0.010 C 
ATOM      6  C   UNL     1     181.550 179.170 184.129  1.00  0.00    -0.006 C 
ATOM      7  C   UNL     1     180.288 178.590 183.530  1.00  0.00     0.013 C 
ATOM      8  C   UNL     1     181.506 180.646 183.640  1.00  0.00     0.126 C 
ATOM      9  C   UNL     1     182.827 178.401 183.768  1.00  0.00     0.014 C 
ATOM     10  C   UNL     1     179.679 182.160 184.631  1.00  0.00     0.014 C 
ENDROOT
BRANCH   8  11
ATOM     11  O   UNL     1     182.023 180.763 182.335  1.00  0.00    -0.392 OA
ATOM     12  H   UNL     1     183.007 180.860 182.420  1.00  0.00     0.211 HD
ENDBRANCH   8  11
TORSDOF 1
ENDMDL
