MODEL 1
REMARK VINA RESULT:    -3.824      0.000      0.000
REMARK INTER + INTRA:          -6.223
REMARK INTER:                  -5.837
REMARK INTRA:                  -0.387
REMARK UNBOUND:                -0.387
REMARK SMILES O=C([O-])CCCCCCCCC(=O)[O-]
REMARK SMILES IDX 7 1 6 2 5 3 4 4 2 5 1 6 3 7 8 8 9 9 10 10 11 11 12 12 13 13
REMARK SMILES IDX 14 14
REMARK H PARENT
REMARK Flexibility Score: inf
ROOT
ATOM      1  C   UNL     1      33.011   0.020  42.977  1.00  0.00     0.000 C 
ENDROOT
BRANCH   1   2
ATOM      2  C   UNL     1      31.693  -0.763  42.849  1.00  0.00     0.000 C 
BRANCH   2   3
ATOM      3  C   UNL     1      31.298  -1.483  44.151  1.00  0.00     0.006 C 
BRANCH   3   4
ATOM      4  C   UNL     1      29.812  -1.866  44.239  1.00  0.00     0.053 C 
BRANCH   4   5
ATOM      5  C   UNL     1      29.527  -2.743  45.420  1.00  0.00     0.041 C 
ATOM      6  O   UNL     1      29.068  -3.903  45.252  1.00  0.00    -0.550 OA
ATOM      7  O   UNL     1      29.802  -2.291  46.705  1.00  0.00    -0.550 OA
ENDBRANCH   4   5
ENDBRANCH   3   4
ENDBRANCH   2   3
ENDBRANCH   1   2
BRANCH   1   8
ATOM      8  C   UNL     1      34.207  -0.735  42.375  1.00  0.00     0.000 C 
BRANCH   8   9
ATOM      9  C   UNL     1      35.557  -0.241  42.918  1.00  0.00     0.000 C 
BRANCH   9  10
ATOM     10  C   UNL     1      36.497  -1.419  43.201  1.00  0.00     0.006 C 
BRANCH  10  11
ATOM     11  C   UNL     1      35.949  -2.718  42.603  1.00  0.00     0.053 C 
BRANCH  11  12
ATOM     12  C   UNL     1      35.972  -3.815  43.619  1.00  0.00     0.041 C 
ATOM     13  O   UNL     1      37.067  -4.206  44.104  1.00  0.00    -0.550 OA
ATOM     14  O   UNL     1      34.790  -4.441  43.994  1.00  0.00    -0.550 OA
ENDBRANCH  11  12
ENDBRANCH  10  11
ENDBRANCH   9  10
ENDBRANCH   8   9
ENDBRANCH   1   8
TORSDOF 9
ENDMDL
MODEL 2
REMARK VINA RESULT:    -3.812      0.870      6.056
REMARK INTER + INTRA:          -6.205
REMARK INTER:                  -5.853
REMARK INTRA:                  -0.351
REMARK UNBOUND:                -0.387
REMARK SMILES O=C([O-])CCCCCCCCC(=O)[O-]
REMARK SMILES IDX 7 1 6 2 5 3 4 4 2 5 1 6 3 7 8 8 9 9 10 10 11 11 12 12 13 13
REMARK SMILES IDX 14 14
REMARK H PARENT
REMARK Flexibility Score: inf
ROOT
ATOM      1  C   UNL     1      33.197  -0.128  42.978  1.00  0.00     0.000 C 
ENDROOT
BRANCH   1   2
ATOM      2  C   UNL     1      34.192  -0.719  41.963  1.00  0.00     0.000 C 
BRANCH   2   3
ATOM      3  C   UNL     1      35.354  -1.470  42.637  1.00  0.00     0.006 C 
BRANCH   3   4
ATOM      4  C   UNL     1      35.470  -2.951  42.238  1.00  0.00     0.053 C 
BRANCH   4   5
ATOM      5  C   UNL     1      35.684  -3.837  43.426  1.00  0.00     0.041 C 
ATOM      6  O   UNL     1      34.702  -4.387  43.990  1.00  0.00    -0.550 OA
ATOM      7  O   UNL     1      36.970  -4.084  43.888  1.00  0.00    -0.550 OA
ENDBRANCH   4   5
ENDBRANCH   3   4
ENDBRANCH   2   3
ENDBRANCH   1   2
BRANCH   1   8
ATOM      8  C   UNL     1      31.807  -0.779  42.889  1.00  0.00     0.000 C 
BRANCH   8   9
ATOM      9  C   UNL     1      31.393  -1.477  44.194  1.00  0.00     0.000 C 
BRANCH   9  10
ATOM     10  C   UNL     1      29.895  -1.802  44.190  1.00  0.00     0.006 C 
BRANCH  10  11
ATOM     11  C   UNL     1      29.330  -1.814  45.614  1.00  0.00     0.053 C 
BRANCH  11  12
ATOM     12  C   UNL     1      28.667  -3.122  45.905  1.00  0.00     0.041 C 
ATOM     13  O   UNL     1      28.989  -4.153  45.257  1.00  0.00    -0.550 OA
ATOM     14  O   UNL     1      27.658  -3.195  46.857  1.00  0.00    -0.550 OA
ENDBRANCH  11  12
ENDBRANCH  10  11
ENDBRANCH   9  10
ENDBRANCH   8   9
ENDBRANCH   1   8
TORSDOF 9
ENDMDL
MODEL 3
REMARK VINA RESULT:    -3.733      1.527      6.445
REMARK INTER + INTRA:          -6.084
REMARK INTER:                  -5.654
REMARK INTRA:                  -0.429
REMARK UNBOUND:                -0.387
REMARK SMILES O=C([O-])CCCCCCCCC(=O)[O-]
REMARK SMILES IDX 7 1 6 2 5 3 4 4 2 5 1 6 3 7 8 8 9 9 10 10 11 11 12 12 13 13
REMARK SMILES IDX 14 14
REMARK H PARENT
REMARK Flexibility Score: inf
ROOT
ATOM      1  C   UNL     1      31.260  -0.740  42.514  1.00  0.00     0.000 C 
ENDROOT
BRANCH   1   2
ATOM      2  C   UNL     1      32.626  -0.356  43.111  1.00  0.00     0.000 C 
BRANCH   2   3
ATOM      3  C   UNL     1      33.774  -0.471  42.092  1.00  0.00     0.006 C 
BRANCH   3   4
ATOM      4  C   UNL     1      35.168  -0.178  42.671  1.00  0.00     0.053 C 
BRANCH   4   5
ATOM      5  C   UNL     1      35.966  -1.430  42.872  1.00  0.00     0.041 C 
ATOM      6  O   UNL     1      37.110  -1.374  43.395  1.00  0.00    -0.550 OA
ATOM      7  O   UNL     1      35.433  -2.661  42.512  1.00  0.00    -0.550 OA
ENDBRANCH   4   5
ENDBRANCH   3   4
ENDBRANCH   2   3
ENDBRANCH   1   2
BRANCH   1   8
ATOM      8  C   UNL     1      30.365  -1.483  43.519  1.00  0.00     0.000 C 
BRANCH   8   9
ATOM      9  C   UNL     1      30.968  -1.529  44.931  1.00  0.00     0.000 C 
BRANCH   9  10
ATOM     10  C   UNL     1      29.894  -1.271  45.995  1.00  0.00     0.006 C 
BRANCH  10  11
ATOM     11  C   UNL     1      28.529  -1.794  45.537  1.00  0.00     0.053 C 
BRANCH  11  12
ATOM     12  C   UNL     1      28.314  -3.193  46.019  1.00  0.00     0.041 C 
ATOM     13  O   UNL     1      28.863  -4.159  45.426  1.00  0.00    -0.550 OA
ATOM     14  O   UNL     1      27.466  -3.436  47.093  1.00  0.00    -0.550 OA
ENDBRANCH  11  12
ENDBRANCH  10  11
ENDBRANCH   9  10
ENDBRANCH   8   9
ENDBRANCH   1   8
TORSDOF 9
ENDMDL
MODEL 4
REMARK VINA RESULT:    -3.620     13.305     15.932
REMARK INTER + INTRA:          -5.912
REMARK INTER:                  -5.086
REMARK INTRA:                  -0.825
REMARK UNBOUND:                -0.387
REMARK SMILES O=C([O-])CCCCCCCCC(=O)[O-]
REMARK SMILES IDX 7 1 6 2 5 3 4 4 2 5 1 6 3 7 8 8 9 9 10 10 11 11 12 12 13 13
REMARK SMILES IDX 14 14
REMARK H PARENT
REMARK Flexibility Score: inf
ROOT
ATOM      1  C   UNL     1      20.558 -11.380  46.336  1.00  0.00     0.000 C 
ENDROOT
BRANCH   1   2
ATOM      2  C   UNL     1      19.887 -12.761  46.442  1.00  0.00     0.000 C 
BRANCH   2   3
ATOM      3  C   UNL     1      20.798 -13.905  45.958  1.00  0.00     0.006 C 
BRANCH   3   4
ATOM      4  C   UNL     1      20.281 -14.645  44.714  1.00  0.00     0.053 C 
BRANCH   4   5
ATOM      5  C   UNL     1      20.491 -13.852  43.461  1.00  0.00     0.041 C 
ATOM      6  O   UNL     1      19.530 -13.233  42.935  1.00  0.00    -0.550 OA
ATOM      7  O   UNL     1      21.757 -13.770  42.894  1.00  0.00    -0.550 OA
ENDBRANCH   4   5
ENDBRANCH   3   4
ENDBRANCH   2   3
ENDBRANCH   1   2
BRANCH   1   8
ATOM      8  C   UNL     1      21.930 -11.443  45.645  1.00  0.00     0.000 C 
BRANCH   8   9
ATOM      9  C   UNL     1      22.045 -10.468  44.463  1.00  0.00     0.000 C 
BRANCH   9  10
ATOM     10  C   UNL     1      20.682  -9.851  44.128  1.00  0.00     0.006 C 
BRANCH  10  11
ATOM     11  C   UNL     1      20.720  -9.132  42.775  1.00  0.00     0.053 C 
BRANCH  11  12
ATOM     12  C   UNL     1      21.258  -7.746  42.932  1.00  0.00     0.041 C 
ATOM     13  O   UNL     1      20.555  -6.851  43.471  1.00  0.00    -0.550 OA
ATOM     14  O   UNL     1      22.516  -7.428  42.437  1.00  0.00    -0.550 OA
ENDBRANCH  11  12
ENDBRANCH  10  11
ENDBRANCH   9  10
ENDBRANCH   8   9
ENDBRANCH   1   8
TORSDOF 9
ENDMDL
MODEL 5
REMARK VINA RESULT:    -3.616      2.435      3.923
REMARK INTER + INTRA:          -5.906
REMARK INTER:                  -5.431
REMARK INTRA:                  -0.475
REMARK UNBOUND:                -0.387
REMARK SMILES O=C([O-])CCCCCCCCC(=O)[O-]
REMARK SMILES IDX 7 1 6 2 5 3 4 4 2 5 1 6 3 7 8 8 9 9 10 10 11 11 12 12 13 13
REMARK SMILES IDX 14 14
REMARK H PARENT
REMARK Flexibility Score: inf
ROOT
ATOM      1  C   UNL     1      28.943  -1.502  43.991  1.00  0.00     0.000 C 
ENDROOT
BRANCH   1   2
ATOM      2  C   UNL     1      29.550  -1.140  45.358  1.00  0.00     0.000 C 
BRANCH   2   3
ATOM      3  C   UNL     1      29.612  -2.341  46.319  1.00  0.00     0.006 C 
BRANCH   3   4
ATOM      4  C   UNL     1      28.612  -3.464  45.997  1.00  0.00     0.053 C 
BRANCH   4   5
ATOM      5  C   UNL     1      27.375  -3.372  46.836  1.00  0.00     0.041 C 
ATOM      6  O   UNL     1      26.714  -2.301  46.874  1.00  0.00    -0.550 OA
ATOM      7  O   UNL     1      26.933  -4.479  47.549  1.00  0.00    -0.550 OA
ENDBRANCH   4   5
ENDBRANCH   3   4
ENDBRANCH   2   3
ENDBRANCH   1   2
BRANCH   1   8
ATOM      8  C   UNL     1      29.897  -1.197  42.824  1.00  0.00     0.000 C 
BRANCH   8   9
ATOM      9  C   UNL     1      31.364  -1.091  43.267  1.00  0.00     0.000 C 
BRANCH   9  10
ATOM     10  C   UNL     1      32.205  -0.368  42.209  1.00  0.00     0.006 C 
BRANCH  10  11
ATOM     11  C   UNL     1      33.329   0.444  42.859  1.00  0.00     0.053 C 
BRANCH  11  12
ATOM     12  C   UNL     1      34.664  -0.129  42.502  1.00  0.00     0.041 C 
ATOM     13  O   UNL     1      34.820  -1.376  42.430  1.00  0.00    -0.550 OA
ATOM     14  O   UNL     1      35.750   0.714  42.300  1.00  0.00    -0.550 OA
ENDBRANCH  11  12
ENDBRANCH  10  11
ENDBRANCH   9  10
ENDBRANCH   8   9
ENDBRANCH   1   8
TORSDOF 9
ENDMDL
MODEL 6
REMARK VINA RESULT:    -3.579      2.562      7.207
REMARK INTER + INTRA:          -5.849
REMARK INTER:                  -5.420
REMARK INTRA:                  -0.429
REMARK UNBOUND:                -0.387
REMARK SMILES O=C([O-])CCCCCCCCC(=O)[O-]
REMARK SMILES IDX 7 1 6 2 5 3 4 4 2 5 1 6 3 7 8 8 9 9 10 10 11 11 12 12 13 13
REMARK SMILES IDX 14 14
REMARK H PARENT
REMARK Flexibility Score: inf
ROOT
ATOM      1  C   UNL     1      31.405  -2.379  44.835  1.00  0.00     0.000 C 
ENDROOT
BRANCH   1   2
ATOM      2  C   UNL     1      31.157  -1.295  43.771  1.00  0.00     0.000 C 
BRANCH   2   3
ATOM      3  C   UNL     1      32.384  -0.393  43.543  1.00  0.00     0.006 C 
BRANCH   3   4
ATOM      4  C   UNL     1      33.114  -0.638  42.212  1.00  0.00     0.053 C 
BRANCH   4   5
ATOM      5  C   UNL     1      34.603  -0.633  42.379  1.00  0.00     0.041 C 
ATOM      6  O   UNL     1      35.236  -1.719  42.446  1.00  0.00    -0.550 OA
ATOM      7  O   UNL     1      35.294   0.571  42.428  1.00  0.00    -0.550 OA
ENDBRANCH   4   5
ENDBRANCH   3   4
ENDBRANCH   2   3
ENDBRANCH   1   2
BRANCH   1   8
ATOM      8  C   UNL     1      30.506  -2.209  46.070  1.00  0.00     0.000 C 
BRANCH   8   9
ATOM      9  C   UNL     1      29.373  -1.196  45.846  1.00  0.00     0.000 C 
BRANCH   9  10
ATOM     10  C   UNL     1      28.012  -1.900  45.791  1.00  0.00     0.006 C 
BRANCH  10  11
ATOM     11  C   UNL     1      28.074  -3.274  46.465  1.00  0.00     0.053 C 
BRANCH  11  12
ATOM     12  C   UNL     1      26.936  -3.441  47.421  1.00  0.00     0.041 C 
ATOM     13  O   UNL     1      25.768  -3.121  47.078  1.00  0.00    -0.550 OA
ATOM     14  O   UNL     1      27.173  -3.902  48.710  1.00  0.00    -0.550 OA
ENDBRANCH  11  12
ENDBRANCH  10  11
ENDBRANCH   9  10
ENDBRANCH   8   9
ENDBRANCH   1   8
TORSDOF 9
ENDMDL
MODEL 7
REMARK VINA RESULT:    -3.562      1.100      1.441
REMARK INTER + INTRA:          -5.823
REMARK INTER:                  -5.461
REMARK INTRA:                  -0.361
REMARK UNBOUND:                -0.387
REMARK SMILES O=C([O-])CCCCCCCCC(=O)[O-]
REMARK SMILES IDX 7 1 6 2 5 3 4 4 2 5 1 6 3 7 8 8 9 9 10 10 11 11 12 12 13 13
REMARK SMILES IDX 14 14
REMARK H PARENT
REMARK Flexibility Score: inf
ROOT
ATOM      1  C   UNL     1      32.591  -0.713  43.759  1.00  0.00     0.000 C 
ENDROOT
BRANCH   1   2
ATOM      2  C   UNL     1      31.197  -1.348  43.904  1.00  0.00     0.000 C 
BRANCH   2   3
ATOM      3  C   UNL     1      30.871  -1.746  45.356  1.00  0.00     0.006 C 
BRANCH   3   4
ATOM      4  C   UNL     1      29.457  -1.359  45.818  1.00  0.00     0.053 C 
BRANCH   4   5
ATOM      5  C   UNL     1      28.539  -2.542  45.867  1.00  0.00     0.041 C 
ATOM      6  O   UNL     1      27.380  -2.425  46.344  1.00  0.00    -0.550 OA
ATOM      7  O   UNL     1      28.953  -3.765  45.354  1.00  0.00    -0.550 OA
ENDBRANCH   4   5
ENDBRANCH   3   4
ENDBRANCH   2   3
ENDBRANCH   1   2
BRANCH   1   8
ATOM      8  C   UNL     1      32.939  -0.381  42.299  1.00  0.00     0.000 C 
BRANCH   8   9
ATOM      9  C   UNL     1      34.454  -0.350  42.042  1.00  0.00     0.000 C 
BRANCH   9  10
ATOM     10  C   UNL     1      35.018  -1.770  41.918  1.00  0.00     0.006 C 
BRANCH  10  11
ATOM     11  C   UNL     1      36.045  -2.053  43.019  1.00  0.00     0.053 C 
BRANCH  11  12
ATOM     12  C   UNL     1      36.054  -3.507  43.367  1.00  0.00     0.041 C 
ATOM     13  O   UNL     1      37.125  -4.167  43.305  1.00  0.00    -0.550 OA
ATOM     14  O   UNL     1      34.870  -4.148  43.713  1.00  0.00    -0.550 OA
ENDBRANCH  11  12
ENDBRANCH  10  11
ENDBRANCH   9  10
ENDBRANCH   8   9
ENDBRANCH   1   8
TORSDOF 9
ENDMDL
MODEL 8
REMARK VINA RESULT:    -3.461      1.014      5.632
REMARK INTER + INTRA:          -5.669
REMARK INTER:                  -5.145
REMARK INTRA:                  -0.524
REMARK UNBOUND:                -0.387
REMARK SMILES O=C([O-])CCCCCCCCC(=O)[O-]
REMARK SMILES IDX 7 1 6 2 5 3 4 4 2 5 1 6 3 7 8 8 9 9 10 10 11 11 12 12 13 13
REMARK SMILES IDX 14 14
REMARK H PARENT
REMARK Flexibility Score: inf
ROOT
ATOM      1  C   UNL     1      34.692   0.271  42.290  1.00  0.00     0.000 C 
ENDROOT
BRANCH   1   2
ATOM      2  C   UNL     1      35.779  -0.453  43.105  1.00  0.00     0.000 C 
BRANCH   2   3
ATOM      3  C   UNL     1      36.432  -1.612  42.330  1.00  0.00     0.006 C 
BRANCH   3   4
ATOM      4  C   UNL     1      35.562  -2.874  42.222  1.00  0.00     0.053 C 
BRANCH   4   5
ATOM      5  C   UNL     1      35.733  -3.776  43.406  1.00  0.00     0.041 C 
ATOM      6  O   UNL     1      36.882  -4.002  43.869  1.00  0.00    -0.550 OA
ATOM      7  O   UNL     1      34.621  -4.341  44.017  1.00  0.00    -0.550 OA
ENDBRANCH   4   5
ENDBRANCH   3   4
ENDBRANCH   2   3
ENDBRANCH   1   2
BRANCH   1   8
ATOM      8  C   UNL     1      33.295   0.131  42.915  1.00  0.00     0.000 C 
BRANCH   8   9
ATOM      9  C   UNL     1      32.270  -0.480  41.948  1.00  0.00     0.000 C 
BRANCH   9  10
ATOM     10  C   UNL     1      30.947  -0.775  42.666  1.00  0.00     0.006 C 
BRANCH  10  11
ATOM     11  C   UNL     1      31.190  -1.517  43.984  1.00  0.00     0.053 C 
BRANCH  11  12
ATOM     12  C   UNL     1      29.892  -1.945  44.592  1.00  0.00     0.041 C 
ATOM     13  O   UNL     1      29.862  -2.899  45.413  1.00  0.00    -0.550 OA
ATOM     14  O   UNL     1      28.709  -1.323  44.215  1.00  0.00    -0.550 OA
ENDBRANCH  11  12
ENDBRANCH  10  11
ENDBRANCH   9  10
ENDBRANCH   8   9
ENDBRANCH   1   8
TORSDOF 9
ENDMDL
MODEL 9
REMARK VINA RESULT:    -3.197     12.878     14.731
REMARK INTER + INTRA:          -5.266
REMARK INTER:                  -4.934
REMARK INTRA:                  -0.333
REMARK UNBOUND:                -0.387
REMARK SMILES O=C([O-])CCCCCCCCC(=O)[O-]
REMARK SMILES IDX 7 1 6 2 5 3 4 4 2 5 1 6 3 7 8 8 9 9 10 10 11 11 12 12 13 13
REMARK SMILES IDX 14 14
REMARK H PARENT
REMARK Flexibility Score: inf
ROOT
ATOM      1  C   UNL     1      20.967  -8.594  43.677  1.00  0.00     0.000 C 
ENDROOT
BRANCH   1   2
ATOM      2  C   UNL     1      21.503  -7.958  42.382  1.00  0.00     0.000 C 
BRANCH   2   3
ATOM      3  C   UNL     1      21.346  -6.427  42.360  1.00  0.00     0.006 C 
BRANCH   3   4
ATOM      4  C   UNL     1      20.344  -5.877  43.389  1.00  0.00     0.053 C 
BRANCH   4   5
ATOM      5  C   UNL     1      20.569  -4.423  43.669  1.00  0.00     0.041 C 
ATOM      6  O   UNL     1      19.877  -3.832  44.540  1.00  0.00    -0.550 OA
ATOM      7  O   UNL     1      21.564  -3.729  42.993  1.00  0.00    -0.550 OA
ENDBRANCH   4   5
ENDBRANCH   3   4
ENDBRANCH   2   3
ENDBRANCH   1   2
BRANCH   1   8
ATOM      8  C   UNL     1      21.025 -10.130  43.648  1.00  0.00     0.000 C 
BRANCH   8   9
ATOM      9  C   UNL     1      21.723 -10.721  44.883  1.00  0.00     0.000 C 
BRANCH   9  10
ATOM     10  C   UNL     1      22.625 -11.897  44.492  1.00  0.00     0.006 C 
BRANCH  10  11
ATOM     11  C   UNL     1      21.794 -13.123  44.101  1.00  0.00     0.053 C 
BRANCH  11  12
ATOM     12  C   UNL     1      20.799 -13.445  45.170  1.00  0.00     0.041 C 
ATOM     13  O   UNL     1      21.190 -13.759  46.325  1.00  0.00    -0.550 OA
ATOM     14  O   UNL     1      19.441 -13.448  44.878  1.00  0.00    -0.550 OA
ENDBRANCH  11  12
ENDBRANCH  10  11
ENDBRANCH   9  10
ENDBRANCH   8   9
ENDBRANCH   1   8
TORSDOF 9
ENDMDL
