MODEL 1
REMARK VINA RESULT:    -3.857      0.000      0.000
REMARK INTER + INTRA:          -3.857
REMARK INTER:                  -3.857
REMARK INTRA:                   0.000
REMARK UNBOUND:                 0.000
REMARK SMILES O=c1ccc2ccccc2o1
REMARK SMILES IDX 7 1 8 2 9 3 10 4 5 5 6 6 4 7 3 8 2 9 1 10 11 11
REMARK H PARENT
REMARK Flexibility Score: inf
ROOT
ATOM      1  C   UNL     1     126.880 126.551 118.186  1.00  0.00     0.001 A 
ATOM      2  C   UNL     1     127.061 126.466 119.571  1.00  0.00     0.004 A 
ATOM      3  C   UNL     1     126.019 126.808 120.439  1.00  0.00     0.048 A 
ATOM      4  C   UNL     1     124.790 127.235 119.924  1.00  0.00     0.138 A 
ATOM      5  C   UNL     1     124.607 127.321 118.526  1.00  0.00     0.018 A 
ATOM      6  C   UNL     1     125.656 126.977 117.661  1.00  0.00     0.012 A 
ATOM      7  C   UNL     1     123.368 127.752 118.041  1.00  0.00     0.019 A 
ATOM      8  C   UNL     1     122.357 128.081 118.943  1.00  0.00     0.094 A 
ATOM      9  C   UNL     1     122.611 127.973 120.316  1.00  0.00     0.336 A 
ATOM     10  O   UNL     1     121.711 128.266 121.146  1.00  0.00    -0.246 OA
ATOM     11  O   UNL     1     123.799 127.560 120.750  1.00  0.00    -0.423 OA
ENDROOT
TORSDOF 0
ENDMDL
MODEL 2
REMARK VINA RESULT:    -3.764     19.320     21.141
REMARK INTER + INTRA:          -3.764
REMARK INTER:                  -3.764
REMARK INTRA:                   0.000
REMARK UNBOUND:                 0.000
REMARK SMILES O=c1ccc2ccccc2o1
REMARK SMILES IDX 7 1 8 2 9 3 10 4 5 5 6 6 4 7 3 8 2 9 1 10 11 11
REMARK H PARENT
REMARK Flexibility Score: inf
ROOT
ATOM      1  C   UNL     1     111.710 138.740 104.623  1.00  0.00     0.001 A 
ATOM      2  C   UNL     1     110.387 138.727 105.079  1.00  0.00     0.004 A 
ATOM      3  C   UNL     1     109.875 137.596 105.722  1.00  0.00     0.048 A 
ATOM      4  C   UNL     1     110.686 136.471 105.912  1.00  0.00     0.138 A 
ATOM      5  C   UNL     1     112.022 136.483 105.451  1.00  0.00     0.018 A 
ATOM      6  C   UNL     1     112.529 137.621 104.807  1.00  0.00     0.012 A 
ATOM      7  C   UNL     1     112.807 135.344 105.655  1.00  0.00     0.019 A 
ATOM      8  C   UNL     1     112.255 134.239 106.301  1.00  0.00     0.094 A 
ATOM      9  C   UNL     1     110.924 134.298 106.729  1.00  0.00     0.336 A 
ATOM     10  O   UNL     1     110.408 133.310 107.314  1.00  0.00    -0.246 OA
ATOM     11  O   UNL     1     110.198 135.394 106.523  1.00  0.00    -0.423 OA
ENDROOT
TORSDOF 0
ENDMDL
MODEL 3
REMARK VINA RESULT:    -3.694      3.511      4.224
REMARK INTER + INTRA:          -3.694
REMARK INTER:                  -3.694
REMARK INTRA:                   0.000
REMARK UNBOUND:                 0.000
REMARK SMILES O=c1ccc2ccccc2o1
REMARK SMILES IDX 7 1 8 2 9 3 10 4 5 5 6 6 4 7 3 8 2 9 1 10 11 11
REMARK H PARENT
REMARK Flexibility Score: inf
ROOT
ATOM      1  C   UNL     1     126.718 132.222 121.126  1.00  0.00     0.001 A 
ATOM      2  C   UNL     1     125.591 132.730 121.780  1.00  0.00     0.004 A 
ATOM      3  C   UNL     1     124.447 131.939 121.928  1.00  0.00     0.048 A 
ATOM      4  C   UNL     1     124.427 130.634 121.423  1.00  0.00     0.138 A 
ATOM      5  C   UNL     1     125.566 130.121 120.762  1.00  0.00     0.018 A 
ATOM      6  C   UNL     1     126.710 130.919 120.616  1.00  0.00     0.012 A 
ATOM      7  C   UNL     1     125.517 128.814 120.267  1.00  0.00     0.019 A 
ATOM      8  C   UNL     1     124.356 128.061 120.438  1.00  0.00     0.094 A 
ATOM      9  C   UNL     1     123.266 128.635 121.102  1.00  0.00     0.336 A 
ATOM     10  O   UNL     1     122.209 127.971 121.266  1.00  0.00    -0.246 OA
ATOM     11  O   UNL     1     123.339 129.881 121.564  1.00  0.00    -0.423 OA
ENDROOT
TORSDOF 0
ENDMDL
MODEL 4
REMARK VINA RESULT:    -3.649      7.511      7.784
REMARK INTER + INTRA:          -3.649
REMARK INTER:                  -3.649
REMARK INTRA:                   0.000
REMARK UNBOUND:                 0.000
REMARK SMILES O=c1ccc2ccccc2o1
REMARK SMILES IDX 7 1 8 2 9 3 10 4 5 5 6 6 4 7 3 8 2 9 1 10 11 11
REMARK H PARENT
REMARK Flexibility Score: inf
ROOT
ATOM      1  C   UNL     1     129.259 135.524 122.271  1.00  0.00     0.001 A 
ATOM      2  C   UNL     1     129.328 134.383 123.077  1.00  0.00     0.004 A 
ATOM      3  C   UNL     1     128.263 133.477 123.109  1.00  0.00     0.048 A 
ATOM      4  C   UNL     1     127.122 133.710 122.333  1.00  0.00     0.138 A 
ATOM      5  C   UNL     1     127.051 134.863 121.519  1.00  0.00     0.018 A 
ATOM      6  C   UNL     1     128.122 135.767 121.491  1.00  0.00     0.012 A 
ATOM      7  C   UNL     1     125.898 135.069 120.755  1.00  0.00     0.019 A 
ATOM      8  C   UNL     1     124.861 134.140 120.817  1.00  0.00     0.094 A 
ATOM      9  C   UNL     1     125.000 133.021 121.647  1.00  0.00     0.336 A 
ATOM     10  O   UNL     1     124.075 132.171 121.717  1.00  0.00    -0.246 OA
ATOM     11  O   UNL     1     126.108 132.849 122.364  1.00  0.00    -0.423 OA
ENDROOT
TORSDOF 0
ENDMDL
MODEL 5
REMARK VINA RESULT:    -3.648      2.995      3.567
REMARK INTER + INTRA:          -3.648
REMARK INTER:                  -3.648
REMARK INTRA:                   0.000
REMARK UNBOUND:                 0.000
REMARK SMILES O=c1ccc2ccccc2o1
REMARK SMILES IDX 7 1 8 2 9 3 10 4 5 5 6 6 4 7 3 8 2 9 1 10 11 11
REMARK H PARENT
REMARK Flexibility Score: inf
ROOT
ATOM      1  C   UNL     1     125.322 126.421 120.041  1.00  0.00     0.001 A 
ATOM      2  C   UNL     1     126.705 126.623 120.089  1.00  0.00     0.004 A 
ATOM      3  C   UNL     1     127.222 127.900 120.329  1.00  0.00     0.048 A 
ATOM      4  C   UNL     1     126.356 128.981 120.523  1.00  0.00     0.138 A 
ATOM      5  C   UNL     1     124.958 128.778 120.474  1.00  0.00     0.018 A 
ATOM      6  C   UNL     1     124.446 127.495 120.233  1.00  0.00     0.012 A 
ATOM      7  C   UNL     1     124.117 129.877 120.671  1.00  0.00     0.019 A 
ATOM      8  C   UNL     1     124.676 131.133 120.908  1.00  0.00     0.094 A 
ATOM      9  C   UNL     1     126.070 131.259 120.941  1.00  0.00     0.336 A 
ATOM     10  O   UNL     1     126.593 132.384 121.154  1.00  0.00    -0.246 OA
ATOM     11  O   UNL     1     126.847 130.197 120.751  1.00  0.00    -0.423 OA
ENDROOT
TORSDOF 0
ENDMDL
MODEL 6
REMARK VINA RESULT:    -3.627     18.971     20.812
REMARK INTER + INTRA:          -3.627
REMARK INTER:                  -3.627
REMARK INTRA:                   0.000
REMARK UNBOUND:                 0.000
REMARK SMILES O=c1ccc2ccccc2o1
REMARK SMILES IDX 7 1 8 2 9 3 10 4 5 5 6 6 4 7 3 8 2 9 1 10 11 11
REMARK H PARENT
REMARK Flexibility Score: inf
ROOT
ATOM      1  C   UNL     1     110.167 138.356 105.100  1.00  0.00     0.001 A 
ATOM      2  C   UNL     1     111.355 138.728 104.462  1.00  0.00     0.004 A 
ATOM      3  C   UNL     1     112.515 137.966 104.635  1.00  0.00     0.048 A 
ATOM      4  C   UNL     1     112.490 136.827 105.447  1.00  0.00     0.138 A 
ATOM      5  C   UNL     1     111.290 136.451 106.092  1.00  0.00     0.018 A 
ATOM      6  C   UNL     1     110.131 137.219 105.915  1.00  0.00     0.012 A 
ATOM      7  C   UNL     1     111.297 135.308 106.898  1.00  0.00     0.019 A 
ATOM      8  C   UNL     1     112.476 134.578 107.041  1.00  0.00     0.094 A 
ATOM      9  C   UNL     1     113.627 135.011 106.373  1.00  0.00     0.336 A 
ATOM     10  O   UNL     1     114.701 134.365 106.491  1.00  0.00    -0.246 OA
ATOM     11  O   UNL     1     113.594 136.102 105.612  1.00  0.00    -0.423 OA
ENDROOT
TORSDOF 0
ENDMDL
MODEL 7
REMARK VINA RESULT:    -3.603      1.541      2.292
REMARK INTER + INTRA:          -3.603
REMARK INTER:                  -3.603
REMARK INTRA:                   0.000
REMARK UNBOUND:                 0.000
REMARK SMILES O=c1ccc2ccccc2o1
REMARK SMILES IDX 7 1 8 2 9 3 10 4 5 5 6 6 4 7 3 8 2 9 1 10 11 11
REMARK H PARENT
REMARK Flexibility Score: inf
ROOT
ATOM      1  C   UNL     1     126.784 126.383 119.950  1.00  0.00     0.001 A 
ATOM      2  C   UNL     1     126.899 126.445 118.557  1.00  0.00     0.004 A 
ATOM      3  C   UNL     1     125.828 126.902 117.782  1.00  0.00     0.048 A 
ATOM      4  C   UNL     1     124.636 127.299 118.399  1.00  0.00     0.138 A 
ATOM      5  C   UNL     1     124.519 127.236 119.806  1.00  0.00     0.018 A 
ATOM      6  C   UNL     1     125.596 126.778 120.577  1.00  0.00     0.012 A 
ATOM      7  C   UNL     1     123.316 127.640 120.393  1.00  0.00     0.019 A 
ATOM      8  C   UNL     1     122.275 128.090 119.582  1.00  0.00     0.094 A 
ATOM      9  C   UNL     1     122.462 128.123 118.195  1.00  0.00     0.336 A 
ATOM     10  O   UNL     1     121.534 128.526 117.446  1.00  0.00    -0.246 OA
ATOM     11  O   UNL     1     123.617 127.734 117.661  1.00  0.00    -0.423 OA
ENDROOT
TORSDOF 0
ENDMDL
MODEL 8
REMARK VINA RESULT:    -3.501     16.618     18.165
REMARK INTER + INTRA:          -3.501
REMARK INTER:                  -3.501
REMARK INTRA:                   0.000
REMARK UNBOUND:                 0.000
REMARK SMILES O=c1ccc2ccccc2o1
REMARK SMILES IDX 7 1 8 2 9 3 10 4 5 5 6 6 4 7 3 8 2 9 1 10 11 11
REMARK H PARENT
REMARK Flexibility Score: inf
ROOT
ATOM      1  C   UNL     1     110.656 125.594 105.259  1.00  0.00     0.001 A 
ATOM      2  C   UNL     1     111.892 126.097 105.678  1.00  0.00     0.004 A 
ATOM      3  C   UNL     1     112.542 125.536 106.782  1.00  0.00     0.048 A 
ATOM      4  C   UNL     1     111.958 124.468 107.471  1.00  0.00     0.138 A 
ATOM      5  C   UNL     1     110.709 123.959 107.048  1.00  0.00     0.018 A 
ATOM      6  C   UNL     1     110.062 124.526 105.940  1.00  0.00     0.012 A 
ATOM      7  C   UNL     1     110.150 122.891 107.756  1.00  0.00     0.019 A 
ATOM      8  C   UNL     1     110.834 122.362 108.849  1.00  0.00     0.094 A 
ATOM      9  C   UNL     1     112.067 122.917 109.212  1.00  0.00     0.336 A 
ATOM     10  O   UNL     1     112.699 122.453 110.197  1.00  0.00    -0.246 OA
ATOM     11  O   UNL     1     112.577 123.933 108.521  1.00  0.00    -0.423 OA
ENDROOT
TORSDOF 0
ENDMDL
MODEL 9
REMARK VINA RESULT:    -3.495      1.426      3.791
REMARK INTER + INTRA:          -3.495
REMARK INTER:                  -3.495
REMARK INTRA:                   0.000
REMARK UNBOUND:                 0.000
REMARK SMILES O=c1ccc2ccccc2o1
REMARK SMILES IDX 7 1 8 2 9 3 10 4 5 5 6 6 4 7 3 8 2 9 1 10 11 11
REMARK H PARENT
REMARK Flexibility Score: inf
ROOT
ATOM      1  C   UNL     1     121.370 127.828 119.107  1.00  0.00     0.001 A 
ATOM      2  C   UNL     1     121.541 128.144 120.459  1.00  0.00     0.004 A 
ATOM      3  C   UNL     1     122.818 128.131 121.029  1.00  0.00     0.048 A 
ATOM      4  C   UNL     1     123.930 127.801 120.248  1.00  0.00     0.138 A 
ATOM      5  C   UNL     1     123.758 127.482 118.882  1.00  0.00     0.018 A 
ATOM      6  C   UNL     1     122.475 127.497 118.316  1.00  0.00     0.012 A 
ATOM      7  C   UNL     1     124.889 127.156 118.126  1.00  0.00     0.019 A 
ATOM      8  C   UNL     1     126.143 127.156 118.735  1.00  0.00     0.094 A 
ATOM      9  C   UNL     1     126.237 127.482 120.093  1.00  0.00     0.336 A 
ATOM     10  O   UNL     1     127.361 127.487 120.661  1.00  0.00    -0.246 OA
ATOM     11  O   UNL     1     125.146 127.788 120.790  1.00  0.00    -0.423 OA
ENDROOT
TORSDOF 0
ENDMDL
