MODEL 1
REMARK VINA RESULT:    -5.356      0.000      0.000
REMARK INTER + INTRA:          -5.953
REMARK INTER:                  -5.982
REMARK INTRA:                   0.029
REMARK UNBOUND:                 0.029
REMARK SMILES O=C([O-])c1ccccc1C(=O)[O-]
REMARK SMILES IDX 4 1 9 2 5 3 8 4 6 5 7 6 2 7 1 8 3 9 10 10 11 11 12 12
REMARK H PARENT
REMARK Flexibility Score: inf
ROOT
ATOM      1  C   UNL     1     110.053 -49.069  32.865  1.00  0.00     0.006 A 
ATOM      2  C   UNL     1     110.874 -50.068  32.269  1.00  0.00     0.006 A 
ATOM      3  C   UNL     1     109.860 -47.850  32.189  1.00  0.00     0.010 A 
ATOM      4  C   UNL     1     111.416 -49.835  30.992  1.00  0.00     0.010 A 
ATOM      5  C   UNL     1     110.426 -47.632  30.934  1.00  0.00     0.001 A 
ATOM      6  C   UNL     1     111.192 -48.627  30.331  1.00  0.00     0.001 A 
ENDROOT
BRANCH   1   7
ATOM      7  C   UNL     1     109.329 -49.275  34.141  1.00  0.00     0.072 C 
ATOM      8  O   UNL     1     108.670 -50.327  34.346  1.00  0.00    -0.545 OA
ATOM      9  O   UNL     1     109.316 -48.272  35.104  1.00  0.00    -0.545 OA
ENDBRANCH   1   7
BRANCH   2  10
ATOM     10  C   UNL     1     111.246 -51.325  32.959  1.00  0.00     0.072 C 
ATOM     11  O   UNL     1     112.164 -51.339  33.821  1.00  0.00    -0.545 OA
ATOM     12  O   UNL     1     110.630 -52.521  32.609  1.00  0.00    -0.545 OA
ENDBRANCH   2  10
TORSDOF 2
ENDMDL
MODEL 2
REMARK VINA RESULT:    -5.356      0.067      3.178
REMARK INTER + INTRA:          -5.952
REMARK INTER:                  -5.952
REMARK INTRA:                  -0.001
REMARK UNBOUND:                 0.029
REMARK SMILES O=C([O-])c1ccccc1C(=O)[O-]
REMARK SMILES IDX 4 1 9 2 5 3 8 4 6 5 7 6 2 7 1 8 3 9 10 10 11 11 12 12
REMARK H PARENT
REMARK Flexibility Score: inf
ROOT
ATOM      1  C   UNL     1     110.878 -50.027  32.226  1.00  0.00     0.006 A 
ATOM      2  C   UNL     1     110.048 -49.032  32.816  1.00  0.00     0.006 A 
ATOM      3  C   UNL     1     111.436 -49.787  30.957  1.00  0.00     0.010 A 
ATOM      4  C   UNL     1     109.861 -47.811  32.143  1.00  0.00     0.010 A 
ATOM      5  C   UNL     1     111.219 -48.577  30.298  1.00  0.00     0.001 A 
ATOM      6  C   UNL     1     110.443 -47.587  30.895  1.00  0.00     0.001 A 
ENDROOT
BRANCH   1   7
ATOM      7  C   UNL     1     111.244 -51.286  32.916  1.00  0.00     0.072 C 
ATOM      8  O   UNL     1     112.152 -51.303  33.788  1.00  0.00    -0.545 OA
ATOM      9  O   UNL     1     110.631 -52.481  32.557  1.00  0.00    -0.545 OA
ENDBRANCH   1   7
BRANCH   2  10
ATOM     10  C   UNL     1     109.308 -49.245  34.081  1.00  0.00     0.072 C 
ATOM     11  O   UNL     1     108.607 -50.277  34.253  1.00  0.00    -0.545 OA
ATOM     12  O   UNL     1     109.324 -48.268  35.070  1.00  0.00    -0.545 OA
ENDBRANCH   2  10
TORSDOF 2
ENDMDL
MODEL 3
REMARK VINA RESULT:    -5.304      6.226      7.533
REMARK INTER + INTRA:          -5.894
REMARK INTER:                  -5.682
REMARK INTRA:                  -0.212
REMARK UNBOUND:                 0.029
REMARK SMILES O=C([O-])c1ccccc1C(=O)[O-]
REMARK SMILES IDX 4 1 9 2 5 3 8 4 6 5 7 6 2 7 1 8 3 9 10 10 11 11 12 12
REMARK H PARENT
REMARK Flexibility Score: inf
ROOT
ATOM      1  C   UNL     1     115.869 -49.345  29.139  1.00  0.00     0.006 A 
ATOM      2  C   UNL     1     117.290 -49.261  29.138  1.00  0.00     0.006 A 
ATOM      3  C   UNL     1     115.234 -50.194  28.214  1.00  0.00     0.010 A 
ATOM      4  C   UNL     1     118.023 -50.078  28.258  1.00  0.00     0.010 A 
ATOM      5  C   UNL     1     115.980 -50.978  27.335  1.00  0.00     0.001 A 
ATOM      6  C   UNL     1     117.371 -50.929  27.365  1.00  0.00     0.001 A 
ENDROOT
BRANCH   1   7
ATOM      7  C   UNL     1     115.019 -48.628  30.119  1.00  0.00     0.072 C 
ATOM      8  O   UNL     1     114.472 -47.535  29.819  1.00  0.00    -0.545 OA
ATOM      9  O   UNL     1     114.871 -49.127  31.408  1.00  0.00    -0.545 OA
ENDBRANCH   1   7
BRANCH   2  10
ATOM     10  C   UNL     1     118.043 -48.300  29.977  1.00  0.00     0.072 C 
ATOM     11  O   UNL     1     118.340 -48.579  31.169  1.00  0.00    -0.545 OA
ATOM     12  O   UNL     1     118.373 -47.046  29.475  1.00  0.00    -0.545 OA
ENDBRANCH   2  10
TORSDOF 2
ENDMDL
MODEL 4
REMARK VINA RESULT:    -5.277      6.158      7.762
REMARK INTER + INTRA:          -5.865
REMARK INTER:                  -5.657
REMARK INTRA:                  -0.208
REMARK UNBOUND:                 0.029
REMARK SMILES O=C([O-])c1ccccc1C(=O)[O-]
REMARK SMILES IDX 4 1 9 2 5 3 8 4 6 5 7 6 2 7 1 8 3 9 10 10 11 11 12 12
REMARK H PARENT
REMARK Flexibility Score: inf
ROOT
ATOM      1  C   UNL     1     117.183 -49.267  29.078  1.00  0.00     0.006 A 
ATOM      2  C   UNL     1     115.762 -49.309  29.145  1.00  0.00     0.006 A 
ATOM      3  C   UNL     1     117.849 -50.100  28.160  1.00  0.00     0.010 A 
ATOM      4  C   UNL     1     115.060 -50.133  28.247  1.00  0.00     0.010 A 
ATOM      5  C   UNL     1     117.133 -50.925  27.295  1.00  0.00     0.001 A 
ATOM      6  C   UNL     1     115.741 -50.933  27.330  1.00  0.00     0.001 A 
ENDROOT
BRANCH   1   7
ATOM      7  C   UNL     1     118.002 -48.333  29.886  1.00  0.00     0.072 C 
ATOM      8  O   UNL     1     118.333 -48.621  31.066  1.00  0.00    -0.545 OA
ATOM      9  O   UNL     1     118.359 -47.093  29.368  1.00  0.00    -0.545 OA
ENDBRANCH   1   7
BRANCH   2  10
ATOM     10  C   UNL     1     114.979 -48.575  30.166  1.00  0.00     0.072 C 
ATOM     11  O   UNL     1     114.449 -47.465  29.897  1.00  0.00    -0.545 OA
ATOM     12  O   UNL     1     114.880 -49.074  31.460  1.00  0.00    -0.545 OA
ENDBRANCH   2  10
TORSDOF 2
ENDMDL
MODEL 5
REMARK VINA RESULT:    -5.088      2.171      3.856
REMARK INTER + INTRA:          -5.653
REMARK INTER:                  -5.443
REMARK INTRA:                  -0.210
REMARK UNBOUND:                 0.029
REMARK SMILES O=C([O-])c1ccccc1C(=O)[O-]
REMARK SMILES IDX 4 1 9 2 5 3 8 4 6 5 7 6 2 7 1 8 3 9 10 10 11 11 12 12
REMARK H PARENT
REMARK Flexibility Score: inf
ROOT
ATOM      1  C   UNL     1     110.474 -49.572  32.259  1.00  0.00     0.006 A 
ATOM      2  C   UNL     1     109.486 -49.760  33.267  1.00  0.00     0.006 A 
ATOM      3  C   UNL     1     111.052 -50.701  31.649  1.00  0.00     0.010 A 
ATOM      4  C   UNL     1     109.069 -51.066  33.579  1.00  0.00     0.010 A 
ATOM      5  C   UNL     1     110.638 -51.988  31.991  1.00  0.00     0.001 A 
ATOM      6  C   UNL     1     109.640 -52.170  32.945  1.00  0.00     0.001 A 
ENDROOT
BRANCH   1   7
ATOM      7  C   UNL     1     110.879 -48.235  31.765  1.00  0.00     0.072 C 
ATOM      8  O   UNL     1     110.184 -47.625  30.911  1.00  0.00    -0.545 OA
ATOM      9  O   UNL     1     112.074 -47.667  32.194  1.00  0.00    -0.545 OA
ENDBRANCH   1   7
BRANCH   2  10
ATOM     10  C   UNL     1     108.919 -48.645  34.060  1.00  0.00     0.072 C 
ATOM     11  O   UNL     1     109.380 -48.363  35.198  1.00  0.00    -0.545 OA
ATOM     12  O   UNL     1     107.822 -47.938  33.583  1.00  0.00    -0.545 OA
ENDBRANCH   2  10
TORSDOF 2
ENDMDL
MODEL 6
REMARK VINA RESULT:    -5.048      2.256      3.205
REMARK INTER + INTRA:          -5.609
REMARK INTER:                  -5.419
REMARK INTRA:                  -0.190
REMARK UNBOUND:                 0.029
REMARK SMILES O=C([O-])c1ccccc1C(=O)[O-]
REMARK SMILES IDX 4 1 9 2 5 3 8 4 6 5 7 6 2 7 1 8 3 9 10 10 11 11 12 12
REMARK H PARENT
REMARK Flexibility Score: inf
ROOT
ATOM      1  C   UNL     1     110.128 -49.305  32.992  1.00  0.00     0.006 A 
ATOM      2  C   UNL     1     110.843 -49.916  31.923  1.00  0.00     0.006 A 
ATOM      3  C   UNL     1     109.271 -50.094  33.780  1.00  0.00     0.010 A 
ATOM      4  C   UNL     1     110.723 -51.304  31.726  1.00  0.00     0.010 A 
ATOM      5  C   UNL     1     109.149 -51.464  33.552  1.00  0.00     0.001 A 
ATOM      6  C   UNL     1     109.883 -52.070  32.535  1.00  0.00     0.001 A 
ENDROOT
BRANCH   1   7
ATOM      7  C   UNL     1     110.295 -47.880  33.363  1.00  0.00     0.072 C 
ATOM      8  O   UNL     1     110.930 -47.554  34.400  1.00  0.00    -0.545 OA
ATOM      9  O   UNL     1     109.690 -46.887  32.601  1.00  0.00    -0.545 OA
ENDBRANCH   1   7
BRANCH   2  10
ATOM     10  C   UNL     1     111.662 -49.149  30.956  1.00  0.00     0.072 C 
ATOM     11  O   UNL     1     112.899 -48.998  31.137  1.00  0.00    -0.545 OA
ATOM     12  O   UNL     1     111.058 -48.528  29.870  1.00  0.00    -0.545 OA
ENDBRANCH   2  10
TORSDOF 2
ENDMDL
MODEL 7
REMARK VINA RESULT:    -5.046      1.917      3.440
REMARK INTER + INTRA:          -5.607
REMARK INTER:                  -5.407
REMARK INTRA:                  -0.200
REMARK UNBOUND:                 0.029
REMARK SMILES O=C([O-])c1ccccc1C(=O)[O-]
REMARK SMILES IDX 4 1 9 2 5 3 8 4 6 5 7 6 2 7 1 8 3 9 10 10 11 11 12 12
REMARK H PARENT
REMARK Flexibility Score: inf
ROOT
ATOM      1  C   UNL     1     110.192 -48.799  32.518  1.00  0.00     0.006 A 
ATOM      2  C   UNL     1     110.246 -47.774  31.532  1.00  0.00     0.006 A 
ATOM      3  C   UNL     1     110.903 -49.994  32.302  1.00  0.00     0.010 A 
ATOM      4  C   UNL     1     111.060 -47.957  30.400  1.00  0.00     0.010 A 
ATOM      5  C   UNL     1     111.686 -50.162  31.161  1.00  0.00     0.001 A 
ATOM      6  C   UNL     1     111.774 -49.142  30.217  1.00  0.00     0.001 A 
ENDROOT
BRANCH   1   7
ATOM      7  C   UNL     1     109.474 -48.644  33.805  1.00  0.00     0.072 C 
ATOM      8  O   UNL     1     108.352 -49.184  33.987  1.00  0.00    -0.545 OA
ATOM      9  O   UNL     1     110.006 -47.839  34.807  1.00  0.00    -0.545 OA
ENDBRANCH   1   7
BRANCH   2  10
ATOM     10  C   UNL     1     109.429 -46.541  31.603  1.00  0.00     0.072 C 
ATOM     11  O   UNL     1     109.822 -45.543  32.264  1.00  0.00    -0.545 OA
ATOM     12  O   UNL     1     108.180 -46.496  30.994  1.00  0.00    -0.545 OA
ENDBRANCH   2  10
TORSDOF 2
ENDMDL
MODEL 8
REMARK VINA RESULT:    -5.031      6.597      7.852
REMARK INTER + INTRA:          -5.590
REMARK INTER:                  -5.386
REMARK INTRA:                  -0.204
REMARK UNBOUND:                 0.029
REMARK SMILES O=C([O-])c1ccccc1C(=O)[O-]
REMARK SMILES IDX 4 1 9 2 5 3 8 4 6 5 7 6 2 7 1 8 3 9 10 10 11 11 12 12
REMARK H PARENT
REMARK Flexibility Score: inf
ROOT
ATOM      1  C   UNL     1     116.615 -48.184  29.803  1.00  0.00     0.006 A 
ATOM      2  C   UNL     1     116.781 -49.305  28.943  1.00  0.00     0.006 A 
ATOM      3  C   UNL     1     115.318 -47.824  30.215  1.00  0.00     0.010 A 
ATOM      4  C   UNL     1     115.652 -50.062  28.581  1.00  0.00     0.010 A 
ATOM      5  C   UNL     1     114.211 -48.576  29.825  1.00  0.00     0.001 A 
ATOM      6  C   UNL     1     114.379 -49.700  29.019  1.00  0.00     0.001 A 
ENDROOT
BRANCH   1   7
ATOM      7  C   UNL     1     117.754 -47.409  30.348  1.00  0.00     0.072 C 
ATOM      8  O   UNL     1     118.359 -47.792  31.384  1.00  0.00    -0.545 OA
ATOM      9  O   UNL     1     118.126 -46.207  29.755  1.00  0.00    -0.545 OA
ENDBRANCH   1   7
BRANCH   2  10
ATOM     10  C   UNL     1     118.085 -49.681  28.348  1.00  0.00     0.072 C 
ATOM     11  O   UNL     1     118.730 -50.672  28.781  1.00  0.00    -0.545 OA
ATOM     12  O   UNL     1     118.645 -48.898  27.345  1.00  0.00    -0.545 OA
ENDBRANCH   2  10
TORSDOF 2
ENDMDL
MODEL 9
REMARK VINA RESULT:    -4.989      2.204      3.664
REMARK INTER + INTRA:          -5.542
REMARK INTER:                  -5.443
REMARK INTRA:                  -0.099
REMARK UNBOUND:                 0.029
REMARK SMILES O=C([O-])c1ccccc1C(=O)[O-]
REMARK SMILES IDX 4 1 9 2 5 3 8 4 6 5 7 6 2 7 1 8 3 9 10 10 11 11 12 12
REMARK H PARENT
REMARK Flexibility Score: inf
ROOT
ATOM      1  C   UNL     1     110.152 -47.475  31.732  1.00  0.00     0.006 A 
ATOM      2  C   UNL     1     109.752 -48.488  32.649  1.00  0.00     0.006 A 
ATOM      3  C   UNL     1     111.113 -47.781  30.751  1.00  0.00     0.010 A 
ATOM      4  C   UNL     1     110.280 -49.784  32.507  1.00  0.00     0.010 A 
ATOM      5  C   UNL     1     111.639 -49.067  30.643  1.00  0.00     0.001 A 
ATOM      6  C   UNL     1     111.214 -50.070  31.512  1.00  0.00     0.001 A 
ENDROOT
BRANCH   1   7
ATOM      7  C   UNL     1     109.552 -46.119  31.715  1.00  0.00     0.072 C 
ATOM      8  O   UNL     1     108.588 -45.851  30.953  1.00  0.00    -0.545 OA
ATOM      9  O   UNL     1     110.097 -45.107  32.498  1.00  0.00    -0.545 OA
ENDBRANCH   1   7
BRANCH   2  10
ATOM     10  C   UNL     1     108.853 -48.229  33.797  1.00  0.00     0.072 C 
ATOM     11  O   UNL     1     107.643 -47.933  33.614  1.00  0.00    -0.545 OA
ATOM     12  O   UNL     1     109.356 -48.243  35.093  1.00  0.00    -0.545 OA
ENDBRANCH   2  10
TORSDOF 2
ENDMDL
