MODEL 1
REMARK VINA RESULT:    -7.714      0.000      0.000
REMARK INTER + INTRA:         -11.383
REMARK INTER:                 -10.194
REMARK INTRA:                  -1.189
REMARK UNBOUND:                -1.189
REMARK SMILES CC[C@H](C=C[C@H](C)[C@@H]1CC[C@H]2[C@@H]3CC=C4C[C@@H](O)CC[C@]4(C)[C@H]3CC[C@]21C)C(C)C
REMARK SMILES IDX 6 1 7 2 5 3 4 4 3 5 2 6 1 7 28 8 29 9 30 10 8 11 9 12 26 13
REMARK SMILES IDX 10 14 11 15 25 16 27 17 12 18 24 19 23 20 13 21 21 22 14 23
REMARK SMILES IDX 15 24 20 25 22 26 16 27 19 28 17 29 18 30
REMARK H PARENT 18 31
REMARK Flexibility Score: inf
ROOT
ATOM      1  C   UNL     1     173.191 170.860 175.561  1.00  0.00     0.012 C 
ATOM      2  C   UNL     1     171.744 170.393 175.326  1.00  0.00     0.012 C 
ENDROOT
BRANCH   1   3
ATOM      3  C   UNL     1     173.460 170.917 177.052  1.00  0.00    -0.028 C 
ATOM      4  C   UNL     1     173.511 172.087 177.710  1.00  0.00    -0.027 C 
BRANCH   4   5
ATOM      5  C   UNL     1     173.853 172.154 179.185  1.00  0.00     0.014 C 
BRANCH   5   6
ATOM      6  C   UNL     1     175.182 172.934 179.367  1.00  0.00     0.004 C 
ATOM      7  C   UNL     1     175.838 173.385 178.058  1.00  0.00     0.004 C 
ENDBRANCH   5   6
BRANCH   5   8
ATOM      8  C   UNL     1     172.650 172.709 180.011  1.00  0.00    -0.011 C 
ATOM      9  C   UNL     1     171.600 173.388 179.112  1.00  0.00     0.008 C 
ATOM     10  C   UNL     1     173.128 173.721 181.072  1.00  0.00     0.008 C 
ENDBRANCH   5   8
ENDBRANCH   4   5
ENDBRANCH   1   3
BRANCH   1  11
ATOM     11  C   UNL     1     174.203 169.977 174.756  1.00  0.00     0.002 C 
ATOM     12  C   UNL     1     174.780 168.785 175.527  1.00  0.00     0.005 C 
ATOM     13  C   UNL     1     175.414 170.695 174.031  1.00  0.00    -0.026 C 
ATOM     14  C   UNL     1     176.030 168.415 174.762  1.00  0.00     0.005 C 
ATOM     15  C   UNL     1     176.636 169.753 174.340  1.00  0.00    -0.001 C 
ATOM     16  C   UNL     1     175.087 170.873 172.495  1.00  0.00     0.007 C 
ATOM     17  C   UNL     1     175.746 172.103 174.601  1.00  0.00     0.012 C 
ATOM     18  C   UNL     1     177.749 169.580 173.245  1.00  0.00     0.000 C 
ATOM     19  C   UNL     1     175.988 170.076 171.553  1.00  0.00     0.005 C 
ATOM     20  C   UNL     1     177.457 170.332 171.928  1.00  0.00     0.003 C 
ATOM     21  C   UNL     1     179.132 169.988 173.782  1.00  0.00     0.031 C 
ATOM     22  C   UNL     1     178.523 169.971 170.826  1.00  0.00    -0.008 C 
ATOM     23  C   UNL     1     180.190 170.132 172.717  1.00  0.00    -0.027 C 
ATOM     24  C   UNL     1     179.922 170.259 171.396  1.00  0.00    -0.065 C 
ATOM     25  C   UNL     1     178.316 170.866 169.567  1.00  0.00     0.014 C 
ATOM     26  C   UNL     1     178.426 168.473 170.417  1.00  0.00     0.016 C 
ATOM     27  C   UNL     1     180.977 170.943 170.544  1.00  0.00     0.063 C 
ATOM     28  C   UNL     1     179.410 170.704 168.492  1.00  0.00     0.033 C 
ATOM     29  C   UNL     1     180.857 170.637 169.039  1.00  0.00     0.118 C 
BRANCH  29  30
ATOM     30  O   UNL     1     181.460 169.407 168.709  1.00  0.00    -0.393 OA
ATOM     31  H   UNL     1     182.410 169.435 168.991  1.00  0.00     0.210 HD
ENDBRANCH  29  30
ENDBRANCH   1  11
TORSDOF 6
ENDMDL
MODEL 2
REMARK VINA RESULT:    -7.653      7.079     10.079
REMARK INTER + INTRA:         -11.304
REMARK INTER:                 -10.165
REMARK INTRA:                  -1.138
REMARK UNBOUND:                -1.189
REMARK SMILES CC[C@H](C=C[C@H](C)[C@@H]1CC[C@H]2[C@@H]3CC=C4C[C@@H](O)CC[C@]4(C)[C@H]3CC[C@]21C)C(C)C
REMARK SMILES IDX 6 1 7 2 5 3 4 4 3 5 2 6 1 7 28 8 29 9 30 10 8 11 9 12 26 13
REMARK SMILES IDX 10 14 11 15 25 16 27 17 12 18 24 19 23 20 13 21 21 22 14 23
REMARK SMILES IDX 15 24 20 25 22 26 16 27 19 28 17 29 18 30
REMARK H PARENT 18 31
REMARK Flexibility Score: inf
ROOT
ATOM      1  C   UNL     1     173.234 175.518 175.624  1.00  0.00     0.012 C 
ATOM      2  C   UNL     1     174.684 175.988 175.417  1.00  0.00     0.012 C 
ENDROOT
BRANCH   1   3
ATOM      3  C   UNL     1     172.941 175.449 177.110  1.00  0.00    -0.028 C 
ATOM      4  C   UNL     1     172.939 174.279 177.770  1.00  0.00    -0.027 C 
BRANCH   4   5
ATOM      5  C   UNL     1     172.574 174.195 179.238  1.00  0.00     0.014 C 
BRANCH   5   6
ATOM      6  C   UNL     1     171.247 173.405 179.392  1.00  0.00     0.004 C 
ATOM      7  C   UNL     1     170.579 173.023 178.067  1.00  0.00     0.004 C 
ENDBRANCH   5   6
BRANCH   5   8
ATOM      8  C   UNL     1     173.768 173.640 180.078  1.00  0.00    -0.011 C 
ATOM      9  C   UNL     1     174.836 172.978 179.189  1.00  0.00     0.008 C 
ATOM     10  C   UNL     1     173.280 172.616 181.121  1.00  0.00     0.008 C 
ENDBRANCH   5   8
ENDBRANCH   4   5
ENDBRANCH   1   3
BRANCH   1  11
ATOM     11  C   UNL     1     172.235 176.408 174.810  1.00  0.00     0.002 C 
ATOM     12  C   UNL     1     171.662 177.606 175.576  1.00  0.00     0.005 C 
ATOM     13  C   UNL     1     171.024 175.698 174.078  1.00  0.00    -0.026 C 
ATOM     14  C   UNL     1     170.420 177.984 174.801  1.00  0.00     0.005 C 
ATOM     15  C   UNL     1     169.806 176.651 174.376  1.00  0.00    -0.001 C 
ATOM     16  C   UNL     1     171.361 175.516 172.544  1.00  0.00     0.007 C 
ATOM     17  C   UNL     1     170.676 174.294 174.648  1.00  0.00     0.012 C 
ATOM     18  C   UNL     1     168.703 176.831 173.272  1.00  0.00     0.000 C 
ATOM     19  C   UNL     1     170.473 176.318 171.595  1.00  0.00     0.005 C 
ATOM     20  C   UNL     1     168.999 176.074 171.959  1.00  0.00     0.003 C 
ATOM     21  C   UNL     1     167.313 176.434 173.800  1.00  0.00     0.031 C 
ATOM     22  C   UNL     1     167.944 176.442 170.849  1.00  0.00    -0.008 C 
ATOM     23  C   UNL     1     166.262 176.297 172.728  1.00  0.00    -0.027 C 
ATOM     24  C   UNL     1     166.539 176.166 171.409  1.00  0.00    -0.065 C 
ATOM     25  C   UNL     1     168.153 175.544 169.592  1.00  0.00     0.014 C 
ATOM     26  C   UNL     1     168.056 177.939 170.438  1.00  0.00     0.016 C 
ATOM     27  C   UNL     1     165.484 175.489 170.550  1.00  0.00     0.063 C 
ATOM     28  C   UNL     1     167.068 175.713 168.510  1.00  0.00     0.033 C 
ATOM     29  C   UNL     1     165.619 175.792 169.046  1.00  0.00     0.118 C 
BRANCH  29  30
ATOM     30  O   UNL     1     165.027 177.026 168.709  1.00  0.00    -0.393 OA
ATOM     31  H   UNL     1     165.629 177.756 169.004  1.00  0.00     0.210 HD
ENDBRANCH  29  30
ENDBRANCH   1  11
TORSDOF 6
ENDMDL
MODEL 3
REMARK VINA RESULT:    -7.078      5.703      7.976
REMARK INTER + INTRA:         -10.544
REMARK INTER:                  -9.226
REMARK INTRA:                  -1.318
REMARK UNBOUND:                -1.189
REMARK SMILES CC[C@H](C=C[C@H](C)[C@@H]1CC[C@H]2[C@@H]3CC=C4C[C@@H](O)CC[C@]4(C)[C@H]3CC[C@]21C)C(C)C
REMARK SMILES IDX 6 1 7 2 5 3 4 4 3 5 2 6 1 7 28 8 29 9 30 10 8 11 9 12 26 13
REMARK SMILES IDX 10 14 11 15 25 16 27 17 12 18 24 19 23 20 13 21 21 22 14 23
REMARK SMILES IDX 15 24 20 25 22 26 16 27 19 28 17 29 18 30
REMARK H PARENT 18 31
REMARK Flexibility Score: inf
ROOT
ATOM      1  C   UNL     1     172.617 170.952 175.696  1.00  0.00     0.012 C 
ATOM      2  C   UNL     1     172.827 169.556 175.086  1.00  0.00     0.012 C 
ENDROOT
BRANCH   1   3
ATOM      3  C   UNL     1     173.462 171.080 176.949  1.00  0.00    -0.028 C 
ATOM      4  C   UNL     1     173.135 171.936 177.930  1.00  0.00    -0.027 C 
BRANCH   4   5
ATOM      5  C   UNL     1     174.015 172.121 179.150  1.00  0.00     0.014 C 
BRANCH   5   6
ATOM      6  C   UNL     1     175.181 173.083 178.799  1.00  0.00     0.004 C 
ATOM      7  C   UNL     1     174.849 174.111 177.711  1.00  0.00     0.004 C 
ENDBRANCH   5   6
BRANCH   5   8
ATOM      8  C   UNL     1     173.167 172.545 180.390  1.00  0.00    -0.011 C 
ATOM      9  C   UNL     1     171.951 173.401 179.989  1.00  0.00     0.008 C 
ATOM     10  C   UNL     1     174.022 173.335 181.400  1.00  0.00     0.008 C 
ENDBRANCH   5   8
ENDBRANCH   4   5
ENDBRANCH   1   3
BRANCH   1  11
ATOM     11  C   UNL     1     172.869 172.073 174.632  1.00  0.00     0.002 C 
ATOM     12  C   UNL     1     174.310 172.591 174.563  1.00  0.00     0.005 C 
ATOM     13  C   UNL     1     171.917 173.338 174.635  1.00  0.00    -0.026 C 
ATOM     14  C   UNL     1     174.192 173.930 173.871  1.00  0.00     0.005 C 
ATOM     15  C   UNL     1     172.908 174.543 174.427  1.00  0.00    -0.001 C 
ATOM     16  C   UNL     1     170.819 173.182 173.508  1.00  0.00     0.007 C 
ATOM     17  C   UNL     1     171.172 173.565 175.981  1.00  0.00     0.012 C 
ATOM     18  C   UNL     1     172.426 175.777 173.583  1.00  0.00     0.000 C 
ATOM     19  C   UNL     1     170.913 174.206 172.378  1.00  0.00     0.005 C 
ATOM     20  C   UNL     1     171.012 175.615 172.985  1.00  0.00     0.003 C 
ATOM     21  C   UNL     1     172.500 177.079 174.401  1.00  0.00     0.031 C 
ATOM     22  C   UNL     1     170.672 176.809 172.015  1.00  0.00    -0.008 C 
ATOM     23  C   UNL     1     171.785 178.246 173.769  1.00  0.00    -0.027 C 
ATOM     24  C   UNL     1     170.862 178.126 172.786  1.00  0.00    -0.065 C 
ATOM     25  C   UNL     1     169.184 176.722 171.558  1.00  0.00     0.014 C 
ATOM     26  C   UNL     1     171.598 176.800 170.764  1.00  0.00     0.016 C 
ATOM     27  C   UNL     1     169.851 179.252 172.652  1.00  0.00     0.063 C 
ATOM     28  C   UNL     1     168.706 177.935 170.735  1.00  0.00     0.033 C 
ATOM     29  C   UNL     1     169.164 179.311 171.275  1.00  0.00     0.118 C 
BRANCH  29  30
ATOM     30  O   UNL     1     169.960 179.981 170.325  1.00  0.00    -0.393 OA
ATOM     31  H   UNL     1     170.092 179.384 169.545  1.00  0.00     0.210 HD
ENDBRANCH  29  30
ENDBRANCH   1  11
TORSDOF 6
ENDMDL
MODEL 4
REMARK VINA RESULT:    -6.995      2.220      4.101
REMARK INTER + INTRA:         -10.434
REMARK INTER:                  -9.148
REMARK INTRA:                  -1.285
REMARK UNBOUND:                -1.189
REMARK SMILES CC[C@H](C=C[C@H](C)[C@@H]1CC[C@H]2[C@@H]3CC=C4C[C@@H](O)CC[C@]4(C)[C@H]3CC[C@]21C)C(C)C
REMARK SMILES IDX 6 1 7 2 5 3 4 4 3 5 2 6 1 7 28 8 29 9 30 10 8 11 9 12 26 13
REMARK SMILES IDX 10 14 11 15 25 16 27 17 12 18 24 19 23 20 13 21 21 22 14 23
REMARK SMILES IDX 15 24 20 25 22 26 16 27 19 28 17 29 18 30
REMARK H PARENT 18 31
REMARK Flexibility Score: inf
ROOT
ATOM      1  C   UNL     1     174.022 175.128 176.111  1.00  0.00     0.012 C 
ATOM      2  C   UNL     1     174.077 176.601 175.670  1.00  0.00     0.012 C 
ENDROOT
BRANCH   1   3
ATOM      3  C   UNL     1     172.912 174.955 177.130  1.00  0.00    -0.028 C 
ATOM      4  C   UNL     1     172.958 173.983 178.056  1.00  0.00    -0.027 C 
BRANCH   4   5
ATOM      5  C   UNL     1     171.818 173.759 179.029  1.00  0.00     0.014 C 
BRANCH   5   6
ATOM      6  C   UNL     1     170.645 173.060 178.292  1.00  0.00     0.004 C 
ATOM      7  C   UNL     1     171.078 172.093 177.185  1.00  0.00     0.004 C 
ENDBRANCH   5   6
BRANCH   5   8
ATOM      8  C   UNL     1     172.317 173.021 180.312  1.00  0.00    -0.011 C 
ATOM      9  C   UNL     1     172.550 173.996 181.481  1.00  0.00     0.008 C 
ATOM     10  C   UNL     1     173.624 172.253 180.034  1.00  0.00     0.008 C 
ENDBRANCH   5   8
ENDBRANCH   4   5
ENDBRANCH   1   3
BRANCH   1  11
ATOM     11  C   UNL     1     173.915 174.175 174.873  1.00  0.00     0.002 C 
ATOM     12  C   UNL     1     172.485 173.835 174.438  1.00  0.00     0.005 C 
ATOM     13  C   UNL     1     174.731 172.819 174.897  1.00  0.00    -0.026 C 
ATOM     14  C   UNL     1     172.636 172.582 173.606  1.00  0.00     0.005 C 
ATOM     15  C   UNL     1     173.711 171.766 174.325  1.00  0.00    -0.001 C 
ATOM     16  C   UNL     1     176.058 172.981 174.053  1.00  0.00     0.007 C 
ATOM     17  C   UNL     1     175.141 172.354 176.323  1.00  0.00     0.012 C 
ATOM     18  C   UNL     1     174.258 170.593 173.435  1.00  0.00     0.000 C 
ATOM     19  C   UNL     1     176.127 172.113 172.797  1.00  0.00     0.005 C 
ATOM     20  C   UNL     1     175.778 170.663 173.169  1.00  0.00     0.003 C 
ATOM     21  C   UNL     1     173.896 169.222 174.031  1.00  0.00     0.031 C 
ATOM     22  C   UNL     1     176.218 169.560 172.134  1.00  0.00    -0.008 C 
ATOM     23  C   UNL     1     174.630 168.063 173.405  1.00  0.00    -0.027 C 
ATOM     24  C   UNL     1     175.752 168.193 172.660  1.00  0.00    -0.065 C 
ATOM     25  C   UNL     1     177.772 169.532 172.010  1.00  0.00     0.014 C 
ATOM     26  C   UNL     1     175.593 169.821 170.733  1.00  0.00     0.016 C 
ATOM     27  C   UNL     1     176.668 166.983 172.582  1.00  0.00     0.063 C 
ATOM     28  C   UNL     1     178.313 168.378 171.143  1.00  0.00     0.033 C 
ATOM     29  C   UNL     1     177.633 167.008 171.381  1.00  0.00     0.118 C 
BRANCH  29  30
ATOM     30  O   UNL     1     177.010 166.548 170.204  1.00  0.00    -0.393 OA
ATOM     31  H   UNL     1     176.587 167.320 169.747  1.00  0.00     0.210 HD
ENDBRANCH  29  30
ENDBRANCH   1  11
TORSDOF 6
ENDMDL
MODEL 5
REMARK VINA RESULT:    -6.956      4.649      6.923
REMARK INTER + INTRA:         -10.382
REMARK INTER:                  -8.909
REMARK INTRA:                  -1.473
REMARK UNBOUND:                -1.189
REMARK SMILES CC[C@H](C=C[C@H](C)[C@@H]1CC[C@H]2[C@@H]3CC=C4C[C@@H](O)CC[C@]4(C)[C@H]3CC[C@]21C)C(C)C
REMARK SMILES IDX 6 1 7 2 5 3 4 4 3 5 2 6 1 7 28 8 29 9 30 10 8 11 9 12 26 13
REMARK SMILES IDX 10 14 11 15 25 16 27 17 12 18 24 19 23 20 13 21 21 22 14 23
REMARK SMILES IDX 15 24 20 25 22 26 16 27 19 28 17 29 18 30
REMARK H PARENT 18 31
REMARK Flexibility Score: inf
ROOT
ATOM      1  C   UNL     1     173.485 169.705 176.666  1.00  0.00     0.012 C 
ATOM      2  C   UNL     1     174.191 168.350 176.846  1.00  0.00     0.012 C 
ENDROOT
BRANCH   1   3
ATOM      3  C   UNL     1     174.129 170.728 177.580  1.00  0.00    -0.028 C 
ATOM      4  C   UNL     1     173.398 171.662 178.211  1.00  0.00    -0.027 C 
BRANCH   4   5
ATOM      5  C   UNL     1     174.045 172.732 179.067  1.00  0.00     0.014 C 
BRANCH   5   6
ATOM      6  C   UNL     1     175.207 173.388 178.275  1.00  0.00     0.004 C 
ATOM      7  C   UNL     1     174.759 174.258 177.096  1.00  0.00     0.004 C 
ENDBRANCH   5   6
BRANCH   5   8
ATOM      8  C   UNL     1     172.976 173.732 179.611  1.00  0.00    -0.011 C 
ATOM      9  C   UNL     1     172.920 173.732 181.149  1.00  0.00     0.008 C 
ATOM     10  C   UNL     1     171.576 173.398 179.059  1.00  0.00     0.008 C 
ENDBRANCH   5   8
ENDBRANCH   4   5
ENDBRANCH   1   3
BRANCH   1  11
ATOM     11  C   UNL     1     173.448 170.121 175.157  1.00  0.00     0.002 C 
ATOM     12  C   UNL     1     174.470 171.190 174.754  1.00  0.00     0.005 C 
ATOM     13  C   UNL     1     172.057 170.542 174.528  1.00  0.00    -0.026 C 
ATOM     14  C   UNL     1     173.929 171.754 173.459  1.00  0.00     0.005 C 
ATOM     15  C   UNL     1     172.415 171.807 173.662  1.00  0.00    -0.001 C 
ATOM     16  C   UNL     1     171.452 169.331 173.712  1.00  0.00     0.007 C 
ATOM     17  C   UNL     1     170.994 170.974 175.578  1.00  0.00     0.012 C 
ATOM     18  C   UNL     1     171.645 172.038 172.312  1.00  0.00     0.000 C 
ATOM     19  C   UNL     1     171.339 169.567 172.207  1.00  0.00     0.005 C 
ATOM     20  C   UNL     1     170.644 170.916 171.961  1.00  0.00     0.003 C 
ATOM     21  C   UNL     1     170.926 173.398 172.303  1.00  0.00     0.031 C 
ATOM     22  C   UNL     1     170.044 171.129 170.520  1.00  0.00    -0.008 C 
ATOM     23  C   UNL     1     169.935 173.565 171.180  1.00  0.00    -0.027 C 
ATOM     24  C   UNL     1     169.429 172.537 170.458  1.00  0.00    -0.065 C 
ATOM     25  C   UNL     1     168.912 170.091 170.251  1.00  0.00     0.014 C 
ATOM     26  C   UNL     1     171.141 170.991 169.426  1.00  0.00     0.016 C 
ATOM     27  C   UNL     1     168.083 172.764 169.790  1.00  0.00     0.063 C 
ATOM     28  C   UNL     1     168.150 170.318 168.931  1.00  0.00     0.033 C 
ATOM     29  C   UNL     1     167.793 171.794 168.629  1.00  0.00     0.118 C 
BRANCH  29  30
ATOM     30  O   UNL     1     168.401 172.221 167.432  1.00  0.00    -0.393 OA
ATOM     31  H   UNL     1     168.128 173.157 167.254  1.00  0.00     0.210 HD
ENDBRANCH  29  30
ENDBRANCH   1  11
TORSDOF 6
ENDMDL
MODEL 6
REMARK VINA RESULT:    -6.928      1.286      2.629
REMARK INTER + INTRA:         -10.345
REMARK INTER:                  -9.457
REMARK INTRA:                  -0.888
REMARK UNBOUND:                -1.189
REMARK SMILES CC[C@H](C=C[C@H](C)[C@@H]1CC[C@H]2[C@@H]3CC=C4C[C@@H](O)CC[C@]4(C)[C@H]3CC[C@]21C)C(C)C
REMARK SMILES IDX 6 1 7 2 5 3 4 4 3 5 2 6 1 7 28 8 29 9 30 10 8 11 9 12 26 13
REMARK SMILES IDX 10 14 11 15 25 16 27 17 12 18 24 19 23 20 13 21 21 22 14 23
REMARK SMILES IDX 15 24 20 25 22 26 16 27 19 28 17 29 18 30
REMARK H PARENT 18 31
REMARK Flexibility Score: inf
ROOT
ATOM      1  C   UNL     1     173.840 169.924 176.073  1.00  0.00     0.012 C 
ATOM      2  C   UNL     1     174.120 168.606 176.814  1.00  0.00     0.012 C 
ENDROOT
BRANCH   1   3
ATOM      3  C   UNL     1     173.251 170.927 177.045  1.00  0.00    -0.028 C 
ATOM      4  C   UNL     1     173.941 171.351 178.117  1.00  0.00    -0.027 C 
BRANCH   4   5
ATOM      5  C   UNL     1     173.330 172.297 179.132  1.00  0.00     0.014 C 
BRANCH   5   6
ATOM      6  C   UNL     1     174.464 173.046 179.880  1.00  0.00     0.004 C 
ATOM      7  C   UNL     1     174.310 173.070 181.405  1.00  0.00     0.004 C 
ENDBRANCH   5   6
BRANCH   5   8
ATOM      8  C   UNL     1     172.266 173.222 178.461  1.00  0.00    -0.011 C 
ATOM      9  C   UNL     1     172.869 174.569 178.024  1.00  0.00     0.008 C 
ATOM     10  C   UNL     1     171.086 173.489 179.416  1.00  0.00     0.008 C 
ENDBRANCH   5   8
ENDBRANCH   4   5
ENDBRANCH   1   3
BRANCH   1  11
ATOM     11  C   UNL     1     175.119 170.428 175.322  1.00  0.00     0.002 C 
ATOM     12  C   UNL     1     175.140 171.929 175.012  1.00  0.00     0.005 C 
ATOM     13  C   UNL     1     175.562 169.672 174.004  1.00  0.00    -0.026 C 
ATOM     14  C   UNL     1     176.165 172.068 173.909  1.00  0.00     0.005 C 
ATOM     15  C   UNL     1     175.950 170.841 173.024  1.00  0.00    -0.001 C 
ATOM     16  C   UNL     1     176.737 168.667 174.334  1.00  0.00     0.007 C 
ATOM     17  C   UNL     1     174.424 168.852 173.333  1.00  0.00     0.012 C 
ATOM     18  C   UNL     1     177.139 170.619 172.021  1.00  0.00     0.000 C 
ATOM     19  C   UNL     1     178.073 169.008 173.676  1.00  0.00     0.005 C 
ATOM     20  C   UNL     1     177.845 169.255 172.175  1.00  0.00     0.003 C 
ATOM     21  C   UNL     1     176.684 170.807 170.562  1.00  0.00     0.031 C 
ATOM     22  C   UNL     1     179.126 169.178 171.261  1.00  0.00    -0.008 C 
ATOM     23  C   UNL     1     177.680 170.327 169.538  1.00  0.00    -0.027 C 
ATOM     24  C   UNL     1     178.705 169.487 169.815  1.00  0.00    -0.065 C 
ATOM     25  C   UNL     1     179.726 167.740 171.298  1.00  0.00     0.014 C 
ATOM     26  C   UNL     1     180.206 170.200 171.719  1.00  0.00     0.016 C 
ATOM     27  C   UNL     1     179.251 168.665 168.660  1.00  0.00     0.063 C 
ATOM     28  C   UNL     1     180.888 167.516 170.310  1.00  0.00     0.033 C 
ATOM     29  C   UNL     1     180.670 168.118 168.901  1.00  0.00     0.118 C 
BRANCH  29  30
ATOM     30  O   UNL     1     181.655 169.084 168.612  1.00  0.00    -0.393 OA
ATOM     31  H   UNL     1     181.403 169.935 169.053  1.00  0.00     0.210 HD
ENDBRANCH  29  30
ENDBRANCH   1  11
TORSDOF 6
ENDMDL
MODEL 7
REMARK VINA RESULT:    -6.831      3.505      8.905
REMARK INTER + INTRA:         -10.217
REMARK INTER:                  -8.835
REMARK INTRA:                  -1.382
REMARK UNBOUND:                -1.189
REMARK SMILES CC[C@H](C=C[C@H](C)[C@@H]1CC[C@H]2[C@@H]3CC=C4C[C@@H](O)CC[C@]4(C)[C@H]3CC[C@]21C)C(C)C
REMARK SMILES IDX 6 1 7 2 5 3 4 4 3 5 2 6 1 7 28 8 29 9 30 10 8 11 9 12 26 13
REMARK SMILES IDX 10 14 11 15 25 16 27 17 12 18 24 19 23 20 13 21 21 22 14 23
REMARK SMILES IDX 15 24 20 25 22 26 16 27 19 28 17 29 18 30
REMARK H PARENT 18 31
REMARK Flexibility Score: inf
ROOT
ATOM      1  C   UNL     1     173.397 169.089 172.923  1.00  0.00     0.012 C 
ATOM      2  C   UNL     1     172.285 169.019 171.861  1.00  0.00     0.012 C 
ENDROOT
BRANCH   1   3
ATOM      3  C   UNL     1     174.718 168.702 172.287  1.00  0.00    -0.028 C 
ATOM      4  C   UNL     1     175.758 168.291 173.030  1.00  0.00    -0.027 C 
BRANCH   4   5
ATOM      5  C   UNL     1     177.103 167.973 172.408  1.00  0.00     0.014 C 
BRANCH   5   6
ATOM      6  C   UNL     1     177.075 168.361 170.905  1.00  0.00     0.004 C 
ATOM      7  C   UNL     1     177.238 167.181 169.942  1.00  0.00     0.004 C 
ENDBRANCH   5   6
BRANCH   5   8
ATOM      8  C   UNL     1     178.263 168.618 173.229  1.00  0.00    -0.011 C 
ATOM      9  C   UNL     1     177.822 168.983 174.659  1.00  0.00     0.008 C 
ATOM     10  C   UNL     1     178.796 169.885 172.532  1.00  0.00     0.008 C 
ENDBRANCH   5   8
ENDBRANCH   4   5
ENDBRANCH   1   3
BRANCH   1  11
ATOM     11  C   UNL     1     173.407 170.485 173.633  1.00  0.00     0.002 C 
ATOM     12  C   UNL     1     174.421 171.490 173.073  1.00  0.00     0.005 C 
ATOM     13  C   UNL     1     173.532 170.523 175.210  1.00  0.00    -0.026 C 
ATOM     14  C   UNL     1     174.585 172.508 174.178  1.00  0.00     0.005 C 
ATOM     15  C   UNL     1     174.558 171.689 175.468  1.00  0.00    -0.001 C 
ATOM     16  C   UNL     1     172.105 170.744 175.854  1.00  0.00     0.007 C 
ATOM     17  C   UNL     1     174.126 169.226 175.829  1.00  0.00     0.012 C 
ATOM     18  C   UNL     1     174.368 172.592 176.740  1.00  0.00     0.000 C 
ATOM     19  C   UNL     1     171.936 172.068 176.597  1.00  0.00     0.005 C 
ATOM     20  C   UNL     1     173.112 172.250 177.570  1.00  0.00     0.003 C 
ATOM     21  C   UNL     1     175.614 172.559 177.642  1.00  0.00     0.031 C 
ATOM     22  C   UNL     1     172.896 173.303 178.722  1.00  0.00    -0.008 C 
ATOM     23  C   UNL     1     175.401 173.154 179.010  1.00  0.00    -0.027 C 
ATOM     24  C   UNL     1     174.183 173.371 179.560  1.00  0.00    -0.065 C 
ATOM     25  C   UNL     1     171.731 172.850 179.652  1.00  0.00     0.014 C 
ATOM     26  C   UNL     1     172.577 174.713 178.144  1.00  0.00     0.016 C 
ATOM     27  C   UNL     1     174.115 173.424 181.077  1.00  0.00     0.063 C 
ATOM     28  C   UNL     1     171.546 173.729 180.905  1.00  0.00     0.033 C 
ATOM     29  C   UNL     1     172.858 174.132 181.619  1.00  0.00     0.118 C 
BRANCH  29  30
ATOM     30  O   UNL     1     173.014 175.532 181.628  1.00  0.00    -0.393 OA
ATOM     31  H   UNL     1     173.877 175.758 181.195  1.00  0.00     0.210 HD
ENDBRANCH  29  30
ENDBRANCH   1  11
TORSDOF 6
ENDMDL
MODEL 8
REMARK VINA RESULT:    -6.813      7.476     10.289
REMARK INTER + INTRA:         -10.193
REMARK INTER:                  -9.182
REMARK INTRA:                  -1.011
REMARK UNBOUND:                -1.189
REMARK SMILES CC[C@H](C=C[C@H](C)[C@@H]1CC[C@H]2[C@@H]3CC=C4C[C@@H](O)CC[C@]4(C)[C@H]3CC[C@]21C)C(C)C
REMARK SMILES IDX 6 1 7 2 5 3 4 4 3 5 2 6 1 7 28 8 29 9 30 10 8 11 9 12 26 13
REMARK SMILES IDX 10 14 11 15 25 16 27 17 12 18 24 19 23 20 13 21 21 22 14 23
REMARK SMILES IDX 15 24 20 25 22 26 16 27 19 28 17 29 18 30
REMARK H PARENT 18 31
REMARK Flexibility Score: inf
ROOT
ATOM      1  C   UNL     1     172.501 176.358 176.044  1.00  0.00     0.012 C 
ATOM      2  C   UNL     1     172.242 177.622 176.881  1.00  0.00     0.012 C 
ENDROOT
BRANCH   1   3
ATOM      3  C   UNL     1     173.139 175.300 176.924  1.00  0.00    -0.028 C 
ATOM      4  C   UNL     1     172.633 174.995 178.130  1.00  0.00    -0.027 C 
BRANCH   4   5
ATOM      5  C   UNL     1     173.308 173.992 179.043  1.00  0.00     0.014 C 
BRANCH   5   6
ATOM      6  C   UNL     1     172.228 173.255 179.880  1.00  0.00     0.004 C 
ATOM      7  C   UNL     1     172.407 173.379 181.397  1.00  0.00     0.004 C 
ENDBRANCH   5   6
BRANCH   5   8
ATOM      8  C   UNL     1     174.262 173.057 178.236  1.00  0.00    -0.011 C 
ATOM      9  C   UNL     1     173.723 171.616 178.157  1.00  0.00     0.008 C 
ATOM     10  C   UNL     1     175.670 173.030 178.863  1.00  0.00     0.008 C 
ENDBRANCH   5   8
ENDBRANCH   4   5
ENDBRANCH   1   3
BRANCH   1  11
ATOM     11  C   UNL     1     171.196 175.890 175.316  1.00  0.00     0.002 C 
ATOM     12  C   UNL     1     171.103 174.382 175.056  1.00  0.00     0.005 C 
ATOM     13  C   UNL     1     170.782 176.623 173.974  1.00  0.00    -0.026 C 
ATOM     14  C   UNL     1     170.067 174.256 173.962  1.00  0.00     0.005 C 
ATOM     15  C   UNL     1     170.334 175.441 173.035  1.00  0.00    -0.001 C 
ATOM     16  C   UNL     1     169.657 177.691 174.275  1.00  0.00     0.007 C 
ATOM     17  C   UNL     1     171.954 177.366 173.273  1.00  0.00     0.012 C 
ATOM     18  C   UNL     1     169.152 175.685 172.030  1.00  0.00     0.000 C 
ATOM     19  C   UNL     1     168.303 177.392 173.634  1.00  0.00     0.005 C 
ATOM     20  C   UNL     1     168.511 177.086 172.142  1.00  0.00     0.003 C 
ATOM     21  C   UNL     1     169.590 175.428 170.577  1.00  0.00     0.031 C 
ATOM     22  C   UNL     1     167.231 177.192 171.231  1.00  0.00    -0.008 C 
ATOM     23  C   UNL     1     168.612 175.921 169.541  1.00  0.00    -0.027 C 
ATOM     24  C   UNL     1     167.629 176.816 169.794  1.00  0.00    -0.065 C 
ATOM     25  C   UNL     1     166.699 178.657 171.222  1.00  0.00     0.014 C 
ATOM     26  C   UNL     1     166.106 176.238 171.726  1.00  0.00     0.016 C 
ATOM     27  C   UNL     1     167.116 177.624 168.614  1.00  0.00     0.063 C 
ATOM     28  C   UNL     1     165.543 178.902 170.232  1.00  0.00     0.033 C 
ATOM     29  C   UNL     1     165.725 178.245 168.842  1.00  0.00     0.118 C 
BRANCH  29  30
ATOM     30  O   UNL     1     164.694 177.318 168.589  1.00  0.00    -0.393 OA
ATOM     31  H   UNL     1     164.817 176.949 167.677  1.00  0.00     0.210 HD
ENDBRANCH  29  30
ENDBRANCH   1  11
TORSDOF 6
ENDMDL
MODEL 9
REMARK VINA RESULT:    -6.786      1.850      3.025
REMARK INTER + INTRA:         -10.158
REMARK INTER:                  -8.935
REMARK INTRA:                  -1.222
REMARK UNBOUND:                -1.189
REMARK SMILES CC[C@H](C=C[C@H](C)[C@@H]1CC[C@H]2[C@@H]3CC=C4C[C@@H](O)CC[C@]4(C)[C@H]3CC[C@]21C)C(C)C
REMARK SMILES IDX 6 1 7 2 5 3 4 4 3 5 2 6 1 7 28 8 29 9 30 10 8 11 9 12 26 13
REMARK SMILES IDX 10 14 11 15 25 16 27 17 12 18 24 19 23 20 13 21 21 22 14 23
REMARK SMILES IDX 15 24 20 25 22 26 16 27 19 28 17 29 18 30
REMARK H PARENT 18 31
REMARK Flexibility Score: inf
ROOT
ATOM      1  C   UNL     1     173.103 174.349 174.934  1.00  0.00     0.012 C 
ATOM      2  C   UNL     1     172.150 175.152 174.032  1.00  0.00     0.012 C 
ENDROOT
BRANCH   1   3
ATOM      3  C   UNL     1     172.403 174.033 176.241  1.00  0.00    -0.028 C 
ATOM      4  C   UNL     1     172.914 174.421 177.421  1.00  0.00    -0.027 C 
BRANCH   4   5
ATOM      5  C   UNL     1     172.258 174.044 178.733  1.00  0.00     0.014 C 
BRANCH   5   6
ATOM      6  C   UNL     1     171.216 172.922 178.481  1.00  0.00     0.004 C 
ATOM      7  C   UNL     1     169.777 173.299 178.846  1.00  0.00     0.004 C 
ENDBRANCH   5   6
BRANCH   5   8
ATOM      8  C   UNL     1     173.331 173.710 179.817  1.00  0.00    -0.011 C 
ATOM      9  C   UNL     1     174.321 172.635 179.332  1.00  0.00     0.008 C 
ATOM     10  C   UNL     1     172.667 173.226 181.121  1.00  0.00     0.008 C 
ENDBRANCH   5   8
ENDBRANCH   4   5
ENDBRANCH   1   3
BRANCH   1  11
ATOM     11  C   UNL     1     173.663 173.095 174.181  1.00  0.00     0.002 C 
ATOM     12  C   UNL     1     172.833 171.817 174.345  1.00  0.00     0.005 C 
ATOM     13  C   UNL     1     175.180 172.700 174.406  1.00  0.00    -0.026 C 
ATOM     14  C   UNL     1     173.787 170.703 173.977  1.00  0.00     0.005 C 
ATOM     15  C   UNL     1     175.132 171.134 174.561  1.00  0.00    -0.001 C 
ATOM     16  C   UNL     1     176.051 173.219 173.194  1.00  0.00     0.007 C 
ATOM     17  C   UNL     1     175.798 173.285 175.707  1.00  0.00     0.012 C 
ATOM     18  C   UNL     1     176.325 170.285 173.993  1.00  0.00     0.000 C 
ATOM     19  C   UNL     1     176.683 172.118 172.344  1.00  0.00     0.005 C 
ATOM     20  C   UNL     1     177.401 171.121 173.267  1.00  0.00     0.003 C 
ATOM     21  C   UNL     1     176.981 169.433 175.094  1.00  0.00     0.031 C 
ATOM     22  C   UNL     1     178.468 170.188 172.579  1.00  0.00    -0.008 C 
ATOM     23  C   UNL     1     178.302 168.825 174.698  1.00  0.00    -0.027 C 
ATOM     24  C   UNL     1     179.044 169.244 173.647  1.00  0.00    -0.065 C 
ATOM     25  C   UNL     1     179.636 171.043 172.002  1.00  0.00     0.014 C 
ATOM     26  C   UNL     1     177.828 169.350 171.434  1.00  0.00     0.016 C 
ATOM     27  C   UNL     1     180.535 168.959 173.702  1.00  0.00     0.063 C 
ATOM     28  C   UNL     1     180.812 170.213 171.449  1.00  0.00     0.033 C 
ATOM     29  C   UNL     1     181.230 169.010 172.328  1.00  0.00     0.118 C 
BRANCH  29  30
ATOM     30  O   UNL     1     181.077 167.799 171.624  1.00  0.00    -0.393 OA
ATOM     31  H   UNL     1     180.987 167.060 172.279  1.00  0.00     0.210 HD
ENDBRANCH  29  30
ENDBRANCH   1  11
TORSDOF 6
ENDMDL
