MODEL 1
REMARK VINA RESULT:    -3.714      0.000      0.000
REMARK INTER + INTRA:          -3.714
REMARK INTER:                  -3.714
REMARK INTRA:                   0.000
REMARK UNBOUND:                 0.000
REMARK SMILES C=C1[C@H]2CC[C@H](C2)C1(C)C
REMARK SMILES IDX 9 1 8 2 6 3 5 4 4 5 3 6 7 7 2 8 1 9 10 10
REMARK H PARENT
REMARK Flexibility Score: inf
ROOT
ATOM      1  C   UNL     1      19.494  62.584  13.896  1.00  0.00     0.016 C 
ATOM      2  C   UNL     1      20.421  63.735  14.347  1.00  0.00    -0.012 C 
ATOM      3  C   UNL     1      19.933  64.361  15.701  1.00  0.00    -0.001 C 
ATOM      4  C   UNL     1      20.743  65.632  16.052  1.00  0.00     0.005 C 
ATOM      5  C   UNL     1      22.148  65.071  16.357  1.00  0.00     0.008 C 
ATOM      6  C   UNL     1      21.942  63.549  16.252  1.00  0.00     0.015 C 
ATOM      7  C   UNL     1      20.516  63.405  16.737  1.00  0.00     0.012 C 
ATOM      8  C   UNL     1      21.767  63.219  14.794  1.00  0.00    -0.068 C 
ATOM      9  C   UNL     1      22.683  62.617  14.025  1.00  0.00     0.008 C 
ATOM     10  C   UNL     1      20.551  64.757  13.194  1.00  0.00     0.016 C 
ENDROOT
TORSDOF 0
ENDMDL
MODEL 2
REMARK VINA RESULT:    -3.646      1.055      2.502
REMARK INTER + INTRA:          -3.646
REMARK INTER:                  -3.646
REMARK INTRA:                   0.000
REMARK UNBOUND:                 0.000
REMARK SMILES C=C1[C@H]2CC[C@H](C2)C1(C)C
REMARK SMILES IDX 9 1 8 2 6 3 5 4 4 5 3 6 7 7 2 8 1 9 10 10
REMARK H PARENT
REMARK Flexibility Score: inf
ROOT
ATOM      1  C   UNL     1      22.990  62.415  13.891  1.00  0.00     0.016 C 
ATOM      2  C   UNL     1      22.163  63.623  14.384  1.00  0.00    -0.012 C 
ATOM      3  C   UNL     1      20.853  63.799  13.537  1.00  0.00    -0.001 C 
ATOM      4  C   UNL     1      20.126  65.116  13.903  1.00  0.00     0.005 C 
ATOM      5  C   UNL     1      19.636  64.851  15.343  1.00  0.00     0.008 C 
ATOM      6  C   UNL     1      20.044  63.386  15.580  1.00  0.00     0.015 C 
ATOM      7  C   UNL     1      19.900  62.804  14.192  1.00  0.00     0.012 C 
ATOM      8  C   UNL     1      21.541  63.355  15.734  1.00  0.00    -0.068 C 
ATOM      9  C   UNL     1      22.194  63.173  16.888  1.00  0.00     0.008 C 
ATOM     10  C   UNL     1      23.069  64.875  14.407  1.00  0.00     0.016 C 
ENDROOT
TORSDOF 0
ENDMDL
MODEL 3
REMARK VINA RESULT:    -3.633      1.073      2.505
REMARK INTER + INTRA:          -3.633
REMARK INTER:                  -3.633
REMARK INTRA:                   0.000
REMARK UNBOUND:                 0.000
REMARK SMILES C=C1[C@H]2CC[C@H](C2)C1(C)C
REMARK SMILES IDX 9 1 8 2 6 3 5 4 4 5 3 6 7 7 2 8 1 9 10 10
REMARK H PARENT
REMARK Flexibility Score: inf
ROOT
ATOM      1  C   UNL     1      20.111  63.468  17.061  1.00  0.00     0.016 C 
ATOM      2  C   UNL     1      20.620  64.138  15.766  1.00  0.00    -0.012 C 
ATOM      3  C   UNL     1      22.164  64.412  15.837  1.00  0.00    -0.001 C 
ATOM      4  C   UNL     1      22.637  65.253  14.626  1.00  0.00     0.005 C 
ATOM      5  C   UNL     1      22.460  64.280  13.441  1.00  0.00     0.008 C 
ATOM      6  C   UNL     1      22.016  62.977  14.129  1.00  0.00     0.015 C 
ATOM      7  C   UNL     1      22.758  63.063  15.444  1.00  0.00     0.012 C 
ATOM      8  C   UNL     1      20.601  63.177  14.601  1.00  0.00    -0.068 C 
ATOM      9  C   UNL     1      19.516  62.630  14.039  1.00  0.00     0.008 C 
ATOM     10  C   UNL     1      19.771  65.399  15.485  1.00  0.00     0.016 C 
ENDROOT
TORSDOF 0
ENDMDL
MODEL 4
REMARK VINA RESULT:    -3.617      0.651      2.420
REMARK INTER + INTRA:          -3.617
REMARK INTER:                  -3.617
REMARK INTRA:                   0.000
REMARK UNBOUND:                 0.000
REMARK SMILES C=C1[C@H]2CC[C@H](C2)C1(C)C
REMARK SMILES IDX 9 1 8 2 6 3 5 4 4 5 3 6 7 7 2 8 1 9 10 10
REMARK H PARENT
REMARK Flexibility Score: inf
ROOT
ATOM      1  C   UNL     1      21.721  64.865  13.199  1.00  0.00     0.016 C 
ATOM      2  C   UNL     1      21.722  63.944  14.439  1.00  0.00    -0.012 C 
ATOM      3  C   UNL     1      21.999  64.759  15.752  1.00  0.00    -0.001 C 
ATOM      4  C   UNL     1      22.191  63.815  16.964  1.00  0.00     0.005 C 
ATOM      5  C   UNL     1      20.783  63.214  17.158  1.00  0.00     0.008 C 
ATOM      6  C   UNL     1      19.940  63.965  16.113  1.00  0.00     0.015 C 
ATOM      7  C   UNL     1      20.620  65.316  16.092  1.00  0.00     0.012 C 
ATOM      8  C   UNL     1      20.334  63.443  14.757  1.00  0.00    -0.068 C 
ATOM      9  C   UNL     1      19.590  62.628  13.999  1.00  0.00     0.008 C 
ATOM     10  C   UNL     1      22.713  62.782  14.201  1.00  0.00     0.016 C 
ENDROOT
TORSDOF 0
ENDMDL
MODEL 5
REMARK VINA RESULT:    -3.519      0.933      3.019
REMARK INTER + INTRA:          -3.519
REMARK INTER:                  -3.519
REMARK INTRA:                   0.000
REMARK UNBOUND:                 0.000
REMARK SMILES C=C1[C@H]2CC[C@H](C2)C1(C)C
REMARK SMILES IDX 9 1 8 2 6 3 5 4 4 5 3 6 7 7 2 8 1 9 10 10
REMARK H PARENT
REMARK Flexibility Score: inf
ROOT
ATOM      1  C   UNL     1      21.573  65.571  16.765  1.00  0.00     0.016 C 
ATOM      2  C   UNL     1      20.835  64.339  16.196  1.00  0.00    -0.012 C 
ATOM      3  C   UNL     1      19.780  64.759  15.112  1.00  0.00    -0.001 C 
ATOM      4  C   UNL     1      18.910  63.553  14.683  1.00  0.00     0.005 C 
ATOM      5  C   UNL     1      19.916  62.653  13.933  1.00  0.00     0.008 C 
ATOM      6  C   UNL     1      21.200  63.501  13.928  1.00  0.00     0.015 C 
ATOM      7  C   UNL     1      20.636  64.902  13.856  1.00  0.00     0.012 C 
ATOM      8  C   UNL     1      21.745  63.500  15.331  1.00  0.00    -0.068 C 
ATOM      9  C   UNL     1      22.824  62.819  15.739  1.00  0.00     0.008 C 
ATOM     10  C   UNL     1      20.241  63.524  17.367  1.00  0.00     0.016 C 
ENDROOT
TORSDOF 0
ENDMDL
MODEL 6
REMARK VINA RESULT:    -3.440      0.991      3.315
REMARK INTER + INTRA:          -3.440
REMARK INTER:                  -3.440
REMARK INTRA:                   0.000
REMARK UNBOUND:                 0.000
REMARK SMILES C=C1[C@H]2CC[C@H](C2)C1(C)C
REMARK SMILES IDX 9 1 8 2 6 3 5 4 4 5 3 6 7 7 2 8 1 9 10 10
REMARK H PARENT
REMARK Flexibility Score: inf
ROOT
ATOM      1  C   UNL     1      20.300  63.235  17.490  1.00  0.00     0.016 C 
ATOM      2  C   UNL     1      20.671  64.085  16.255  1.00  0.00    -0.012 C 
ATOM      3  C   UNL     1      21.196  63.184  15.081  1.00  0.00    -0.001 C 
ATOM      4  C   UNL     1      21.747  64.047  13.919  1.00  0.00     0.005 C 
ATOM      5  C   UNL     1      20.477  64.725  13.362  1.00  0.00     0.008 C 
ATOM      6  C   UNL     1      19.352  64.086  14.196  1.00  0.00     0.015 C 
ATOM      7  C   UNL     1      19.903  62.699  14.433  1.00  0.00     0.012 C 
ATOM      8  C   UNL     1      19.443  64.656  15.586  1.00  0.00    -0.068 C 
ATOM      9  C   UNL     1      18.601  65.557  16.107  1.00  0.00     0.008 C 
ATOM     10  C   UNL     1      21.659  65.193  16.685  1.00  0.00     0.016 C 
ENDROOT
TORSDOF 0
ENDMDL
MODEL 7
REMARK VINA RESULT:    -3.402      1.082      1.964
REMARK INTER + INTRA:          -3.402
REMARK INTER:                  -3.402
REMARK INTRA:                   0.000
REMARK UNBOUND:                 0.000
REMARK SMILES C=C1[C@H]2CC[C@H](C2)C1(C)C
REMARK SMILES IDX 9 1 8 2 6 3 5 4 4 5 3 6 7 7 2 8 1 9 10 10
REMARK H PARENT
REMARK Flexibility Score: inf
ROOT
ATOM      1  C   UNL     1      19.441  62.715  13.876  1.00  0.00     0.016 C 
ATOM      2  C   UNL     1      19.566  63.865  14.899  1.00  0.00    -0.012 C 
ATOM      3  C   UNL     1      20.197  63.361  16.246  1.00  0.00    -0.001 C 
ATOM      4  C   UNL     1      20.145  64.463  17.332  1.00  0.00     0.005 C 
ATOM      5  C   UNL     1      21.136  65.519  16.799  1.00  0.00     0.008 C 
ATOM      6  C   UNL     1      21.712  64.847  15.540  1.00  0.00     0.015 C 
ATOM      7  C   UNL     1      21.692  63.389  15.942  1.00  0.00     0.012 C 
ATOM      8  C   UNL     1      20.632  64.855  14.492  1.00  0.00    -0.068 C 
ATOM      9  C   UNL     1      20.608  65.650  13.415  1.00  0.00     0.008 C 
ATOM     10  C   UNL     1      18.187  64.541  15.067  1.00  0.00     0.016 C 
ENDROOT
TORSDOF 0
ENDMDL
MODEL 8
REMARK VINA RESULT:    -3.360      1.057      2.755
REMARK INTER + INTRA:          -3.360
REMARK INTER:                  -3.360
REMARK INTRA:                   0.000
REMARK UNBOUND:                 0.000
REMARK SMILES C=C1[C@H]2CC[C@H](C2)C1(C)C
REMARK SMILES IDX 9 1 8 2 6 3 5 4 4 5 3 6 7 7 2 8 1 9 10 10
REMARK H PARENT
REMARK Flexibility Score: inf
ROOT
ATOM      1  C   UNL     1      18.025  65.152  15.043  1.00  0.00     0.016 C 
ATOM      2  C   UNL     1      19.548  64.957  15.212  1.00  0.00    -0.012 C 
ATOM      3  C   UNL     1      19.892  63.473  15.592  1.00  0.00    -0.001 C 
ATOM      4  C   UNL     1      21.391  63.322  15.948  1.00  0.00     0.005 C 
ATOM      5  C   UNL     1      22.093  63.559  14.594  1.00  0.00     0.008 C 
ATOM      6  C   UNL     1      20.913  63.705  13.616  1.00  0.00     0.015 C 
ATOM      7  C   UNL     1      19.893  62.776  14.234  1.00  0.00     0.012 C 
ATOM      8  C   UNL     1      20.267  65.037  13.886  1.00  0.00    -0.068 C 
ATOM      9  C   UNL     1      20.367  66.117  13.101  1.00  0.00     0.008 C 
ATOM     10  C   UNL     1      20.080  66.002  16.219  1.00  0.00     0.016 C 
ENDROOT
TORSDOF 0
ENDMDL
MODEL 9
REMARK VINA RESULT:    -3.287      1.366      3.185
REMARK INTER + INTRA:          -3.287
REMARK INTER:                  -3.287
REMARK INTRA:                   0.000
REMARK UNBOUND:                 0.000
REMARK SMILES C=C1[C@H]2CC[C@H](C2)C1(C)C
REMARK SMILES IDX 9 1 8 2 6 3 5 4 4 5 3 6 7 7 2 8 1 9 10 10
REMARK H PARENT
REMARK Flexibility Score: inf
ROOT
ATOM      1  C   UNL     1      22.035  64.145  15.735  1.00  0.00     0.016 C 
ATOM      2  C   UNL     1      20.537  64.082  16.105  1.00  0.00    -0.012 C 
ATOM      3  C   UNL     1      19.959  65.515  16.384  1.00  0.00    -0.001 C 
ATOM      4  C   UNL     1      18.516  65.436  16.940  1.00  0.00     0.005 C 
ATOM      5  C   UNL     1      17.711  64.912  15.732  1.00  0.00     0.008 C 
ATOM      6  C   UNL     1      18.764  64.862  14.611  1.00  0.00     0.015 C 
ATOM      7  C   UNL     1      19.653  66.028  14.981  1.00  0.00     0.012 C 
ATOM      8  C   UNL     1      19.687  63.711  14.912  1.00  0.00    -0.068 C 
ATOM      9  C   UNL     1      19.702  62.543  14.259  1.00  0.00     0.008 C 
ATOM     10  C   UNL     1      20.349  63.091  17.275  1.00  0.00     0.016 C 
ENDROOT
TORSDOF 0
ENDMDL
