MODEL 1
REMARK VINA RESULT:     3.127      0.000      0.000
REMARK INTER + INTRA:           5.959
REMARK INTER:                   7.880
REMARK INTRA:                  -1.920
REMARK UNBOUND:                -1.920
REMARK SMILES CCCCCCCCCCCCCCCCCCCCCCCCCCCC(=O)[O-]
REMARK SMILES IDX 15 1 16 2 17 3 18 4 19 5 20 6 21 7 22 8 23 9 24 10 25 11
REMARK SMILES IDX 26 12 27 13 28 14 29 15 30 16 14 17 13 18 12 19 11 20 10 21
REMARK SMILES IDX 9 22 8 23 7 24 6 25 5 26 4 27 3 28 2 29 1 30
REMARK H PARENT
REMARK Flexibility Score: inf
ROOT
ATOM      1  C   UNL     1       1.404  -6.362   2.642  1.00  0.00     0.000 C 
ENDROOT
BRANCH   1   2
ATOM      2  C   UNL     1       0.355  -6.023   3.713  1.00  0.00     0.000 C 
BRANCH   2   3
ATOM      3  C   UNL     1       0.364  -7.005   4.900  1.00  0.00     0.000 C 
BRANCH   3   4
ATOM      4  C   UNL     1      -0.821  -7.988   4.939  1.00  0.00     0.000 C 
BRANCH   4   5
ATOM      5  C   UNL     1      -0.443  -9.406   4.486  1.00  0.00     0.000 C 
BRANCH   5   6
ATOM      6  C   UNL     1      -0.881  -9.642   3.032  1.00  0.00     0.000 C 
BRANCH   6   7
ATOM      7  C   UNL     1      -1.735 -10.911   2.858  1.00  0.00     0.000 C 
BRANCH   7   8
ATOM      8  C   UNL     1      -3.246 -10.664   2.676  1.00  0.00     0.000 C 
BRANCH   8   9
ATOM      9  C   UNL     1      -3.914  -9.833   3.787  1.00  0.00     0.000 C 
BRANCH   9  10
ATOM     10  C   UNL     1      -4.392  -8.454   3.297  1.00  0.00     0.000 C 
BRANCH  10  11
ATOM     11  C   UNL     1      -5.906  -8.247   3.528  1.00  0.00     0.000 C 
BRANCH  11  12
ATOM     12  C   UNL     1      -6.737  -8.270   2.231  1.00  0.00     0.006 C 
BRANCH  12  13
ATOM     13  C   UNL     1      -6.818  -9.650   1.561  1.00  0.00     0.053 C 
BRANCH  13  14
ATOM     14  C   UNL     1      -6.124  -9.668   0.234  1.00  0.00     0.041 C 
ATOM     15  O   UNL     1      -6.004  -8.605  -0.431  1.00  0.00    -0.550 OA
ATOM     16  O   UNL     1      -5.583 -10.850  -0.258  1.00  0.00    -0.550 OA
ENDBRANCH  13  14
ENDBRANCH  12  13
ENDBRANCH  11  12
ENDBRANCH  10  11
ENDBRANCH   9  10
ENDBRANCH   8   9
ENDBRANCH   7   8
ENDBRANCH   6   7
ENDBRANCH   5   6
ENDBRANCH   4   5
ENDBRANCH   3   4
ENDBRANCH   2   3
ENDBRANCH   1   2
BRANCH   1  17
ATOM     17  C   UNL     1       0.749  -6.560   1.265  1.00  0.00     0.000 C 
BRANCH  17  18
ATOM     18  C   UNL     1       0.744  -5.279   0.417  1.00  0.00     0.000 C 
BRANCH  18  19
ATOM     19  C   UNL     1       0.271  -5.520  -1.026  1.00  0.00     0.000 C 
BRANCH  19  20
ATOM     20  C   UNL     1      -0.349  -4.250  -1.624  1.00  0.00     0.000 C 
BRANCH  20  21
ATOM     21  C   UNL     1       0.724  -3.187  -1.899  1.00  0.00     0.000 C 
BRANCH  21  22
ATOM     22  C   UNL     1       0.369  -2.265  -3.080  1.00  0.00    -0.000 C 
BRANCH  22  23
ATOM     23  C   UNL     1       1.513  -2.090  -4.100  1.00  0.00    -0.000 C 
BRANCH  23  24
ATOM     24  C   UNL     1       1.008  -1.615  -5.473  1.00  0.00    -0.000 C 
BRANCH  24  25
ATOM     25  C   UNL     1       0.530  -0.153  -5.444  1.00  0.00    -0.000 C 
BRANCH  25  26
ATOM     26  C   UNL     1       0.757   0.565  -6.787  1.00  0.00    -0.000 C 
BRANCH  26  27
ATOM     27  C   UNL     1       0.288   2.029  -6.762  1.00  0.00    -0.000 C 
BRANCH  27  28
ATOM     28  C   UNL     1       0.802   2.791  -5.526  1.00  0.00    -0.000 C 
BRANCH  28  29
ATOM     29  C   UNL     1      -0.162   3.899  -5.081  1.00  0.00    -0.003 C 
ATOM     30  C   UNL     1      -1.540   3.779  -5.731  1.00  0.00     0.004 C 
ENDBRANCH  28  29
ENDBRANCH  27  28
ENDBRANCH  26  27
ENDBRANCH  25  26
ENDBRANCH  24  25
ENDBRANCH  23  24
ENDBRANCH  22  23
ENDBRANCH  21  22
ENDBRANCH  20  21
ENDBRANCH  19  20
ENDBRANCH  18  19
ENDBRANCH  17  18
ENDBRANCH   1  17
TORSDOF 26
ENDMDL
MODEL 2
REMARK VINA RESULT:     3.616      1.712      2.278
REMARK INTER + INTRA:           7.192
REMARK INTER:                   8.675
REMARK INTRA:                  -1.483
REMARK UNBOUND:                -1.920
REMARK SMILES CCCCCCCCCCCCCCCCCCCCCCCCCCCC(=O)[O-]
REMARK SMILES IDX 15 1 16 2 17 3 18 4 19 5 20 6 21 7 22 8 23 9 24 10 25 11
REMARK SMILES IDX 26 12 27 13 28 14 29 15 30 16 14 17 13 18 12 19 11 20 10 21
REMARK SMILES IDX 9 22 8 23 7 24 6 25 5 26 4 27 3 28 2 29 1 30
REMARK H PARENT
REMARK Flexibility Score: inf
ROOT
ATOM      1  C   UNL     1       1.114  -6.168   2.858  1.00  0.00     0.000 C 
ENDROOT
BRANCH   1   2
ATOM      2  C   UNL     1       0.748  -6.652   4.270  1.00  0.00     0.000 C 
BRANCH   2   3
ATOM      3  C   UNL     1      -0.672  -6.240   4.701  1.00  0.00     0.000 C 
BRANCH   3   4
ATOM      4  C   UNL     1      -1.601  -7.409   5.078  1.00  0.00     0.000 C 
BRANCH   4   5
ATOM      5  C   UNL     1      -1.069  -8.774   4.617  1.00  0.00     0.000 C 
BRANCH   5   6
ATOM      6  C   UNL     1      -1.789  -9.230   3.337  1.00  0.00     0.000 C 
BRANCH   6   7
ATOM      7  C   UNL     1      -2.462 -10.606   3.482  1.00  0.00     0.000 C 
BRANCH   7   8
ATOM      8  C   UNL     1      -3.998 -10.602   3.349  1.00  0.00     0.000 C 
BRANCH   8   9
ATOM      9  C   UNL     1      -4.534 -10.271   1.944  1.00  0.00     0.000 C 
BRANCH   9  10
ATOM     10  C   UNL     1      -5.668  -9.231   1.965  1.00  0.00     0.000 C 
BRANCH  10  11
ATOM     11  C   UNL     1      -6.560  -9.368   3.220  1.00  0.00     0.000 C 
BRANCH  11  12
ATOM     12  C   UNL     1      -6.235  -8.343   4.323  1.00  0.00     0.006 C 
BRANCH  12  13
ATOM     13  C   UNL     1      -6.873  -6.962   4.107  1.00  0.00     0.053 C 
BRANCH  13  14
ATOM     14  C   UNL     1      -5.843  -5.905   3.855  1.00  0.00     0.041 C 
ATOM     15  O   UNL     1      -4.698  -6.224   3.438  1.00  0.00    -0.550 OA
ATOM     16  O   UNL     1      -6.153  -4.564   4.052  1.00  0.00    -0.550 OA
ENDBRANCH  13  14
ENDBRANCH  12  13
ENDBRANCH  11  12
ENDBRANCH  10  11
ENDBRANCH   9  10
ENDBRANCH   8   9
ENDBRANCH   7   8
ENDBRANCH   6   7
ENDBRANCH   5   6
ENDBRANCH   4   5
ENDBRANCH   3   4
ENDBRANCH   2   3
ENDBRANCH   1   2
BRANCH   1  17
ATOM     17  C   UNL     1       0.374  -6.980   1.783  1.00  0.00     0.000 C 
BRANCH  17  18
ATOM     18  C   UNL     1       0.727  -6.539   0.353  1.00  0.00     0.000 C 
BRANCH  18  19
ATOM     19  C   UNL     1       0.723  -5.011   0.180  1.00  0.00     0.000 C 
BRANCH  19  20
ATOM     20  C   UNL     1       0.284  -4.617  -1.236  1.00  0.00     0.000 C 
BRANCH  20  21
ATOM     21  C   UNL     1       1.165  -3.491  -1.794  1.00  0.00     0.000 C 
BRANCH  21  22
ATOM     22  C   UNL     1       0.358  -2.403  -2.527  1.00  0.00    -0.000 C 
BRANCH  22  23
ATOM     23  C   UNL     1       0.920  -2.040  -3.917  1.00  0.00    -0.000 C 
BRANCH  23  24
ATOM     24  C   UNL     1       0.392  -0.690  -4.430  1.00  0.00    -0.000 C 
BRANCH  24  25
ATOM     25  C   UNL     1       0.555  -0.542  -5.953  1.00  0.00    -0.000 C 
BRANCH  25  26
ATOM     26  C   UNL     1       0.418   0.920  -6.418  1.00  0.00    -0.000 C 
BRANCH  26  27
ATOM     27  C   UNL     1       1.144   1.906  -5.489  1.00  0.00    -0.000 C 
BRANCH  27  28
ATOM     28  C   UNL     1       0.893   3.375  -5.876  1.00  0.00    -0.000 C 
BRANCH  28  29
ATOM     29  C   UNL     1      -0.333   3.965  -5.166  1.00  0.00    -0.003 C 
ATOM     30  C   UNL     1      -1.650   3.564  -5.829  1.00  0.00     0.004 C 
ENDBRANCH  28  29
ENDBRANCH  27  28
ENDBRANCH  26  27
ENDBRANCH  25  26
ENDBRANCH  24  25
ENDBRANCH  23  24
ENDBRANCH  22  23
ENDBRANCH  21  22
ENDBRANCH  20  21
ENDBRANCH  19  20
ENDBRANCH  18  19
ENDBRANCH  17  18
ENDBRANCH   1  17
TORSDOF 26
ENDMDL
MODEL 3
REMARK VINA RESULT:     3.618      4.051     12.102
REMARK INTER + INTRA:           7.198
REMARK INTER:                   9.349
REMARK INTRA:                  -2.151
REMARK UNBOUND:                -1.920
REMARK SMILES CCCCCCCCCCCCCCCCCCCCCCCCCCCC(=O)[O-]
REMARK SMILES IDX 15 1 16 2 17 3 18 4 19 5 20 6 21 7 22 8 23 9 24 10 25 11
REMARK SMILES IDX 26 12 27 13 28 14 29 15 30 16 14 17 13 18 12 19 11 20 10 21
REMARK SMILES IDX 9 22 8 23 7 24 6 25 5 26 4 27 3 28 2 29 1 30
REMARK H PARENT
REMARK Flexibility Score: inf
ROOT
ATOM      1  C   UNL     1       1.017  -6.273   1.568  1.00  0.00     0.000 C 
ENDROOT
BRANCH   1   2
ATOM      2  C   UNL     1       0.878  -5.066   0.627  1.00  0.00     0.000 C 
BRANCH   2   3
ATOM      3  C   UNL     1       0.171  -5.411  -0.697  1.00  0.00     0.000 C 
BRANCH   3   4
ATOM      4  C   UNL     1       0.106  -4.258  -1.717  1.00  0.00     0.000 C 
BRANCH   4   5
ATOM      5  C   UNL     1       1.352  -3.361  -1.693  1.00  0.00     0.000 C 
BRANCH   5   6
ATOM      6  C   UNL     1       1.622  -2.773  -3.087  1.00  0.00     0.000 C 
BRANCH   6   7
ATOM      7  C   UNL     1       0.764  -1.532  -3.394  1.00  0.00     0.000 C 
BRANCH   7   8
ATOM      8  C   UNL     1       0.124  -1.508  -4.796  1.00  0.00     0.000 C 
BRANCH   8   9
ATOM      9  C   UNL     1       0.932  -0.759  -5.873  1.00  0.00     0.000 C 
BRANCH   9  10
ATOM     10  C   UNL     1       0.136   0.379  -6.535  1.00  0.00     0.000 C 
BRANCH  10  11
ATOM     11  C   UNL     1       0.985   1.659  -6.711  1.00  0.00     0.000 C 
BRANCH  11  12
ATOM     12  C   UNL     1       1.155   2.469  -5.412  1.00  0.00     0.006 C 
BRANCH  12  13
ATOM     13  C   UNL     1      -0.168   2.877  -4.747  1.00  0.00     0.053 C 
BRANCH  13  14
ATOM     14  C   UNL     1      -0.820   4.022  -5.457  1.00  0.00     0.041 C 
ATOM     15  O   UNL     1      -0.256   5.147  -5.494  1.00  0.00    -0.550 OA
ATOM     16  O   UNL     1      -2.038   3.844  -6.104  1.00  0.00    -0.550 OA
ENDBRANCH  13  14
ENDBRANCH  12  13
ENDBRANCH  11  12
ENDBRANCH  10  11
ENDBRANCH   9  10
ENDBRANCH   8   9
ENDBRANCH   7   8
ENDBRANCH   6   7
ENDBRANCH   5   6
ENDBRANCH   4   5
ENDBRANCH   3   4
ENDBRANCH   2   3
ENDBRANCH   1   2
BRANCH   1  17
ATOM     17  C   UNL     1       1.045  -5.830   3.040  1.00  0.00     0.000 C 
BRANCH  17  18
ATOM     18  C   UNL     1       0.813  -6.993   4.018  1.00  0.00     0.000 C 
BRANCH  18  19
ATOM     19  C   UNL     1      -0.326  -6.718   5.014  1.00  0.00     0.000 C 
BRANCH  19  20
ATOM     20  C   UNL     1      -1.675  -7.186   4.452  1.00  0.00     0.000 C 
BRANCH  20  21
ATOM     21  C   UNL     1      -1.912  -8.673   4.750  1.00  0.00     0.000 C 
BRANCH  21  22
ATOM     22  C   UNL     1      -1.474  -9.594   3.596  1.00  0.00    -0.000 C 
BRANCH  22  23
ATOM     23  C   UNL     1      -2.632 -10.391   2.961  1.00  0.00    -0.000 C 
BRANCH  23  24
ATOM     24  C   UNL     1      -3.908 -10.360   3.820  1.00  0.00    -0.000 C 
BRANCH  24  25
ATOM     25  C   UNL     1      -5.179 -10.591   2.984  1.00  0.00    -0.000 C 
BRANCH  25  26
ATOM     26  C   UNL     1      -5.103  -9.913   1.604  1.00  0.00    -0.000 C 
BRANCH  26  27
ATOM     27  C   UNL     1      -5.730  -8.509   1.600  1.00  0.00    -0.000 C 
BRANCH  27  28
ATOM     28  C   UNL     1      -6.845  -8.358   2.651  1.00  0.00    -0.000 C 
BRANCH  28  29
ATOM     29  C   UNL     1      -6.650  -7.119   3.536  1.00  0.00    -0.003 C 
ATOM     30  C   UNL     1      -5.179  -6.740   3.704  1.00  0.00     0.004 C 
ENDBRANCH  28  29
ENDBRANCH  27  28
ENDBRANCH  26  27
ENDBRANCH  25  26
ENDBRANCH  24  25
ENDBRANCH  23  24
ENDBRANCH  22  23
ENDBRANCH  21  22
ENDBRANCH  20  21
ENDBRANCH  19  20
ENDBRANCH  18  19
ENDBRANCH  17  18
ENDBRANCH   1  17
TORSDOF 26
ENDMDL
MODEL 4
REMARK VINA RESULT:     3.709      1.657      2.137
REMARK INTER + INTRA:           7.427
REMARK INTER:                   8.937
REMARK INTRA:                  -1.511
REMARK UNBOUND:                -1.920
REMARK SMILES CCCCCCCCCCCCCCCCCCCCCCCCCCCC(=O)[O-]
REMARK SMILES IDX 15 1 16 2 17 3 18 4 19 5 20 6 21 7 22 8 23 9 24 10 25 11
REMARK SMILES IDX 26 12 27 13 28 14 29 15 30 16 14 17 13 18 12 19 11 20 10 21
REMARK SMILES IDX 9 22 8 23 7 24 6 25 5 26 4 27 3 28 2 29 1 30
REMARK H PARENT
REMARK Flexibility Score: inf
ROOT
ATOM      1  C   UNL     1       0.393  -7.094   1.807  1.00  0.00     0.000 C 
ENDROOT
BRANCH   1   2
ATOM      2  C   UNL     1       1.109  -6.231   2.857  1.00  0.00     0.000 C 
BRANCH   2   3
ATOM      3  C   UNL     1       0.757  -6.623   4.304  1.00  0.00     0.000 C 
BRANCH   3   4
ATOM      4  C   UNL     1      -0.586  -6.069   4.819  1.00  0.00     0.000 C 
BRANCH   4   5
ATOM      5  C   UNL     1      -1.644  -7.161   5.038  1.00  0.00     0.000 C 
BRANCH   5   6
ATOM      6  C   UNL     1      -1.032  -8.555   4.828  1.00  0.00     0.000 C 
BRANCH   6   7
ATOM      7  C   UNL     1      -1.663  -9.319   3.649  1.00  0.00     0.000 C 
BRANCH   7   8
ATOM      8  C   UNL     1      -2.641 -10.442   4.044  1.00  0.00     0.000 C 
BRANCH   8   9
ATOM      9  C   UNL     1      -3.649 -10.848   2.953  1.00  0.00     0.000 C 
BRANCH   9  10
ATOM     10  C   UNL     1      -4.181  -9.646   2.152  1.00  0.00     0.000 C 
BRANCH  10  11
ATOM     11  C   UNL     1      -5.582  -9.916   1.558  1.00  0.00     0.000 C 
BRANCH  11  12
ATOM     12  C   UNL     1      -6.738  -9.533   2.502  1.00  0.00     0.006 C 
BRANCH  12  13
ATOM     13  C   UNL     1      -7.068  -8.033   2.514  1.00  0.00     0.053 C 
BRANCH  13  14
ATOM     14  C   UNL     1      -6.621  -7.373   3.781  1.00  0.00     0.041 C 
ATOM     15  O   UNL     1      -6.913  -6.168   4.004  1.00  0.00    -0.550 OA
ATOM     16  O   UNL     1      -5.906  -8.092   4.732  1.00  0.00    -0.550 OA
ENDBRANCH  13  14
ENDBRANCH  12  13
ENDBRANCH  11  12
ENDBRANCH  10  11
ENDBRANCH   9  10
ENDBRANCH   8   9
ENDBRANCH   7   8
ENDBRANCH   6   7
ENDBRANCH   5   6
ENDBRANCH   4   5
ENDBRANCH   3   4
ENDBRANCH   2   3
ENDBRANCH   1   2
BRANCH   1  17
ATOM     17  C   UNL     1       0.763  -6.657   0.381  1.00  0.00     0.000 C 
BRANCH  17  18
ATOM     18  C   UNL     1       0.579  -5.148   0.152  1.00  0.00     0.000 C 
BRANCH  18  19
ATOM     19  C   UNL     1       0.022  -4.819  -1.243  1.00  0.00     0.000 C 
BRANCH  19  20
ATOM     20  C   UNL     1       1.052  -4.051  -2.082  1.00  0.00     0.000 C 
BRANCH  20  21
ATOM     21  C   UNL     1       0.572  -2.623  -2.376  1.00  0.00     0.000 C 
BRANCH  21  22
ATOM     22  C   UNL     1       1.258  -1.999  -3.605  1.00  0.00    -0.000 C 
BRANCH  22  23
ATOM     23  C   UNL     1       0.355  -1.036  -4.402  1.00  0.00    -0.000 C 
BRANCH  23  24
ATOM     24  C   UNL     1       0.804  -0.884  -5.866  1.00  0.00    -0.000 C 
BRANCH  24  25
ATOM     25  C   UNL     1       0.070   0.261  -6.584  1.00  0.00    -0.000 C 
BRANCH  25  26
ATOM     26  C   UNL     1       0.895   1.561  -6.611  1.00  0.00    -0.000 C 
BRANCH  26  27
ATOM     27  C   UNL     1       0.911   2.279  -5.252  1.00  0.00    -0.000 C 
BRANCH  27  28
ATOM     28  C   UNL     1       0.086   3.579  -5.263  1.00  0.00    -0.000 C 
BRANCH  28  29
ATOM     29  C   UNL     1      -1.380   3.338  -5.645  1.00  0.00    -0.003 C 
ATOM     30  C   UNL     1      -2.052   4.584  -6.222  1.00  0.00     0.004 C 
ENDBRANCH  28  29
ENDBRANCH  27  28
ENDBRANCH  26  27
ENDBRANCH  25  26
ENDBRANCH  24  25
ENDBRANCH  23  24
ENDBRANCH  22  23
ENDBRANCH  21  22
ENDBRANCH  20  21
ENDBRANCH  19  20
ENDBRANCH  18  19
ENDBRANCH  17  18
ENDBRANCH   1  17
TORSDOF 26
ENDMDL
MODEL 5
REMARK VINA RESULT:     3.714      4.002     12.145
REMARK INTER + INTRA:           7.438
REMARK INTER:                   9.081
REMARK INTRA:                  -1.643
REMARK UNBOUND:                -1.920
REMARK SMILES CCCCCCCCCCCCCCCCCCCCCCCCCCCC(=O)[O-]
REMARK SMILES IDX 15 1 16 2 17 3 18 4 19 5 20 6 21 7 22 8 23 9 24 10 25 11
REMARK SMILES IDX 26 12 27 13 28 14 29 15 30 16 14 17 13 18 12 19 11 20 10 21
REMARK SMILES IDX 9 22 8 23 7 24 6 25 5 26 4 27 3 28 2 29 1 30
REMARK H PARENT
REMARK Flexibility Score: inf
ROOT
ATOM      1  C   UNL     1       1.214  -6.379   2.358  1.00  0.00     0.000 C 
ENDROOT
BRANCH   1   2
ATOM      2  C   UNL     1       0.601  -6.314   0.950  1.00  0.00     0.000 C 
BRANCH   2   3
ATOM      3  C   UNL     1       0.806  -4.951   0.264  1.00  0.00     0.000 C 
BRANCH   3   4
ATOM      4  C   UNL     1       0.201  -4.838  -1.149  1.00  0.00     0.000 C 
BRANCH   4   5
ATOM      5  C   UNL     1       1.086  -4.043  -2.121  1.00  0.00     0.000 C 
BRANCH   5   6
ATOM      6  C   UNL     1       0.508  -2.637  -2.350  1.00  0.00     0.000 C 
BRANCH   6   7
ATOM      7  C   UNL     1       1.163  -1.902  -3.534  1.00  0.00     0.000 C 
BRANCH   7   8
ATOM      8  C   UNL     1       0.182  -1.196  -4.491  1.00  0.00     0.000 C 
BRANCH   8   9
ATOM      9  C   UNL     1       0.743  -0.879  -5.889  1.00  0.00     0.000 C 
BRANCH   9  10
ATOM     10  C   UNL     1       0.039   0.313  -6.561  1.00  0.00     0.000 C 
BRANCH  10  11
ATOM     11  C   UNL     1       0.996   1.507  -6.782  1.00  0.00     0.000 C 
BRANCH  11  12
ATOM     12  C   UNL     1       1.177   2.391  -5.534  1.00  0.00     0.006 C 
BRANCH  12  13
ATOM     13  C   UNL     1      -0.135   2.744  -4.817  1.00  0.00     0.053 C 
BRANCH  13  14
ATOM     14  C   UNL     1      -0.807   3.931  -5.437  1.00  0.00     0.041 C 
ATOM     15  O   UNL     1      -1.924   3.800  -6.004  1.00  0.00    -0.550 OA
ATOM     16  O   UNL     1      -0.217   5.187  -5.364  1.00  0.00    -0.550 OA
ENDBRANCH  13  14
ENDBRANCH  12  13
ENDBRANCH  11  12
ENDBRANCH  10  11
ENDBRANCH   9  10
ENDBRANCH   8   9
ENDBRANCH   7   8
ENDBRANCH   6   7
ENDBRANCH   5   6
ENDBRANCH   4   5
ENDBRANCH   3   4
ENDBRANCH   2   3
ENDBRANCH   1   2
BRANCH   1  17
ATOM     17  C   UNL     1       0.460  -5.463   3.335  1.00  0.00     0.000 C 
BRANCH  17  18
ATOM     18  C   UNL     1      -0.049  -6.208   4.580  1.00  0.00     0.000 C 
BRANCH  18  19
ATOM     19  C   UNL     1       0.661  -7.553   4.803  1.00  0.00     0.000 C 
BRANCH  19  20
ATOM     20  C   UNL     1      -0.354  -8.688   4.999  1.00  0.00     0.000 C 
BRANCH  20  21
ATOM     21  C   UNL     1       0.027  -9.919   4.165  1.00  0.00     0.000 C 
BRANCH  21  22
ATOM     22  C   UNL     1      -1.079 -10.344   3.182  1.00  0.00    -0.000 C 
BRANCH  22  23
ATOM     23  C   UNL     1      -2.432 -10.646   3.858  1.00  0.00    -0.000 C 
BRANCH  23  24
ATOM     24  C   UNL     1      -3.539 -10.972   2.840  1.00  0.00    -0.000 C 
BRANCH  24  25
ATOM     25  C   UNL     1      -4.915 -10.454   3.290  1.00  0.00    -0.000 C 
BRANCH  25  26
ATOM     26  C   UNL     1      -5.097  -8.951   3.009  1.00  0.00    -0.000 C 
BRANCH  26  27
ATOM     27  C   UNL     1      -6.552  -8.585   2.672  1.00  0.00    -0.000 C 
BRANCH  27  28
ATOM     28  C   UNL     1      -6.827  -8.596   1.157  1.00  0.00    -0.000 C 
BRANCH  28  29
ATOM     29  C   UNL     1      -5.597  -9.021   0.343  1.00  0.00    -0.003 C 
ATOM     30  C   UNL     1      -5.763 -10.397  -0.302  1.00  0.00     0.004 C 
ENDBRANCH  28  29
ENDBRANCH  27  28
ENDBRANCH  26  27
ENDBRANCH  25  26
ENDBRANCH  24  25
ENDBRANCH  23  24
ENDBRANCH  22  23
ENDBRANCH  21  22
ENDBRANCH  20  21
ENDBRANCH  19  20
ENDBRANCH  18  19
ENDBRANCH  17  18
ENDBRANCH   1  17
TORSDOF 26
ENDMDL
MODEL 6
REMARK VINA RESULT:     3.770      4.035     11.785
REMARK INTER + INTRA:           7.580
REMARK INTER:                   9.101
REMARK INTRA:                  -1.520
REMARK UNBOUND:                -1.920
REMARK SMILES CCCCCCCCCCCCCCCCCCCCCCCCCCCC(=O)[O-]
REMARK SMILES IDX 15 1 16 2 17 3 18 4 19 5 20 6 21 7 22 8 23 9 24 10 25 11
REMARK SMILES IDX 26 12 27 13 28 14 29 15 30 16 14 17 13 18 12 19 11 20 10 21
REMARK SMILES IDX 9 22 8 23 7 24 6 25 5 26 4 27 3 28 2 29 1 30
REMARK H PARENT
REMARK Flexibility Score: inf
ROOT
ATOM      1  C   UNL     1       1.102  -5.872   2.850  1.00  0.00     0.000 C 
ENDROOT
BRANCH   1   2
ATOM      2  C   UNL     1       0.736  -6.247   1.405  1.00  0.00     0.000 C 
BRANCH   2   3
ATOM      3  C   UNL     1       1.063  -5.135   0.390  1.00  0.00     0.000 C 
BRANCH   3   4
ATOM      4  C   UNL     1       0.165  -5.114  -0.861  1.00  0.00     0.000 C 
BRANCH   4   5
ATOM      5  C   UNL     1       0.753  -4.282  -2.011  1.00  0.00     0.000 C 
BRANCH   5   6
ATOM      6  C   UNL     1       0.030  -2.931  -2.123  1.00  0.00     0.000 C 
BRANCH   6   7
ATOM      7  C   UNL     1       0.875  -1.851  -2.824  1.00  0.00     0.000 C 
BRANCH   7   8
ATOM      8  C   UNL     1       0.787  -1.847  -4.363  1.00  0.00     0.000 C 
BRANCH   8   9
ATOM      9  C   UNL     1       0.136  -0.595  -4.979  1.00  0.00     0.000 C 
BRANCH   9  10
ATOM     10  C   UNL     1       0.771  -0.188  -6.321  1.00  0.00     0.000 C 
BRANCH  10  11
ATOM     11  C   UNL     1       0.530   1.303  -6.651  1.00  0.00     0.000 C 
BRANCH  11  12
ATOM     12  C   UNL     1       1.304   2.270  -5.736  1.00  0.00     0.006 C 
BRANCH  12  13
ATOM     13  C   UNL     1       0.423   3.012  -4.719  1.00  0.00     0.053 C 
BRANCH  13  14
ATOM     14  C   UNL     1      -0.526   3.958  -5.387  1.00  0.00     0.041 C 
ATOM     15  O   UNL     1      -0.195   5.158  -5.577  1.00  0.00    -0.550 OA
ATOM     16  O   UNL     1      -1.767   3.511  -5.827  1.00  0.00    -0.550 OA
ENDBRANCH  13  14
ENDBRANCH  12  13
ENDBRANCH  11  12
ENDBRANCH  10  11
ENDBRANCH   9  10
ENDBRANCH   8   9
ENDBRANCH   7   8
ENDBRANCH   6   7
ENDBRANCH   5   6
ENDBRANCH   4   5
ENDBRANCH   3   4
ENDBRANCH   2   3
ENDBRANCH   1   2
BRANCH   1  17
ATOM     17  C   UNL     1       0.781  -7.020   3.820  1.00  0.00     0.000 C 
BRANCH  17  18
ATOM     18  C   UNL     1      -0.639  -6.932   4.400  1.00  0.00     0.000 C 
BRANCH  18  19
ATOM     19  C   UNL     1      -1.362  -8.290   4.418  1.00  0.00     0.000 C 
BRANCH  19  20
ATOM     20  C   UNL     1      -0.805  -9.226   3.338  1.00  0.00     0.000 C 
BRANCH  20  21
ATOM     21  C   UNL     1      -1.681 -10.477   3.186  1.00  0.00     0.000 C 
BRANCH  21  22
ATOM     22  C   UNL     1      -2.892 -10.482   4.137  1.00  0.00    -0.000 C 
BRANCH  22  23
ATOM     23  C   UNL     1      -4.224 -10.844   3.449  1.00  0.00    -0.000 C 
BRANCH  23  24
ATOM     24  C   UNL     1      -4.201 -10.561   1.937  1.00  0.00    -0.000 C 
BRANCH  24  25
ATOM     25  C   UNL     1      -5.483  -9.859   1.457  1.00  0.00    -0.000 C 
BRANCH  25  26
ATOM     26  C   UNL     1      -5.507  -8.364   1.825  1.00  0.00    -0.000 C 
BRANCH  26  27
ATOM     27  C   UNL     1      -5.564  -8.130   3.343  1.00  0.00    -0.000 C 
BRANCH  27  28
ATOM     28  C   UNL     1      -4.760  -6.891   3.779  1.00  0.00    -0.000 C 
BRANCH  28  29
ATOM     29  C   UNL     1      -5.625  -5.625   3.839  1.00  0.00    -0.003 C 
ATOM     30  C   UNL     1      -4.892  -4.385   3.326  1.00  0.00     0.004 C 
ENDBRANCH  28  29
ENDBRANCH  27  28
ENDBRANCH  26  27
ENDBRANCH  25  26
ENDBRANCH  24  25
ENDBRANCH  23  24
ENDBRANCH  22  23
ENDBRANCH  21  22
ENDBRANCH  20  21
ENDBRANCH  19  20
ENDBRANCH  18  19
ENDBRANCH  17  18
ENDBRANCH   1  17
TORSDOF 26
ENDMDL
MODEL 7
REMARK VINA RESULT:     4.104      4.072     11.394
REMARK INTER + INTRA:           8.423
REMARK INTER:                  10.462
REMARK INTRA:                  -2.039
REMARK UNBOUND:                -1.920
REMARK SMILES CCCCCCCCCCCCCCCCCCCCCCCCCCCC(=O)[O-]
REMARK SMILES IDX 15 1 16 2 17 3 18 4 19 5 20 6 21 7 22 8 23 9 24 10 25 11
REMARK SMILES IDX 26 12 27 13 28 14 29 15 30 16 14 17 13 18 12 19 11 20 10 21
REMARK SMILES IDX 9 22 8 23 7 24 6 25 5 26 4 27 3 28 2 29 1 30
REMARK H PARENT
REMARK Flexibility Score: inf
ROOT
ATOM      1  C   UNL     1       0.759  -7.112   4.481  1.00  0.00     0.000 C 
ENDROOT
BRANCH   1   2
ATOM      2  C   UNL     1      -0.029  -6.867   3.184  1.00  0.00     0.000 C 
BRANCH   2   3
ATOM      3  C   UNL     1       0.775  -7.203   1.915  1.00  0.00     0.000 C 
BRANCH   3   4
ATOM      4  C   UNL     1       1.101  -5.997   1.014  1.00  0.00     0.000 C 
BRANCH   4   5
ATOM      5  C   UNL     1       0.073  -5.788  -0.108  1.00  0.00     0.000 C 
BRANCH   5   6
ATOM      6  C   UNL     1       0.685  -4.970  -1.256  1.00  0.00     0.000 C 
BRANCH   6   7
ATOM      7  C   UNL     1      -0.107  -3.689  -1.574  1.00  0.00     0.000 C 
BRANCH   7   8
ATOM      8  C   UNL     1       0.677  -2.607  -2.342  1.00  0.00     0.000 C 
BRANCH   8   9
ATOM      9  C   UNL     1       0.039  -2.151  -3.667  1.00  0.00     0.000 C 
BRANCH   9  10
ATOM     10  C   UNL     1       0.662  -0.856  -4.218  1.00  0.00     0.000 C 
BRANCH  10  11
ATOM     11  C   UNL     1       0.455  -0.713  -5.743  1.00  0.00     0.000 C 
BRANCH  11  12
ATOM     12  C   UNL     1       1.008   0.604  -6.320  1.00  0.00     0.006 C 
BRANCH  12  13
ATOM     13  C   UNL     1      -0.038   1.721  -6.454  1.00  0.00     0.053 C 
BRANCH  13  14
ATOM     14  C   UNL     1       0.252   2.870  -5.538  1.00  0.00     0.041 C 
ATOM     15  O   UNL     1      -0.594   3.793  -5.395  1.00  0.00    -0.550 OA
ATOM     16  O   UNL     1       1.441   2.912  -4.821  1.00  0.00    -0.550 OA
ENDBRANCH  13  14
ENDBRANCH  12  13
ENDBRANCH  11  12
ENDBRANCH  10  11
ENDBRANCH   9  10
ENDBRANCH   8   9
ENDBRANCH   7   8
ENDBRANCH   6   7
ENDBRANCH   5   6
ENDBRANCH   4   5
ENDBRANCH   3   4
ENDBRANCH   2   3
ENDBRANCH   1   2
BRANCH   1  17
ATOM     17  C   UNL     1       0.970  -8.614   4.728  1.00  0.00     0.000 C 
BRANCH  17  18
ATOM     18  C   UNL     1      -0.350  -9.394   4.831  1.00  0.00     0.000 C 
BRANCH  18  19
ATOM     19  C   UNL     1      -0.451 -10.535   3.805  1.00  0.00     0.000 C 
BRANCH  19  20
ATOM     20  C   UNL     1      -1.619 -10.304   2.836  1.00  0.00     0.000 C 
BRANCH  20  21
ATOM     21  C   UNL     1      -2.895  -9.911   3.592  1.00  0.00     0.000 C 
BRANCH  21  22
ATOM     22  C   UNL     1      -3.742  -8.868   2.839  1.00  0.00    -0.000 C 
BRANCH  22  23
ATOM     23  C   UNL     1      -4.526  -9.448   1.644  1.00  0.00    -0.000 C 
BRANCH  23  24
ATOM     24  C   UNL     1      -6.033  -9.147   1.728  1.00  0.00    -0.000 C 
BRANCH  24  25
ATOM     25  C   UNL     1      -6.705  -9.865   2.911  1.00  0.00    -0.000 C 
BRANCH  25  26
ATOM     26  C   UNL     1      -6.747  -8.992   4.179  1.00  0.00    -0.000 C 
BRANCH  26  27
ATOM     27  C   UNL     1      -7.125  -7.532   3.878  1.00  0.00    -0.000 C 
BRANCH  27  28
ATOM     28  C   UNL     1      -6.433  -6.537   4.828  1.00  0.00    -0.000 C 
BRANCH  28  29
ATOM     29  C   UNL     1      -6.079  -5.216   4.132  1.00  0.00    -0.003 C 
ATOM     30  C   UNL     1      -4.679  -5.229   3.518  1.00  0.00     0.004 C 
ENDBRANCH  28  29
ENDBRANCH  27  28
ENDBRANCH  26  27
ENDBRANCH  25  26
ENDBRANCH  24  25
ENDBRANCH  23  24
ENDBRANCH  22  23
ENDBRANCH  21  22
ENDBRANCH  20  21
ENDBRANCH  19  20
ENDBRANCH  18  19
ENDBRANCH  17  18
ENDBRANCH   1  17
TORSDOF 26
ENDMDL
MODEL 8
REMARK VINA RESULT:     4.419      1.891      2.825
REMARK INTER + INTRA:           9.215
REMARK INTER:                  10.666
REMARK INTRA:                  -1.451
REMARK UNBOUND:                -1.920
REMARK SMILES CCCCCCCCCCCCCCCCCCCCCCCCCCCC(=O)[O-]
REMARK SMILES IDX 15 1 16 2 17 3 18 4 19 5 20 6 21 7 22 8 23 9 24 10 25 11
REMARK SMILES IDX 26 12 27 13 28 14 29 15 30 16 14 17 13 18 12 19 11 20 10 21
REMARK SMILES IDX 9 22 8 23 7 24 6 25 5 26 4 27 3 28 2 29 1 30
REMARK H PARENT
REMARK Flexibility Score: inf
ROOT
ATOM      1  C   UNL     1       1.010  -6.331   1.478  1.00  0.00     0.000 C 
ENDROOT
BRANCH   1   2
ATOM      2  C   UNL     1       1.105  -5.840   2.932  1.00  0.00     0.000 C 
BRANCH   2   3
ATOM      3  C   UNL     1       0.626  -6.886   3.955  1.00  0.00     0.000 C 
BRANCH   3   4
ATOM      4  C   UNL     1      -0.475  -6.398   4.916  1.00  0.00     0.000 C 
BRANCH   4   5
ATOM      5  C   UNL     1      -1.689  -7.338   4.968  1.00  0.00     0.000 C 
BRANCH   5   6
ATOM      6  C   UNL     1      -1.477  -8.545   4.041  1.00  0.00     0.000 C 
BRANCH   6   7
ATOM      7  C   UNL     1      -2.532  -9.649   4.239  1.00  0.00     0.000 C 
BRANCH   7   8
ATOM      8  C   UNL     1      -2.609 -10.692   3.106  1.00  0.00     0.000 C 
BRANCH   8   9
ATOM      9  C   UNL     1      -3.891 -10.642   2.255  1.00  0.00     0.000 C 
BRANCH   9  10
ATOM     10  C   UNL     1      -4.587  -9.270   2.300  1.00  0.00     0.000 C 
BRANCH  10  11
ATOM     11  C   UNL     1      -6.039  -9.370   2.822  1.00  0.00     0.000 C 
BRANCH  11  12
ATOM     12  C   UNL     1      -6.790  -8.026   2.818  1.00  0.00     0.006 C 
BRANCH  12  13
ATOM     13  C   UNL     1      -6.649  -7.222   4.119  1.00  0.00     0.053 C 
BRANCH  13  14
ATOM     14  C   UNL     1      -6.022  -5.882   3.883  1.00  0.00     0.041 C 
ATOM     15  O   UNL     1      -6.658  -4.830   4.155  1.00  0.00    -0.550 OA
ATOM     16  O   UNL     1      -4.726  -5.792   3.388  1.00  0.00    -0.550 OA
ENDBRANCH  13  14
ENDBRANCH  12  13
ENDBRANCH  11  12
ENDBRANCH  10  11
ENDBRANCH   9  10
ENDBRANCH   8   9
ENDBRANCH   7   8
ENDBRANCH   6   7
ENDBRANCH   5   6
ENDBRANCH   4   5
ENDBRANCH   3   4
ENDBRANCH   2   3
ENDBRANCH   1   2
BRANCH   1  17
ATOM     17  C   UNL     1       0.789  -5.159   0.509  1.00  0.00     0.000 C 
BRANCH  17  18
ATOM     18  C   UNL     1       0.401  -5.619  -0.906  1.00  0.00     0.000 C 
BRANCH  18  19
ATOM     19  C   UNL     1      -0.321  -4.527  -1.712  1.00  0.00     0.000 C 
BRANCH  19  20
ATOM     20  C   UNL     1       0.466  -3.209  -1.685  1.00  0.00     0.000 C 
BRANCH  20  21
ATOM     21  C   UNL     1       0.097  -2.321  -2.881  1.00  0.00     0.000 C 
BRANCH  21  22
ATOM     22  C   UNL     1       0.590  -0.870  -2.727  1.00  0.00    -0.000 C 
BRANCH  22  23
ATOM     23  C   UNL     1      -0.548   0.166  -2.627  1.00  0.00    -0.000 C 
BRANCH  23  24
ATOM     24  C   UNL     1      -0.037   1.613  -2.744  1.00  0.00    -0.000 C 
BRANCH  24  25
ATOM     25  C   UNL     1       1.154   1.733  -3.712  1.00  0.00    -0.000 C 
BRANCH  25  26
ATOM     26  C   UNL     1       1.115   3.037  -4.530  1.00  0.00    -0.000 C 
BRANCH  26  27
ATOM     27  C   UNL     1      -0.213   3.223  -5.282  1.00  0.00    -0.000 C 
BRANCH  27  28
ATOM     28  C   UNL     1      -0.329   2.302  -6.511  1.00  0.00    -0.000 C 
BRANCH  28  29
ATOM     29  C   UNL     1       0.872   1.357  -6.649  1.00  0.00    -0.003 C 
ATOM     30  C   UNL     1       0.469  -0.117  -6.618  1.00  0.00     0.004 C 
ENDBRANCH  28  29
ENDBRANCH  27  28
ENDBRANCH  26  27
ENDBRANCH  25  26
ENDBRANCH  24  25
ENDBRANCH  23  24
ENDBRANCH  22  23
ENDBRANCH  21  22
ENDBRANCH  20  21
ENDBRANCH  19  20
ENDBRANCH  18  19
ENDBRANCH  17  18
ENDBRANCH   1  17
TORSDOF 26
ENDMDL
