MODEL 1
REMARK VINA RESULT:     1.992      0.000      0.000
REMARK INTER + INTRA:           2.417
REMARK INTER:                   2.691
REMARK INTRA:                  -0.275
REMARK UNBOUND:                -0.275
REMARK SMILES CC[C@H](CC[C@H](C)[C@H]1CC[C@H]2[C@H]3CC(=O)C4=CC(=O)CC[C@@]4(C)[C@H]3CC[C@]12C)C(C)C
REMARK SMILES IDX 4 1 3 2 2 3 1 4 29 5 30 6 31 7 5 8 6 9 7 10 8 11 9 12 27 13
REMARK SMILES IDX 10 14 11 15 26 16 28 17 12 18 25 19 24 20 13 21 22 22 14 23
REMARK SMILES IDX 16 24 21 25 23 26 15 27 17 28 20 29 18 30 19 31
REMARK H PARENT
REMARK Flexibility Score: inf
ROOT
ATOM      1  C   UNL     1      -7.614   9.875 -35.977  1.00  0.00     0.004 C 
ENDROOT
BRANCH   1   2
ATOM      2  C   UNL     1      -8.408  11.141 -36.405  1.00  0.00    -0.009 C 
BRANCH   2   3
ATOM      3  C   UNL     1      -9.674  11.401 -35.538  1.00  0.00     0.000 C 
ATOM      4  C   UNL     1     -10.247  10.191 -34.800  1.00  0.00     0.004 C 
ENDBRANCH   2   3
BRANCH   2   5
ATOM      5  C   UNL     1      -7.470  12.376 -36.637  1.00  0.00    -0.014 C 
ATOM      6  C   UNL     1      -7.313  12.729 -38.124  1.00  0.00     0.007 C 
ATOM      7  C   UNL     1      -7.818  13.634 -35.819  1.00  0.00     0.007 C 
ENDBRANCH   2   5
ENDBRANCH   1   2
BRANCH   1   8
ATOM      8  C   UNL     1      -6.104  10.122 -35.721  1.00  0.00     0.004 C 
BRANCH   8   9
ATOM      9  C   UNL     1      -5.723  10.087 -34.210  1.00  0.00    -0.011 C 
ATOM     10  C   UNL     1      -6.976   9.877 -33.341  1.00  0.00     0.008 C 
BRANCH   9  11
ATOM     11  C   UNL     1      -4.835  11.263 -33.664  1.00  0.00    -0.002 C 
ATOM     12  C   UNL     1      -5.231  12.666 -34.203  1.00  0.00     0.005 C 
ATOM     13  C   UNL     1      -4.578  11.467 -32.136  1.00  0.00    -0.026 C 
ATOM     14  C   UNL     1      -4.819  13.689 -33.134  1.00  0.00     0.005 C 
ATOM     15  C   UNL     1      -3.972  12.883 -32.160  1.00  0.00    -0.001 C 
ATOM     16  C   UNL     1      -3.503  10.543 -31.517  1.00  0.00     0.007 C 
ATOM     17  C   UNL     1      -5.893  11.361 -31.322  1.00  0.00     0.012 C 
ATOM     18  C   UNL     1      -3.582  13.493 -30.793  1.00  0.00     0.004 C 
ATOM     19  C   UNL     1      -3.084  11.016 -30.106  1.00  0.00     0.005 C 
ATOM     20  C   UNL     1      -2.624  12.508 -30.029  1.00  0.00     0.003 C 
ATOM     21  C   UNL     1      -4.759  14.112 -29.973  1.00  0.00     0.085 C 
ATOM     22  C   UNL     1      -2.347  12.981 -28.559  1.00  0.00    -0.000 C 
ATOM     23  C   UNL     1      -4.809  13.757 -28.509  1.00  0.00     0.159 C 
ATOM     24  C   UNL     1      -3.689  13.059 -27.833  1.00  0.00     0.005 C 
ATOM     25  C   UNL     1      -1.286  12.057 -27.843  1.00  0.00     0.020 C 
ATOM     26  C   UNL     1      -1.731  14.409 -28.572  1.00  0.00     0.017 C 
ATOM     27  O   UNL     1      -5.842  14.074 -27.858  1.00  0.00    -0.295 OA
ATOM     28  C   UNL     1      -3.891  12.492 -26.630  1.00  0.00     0.055 C 
ATOM     29  C   UNL     1      -1.874  10.973 -26.936  1.00  0.00     0.081 C 
ATOM     30  C   UNL     1      -2.916  11.567 -26.053  1.00  0.00     0.156 C 
ATOM     31  O   UNL     1      -3.027  11.195 -24.855  1.00  0.00    -0.295 OA
ENDBRANCH   9  11
ENDBRANCH   8   9
ENDBRANCH   1   8
TORSDOF 6
ENDMDL
MODEL 2
REMARK VINA RESULT:     2.972      1.894      3.253
REMARK INTER + INTRA:           3.740
REMARK INTER:                   3.557
REMARK INTRA:                   0.183
REMARK UNBOUND:                -0.275
REMARK SMILES CC[C@H](CC[C@H](C)[C@H]1CC[C@H]2[C@H]3CC(=O)C4=CC(=O)CC[C@@]4(C)[C@H]3CC[C@]12C)C(C)C
REMARK SMILES IDX 4 1 3 2 2 3 1 4 29 5 30 6 31 7 5 8 6 9 7 10 8 11 9 12 27 13
REMARK SMILES IDX 10 14 11 15 26 16 28 17 12 18 25 19 24 20 13 21 22 22 14 23
REMARK SMILES IDX 16 24 21 25 23 26 15 27 17 28 20 29 18 30 19 31
REMARK H PARENT
REMARK Flexibility Score: inf
ROOT
ATOM      1  C   UNL     1      -8.427  12.787 -35.233  1.00  0.00     0.004 C 
ENDROOT
BRANCH   1   2
ATOM      2  C   UNL     1      -8.240  11.364 -35.830  1.00  0.00    -0.009 C 
BRANCH   2   3
ATOM      3  C   UNL     1      -8.865  10.238 -34.956  1.00  0.00     0.000 C 
ATOM      4  C   UNL     1     -10.389  10.253 -34.824  1.00  0.00     0.004 C 
ENDBRANCH   2   3
BRANCH   2   5
ATOM      5  C   UNL     1      -8.584  11.315 -37.359  1.00  0.00    -0.014 C 
ATOM      6  C   UNL     1      -8.230  12.621 -38.088  1.00  0.00     0.007 C 
ATOM      7  C   UNL     1      -8.023  10.102 -38.125  1.00  0.00     0.007 C 
ENDBRANCH   2   5
ENDBRANCH   1   2
BRANCH   1   8
ATOM      8  C   UNL     1      -7.146  13.662 -35.249  1.00  0.00     0.004 C 
BRANCH   8   9
ATOM      9  C   UNL     1      -5.841  12.844 -35.004  1.00  0.00    -0.011 C 
ATOM     10  C   UNL     1      -5.500  11.988 -36.237  1.00  0.00     0.008 C 
BRANCH   9  11
ATOM     11  C   UNL     1      -5.756  12.004 -33.678  1.00  0.00    -0.002 C 
ATOM     12  C   UNL     1      -5.689  10.467 -33.899  1.00  0.00     0.005 C 
ATOM     13  C   UNL     1      -4.694  12.308 -32.572  1.00  0.00    -0.026 C 
ATOM     14  C   UNL     1      -4.935   9.875 -32.699  1.00  0.00     0.005 C 
ATOM     15  C   UNL     1      -4.836  11.034 -31.718  1.00  0.00    -0.001 C 
ATOM     16  C   UNL     1      -5.029  13.496 -31.642  1.00  0.00     0.007 C 
ATOM     17  C   UNL     1      -3.281  12.500 -33.183  1.00  0.00     0.012 C 
ATOM     18  C   UNL     1      -3.909  10.920 -30.485  1.00  0.00     0.004 C 
ATOM     19  C   UNL     1      -4.109  13.529 -30.399  1.00  0.00     0.005 C 
ATOM     20  C   UNL     1      -4.071  12.197 -29.583  1.00  0.00     0.003 C 
ATOM     21  C   UNL     1      -2.450  10.445 -30.782  1.00  0.00     0.085 C 
ATOM     22  C   UNL     1      -3.020  12.231 -28.418  1.00  0.00    -0.000 C 
ATOM     23  C   UNL     1      -1.349  11.221 -30.108  1.00  0.00     0.159 C 
ATOM     24  C   UNL     1      -1.627  12.219 -29.047  1.00  0.00     0.005 C 
ATOM     25  C   UNL     1      -3.272  13.447 -27.445  1.00  0.00     0.020 C 
ATOM     26  C   UNL     1      -3.158  10.950 -27.547  1.00  0.00     0.017 C 
ATOM     27  O   UNL     1      -0.160  10.998 -30.469  1.00  0.00    -0.295 OA
ATOM     28  C   UNL     1      -0.672  13.098 -28.695  1.00  0.00     0.055 C 
ATOM     29  C   UNL     1      -2.399  14.679 -27.704  1.00  0.00     0.081 C 
ATOM     30  C   UNL     1      -0.979  14.263 -27.867  1.00  0.00     0.156 C 
ATOM     31  O   UNL     1      -0.048  14.966 -27.392  1.00  0.00    -0.295 OA
ENDBRANCH   9  11
ENDBRANCH   8   9
ENDBRANCH   1   8
TORSDOF 6
ENDMDL
MODEL 3
REMARK VINA RESULT:     3.766      1.658      2.724
REMARK INTER + INTRA:           4.813
REMARK INTER:                   5.395
REMARK INTRA:                  -0.583
REMARK UNBOUND:                -0.275
REMARK SMILES CC[C@H](CC[C@H](C)[C@H]1CC[C@H]2[C@H]3CC(=O)C4=CC(=O)CC[C@@]4(C)[C@H]3CC[C@]12C)C(C)C
REMARK SMILES IDX 4 1 3 2 2 3 1 4 29 5 30 6 31 7 5 8 6 9 7 10 8 11 9 12 27 13
REMARK SMILES IDX 10 14 11 15 26 16 28 17 12 18 25 19 24 20 13 21 22 22 14 23
REMARK SMILES IDX 16 24 21 25 23 26 15 27 17 28 20 29 18 30 19 31
REMARK H PARENT
REMARK Flexibility Score: inf
ROOT
ATOM      1  C   UNL     1      -8.030   9.960 -34.291  1.00  0.00     0.004 C 
ENDROOT
BRANCH   1   2
ATOM      2  C   UNL     1      -8.790  10.283 -35.607  1.00  0.00    -0.009 C 
BRANCH   2   3
ATOM      3  C   UNL     1     -10.289  10.637 -35.387  1.00  0.00     0.000 C 
ATOM      4  C   UNL     1     -10.874  10.275 -34.020  1.00  0.00     0.004 C 
ENDBRANCH   2   3
BRANCH   2   5
ATOM      5  C   UNL     1      -7.984  11.261 -36.529  1.00  0.00    -0.014 C 
ATOM      6  C   UNL     1      -8.374  11.138 -38.010  1.00  0.00     0.007 C 
ATOM      7  C   UNL     1      -7.990  12.738 -36.092  1.00  0.00     0.007 C 
ENDBRANCH   2   5
ENDBRANCH   1   2
BRANCH   1   8
ATOM      8  C   UNL     1      -6.488   9.878 -34.444  1.00  0.00     0.004 C 
BRANCH   8   9
ATOM      9  C   UNL     1      -5.728  10.919 -33.566  1.00  0.00    -0.011 C 
ATOM     10  C   UNL     1      -5.099  12.014 -34.446  1.00  0.00     0.008 C 
BRANCH   9  11
ATOM     11  C   UNL     1      -4.699  10.361 -32.517  1.00  0.00    -0.002 C 
ATOM     12  C   UNL     1      -3.356   9.880 -33.134  1.00  0.00     0.005 C 
ATOM     13  C   UNL     1      -4.299  11.167 -31.239  1.00  0.00    -0.026 C 
ATOM     14  C   UNL     1      -2.281  10.044 -32.049  1.00  0.00     0.005 C 
ATOM     15  C   UNL     1      -3.075  10.348 -30.788  1.00  0.00    -0.001 C 
ATOM     16  C   UNL     1      -5.316  11.108 -30.075  1.00  0.00     0.007 C 
ATOM     17  C   UNL     1      -3.976  12.644 -31.580  1.00  0.00     0.012 C 
ATOM     18  C   UNL     1      -2.341  10.843 -29.519  1.00  0.00     0.004 C 
ATOM     19  C   UNL     1      -4.713  11.650 -28.759  1.00  0.00     0.005 C 
ATOM     20  C   UNL     1      -3.366  10.979 -28.335  1.00  0.00     0.003 C 
ATOM     21  C   UNL     1      -1.349  12.032 -29.736  1.00  0.00     0.085 C 
ATOM     22  C   UNL     1      -2.722  11.658 -27.075  1.00  0.00    -0.000 C 
ATOM     23  C   UNL     1      -1.431  13.156 -28.736  1.00  0.00     0.159 C 
ATOM     24  C   UNL     1      -2.231  13.044 -27.492  1.00  0.00     0.005 C 
ATOM     25  C   UNL     1      -3.719  11.675 -25.852  1.00  0.00     0.020 C 
ATOM     26  C   UNL     1      -1.486  10.837 -26.609  1.00  0.00     0.017 C 
ATOM     27  O   UNL     1      -0.791  14.215 -28.982  1.00  0.00    -0.295 OA
ATOM     28  C   UNL     1      -2.527  14.153 -26.792  1.00  0.00     0.055 C 
ATOM     29  C   UNL     1      -4.479  12.989 -25.650  1.00  0.00     0.081 C 
ATOM     30  C   UNL     1      -3.531  14.135 -25.728  1.00  0.00     0.156 C 
ATOM     31  O   UNL     1      -3.660  15.125 -24.961  1.00  0.00    -0.295 OA
ENDBRANCH   9  11
ENDBRANCH   8   9
ENDBRANCH   1   8
TORSDOF 6
ENDMDL
MODEL 4
REMARK VINA RESULT:     4.160      1.275      2.382
REMARK INTER + INTRA:           5.345
REMARK INTER:                   5.182
REMARK INTRA:                   0.162
REMARK UNBOUND:                -0.275
REMARK SMILES CC[C@H](CC[C@H](C)[C@H]1CC[C@H]2[C@H]3CC(=O)C4=CC(=O)CC[C@@]4(C)[C@H]3CC[C@]12C)C(C)C
REMARK SMILES IDX 4 1 3 2 2 3 1 4 29 5 30 6 31 7 5 8 6 9 7 10 8 11 9 12 27 13
REMARK SMILES IDX 10 14 11 15 26 16 28 17 12 18 25 19 24 20 13 21 22 22 14 23
REMARK SMILES IDX 16 24 21 25 23 26 15 27 17 28 20 29 18 30 19 31
REMARK H PARENT
REMARK Flexibility Score: inf
ROOT
ATOM      1  C   UNL     1      -7.512  12.215 -36.101  1.00  0.00     0.004 C 
ENDROOT
BRANCH   1   2
ATOM      2  C   UNL     1      -8.267  10.943 -36.581  1.00  0.00    -0.009 C 
BRANCH   2   3
ATOM      3  C   UNL     1      -7.450  10.080 -37.586  1.00  0.00     0.000 C 
ATOM      4  C   UNL     1      -6.101  10.651 -38.024  1.00  0.00     0.004 C 
ENDBRANCH   2   3
BRANCH   2   5
ATOM      5  C   UNL     1      -8.931  10.167 -35.392  1.00  0.00    -0.014 C 
ATOM      6  C   UNL     1      -7.945   9.876 -34.250  1.00  0.00     0.007 C 
ATOM      7  C   UNL     1     -10.227  10.789 -34.838  1.00  0.00     0.007 C 
ENDBRANCH   2   5
ENDBRANCH   1   2
BRANCH   1   8
ATOM      8  C   UNL     1      -6.310  11.931 -35.163  1.00  0.00     0.004 C 
BRANCH   8   9
ATOM      9  C   UNL     1      -6.166  12.978 -34.016  1.00  0.00    -0.011 C 
ATOM     10  C   UNL     1      -6.806  14.317 -34.422  1.00  0.00     0.008 C 
BRANCH   9  11
ATOM     11  C   UNL     1      -4.732  13.185 -33.407  1.00  0.00    -0.002 C 
ATOM     12  C   UNL     1      -4.082  14.553 -33.756  1.00  0.00     0.005 C 
ATOM     13  C   UNL     1      -4.437  12.965 -31.888  1.00  0.00    -0.026 C 
ATOM     14  C   UNL     1      -3.116  14.895 -32.611  1.00  0.00     0.005 C 
ATOM     15  C   UNL     1      -3.042  13.612 -31.797  1.00  0.00    -0.001 C 
ATOM     16  C   UNL     1      -4.263  11.491 -31.455  1.00  0.00     0.007 C 
ATOM     17  C   UNL     1      -5.507  13.651 -30.999  1.00  0.00     0.012 C 
ATOM     18  C   UNL     1      -2.375  13.625 -30.402  1.00  0.00     0.004 C 
ATOM     19  C   UNL     1      -3.666  11.378 -30.033  1.00  0.00     0.005 C 
ATOM     20  C   UNL     1      -2.332  12.164 -29.823  1.00  0.00     0.003 C 
ATOM     21  C   UNL     1      -2.858  14.754 -29.436  1.00  0.00     0.085 C 
ATOM     22  C   UNL     1      -1.841  12.136 -28.333  1.00  0.00    -0.000 C 
ATOM     23  C   UNL     1      -3.163  14.333 -28.021  1.00  0.00     0.159 C 
ATOM     24  C   UNL     1      -2.806  12.988 -27.509  1.00  0.00     0.005 C 
ATOM     25  C   UNL     1      -1.680  10.659 -27.803  1.00  0.00     0.020 C 
ATOM     26  C   UNL     1      -0.431  12.784 -28.231  1.00  0.00     0.017 C 
ATOM     27  O   UNL     1      -3.736  15.165 -27.266  1.00  0.00    -0.295 OA
ATOM     28  C   UNL     1      -3.359  12.545 -26.365  1.00  0.00     0.055 C 
ATOM     29  C   UNL     1      -2.860  10.129 -26.983  1.00  0.00     0.081 C 
ATOM     30  C   UNL     1      -3.261  11.142 -25.967  1.00  0.00     0.156 C 
ATOM     31  O   UNL     1      -3.616  10.784 -24.813  1.00  0.00    -0.295 OA
ENDBRANCH   9  11
ENDBRANCH   8   9
ENDBRANCH   1   8
TORSDOF 6
ENDMDL
