MODEL 1
REMARK VINA RESULT:    -2.560      0.000      0.000
REMARK INTER + INTRA:          -3.130
REMARK INTER:                  -3.009
REMARK INTRA:                  -0.121
REMARK UNBOUND:                -0.121
REMARK SMILES O=C([O-])CCC(=O)[O-]
REMARK SMILES IDX 4 1 2 2 1 3 3 4 5 5 6 6 7 7 8 8
REMARK H PARENT
REMARK Flexibility Score: inf
ROOT
ATOM      1  C   UNL     1      61.817  31.641  59.962  1.00  0.00     0.059 C 
ENDROOT
BRANCH   1   2
ATOM      2  C   UNL     1      61.563  30.758  61.146  1.00  0.00     0.042 C 
ATOM      3  O   UNL     1      60.508  30.890  61.820  1.00  0.00    -0.550 OA
ATOM      4  O   UNL     1      62.512  29.818  61.528  1.00  0.00    -0.550 OA
ENDBRANCH   1   2
BRANCH   1   5
ATOM      5  C   UNL     1      62.263  33.044  60.390  1.00  0.00     0.059 C 
BRANCH   5   6
ATOM      6  C   UNL     1      63.755  33.145  60.485  1.00  0.00     0.042 C 
ATOM      7  O   UNL     1      64.485  32.290  59.916  1.00  0.00    -0.550 OA
ATOM      8  O   UNL     1      64.337  34.156  61.237  1.00  0.00    -0.550 OA
ENDBRANCH   5   6
ENDBRANCH   1   5
TORSDOF 3
ENDMDL
MODEL 2
REMARK VINA RESULT:    -2.554     16.648     17.744
REMARK INTER + INTRA:          -3.123
REMARK INTER:                  -3.008
REMARK INTRA:                  -0.115
REMARK UNBOUND:                -0.121
REMARK SMILES O=C([O-])CCC(=O)[O-]
REMARK SMILES IDX 4 1 2 2 1 3 3 4 5 5 6 6 7 7 8 8
REMARK H PARENT
REMARK Flexibility Score: inf
ROOT
ATOM      1  C   UNL     1      56.524  18.572  50.291  1.00  0.00     0.059 C 
ENDROOT
BRANCH   1   2
ATOM      2  C   UNL     1      56.257  19.451  51.475  1.00  0.00     0.042 C 
ATOM      3  O   UNL     1      55.074  19.736  51.798  1.00  0.00    -0.550 OA
ATOM      4  O   UNL     1      57.317  19.988  52.195  1.00  0.00    -0.550 OA
ENDBRANCH   1   2
BRANCH   1   5
ATOM      5  C   UNL     1      57.843  17.806  50.442  1.00  0.00     0.059 C 
BRANCH   5   6
ATOM      6  C   UNL     1      58.810  18.150  49.351  1.00  0.00     0.042 C 
ATOM      7  O   UNL     1      59.342  19.291  49.314  1.00  0.00    -0.550 OA
ATOM      8  O   UNL     1      59.091  17.226  48.353  1.00  0.00    -0.550 OA
ENDBRANCH   5   6
ENDBRANCH   1   5
TORSDOF 3
ENDMDL
MODEL 3
REMARK VINA RESULT:    -2.543      0.335      3.824
REMARK INTER + INTRA:          -3.111
REMARK INTER:                  -3.005
REMARK INTRA:                  -0.106
REMARK UNBOUND:                -0.121
REMARK SMILES O=C([O-])CCC(=O)[O-]
REMARK SMILES IDX 4 1 2 2 1 3 3 4 5 5 6 6 7 7 8 8
REMARK H PARENT
REMARK Flexibility Score: inf
ROOT
ATOM      1  C   UNL     1      62.292  32.732  60.355  1.00  0.00     0.059 C 
ENDROOT
BRANCH   1   2
ATOM      2  C   UNL     1      63.775  32.860  60.525  1.00  0.00     0.042 C 
ATOM      3  O   UNL     1      64.535  31.916  60.187  1.00  0.00    -0.550 OA
ATOM      4  O   UNL     1      64.312  34.007  61.095  1.00  0.00    -0.550 OA
ENDBRANCH   1   2
BRANCH   1   5
ATOM      5  C   UNL     1      61.885  31.296  60.004  1.00  0.00     0.059 C 
BRANCH   5   6
ATOM      6  C   UNL     1      61.485  30.522  61.223  1.00  0.00     0.042 C 
ATOM      7  O   UNL     1      60.501  30.895  61.915  1.00  0.00    -0.550 OA
ATOM      8  O   UNL     1      62.224  29.414  61.618  1.00  0.00    -0.550 OA
ENDBRANCH   5   6
ENDBRANCH   1   5
TORSDOF 3
ENDMDL
MODEL 4
REMARK VINA RESULT:    -2.536      1.534      4.042
REMARK INTER + INTRA:          -3.102
REMARK INTER:                  -3.073
REMARK INTRA:                  -0.029
REMARK UNBOUND:                -0.121
REMARK SMILES O=C([O-])CCC(=O)[O-]
REMARK SMILES IDX 4 1 2 2 1 3 3 4 5 5 6 6 7 7 8 8
REMARK H PARENT
REMARK Flexibility Score: inf
ROOT
ATOM      1  C   UNL     1      61.666  33.731  60.147  1.00  0.00     0.059 C 
ENDROOT
BRANCH   1   2
ATOM      2  C   UNL     1      62.620  34.773  60.646  1.00  0.00     0.042 C 
ATOM      3  O   UNL     1      62.205  35.927  60.933  1.00  0.00    -0.550 OA
ATOM      4  O   UNL     1      63.974  34.481  60.754  1.00  0.00    -0.550 OA
ENDBRANCH   1   2
BRANCH   1   5
ATOM      5  C   UNL     1      62.153  32.316  60.474  1.00  0.00     0.059 C 
BRANCH   5   6
ATOM      6  C   UNL     1      61.011  31.355  60.609  1.00  0.00     0.042 C 
ATOM      7  O   UNL     1      60.286  31.090  59.614  1.00  0.00    -0.550 OA
ATOM      8  O   UNL     1      60.722  30.788  61.843  1.00  0.00    -0.550 OA
ENDBRANCH   5   6
ENDBRANCH   1   5
TORSDOF 3
ENDMDL
MODEL 5
REMARK VINA RESULT:    -2.536     16.676     17.901
REMARK INTER + INTRA:          -3.102
REMARK INTER:                  -3.003
REMARK INTRA:                  -0.099
REMARK UNBOUND:                -0.121
REMARK SMILES O=C([O-])CCC(=O)[O-]
REMARK SMILES IDX 4 1 2 2 1 3 3 4 5 5 6 6 7 7 8 8
REMARK H PARENT
REMARK Flexibility Score: inf
ROOT
ATOM      1  C   UNL     1      57.725  17.910  50.415  1.00  0.00     0.059 C 
ENDROOT
BRANCH   1   2
ATOM      2  C   UNL     1      58.754  18.229  49.373  1.00  0.00     0.042 C 
ATOM      3  O   UNL     1      59.322  19.352  49.368  1.00  0.00    -0.550 OA
ATOM      4  O   UNL     1      59.054  17.300  48.385  1.00  0.00    -0.550 OA
ENDBRANCH   1   2
BRANCH   1   5
ATOM      5  C   UNL     1      56.430  18.699  50.190  1.00  0.00     0.059 C 
BRANCH   5   6
ATOM      6  C   UNL     1      56.053  19.499  51.400  1.00  0.00     0.042 C 
ATOM      7  O   UNL     1      56.928  19.809  52.251  1.00  0.00    -0.550 OA
ATOM      8  O   UNL     1      54.730  19.865  51.607  1.00  0.00    -0.550 OA
ENDBRANCH   5   6
ENDBRANCH   1   5
TORSDOF 3
ENDMDL
MODEL 6
REMARK VINA RESULT:    -2.486      1.506      2.080
REMARK INTER + INTRA:          -3.043
REMARK INTER:                  -3.012
REMARK INTRA:                  -0.031
REMARK UNBOUND:                -0.121
REMARK SMILES O=C([O-])CCC(=O)[O-]
REMARK SMILES IDX 4 1 2 2 1 3 3 4 5 5 6 6 7 7 8 8
REMARK H PARENT
REMARK Flexibility Score: inf
ROOT
ATOM      1  C   UNL     1      62.190  32.303  60.441  1.00  0.00     0.059 C 
ENDROOT
BRANCH   1   2
ATOM      2  C   UNL     1      61.005  31.388  60.506  1.00  0.00     0.042 C 
ATOM      3  O   UNL     1      60.323  31.161  59.472  1.00  0.00    -0.550 OA
ATOM      4  O   UNL     1      60.631  30.819  61.717  1.00  0.00    -0.550 OA
ENDBRANCH   1   2
BRANCH   1   5
ATOM      5  C   UNL     1      61.770  33.754  60.180  1.00  0.00     0.059 C 
BRANCH   5   6
ATOM      6  C   UNL     1      62.783  34.726  60.702  1.00  0.00     0.042 C 
ATOM      7  O   UNL     1      62.501  35.950  60.789  1.00  0.00    -0.550 OA
ATOM      8  O   UNL     1      64.053  34.285  61.052  1.00  0.00    -0.550 OA
ENDBRANCH   5   6
ENDBRANCH   1   5
TORSDOF 3
ENDMDL
MODEL 7
REMARK VINA RESULT:    -2.479     12.219     12.867
REMARK INTER + INTRA:          -3.035
REMARK INTER:                  -2.912
REMARK INTRA:                  -0.123
REMARK UNBOUND:                -0.121
REMARK SMILES O=C([O-])CCC(=O)[O-]
REMARK SMILES IDX 4 1 2 2 1 3 3 4 5 5 6 6 7 7 8 8
REMARK H PARENT
REMARK Flexibility Score: inf
ROOT
ATOM      1  C   UNL     1      56.938  28.065  50.189  1.00  0.00     0.059 C 
ENDROOT
BRANCH   1   2
ATOM      2  C   UNL     1      56.737  26.582  50.108  1.00  0.00     0.042 C 
ATOM      3  O   UNL     1      57.527  25.802  50.701  1.00  0.00    -0.550 OA
ATOM      4  O   UNL     1      55.701  26.062  49.342  1.00  0.00    -0.550 OA
ENDBRANCH   1   2
BRANCH   1   5
ATOM      5  C   UNL     1      58.365  28.418  50.623  1.00  0.00     0.059 C 
BRANCH   5   6
ATOM      6  C   UNL     1      59.271  28.605  49.445  1.00  0.00     0.042 C 
ATOM      7  O   UNL     1      59.256  29.686  48.799  1.00  0.00    -0.550 OA
ATOM      8  O   UNL     1      60.101  27.569  49.035  1.00  0.00    -0.550 OA
ENDBRANCH   5   6
ENDBRANCH   1   5
TORSDOF 3
ENDMDL
MODEL 8
REMARK VINA RESULT:    -2.471     12.216     13.254
REMARK INTER + INTRA:          -3.026
REMARK INTER:                  -2.910
REMARK INTRA:                  -0.116
REMARK UNBOUND:                -0.121
REMARK SMILES O=C([O-])CCC(=O)[O-]
REMARK SMILES IDX 4 1 2 2 1 3 3 4 5 5 6 6 7 7 8 8
REMARK H PARENT
REMARK Flexibility Score: inf
ROOT
ATOM      1  C   UNL     1      58.619  28.348  50.561  1.00  0.00     0.059 C 
ENDROOT
BRANCH   1   2
ATOM      2  C   UNL     1      59.455  28.646  49.354  1.00  0.00     0.042 C 
ATOM      3  O   UNL     1      59.300  29.727  48.727  1.00  0.00    -0.550 OA
ATOM      4  O   UNL     1      60.377  27.712  48.898  1.00  0.00    -0.550 OA
ENDBRANCH   1   2
BRANCH   1   5
ATOM      5  C   UNL     1      57.176  28.004  50.178  1.00  0.00     0.059 C 
BRANCH   5   6
ATOM      6  C   UNL     1      56.962  26.523  50.100  1.00  0.00     0.042 C 
ATOM      7  O   UNL     1      57.808  25.735  50.599  1.00  0.00    -0.550 OA
ATOM      8  O   UNL     1      55.852  26.014  49.440  1.00  0.00    -0.550 OA
ENDBRANCH   5   6
ENDBRANCH   1   5
TORSDOF 3
ENDMDL
MODEL 9
REMARK VINA RESULT:    -2.445      2.452      3.608
REMARK INTER + INTRA:          -2.995
REMARK INTER:                  -2.844
REMARK INTRA:                  -0.151
REMARK UNBOUND:                -0.121
REMARK SMILES O=C([O-])CCC(=O)[O-]
REMARK SMILES IDX 4 1 2 2 1 3 3 4 5 5 6 6 7 7 8 8
REMARK H PARENT
REMARK Flexibility Score: inf
ROOT
ATOM      1  C   UNL     1      61.187  31.789  60.689  1.00  0.00     0.059 C 
ENDROOT
BRANCH   1   2
ATOM      2  C   UNL     1      60.942  31.496  59.240  1.00  0.00     0.042 C 
ATOM      3  O   UNL     1      61.875  31.615  58.403  1.00  0.00    -0.550 OA
ATOM      4  O   UNL     1      59.672  31.132  58.809  1.00  0.00    -0.550 OA
ENDBRANCH   1   2
BRANCH   1   5
ATOM      5  C   UNL     1      60.978  30.546  61.560  1.00  0.00     0.059 C 
BRANCH   5   6
ATOM      6  C   UNL     1      62.127  29.592  61.446  1.00  0.00     0.042 C 
ATOM      7  O   UNL     1      61.919  28.349  61.424  1.00  0.00    -0.550 OA
ATOM      8  O   UNL     1      63.430  30.072  61.405  1.00  0.00    -0.550 OA
ENDBRANCH   5   6
ENDBRANCH   1   5
TORSDOF 3
ENDMDL
