MODEL 1
REMARK VINA RESULT:    -7.187      0.000      0.000
REMARK INTER + INTRA:         -11.142
REMARK INTER:                  -9.498
REMARK INTRA:                  -1.644
REMARK UNBOUND:                -1.644
REMARK SMILES CC[C@H](C=C[C@H](C)[C@@H]1CC[C@H]2[C@H]3CC=C4C[C@H](O)CC[C@]4(C)[C@H]3CC[C@]21C)C(C)C
REMARK SMILES IDX 6 1 7 2 5 3 4 4 3 5 2 6 1 7 28 8 29 9 30 10 8 11 9 12 26 13
REMARK SMILES IDX 10 14 11 15 25 16 27 17 12 18 24 19 23 20 13 21 21 22 14 23
REMARK SMILES IDX 15 24 20 25 22 26 16 27 19 28 17 29 18 30
REMARK H PARENT 18 31
REMARK Flexibility Score: inf
ROOT
ATOM      1  C   UNL     1       1.568  25.600  50.041  1.00  0.00     0.012 C 
ATOM      2  C   UNL     1       2.450  26.768  49.561  1.00  0.00     0.012 C 
ENDROOT
BRANCH   1   3
ATOM      3  C   UNL     1       0.141  26.054  50.258  1.00  0.00    -0.028 C 
ATOM      4  C   UNL     1      -0.514  25.785  51.400  1.00  0.00    -0.027 C 
BRANCH   4   5
ATOM      5  C   UNL     1      -1.965  26.175  51.601  1.00  0.00     0.014 C 
BRANCH   5   6
ATOM      6  C   UNL     1      -2.709  26.365  50.247  1.00  0.00     0.004 C 
ATOM      7  C   UNL     1      -4.238  26.220  50.298  1.00  0.00     0.004 C 
ENDBRANCH   5   6
BRANCH   5   8
ATOM      8  C   UNL     1      -2.667  25.225  52.623  1.00  0.00    -0.011 C 
ATOM      9  C   UNL     1      -2.360  23.746  52.334  1.00  0.00     0.008 C 
ATOM     10  C   UNL     1      -2.366  25.545  54.095  1.00  0.00     0.008 C 
ENDBRANCH   5   8
ENDBRANCH   4   5
ENDBRANCH   1   3
BRANCH   1  11
ATOM     11  C   UNL     1       1.661  24.274  49.199  1.00  0.00     0.002 C 
ATOM     12  C   UNL     1       0.719  24.333  47.989  1.00  0.00     0.005 C 
ATOM     13  C   UNL     1       1.346  22.888  49.872  1.00  0.00    -0.026 C 
ATOM     14  C   UNL     1      -0.499  23.475  48.325  1.00  0.00     0.005 C 
ATOM     15  C   UNL     1      -0.176  22.704  49.619  1.00  0.00    -0.001 C 
ATOM     16  C   UNL     1       2.199  21.750  49.183  1.00  0.00     0.007 C 
ATOM     17  C   UNL     1       1.656  22.829  51.391  1.00  0.00     0.012 C 
ATOM     18  C   UNL     1      -0.654  21.220  49.645  1.00  0.00     0.000 C 
ATOM     19  C   UNL     1       1.439  20.912  48.149  1.00  0.00     0.005 C 
ATOM     20  C   UNL     1       0.220  20.222  48.802  1.00  0.00     0.003 C 
ATOM     21  C   UNL     1      -2.169  21.103  49.391  1.00  0.00     0.031 C 
ATOM     22  C   UNL     1      -0.571  19.247  47.834  1.00  0.00    -0.008 C 
ATOM     23  C   UNL     1      -2.590  19.673  49.247  1.00  0.00    -0.027 C 
ATOM     24  C   UNL     1      -1.872  18.796  48.520  1.00  0.00    -0.065 C 
ATOM     25  C   UNL     1       0.341  18.010  47.528  1.00  0.00     0.014 C 
ATOM     26  C   UNL     1      -0.943  19.922  46.490  1.00  0.00     0.016 C 
ATOM     27  C   UNL     1      -2.520  17.468  48.172  1.00  0.00     0.063 C 
ATOM     28  C   UNL     1      -0.414  16.792  46.985  1.00  0.00     0.033 C 
ATOM     29  C   UNL     1      -1.503  16.347  47.967  1.00  0.00     0.118 C 
BRANCH  29  30
ATOM     30  O   UNL     1      -0.943  15.985  49.203  1.00  0.00    -0.393 OA
ATOM     31  H   UNL     1       0.043  16.041  49.098  1.00  0.00     0.210 HD
ENDBRANCH  29  30
ENDBRANCH   1  11
TORSDOF 6
ENDMDL
MODEL 2
REMARK VINA RESULT:    -7.083      2.697      8.103
REMARK INTER + INTRA:         -11.005
REMARK INTER:                  -9.371
REMARK INTRA:                  -1.634
REMARK UNBOUND:                -1.644
REMARK SMILES CC[C@H](C=C[C@H](C)[C@@H]1CC[C@H]2[C@H]3CC=C4C[C@H](O)CC[C@]4(C)[C@H]3CC[C@]21C)C(C)C
REMARK SMILES IDX 6 1 7 2 5 3 4 4 3 5 2 6 1 7 28 8 29 9 30 10 8 11 9 12 26 13
REMARK SMILES IDX 10 14 11 15 25 16 27 17 12 18 24 19 23 20 13 21 21 22 14 23
REMARK SMILES IDX 15 24 20 25 22 26 16 27 19 28 17 29 18 30
REMARK H PARENT 18 31
REMARK Flexibility Score: inf
ROOT
ATOM      1  C   UNL     1      -0.556  16.917  46.515  1.00  0.00     0.012 C 
ATOM      2  C   UNL     1      -1.174  16.231  45.283  1.00  0.00     0.012 C 
ENDROOT
BRANCH   1   3
ATOM      3  C   UNL     1       0.932  17.123  46.330  1.00  0.00    -0.028 C 
ATOM      4  C   UNL     1       1.819  16.666  47.231  1.00  0.00    -0.027 C 
BRANCH   4   5
ATOM      5  C   UNL     1       3.306  16.925  47.090  1.00  0.00     0.014 C 
BRANCH   5   6
ATOM      6  C   UNL     1       3.706  17.235  45.618  1.00  0.00     0.004 C 
ATOM      7  C   UNL     1       5.005  16.580  45.126  1.00  0.00     0.004 C 
ENDBRANCH   5   6
BRANCH   5   8
ATOM      8  C   UNL     1       3.799  17.961  48.150  1.00  0.00    -0.011 C 
ATOM      9  C   UNL     1       5.154  17.561  48.756  1.00  0.00     0.008 C 
ATOM     10  C   UNL     1       3.860  19.408  47.639  1.00  0.00     0.008 C 
ENDBRANCH   5   8
ENDBRANCH   4   5
ENDBRANCH   1   3
BRANCH   1  11
ATOM     11  C   UNL     1      -1.289  18.215  47.021  1.00  0.00     0.002 C 
ATOM     12  C   UNL     1      -0.842  19.440  46.212  1.00  0.00     0.005 C 
ATOM     13  C   UNL     1      -1.148  18.666  48.522  1.00  0.00    -0.026 C 
ATOM     14  C   UNL     1       0.136  20.224  47.085  1.00  0.00     0.005 C 
ATOM     15  C   UNL     1       0.083  19.613  48.498  1.00  0.00    -0.001 C 
ATOM     16  C   UNL     1      -2.461  19.417  48.982  1.00  0.00     0.007 C 
ATOM     17  C   UNL     1      -0.920  17.501  49.521  1.00  0.00     0.012 C 
ATOM     18  C   UNL     1       0.121  20.643  49.669  1.00  0.00     0.000 C 
ATOM     19  C   UNL     1      -2.359  20.947  48.983  1.00  0.00     0.005 C 
ATOM     20  C   UNL     1      -1.226  21.413  49.923  1.00  0.00     0.003 C 
ATOM     21  C   UNL     1       1.364  21.549  49.593  1.00  0.00     0.031 C 
ATOM     22  C   UNL     1      -1.111  22.988  50.073  1.00  0.00    -0.008 C 
ATOM     23  C   UNL     1       1.306  22.642  50.615  1.00  0.00    -0.027 C 
ATOM     24  C   UNL     1       0.173  23.332  50.847  1.00  0.00    -0.065 C 
ATOM     25  C   UNL     1      -2.371  23.502  50.850  1.00  0.00     0.014 C 
ATOM     26  C   UNL     1      -1.056  23.709  48.702  1.00  0.00     0.016 C 
ATOM     27  C   UNL     1       0.277  24.610  51.661  1.00  0.00     0.063 C 
ATOM     28  C   UNL     1      -2.208  24.900  51.455  1.00  0.00     0.033 C 
ATOM     29  C   UNL     1      -1.012  24.942  52.411  1.00  0.00     0.118 C 
BRANCH  29  30
ATOM     30  O   UNL     1      -1.188  24.037  53.471  1.00  0.00    -0.393 OA
ATOM     31  H   UNL     1      -0.750  23.189  53.199  1.00  0.00     0.210 HD
ENDBRANCH  29  30
ENDBRANCH   1  11
TORSDOF 6
ENDMDL
MODEL 3
REMARK VINA RESULT:    -6.962      5.463      9.192
REMARK INTER + INTRA:         -10.845
REMARK INTER:                  -9.442
REMARK INTRA:                  -1.403
REMARK UNBOUND:                -1.644
REMARK SMILES CC[C@H](C=C[C@H](C)[C@@H]1CC[C@H]2[C@H]3CC=C4C[C@H](O)CC[C@]4(C)[C@H]3CC[C@]21C)C(C)C
REMARK SMILES IDX 6 1 7 2 5 3 4 4 3 5 2 6 1 7 28 8 29 9 30 10 8 11 9 12 26 13
REMARK SMILES IDX 10 14 11 15 25 16 27 17 12 18 24 19 23 20 13 21 21 22 14 23
REMARK SMILES IDX 15 24 20 25 22 26 16 27 19 28 17 29 18 30
REMARK H PARENT 18 31
REMARK Flexibility Score: inf
ROOT
ATOM      1  C   UNL     1       7.292  17.752  46.043  1.00  0.00     0.012 C 
ATOM      2  C   UNL     1       8.492  16.985  46.629  1.00  0.00     0.012 C 
ENDROOT
BRANCH   1   3
ATOM      3  C   UNL     1       7.541  18.123  44.597  1.00  0.00    -0.028 C 
ATOM      4  C   UNL     1       7.538  19.404  44.193  1.00  0.00    -0.027 C 
BRANCH   4   5
ATOM      5  C   UNL     1       7.719  19.783  42.736  1.00  0.00     0.014 C 
BRANCH   5   6
ATOM      6  C   UNL     1       8.799  18.906  42.036  1.00  0.00     0.004 C 
ATOM      7  C   UNL     1      10.143  19.596  41.759  1.00  0.00     0.004 C 
ENDBRANCH   5   6
BRANCH   5   8
ATOM      8  C   UNL     1       6.343  19.863  42.001  1.00  0.00    -0.011 C 
ATOM      9  C   UNL     1       5.320  20.699  42.789  1.00  0.00     0.008 C 
ATOM     10  C   UNL     1       6.427  20.367  40.552  1.00  0.00     0.008 C 
ENDBRANCH   5   8
ENDBRANCH   4   5
ENDBRANCH   1   3
BRANCH   1  11
ATOM     11  C   UNL     1       5.879  17.096  46.266  1.00  0.00     0.002 C 
ATOM     12  C   UNL     1       5.033  17.182  44.989  1.00  0.00     0.005 C 
ATOM     13  C   UNL     1       4.929  17.633  47.400  1.00  0.00    -0.026 C 
ATOM     14  C   UNL     1       4.019  18.306  45.195  1.00  0.00     0.005 C 
ATOM     15  C   UNL     1       4.087  18.721  46.677  1.00  0.00    -0.001 C 
ATOM     16  C   UNL     1       4.027  16.457  47.947  1.00  0.00     0.007 C 
ATOM     17  C   UNL     1       5.670  18.241  48.620  1.00  0.00     0.012 C 
ATOM     18  C   UNL     1       2.711  19.016  47.348  1.00  0.00     0.000 C 
ATOM     19  C   UNL     1       2.600  16.428  47.388  1.00  0.00     0.005 C 
ATOM     20  C   UNL     1       1.863  17.745  47.716  1.00  0.00     0.003 C 
ATOM     21  C   UNL     1       1.926  20.102  46.589  1.00  0.00     0.031 C 
ATOM     22  C   UNL     1       0.341  17.768  47.270  1.00  0.00    -0.008 C 
ATOM     23  C   UNL     1       0.540  20.257  47.136  1.00  0.00    -0.027 C 
ATOM     24  C   UNL     1      -0.219  19.189  47.448  1.00  0.00    -0.065 C 
ATOM     25  C   UNL     1      -0.450  16.754  48.165  1.00  0.00     0.014 C 
ATOM     26  C   UNL     1       0.155  17.357  45.787  1.00  0.00     0.016 C 
ATOM     27  C   UNL     1      -1.698  19.422  47.697  1.00  0.00     0.063 C 
ATOM     28  C   UNL     1      -1.967  16.971  48.169  1.00  0.00     0.033 C 
ATOM     29  C   UNL     1      -2.311  18.388  48.639  1.00  0.00     0.118 C 
BRANCH  29  30
ATOM     30  O   UNL     1      -1.846  18.606  49.947  1.00  0.00    -0.393 OA
ATOM     31  H   UNL     1      -0.909  18.925  49.868  1.00  0.00     0.210 HD
ENDBRANCH  29  30
ENDBRANCH   1  11
TORSDOF 6
ENDMDL
MODEL 4
REMARK VINA RESULT:    -6.955      2.980      8.118
REMARK INTER + INTRA:         -10.836
REMARK INTER:                  -9.440
REMARK INTRA:                  -1.396
REMARK UNBOUND:                -1.644
REMARK SMILES CC[C@H](C=C[C@H](C)[C@@H]1CC[C@H]2[C@H]3CC=C4C[C@H](O)CC[C@]4(C)[C@H]3CC[C@]21C)C(C)C
REMARK SMILES IDX 6 1 7 2 5 3 4 4 3 5 2 6 1 7 28 8 29 9 30 10 8 11 9 12 26 13
REMARK SMILES IDX 10 14 11 15 25 16 27 17 12 18 24 19 23 20 13 21 21 22 14 23
REMARK SMILES IDX 15 24 20 25 22 26 16 27 19 28 17 29 18 30
REMARK H PARENT 18 31
REMARK Flexibility Score: inf
ROOT
ATOM      1  C   UNL     1       0.210  18.473  47.249  1.00  0.00     0.012 C 
ATOM      2  C   UNL     1      -0.589  17.708  46.176  1.00  0.00     0.012 C 
ENDROOT
BRANCH   1   3
ATOM      3  C   UNL     1       1.698  18.343  47.009  1.00  0.00    -0.028 C 
ATOM      4  C   UNL     1       2.469  17.573  47.795  1.00  0.00    -0.027 C 
BRANCH   4   5
ATOM      5  C   UNL     1       3.971  17.489  47.607  1.00  0.00     0.014 C 
BRANCH   5   6
ATOM      6  C   UNL     1       4.376  17.591  46.107  1.00  0.00     0.004 C 
ATOM      7  C   UNL     1       4.320  16.280  45.309  1.00  0.00     0.004 C 
ENDBRANCH   5   6
BRANCH   5   8
ATOM      8  C   UNL     1       4.715  18.471  48.568  1.00  0.00    -0.011 C 
ATOM      9  C   UNL     1       6.134  17.982  48.901  1.00  0.00     0.008 C 
ATOM     10  C   UNL     1       4.763  19.924  48.076  1.00  0.00     0.008 C 
ENDBRANCH   5   8
ENDBRANCH   4   5
ENDBRANCH   1   3
BRANCH   1  11
ATOM     11  C   UNL     1      -0.235  19.959  47.510  1.00  0.00     0.002 C 
ATOM     12  C   UNL     1       0.986  20.887  47.574  1.00  0.00     0.005 C 
ATOM     13  C   UNL     1      -1.068  20.320  48.795  1.00  0.00    -0.026 C 
ATOM     14  C   UNL     1       1.235  21.202  49.048  1.00  0.00     0.005 C 
ATOM     15  C   UNL     1       0.025  20.674  49.842  1.00  0.00    -0.001 C 
ATOM     16  C   UNL     1      -2.016  21.548  48.494  1.00  0.00     0.007 C 
ATOM     17  C   UNL     1      -1.968  19.170  49.317  1.00  0.00     0.012 C 
ATOM     18  C   UNL     1      -0.470  21.603  50.993  1.00  0.00     0.000 C 
ATOM     19  C   UNL     1      -1.498  22.899  49.000  1.00  0.00     0.005 C 
ATOM     20  C   UNL     1      -1.290  22.861  50.530  1.00  0.00     0.003 C 
ATOM     21  C   UNL     1       0.655  21.915  51.999  1.00  0.00     0.031 C 
ATOM     22  C   UNL     1      -0.855  24.249  51.162  1.00  0.00    -0.008 C 
ATOM     23  C   UNL     1       0.222  22.940  53.001  1.00  0.00    -0.027 C 
ATOM     24  C   UNL     1      -0.469  24.037  52.636  1.00  0.00    -0.065 C 
ATOM     25  C   UNL     1      -2.063  25.241  51.052  1.00  0.00     0.014 C 
ATOM     26  C   UNL     1       0.359  24.877  50.431  1.00  0.00     0.016 C 
ATOM     27  C   UNL     1      -0.596  25.162  53.647  1.00  0.00     0.063 C 
ATOM     28  C   UNL     1      -1.969  26.450  51.988  1.00  0.00     0.033 C 
ATOM     29  C   UNL     1      -1.857  26.000  53.448  1.00  0.00     0.118 C 
BRANCH  29  30
ATOM     30  O   UNL     1      -2.986  25.253  53.827  1.00  0.00    -0.393 OA
ATOM     31  H   UNL     1      -3.383  25.714  54.611  1.00  0.00     0.210 HD
ENDBRANCH  29  30
ENDBRANCH   1  11
TORSDOF 6
ENDMDL
MODEL 5
REMARK VINA RESULT:    -6.930      2.679      7.335
REMARK INTER + INTRA:         -10.803
REMARK INTER:                  -9.138
REMARK INTRA:                  -1.665
REMARK UNBOUND:                -1.644
REMARK SMILES CC[C@H](C=C[C@H](C)[C@@H]1CC[C@H]2[C@H]3CC=C4C[C@H](O)CC[C@]4(C)[C@H]3CC[C@]21C)C(C)C
REMARK SMILES IDX 6 1 7 2 5 3 4 4 3 5 2 6 1 7 28 8 29 9 30 10 8 11 9 12 26 13
REMARK SMILES IDX 10 14 11 15 25 16 27 17 12 18 24 19 23 20 13 21 21 22 14 23
REMARK SMILES IDX 15 24 20 25 22 26 16 27 19 28 17 29 18 30
REMARK H PARENT 18 31
REMARK Flexibility Score: inf
ROOT
ATOM      1  C   UNL     1       1.748  20.754  46.802  1.00  0.00     0.012 C 
ATOM      2  C   UNL     1       3.060  20.240  46.182  1.00  0.00     0.012 C 
ENDROOT
BRANCH   1   3
ATOM      3  C   UNL     1       0.844  19.603  47.185  1.00  0.00    -0.028 C 
ATOM      4  C   UNL     1      -0.384  19.470  46.656  1.00  0.00    -0.027 C 
BRANCH   4   5
ATOM      5  C   UNL     1      -1.324  18.360  47.083  1.00  0.00     0.014 C 
BRANCH   5   6
ATOM      6  C   UNL     1      -0.806  16.959  46.643  1.00  0.00     0.004 C 
ATOM      7  C   UNL     1      -1.527  16.327  45.443  1.00  0.00     0.004 C 
ENDBRANCH   5   6
BRANCH   5   8
ATOM      8  C   UNL     1      -1.700  18.491  48.593  1.00  0.00    -0.011 C 
ATOM      9  C   UNL     1      -2.747  19.592  48.830  1.00  0.00     0.008 C 
ATOM     10  C   UNL     1      -2.160  17.180  49.247  1.00  0.00     0.008 C 
ENDBRANCH   5   8
ENDBRANCH   4   5
ENDBRANCH   1   3
BRANCH   1  11
ATOM     11  C   UNL     1       1.899  21.815  47.954  1.00  0.00     0.002 C 
ATOM     12  C   UNL     1       2.007  21.121  49.319  1.00  0.00     0.005 C 
ATOM     13  C   UNL     1       0.796  22.917  48.162  1.00  0.00    -0.026 C 
ATOM     14  C   UNL     1       0.651  21.268  50.007  1.00  0.00     0.005 C 
ATOM     15  C   UNL     1      -0.184  22.257  49.172  1.00  0.00    -0.001 C 
ATOM     16  C   UNL     1       1.452  24.229  48.750  1.00  0.00     0.007 C 
ATOM     17  C   UNL     1       0.048  23.326  46.866  1.00  0.00     0.012 C 
ATOM     18  C   UNL     1      -1.031  23.273  49.998  1.00  0.00     0.000 C 
ATOM     19  C   UNL     1       1.280  24.413  50.262  1.00  0.00     0.005 C 
ATOM     20  C   UNL     1      -0.218  24.457  50.636  1.00  0.00     0.003 C 
ATOM     21  C   UNL     1      -1.984  22.560  50.976  1.00  0.00     0.031 C 
ATOM     22  C   UNL     1      -0.498  24.750  52.169  1.00  0.00    -0.008 C 
ATOM     23  C   UNL     1      -2.667  23.537  51.883  1.00  0.00    -0.027 C 
ATOM     24  C   UNL     1      -1.996  24.554  52.458  1.00  0.00    -0.065 C 
ATOM     25  C   UNL     1      -0.073  26.227  52.474  1.00  0.00     0.014 C 
ATOM     26  C   UNL     1       0.301  23.809  53.106  1.00  0.00     0.016 C 
ATOM     27  C   UNL     1      -2.678  25.301  53.589  1.00  0.00     0.063 C 
ATOM     28  C   UNL     1      -0.673  26.800  53.762  1.00  0.00     0.033 C 
ATOM     29  C   UNL     1      -2.203  26.747  53.718  1.00  0.00     0.118 C 
BRANCH  29  30
ATOM     30  O   UNL     1      -2.698  27.505  52.644  1.00  0.00    -0.393 OA
ATOM     31  H   UNL     1      -3.587  27.846  52.921  1.00  0.00     0.210 HD
ENDBRANCH  29  30
ENDBRANCH   1  11
TORSDOF 6
ENDMDL
MODEL 6
REMARK VINA RESULT:    -6.718      1.546      2.674
REMARK INTER + INTRA:         -10.522
REMARK INTER:                  -9.261
REMARK INTRA:                  -1.261
REMARK UNBOUND:                -1.644
REMARK SMILES CC[C@H](C=C[C@H](C)[C@@H]1CC[C@H]2[C@H]3CC=C4C[C@H](O)CC[C@]4(C)[C@H]3CC[C@]21C)C(C)C
REMARK SMILES IDX 6 1 7 2 5 3 4 4 3 5 2 6 1 7 28 8 29 9 30 10 8 11 9 12 26 13
REMARK SMILES IDX 10 14 11 15 25 16 27 17 12 18 24 19 23 20 13 21 21 22 14 23
REMARK SMILES IDX 15 24 20 25 22 26 16 27 19 28 17 29 18 30
REMARK H PARENT 18 31
REMARK Flexibility Score: inf
ROOT
ATOM      1  C   UNL     1      -0.834  25.356  51.581  1.00  0.00     0.012 C 
ATOM      2  C   UNL     1       0.039  25.921  52.718  1.00  0.00     0.012 C 
ENDROOT
BRANCH   1   3
ATOM      3  C   UNL     1      -1.492  26.471  50.799  1.00  0.00    -0.028 C 
ATOM      4  C   UNL     1      -2.822  26.504  50.612  1.00  0.00    -0.027 C 
BRANCH   4   5
ATOM      5  C   UNL     1      -3.485  27.580  49.773  1.00  0.00     0.014 C 
BRANCH   5   6
ATOM      6  C   UNL     1      -2.471  28.671  49.320  1.00  0.00     0.004 C 
ATOM      7  C   UNL     1      -2.464  29.963  50.151  1.00  0.00     0.004 C 
ENDBRANCH   5   6
BRANCH   5   8
ATOM      8  C   UNL     1      -4.346  26.951  48.631  1.00  0.00    -0.011 C 
ATOM      9  C   UNL     1      -5.424  27.924  48.125  1.00  0.00     0.008 C 
ATOM     10  C   UNL     1      -3.531  26.410  47.447  1.00  0.00     0.008 C 
ENDBRANCH   5   8
ENDBRANCH   4   5
ENDBRANCH   1   3
BRANCH   1  11
ATOM     11  C   UNL     1      -0.147  24.287  50.652  1.00  0.00     0.002 C 
ATOM     12  C   UNL     1      -0.623  24.444  49.201  1.00  0.00     0.005 C 
ATOM     13  C   UNL     1      -0.319  22.752  50.954  1.00  0.00    -0.026 C 
ATOM     14  C   UNL     1      -1.635  23.332  48.936  1.00  0.00     0.005 C 
ATOM     15  C   UNL     1      -1.579  22.363  50.133  1.00  0.00    -0.001 C 
ATOM     16  C   UNL     1       0.964  21.964  50.474  1.00  0.00     0.007 C 
ATOM     17  C   UNL     1      -0.522  22.415  52.455  1.00  0.00     0.012 C 
ATOM     18  C   UNL     1      -1.662  20.849  49.766  1.00  0.00     0.000 C 
ATOM     19  C   UNL     1       0.815  21.254  49.124  1.00  0.00     0.005 C 
ATOM     20  C   UNL     1      -0.343  20.233  49.173  1.00  0.00     0.003 C 
ATOM     21  C   UNL     1      -2.931  20.526  48.957  1.00  0.00     0.031 C 
ATOM     22  C   UNL     1      -0.508  19.372  47.852  1.00  0.00    -0.008 C 
ATOM     23  C   UNL     1      -2.920  19.112  48.464  1.00  0.00    -0.027 C 
ATOM     24  C   UNL     1      -1.811  18.558  47.936  1.00  0.00    -0.065 C 
ATOM     25  C   UNL     1       0.726  18.414  47.731  1.00  0.00     0.014 C 
ATOM     26  C   UNL     1      -0.570  20.251  46.577  1.00  0.00     0.016 C 
ATOM     27  C   UNL     1      -1.964  17.247  47.187  1.00  0.00     0.063 C 
ATOM     28  C   UNL     1       0.513  17.233  46.779  1.00  0.00     0.033 C 
ATOM     29  C   UNL     1      -0.695  16.397  47.213  1.00  0.00     0.118 C 
BRANCH  29  30
ATOM     30  O   UNL     1      -0.503  15.875  48.503  1.00  0.00    -0.393 OA
ATOM     31  H   UNL     1       0.207  15.185  48.430  1.00  0.00     0.210 HD
ENDBRANCH  29  30
ENDBRANCH   1  11
TORSDOF 6
ENDMDL
MODEL 7
REMARK VINA RESULT:    -6.186      1.827      2.773
REMARK INTER + INTRA:          -9.819
REMARK INTER:                  -8.603
REMARK INTRA:                  -1.216
REMARK UNBOUND:                -1.644
REMARK SMILES CC[C@H](C=C[C@H](C)[C@@H]1CC[C@H]2[C@H]3CC=C4C[C@H](O)CC[C@]4(C)[C@H]3CC[C@]21C)C(C)C
REMARK SMILES IDX 6 1 7 2 5 3 4 4 3 5 2 6 1 7 28 8 29 9 30 10 8 11 9 12 26 13
REMARK SMILES IDX 10 14 11 15 25 16 27 17 12 18 24 19 23 20 13 21 21 22 14 23
REMARK SMILES IDX 15 24 20 25 22 26 16 27 19 28 17 29 18 30
REMARK H PARENT 18 31
REMARK Flexibility Score: inf
ROOT
ATOM      1  C   UNL     1      -0.451  25.301  51.688  1.00  0.00     0.012 C 
ATOM      2  C   UNL     1       0.566  25.959  52.639  1.00  0.00     0.012 C 
ENDROOT
BRANCH   1   3
ATOM      3  C   UNL     1      -1.306  26.344  51.003  1.00  0.00    -0.028 C 
ATOM      4  C   UNL     1      -1.000  27.651  51.065  1.00  0.00    -0.027 C 
BRANCH   4   5
ATOM      5  C   UNL     1      -1.886  28.711  50.441  1.00  0.00     0.014 C 
BRANCH   5   6
ATOM      6  C   UNL     1      -2.027  29.963  51.355  1.00  0.00     0.004 C 
ATOM      7  C   UNL     1      -0.781  30.340  52.170  1.00  0.00     0.004 C 
ENDBRANCH   5   6
BRANCH   5   8
ATOM      8  C   UNL     1      -1.461  29.003  48.966  1.00  0.00    -0.011 C 
ATOM      9  C   UNL     1       0.059  28.879  48.773  1.00  0.00     0.008 C 
ATOM     10  C   UNL     1      -2.194  28.155  47.917  1.00  0.00     0.008 C 
ENDBRANCH   5   8
ENDBRANCH   4   5
ENDBRANCH   1   3
BRANCH   1  11
ATOM     11  C   UNL     1       0.133  24.241  50.681  1.00  0.00     0.002 C 
ATOM     12  C   UNL     1      -0.471  24.431  49.283  1.00  0.00     0.005 C 
ATOM     13  C   UNL     1      -0.030  22.703  50.971  1.00  0.00    -0.026 C 
ATOM     14  C   UNL     1      -1.517  23.335  49.092  1.00  0.00     0.005 C 
ATOM     15  C   UNL     1      -1.365  22.344  50.262  1.00  0.00    -0.001 C 
ATOM     16  C   UNL     1       1.193  21.909  50.362  1.00  0.00     0.007 C 
ATOM     17  C   UNL     1      -0.100  22.341  52.478  1.00  0.00     0.012 C 
ATOM     18  C   UNL     1      -1.501  20.838  49.879  1.00  0.00     0.000 C 
ATOM     19  C   UNL     1       0.912  21.227  49.019  1.00  0.00     0.005 C 
ATOM     20  C   UNL     1      -0.250  20.218  49.157  1.00  0.00     0.003 C 
ATOM     21  C   UNL     1      -2.843  20.545  49.184  1.00  0.00     0.031 C 
ATOM     22  C   UNL     1      -0.547  19.383  47.842  1.00  0.00    -0.008 C 
ATOM     23  C   UNL     1      -2.895  19.140  48.668  1.00  0.00    -0.027 C 
ATOM     24  C   UNL     1      -1.847  18.583  48.031  1.00  0.00    -0.065 C 
ATOM     25  C   UNL     1       0.658  18.414  47.591  1.00  0.00     0.014 C 
ATOM     26  C   UNL     1      -0.713  20.286  46.593  1.00  0.00     0.016 C 
ATOM     27  C   UNL     1      -2.085  17.288  47.276  1.00  0.00     0.063 C 
ATOM     28  C   UNL     1       0.343  17.253  46.642  1.00  0.00     0.033 C 
ATOM     29  C   UNL     1      -0.830  16.423  47.171  1.00  0.00     0.118 C 
BRANCH  29  30
ATOM     30  O   UNL     1      -0.528  15.875  48.429  1.00  0.00    -0.393 OA
ATOM     31  H   UNL     1      -0.303  14.920  48.279  1.00  0.00     0.210 HD
ENDBRANCH  29  30
ENDBRANCH   1  11
TORSDOF 6
ENDMDL
MODEL 8
REMARK VINA RESULT:    -6.178      6.526      9.444
REMARK INTER + INTRA:          -9.809
REMARK INTER:                  -8.359
REMARK INTRA:                  -1.450
REMARK UNBOUND:                -1.644
REMARK SMILES CC[C@H](C=C[C@H](C)[C@@H]1CC[C@H]2[C@H]3CC=C4C[C@H](O)CC[C@]4(C)[C@H]3CC[C@]21C)C(C)C
REMARK SMILES IDX 6 1 7 2 5 3 4 4 3 5 2 6 1 7 28 8 29 9 30 10 8 11 9 12 26 13
REMARK SMILES IDX 10 14 11 15 25 16 27 17 12 18 24 19 23 20 13 21 21 22 14 23
REMARK SMILES IDX 15 24 20 25 22 26 16 27 19 28 17 29 18 30
REMARK H PARENT 18 31
REMARK Flexibility Score: inf
ROOT
ATOM      1  C   UNL     1       3.127  20.149  48.159  1.00  0.00     0.012 C 
ATOM      2  C   UNL     1       2.612  21.283  49.066  1.00  0.00     0.012 C 
ENDROOT
BRANCH   1   3
ATOM      3  C   UNL     1       2.005  19.571  47.326  1.00  0.00    -0.028 C 
ATOM      4  C   UNL     1       1.525  18.337  47.558  1.00  0.00    -0.027 C 
BRANCH   4   5
ATOM      5  C   UNL     1       0.447  17.721  46.687  1.00  0.00     0.014 C 
BRANCH   5   6
ATOM      6  C   UNL     1       0.893  16.355  46.089  1.00  0.00     0.004 C 
ATOM      7  C   UNL     1       2.369  16.255  45.678  1.00  0.00     0.004 C 
ENDBRANCH   5   6
BRANCH   5   8
ATOM      8  C   UNL     1      -0.932  17.714  47.420  1.00  0.00    -0.011 C 
ATOM      9  C   UNL     1      -1.809  16.530  46.979  1.00  0.00     0.008 C 
ATOM     10  C   UNL     1      -0.835  17.752  48.952  1.00  0.00     0.008 C 
ENDBRANCH   5   8
ENDBRANCH   4   5
ENDBRANCH   1   3
BRANCH   1  11
ATOM     11  C   UNL     1       4.408  20.478  47.306  1.00  0.00     0.002 C 
ATOM     12  C   UNL     1       4.025  20.801  45.855  1.00  0.00     0.005 C 
ATOM     13  C   UNL     1       5.564  19.417  47.177  1.00  0.00    -0.026 C 
ATOM     14  C   UNL     1       4.360  19.570  45.016  1.00  0.00     0.005 C 
ATOM     15  C   UNL     1       5.171  18.611  45.909  1.00  0.00    -0.001 C 
ATOM     16  C   UNL     1       6.951  20.154  47.001  1.00  0.00     0.007 C 
ATOM     17  C   UNL     1       5.704  18.474  48.400  1.00  0.00     0.012 C 
ATOM     18  C   UNL     1       6.368  17.902  45.205  1.00  0.00     0.000 C 
ATOM     19  C   UNL     1       7.464  20.222  45.558  1.00  0.00     0.005 C 
ATOM     20  C   UNL     1       7.636  18.802  44.977  1.00  0.00     0.003 C 
ATOM     21  C   UNL     1       5.916  17.118  43.959  1.00  0.00     0.031 C 
ATOM     22  C   UNL     1       8.264  18.766  43.521  1.00  0.00    -0.008 C 
ATOM     23  C   UNL     1       7.088  16.583  43.195  1.00  0.00    -0.027 C 
ATOM     24  C   UNL     1       8.184  17.333  42.968  1.00  0.00    -0.065 C 
ATOM     25  C   UNL     1       9.758  19.230  43.617  1.00  0.00     0.014 C 
ATOM     26  C   UNL     1       7.525  19.706  42.535  1.00  0.00     0.016 C 
ATOM     27  C   UNL     1       9.180  16.835  41.937  1.00  0.00     0.063 C 
ATOM     28  C   UNL     1      10.616  18.839  42.409  1.00  0.00     0.033 C 
ATOM     29  C   UNL     1      10.603  17.321  42.203  1.00  0.00     0.118 C 
BRANCH  29  30
ATOM     30  O   UNL     1      11.125  16.661  43.328  1.00  0.00    -0.393 OA
ATOM     31  H   UNL     1      11.679  15.911  42.989  1.00  0.00     0.210 HD
ENDBRANCH  29  30
ENDBRANCH   1  11
TORSDOF 6
ENDMDL
MODEL 9
REMARK VINA RESULT:    -6.107      3.436      7.804
REMARK INTER + INTRA:          -9.715
REMARK INTER:                  -7.991
REMARK INTRA:                  -1.724
REMARK UNBOUND:                -1.644
REMARK SMILES CC[C@H](C=C[C@H](C)[C@@H]1CC[C@H]2[C@H]3CC=C4C[C@H](O)CC[C@]4(C)[C@H]3CC[C@]21C)C(C)C
REMARK SMILES IDX 6 1 7 2 5 3 4 4 3 5 2 6 1 7 28 8 29 9 30 10 8 11 9 12 26 13
REMARK SMILES IDX 10 14 11 15 25 16 27 17 12 18 24 19 23 20 13 21 21 22 14 23
REMARK SMILES IDX 15 24 20 25 22 26 16 27 19 28 17 29 18 30
REMARK H PARENT 18 31
REMARK Flexibility Score: inf
ROOT
ATOM      1  C   UNL     1       0.288  22.526  52.159  1.00  0.00     0.012 C 
ATOM      2  C   UNL     1       0.583  21.925  53.546  1.00  0.00     0.012 C 
ENDROOT
BRANCH   1   3
ATOM      3  C   UNL     1      -0.120  21.448  51.178  1.00  0.00    -0.028 C 
ATOM      4  C   UNL     1       0.344  21.437  49.917  1.00  0.00    -0.027 C 
BRANCH   4   5
ATOM      5  C   UNL     1      -0.111  20.402  48.907  1.00  0.00     0.014 C 
BRANCH   5   6
ATOM      6  C   UNL     1      -1.196  19.453  49.494  1.00  0.00     0.004 C 
ATOM      7  C   UNL     1      -2.650  19.805  49.148  1.00  0.00     0.004 C 
ENDBRANCH   5   6
BRANCH   5   8
ATOM      8  C   UNL     1      -0.473  21.069  47.542  1.00  0.00    -0.011 C 
ATOM      9  C   UNL     1       0.360  22.335  47.283  1.00  0.00     0.008 C 
ATOM     10  C   UNL     1      -0.383  20.126  46.332  1.00  0.00     0.008 C 
ENDBRANCH   5   8
ENDBRANCH   4   5
ENDBRANCH   1   3
BRANCH   1  11
ATOM     11  C   UNL     1      -0.683  23.764  52.136  1.00  0.00     0.002 C 
ATOM     12  C   UNL     1      -2.122  23.320  51.843  1.00  0.00     0.005 C 
ATOM     13  C   UNL     1      -0.428  24.949  51.132  1.00  0.00    -0.026 C 
ATOM     14  C   UNL     1      -2.412  23.665  50.384  1.00  0.00     0.005 C 
ATOM     15  C   UNL     1      -1.248  24.538  49.878  1.00  0.00    -0.001 C 
ATOM     16  C   UNL     1      -0.948  26.304  51.758  1.00  0.00     0.007 C 
ATOM     17  C   UNL     1       1.063  25.163  50.762  1.00  0.00     0.012 C 
ATOM     18  C   UNL     1      -1.662  25.732  48.965  1.00  0.00     0.000 C 
ATOM     19  C   UNL     1      -2.319  26.763  51.249  1.00  0.00     0.005 C 
ATOM     20  C   UNL     1      -2.289  26.961  49.717  1.00  0.00     0.003 C 
ATOM     21  C   UNL     1      -2.467  25.262  47.739  1.00  0.00     0.031 C 
ATOM     22  C   UNL     1      -3.636  27.538  49.110  1.00  0.00    -0.008 C 
ATOM     23  C   UNL     1      -3.005  26.423  46.961  1.00  0.00    -0.027 C 
ATOM     24  C   UNL     1      -3.563  27.485  47.574  1.00  0.00    -0.065 C 
ATOM     25  C   UNL     1      -3.802  29.018  49.597  1.00  0.00     0.014 C 
ATOM     26  C   UNL     1      -4.881  26.734  49.562  1.00  0.00     0.016 C 
ATOM     27  C   UNL     1      -4.353  28.460  46.720  1.00  0.00     0.063 C 
ATOM     28  C   UNL     1      -4.789  29.845  48.767  1.00  0.00     0.033 C 
ATOM     29  C   UNL     1      -4.368  29.875  47.294  1.00  0.00     0.118 C 
BRANCH  29  30
ATOM     30  O   UNL     1      -3.098  30.458  47.150  1.00  0.00    -0.393 OA
ATOM     31  H   UNL     1      -3.015  31.144  47.863  1.00  0.00     0.210 HD
ENDBRANCH  29  30
ENDBRANCH   1  11
TORSDOF 6
ENDMDL
