MODEL 1
REMARK VINA RESULT:    -5.738      0.000      0.000
REMARK INTER + INTRA:          -9.628
REMARK INTER:                  -8.757
REMARK INTRA:                  -0.871
REMARK UNBOUND:                -0.871
REMARK SMILES CC(=O)CCC=C(C)CCC=C(C)CCC=C(C)C
REMARK SMILES IDX 10 1 11 2 12 3 13 4 14 5 15 6 16 7 18 8 17 9 19 10 9 11 7 12
REMARK SMILES IDX 6 13 8 14 5 15 4 16 2 17 3 18 1 19
REMARK H PARENT
REMARK Flexibility Score: inf
ROOT
ATOM      1  C   UNL     1      -7.749  36.138   2.791  1.00  0.00     0.032 C 
ENDROOT
BRANCH   1   2
ATOM      2  C   UNL     1      -8.354  36.321   1.421  1.00  0.00    -0.028 C 
ATOM      3  C   UNL     1      -7.720  36.025   0.256  1.00  0.00    -0.077 C 
ATOM      4  C   UNL     1      -6.264  35.609   0.242  1.00  0.00     0.039 C 
BRANCH   3   5
ATOM      5  C   UNL     1      -8.396  36.251  -1.091  1.00  0.00     0.034 C 
BRANCH   5   6
ATOM      6  C   UNL     1      -9.716  35.491  -1.321  1.00  0.00     0.032 C 
BRANCH   6   7
ATOM      7  C   UNL     1     -10.933  36.384  -1.229  1.00  0.00    -0.028 C 
ATOM      8  C   UNL     1     -12.543  38.063  -2.039  1.00  0.00     0.039 C 
ATOM      9  C   UNL     1     -11.339  37.176  -2.245  1.00  0.00    -0.080 C 
ATOM     10  C   UNL     1     -10.617  37.189  -3.573  1.00  0.00     0.039 C 
ENDBRANCH   6   7
ENDBRANCH   5   6
ENDBRANCH   3   5
ENDBRANCH   1   2
BRANCH   1  11
ATOM     11  C   UNL     1      -8.724  35.423   3.743  1.00  0.00     0.034 C 
BRANCH  11  12
ATOM     12  C   UNL     1      -7.968  34.595   4.761  1.00  0.00    -0.077 C 
ATOM     13  C   UNL     1      -6.623  34.481   4.645  1.00  0.00    -0.028 C 
ATOM     14  C   UNL     1      -8.733  33.906   5.869  1.00  0.00     0.039 C 
BRANCH  13  15
ATOM     15  C   UNL     1      -5.733  33.803   5.657  1.00  0.00     0.035 C 
BRANCH  15  16
ATOM     16  C   UNL     1      -4.547  33.134   4.953  1.00  0.00     0.079 C 
BRANCH  16  17
ATOM     17  C   UNL     1      -4.580  31.642   5.148  1.00  0.00     0.130 C 
ATOM     18  O   UNL     1      -3.927  31.136   6.050  1.00  0.00    -0.300 OA
ATOM     19  C   UNL     1      -5.410  30.765   4.258  1.00  0.00     0.087 C 
ENDBRANCH  16  17
ENDBRANCH  15  16
ENDBRANCH  13  15
ENDBRANCH  11  12
ENDBRANCH   1  11
TORSDOF 9
ENDMDL
MODEL 2
REMARK VINA RESULT:    -5.669      3.505      8.504
REMARK INTER + INTRA:          -9.523
REMARK INTER:                  -8.297
REMARK INTRA:                  -1.226
REMARK UNBOUND:                -0.871
REMARK SMILES CC(=O)CCC=C(C)CCC=C(C)CCC=C(C)C
REMARK SMILES IDX 10 1 11 2 12 3 13 4 14 5 15 6 16 7 18 8 17 9 19 10 9 11 7 12
REMARK SMILES IDX 6 13 8 14 5 15 4 16 2 17 3 18 1 19
REMARK H PARENT
REMARK Flexibility Score: inf
ROOT
ATOM      1  C   UNL     1      -8.930  36.834   1.947  1.00  0.00     0.032 C 
ENDROOT
BRANCH   1   2
ATOM      2  C   UNL     1      -7.709  36.217   2.583  1.00  0.00    -0.028 C 
ATOM      3  C   UNL     1      -6.521  36.036   1.947  1.00  0.00    -0.077 C 
ATOM      4  C   UNL     1      -6.375  36.321   0.467  1.00  0.00     0.039 C 
BRANCH   3   5
ATOM      5  C   UNL     1      -5.336  35.391   2.656  1.00  0.00     0.034 C 
BRANCH   5   6
ATOM      6  C   UNL     1      -5.586  34.924   4.102  1.00  0.00     0.032 C 
BRANCH   6   7
ATOM      7  C   UNL     1      -5.036  33.543   4.379  1.00  0.00    -0.028 C 
ATOM      8  C   UNL     1      -4.245  31.692   5.798  1.00  0.00     0.039 C 
ATOM      9  C   UNL     1      -4.839  33.069   5.628  1.00  0.00    -0.080 C 
ATOM     10  C   UNL     1      -5.203  33.884   6.848  1.00  0.00     0.039 C 
ENDBRANCH   6   7
ENDBRANCH   5   6
ENDBRANCH   3   5
ENDBRANCH   1   2
BRANCH   1  11
ATOM     11  C   UNL     1      -9.954  35.761   1.542  1.00  0.00     0.034 C 
BRANCH  11  12
ATOM     12  C   UNL     1      -9.939  35.546   0.042  1.00  0.00    -0.077 C 
ATOM     13  C   UNL     1     -10.082  36.616  -0.775  1.00  0.00    -0.028 C 
ATOM     14  C   UNL     1      -9.780  34.144  -0.502  1.00  0.00     0.039 C 
BRANCH  13  15
ATOM     15  C   UNL     1      -9.953  36.567  -2.277  1.00  0.00     0.035 C 
BRANCH  15  16
ATOM     16  C   UNL     1      -8.783  37.445  -2.736  1.00  0.00     0.079 C 
BRANCH  16  17
ATOM     17  C   UNL     1      -8.811  37.637  -4.229  1.00  0.00     0.130 C 
ATOM     18  O   UNL     1      -7.783  37.940  -4.818  1.00  0.00    -0.300 OA
ATOM     19  C   UNL     1     -10.080  37.454  -5.008  1.00  0.00     0.087 C 
ENDBRANCH  16  17
ENDBRANCH  15  16
ENDBRANCH  13  15
ENDBRANCH  11  12
ENDBRANCH   1  11
TORSDOF 9
ENDMDL
MODEL 3
REMARK VINA RESULT:    -5.634      4.940      8.461
REMARK INTER + INTRA:          -9.470
REMARK INTER:                  -7.261
REMARK INTRA:                  -2.209
REMARK UNBOUND:                -0.871
REMARK SMILES CC(=O)CCC=C(C)CCC=C(C)CCC=C(C)C
REMARK SMILES IDX 10 1 11 2 12 3 13 4 14 5 15 6 16 7 18 8 17 9 19 10 9 11 7 12
REMARK SMILES IDX 6 13 8 14 5 15 4 16 2 17 3 18 1 19
REMARK H PARENT
REMARK Flexibility Score: inf
ROOT
ATOM      1  C   UNL     1      -7.322  38.136  -3.613  1.00  0.00     0.032 C 
ENDROOT
BRANCH   1   2
ATOM      2  C   UNL     1      -6.736  37.226  -2.562  1.00  0.00    -0.028 C 
ATOM      3  C   UNL     1      -6.557  37.573  -1.260  1.00  0.00    -0.077 C 
ATOM      4  C   UNL     1      -6.810  38.988  -0.785  1.00  0.00     0.039 C 
BRANCH   3   5
ATOM      5  C   UNL     1      -5.944  36.599  -0.260  1.00  0.00     0.034 C 
BRANCH   5   6
ATOM      6  C   UNL     1      -6.864  35.463   0.227  1.00  0.00     0.032 C 
BRANCH   6   7
ATOM      7  C   UNL     1      -8.138  35.969   0.865  1.00  0.00    -0.028 C 
ATOM      8  C   UNL     1     -10.576  36.130   1.173  1.00  0.00     0.039 C 
ATOM      9  C   UNL     1      -9.363  35.531   0.504  1.00  0.00    -0.080 C 
ATOM     10  C   UNL     1      -9.540  34.458  -0.546  1.00  0.00     0.039 C 
ENDBRANCH   6   7
ENDBRANCH   5   6
ENDBRANCH   3   5
ENDBRANCH   1   2
BRANCH   1  11
ATOM     11  C   UNL     1      -8.545  37.495  -4.290  1.00  0.00     0.034 C 
BRANCH  11  12
ATOM     12  C   UNL     1      -9.828  37.983  -3.651  1.00  0.00    -0.077 C 
ATOM     13  C   UNL     1     -10.447  37.195  -2.739  1.00  0.00    -0.028 C 
ATOM     14  C   UNL     1     -10.393  39.326  -4.055  1.00  0.00     0.039 C 
BRANCH  13  15
ATOM     15  C   UNL     1     -11.651  37.609  -1.929  1.00  0.00     0.035 C 
BRANCH  15  16
ATOM     16  C   UNL     1     -12.800  36.618  -2.147  1.00  0.00     0.079 C 
BRANCH  16  17
ATOM     17  C   UNL     1     -13.468  36.856  -3.475  1.00  0.00     0.130 C 
ATOM     18  O   UNL     1     -13.566  35.936  -4.275  1.00  0.00    -0.300 OA
ATOM     19  C   UNL     1     -14.026  38.203  -3.828  1.00  0.00     0.087 C 
ENDBRANCH  16  17
ENDBRANCH  15  16
ENDBRANCH  13  15
ENDBRANCH  11  12
ENDBRANCH   1  11
TORSDOF 9
ENDMDL
MODEL 4
REMARK VINA RESULT:    -5.633      5.297      7.805
REMARK INTER + INTRA:          -9.467
REMARK INTER:                  -7.250
REMARK INTRA:                  -2.218
REMARK UNBOUND:                -0.871
REMARK SMILES CC(=O)CCC=C(C)CCC=C(C)CCC=C(C)C
REMARK SMILES IDX 10 1 11 2 12 3 13 4 14 5 15 6 16 7 18 8 17 9 19 10 9 11 7 12
REMARK SMILES IDX 6 13 8 14 5 15 4 16 2 17 3 18 1 19
REMARK H PARENT
REMARK Flexibility Score: inf
ROOT
ATOM      1  C   UNL     1      -8.404  35.772   0.690  1.00  0.00     0.032 C 
ENDROOT
BRANCH   1   2
ATOM      2  C   UNL     1      -7.597  35.877  -0.581  1.00  0.00    -0.028 C 
ATOM      3  C   UNL     1      -6.630  36.805  -0.802  1.00  0.00    -0.077 C 
ATOM      4  C   UNL     1      -6.379  37.925   0.187  1.00  0.00     0.039 C 
BRANCH   3   5
ATOM      5  C   UNL     1      -5.867  36.853  -2.121  1.00  0.00     0.034 C 
BRANCH   5   6
ATOM      6  C   UNL     1      -6.316  37.936  -3.121  1.00  0.00     0.032 C 
BRANCH   6   7
ATOM      7  C   UNL     1      -7.469  37.491  -3.993  1.00  0.00    -0.028 C 
ATOM      8  C   UNL     1      -9.829  37.351  -4.683  1.00  0.00     0.039 C 
ATOM      9  C   UNL     1      -8.742  37.885  -3.781  1.00  0.00    -0.080 C 
ATOM     10  C   UNL     1      -9.098  38.845  -2.668  1.00  0.00     0.039 C 
ENDBRANCH   6   7
ENDBRANCH   5   6
ENDBRANCH   3   5
ENDBRANCH   1   2
BRANCH   1  11
ATOM     11  C   UNL     1      -9.807  35.205   0.418  1.00  0.00     0.034 C 
BRANCH  11  12
ATOM     12  C   UNL     1     -10.756  36.306  -0.007  1.00  0.00    -0.077 C 
ATOM     13  C   UNL     1     -11.260  36.288  -1.265  1.00  0.00    -0.028 C 
ATOM     14  C   UNL     1     -11.105  37.403   0.974  1.00  0.00     0.039 C 
BRANCH  13  15
ATOM     15  C   UNL     1     -12.313  37.239  -1.777  1.00  0.00     0.035 C 
BRANCH  15  16
ATOM     16  C   UNL     1     -13.270  36.507  -2.725  1.00  0.00     0.079 C 
BRANCH  16  17
ATOM     17  C   UNL     1     -13.833  37.452  -3.753  1.00  0.00     0.130 C 
ATOM     18  O   UNL     1     -14.798  37.111  -4.422  1.00  0.00    -0.300 OA
ATOM     19  C   UNL     1     -13.233  38.812  -3.963  1.00  0.00     0.087 C 
ENDBRANCH  16  17
ENDBRANCH  15  16
ENDBRANCH  13  15
ENDBRANCH  11  12
ENDBRANCH   1  11
TORSDOF 9
ENDMDL
MODEL 5
REMARK VINA RESULT:    -5.627      2.700      6.749
REMARK INTER + INTRA:          -9.458
REMARK INTER:                  -7.587
REMARK INTRA:                  -1.872
REMARK UNBOUND:                -0.871
REMARK SMILES CC(=O)CCC=C(C)CCC=C(C)CCC=C(C)C
REMARK SMILES IDX 10 1 11 2 12 3 13 4 14 5 15 6 16 7 18 8 17 9 19 10 9 11 7 12
REMARK SMILES IDX 6 13 8 14 5 15 4 16 2 17 3 18 1 19
REMARK H PARENT
REMARK Flexibility Score: inf
ROOT
ATOM      1  C   UNL     1     -11.022  37.185   0.886  1.00  0.00     0.032 C 
ENDROOT
BRANCH   1   2
ATOM      2  C   UNL     1     -10.730  36.393   2.137  1.00  0.00    -0.028 C 
ATOM      3  C   UNL     1      -9.761  36.707   3.036  1.00  0.00    -0.077 C 
ATOM      4  C   UNL     1      -8.780  37.829   2.768  1.00  0.00     0.039 C 
BRANCH   3   5
ATOM      5  C   UNL     1      -9.519  35.846   4.270  1.00  0.00     0.034 C 
BRANCH   5   6
ATOM      6  C   UNL     1      -8.470  34.729   4.119  1.00  0.00     0.032 C 
BRANCH   6   7
ATOM      7  C   UNL     1      -7.657  34.511   5.376  1.00  0.00    -0.028 C 
ATOM      8  C   UNL     1      -5.600  34.107   6.668  1.00  0.00     0.039 C 
ATOM      9  C   UNL     1      -6.315  34.363   5.364  1.00  0.00    -0.080 C 
ATOM     10  C   UNL     1      -5.522  34.450   4.079  1.00  0.00     0.039 C 
ENDBRANCH   6   7
ENDBRANCH   5   6
ENDBRANCH   3   5
ENDBRANCH   1   2
BRANCH   1  11
ATOM     11  C   UNL     1     -11.016  36.285  -0.361  1.00  0.00     0.034 C 
BRANCH  11  12
ATOM     12  C   UNL     1      -9.696  35.553  -0.487  1.00  0.00    -0.077 C 
ATOM     13  C   UNL     1      -8.556  36.273  -0.619  1.00  0.00    -0.028 C 
ATOM     14  C   UNL     1      -9.685  34.040  -0.476  1.00  0.00     0.039 C 
BRANCH  13  15
ATOM     15  C   UNL     1      -7.168  35.683  -0.619  1.00  0.00     0.035 C 
BRANCH  15  16
ATOM     16  C   UNL     1      -6.530  35.833   0.766  1.00  0.00     0.079 C 
BRANCH  16  17
ATOM     17  C   UNL     1      -5.256  36.630   0.686  1.00  0.00     0.130 C 
ATOM     18  O   UNL     1      -4.642  36.682  -0.371  1.00  0.00    -0.300 OA
ATOM     19  C   UNL     1      -4.731  37.371   1.880  1.00  0.00     0.087 C 
ENDBRANCH  16  17
ENDBRANCH  15  16
ENDBRANCH  13  15
ENDBRANCH  11  12
ENDBRANCH   1  11
TORSDOF 9
ENDMDL
MODEL 6
REMARK VINA RESULT:    -5.626      4.927      7.027
REMARK INTER + INTRA:          -9.458
REMARK INTER:                  -8.731
REMARK INTRA:                  -0.727
REMARK UNBOUND:                -0.871
REMARK SMILES CC(=O)CCC=C(C)CCC=C(C)CCC=C(C)C
REMARK SMILES IDX 10 1 11 2 12 3 13 4 14 5 15 6 16 7 18 8 17 9 19 10 9 11 7 12
REMARK SMILES IDX 6 13 8 14 5 15 4 16 2 17 3 18 1 19
REMARK H PARENT
REMARK Flexibility Score: inf
ROOT
ATOM      1  C   UNL     1     -10.614  35.643   5.304  1.00  0.00     0.032 C 
ENDROOT
BRANCH   1   2
ATOM      2  C   UNL     1     -12.010  35.361   5.804  1.00  0.00    -0.028 C 
ATOM      3  C   UNL     1     -12.662  36.117   6.725  1.00  0.00    -0.077 C 
ATOM      4  C   UNL     1     -11.962  37.251   7.445  1.00  0.00     0.039 C 
BRANCH   3   5
ATOM      5  C   UNL     1     -14.069  35.758   7.189  1.00  0.00     0.034 C 
BRANCH   5   6
ATOM      6  C   UNL     1     -15.119  35.568   6.077  1.00  0.00     0.032 C 
BRANCH   6   7
ATOM      7  C   UNL     1     -16.104  34.461   6.381  1.00  0.00    -0.028 C 
ATOM      8  C   UNL     1     -18.228  33.516   7.193  1.00  0.00     0.039 C 
ATOM      9  C   UNL     1     -17.334  34.693   6.885  1.00  0.00    -0.080 C 
ATOM     10  C   UNL     1     -17.830  36.098   7.142  1.00  0.00     0.039 C 
ENDBRANCH   6   7
ENDBRANCH   5   6
ENDBRANCH   3   5
ENDBRANCH   1   2
BRANCH   1  11
ATOM     11  C   UNL     1      -9.668  34.465   5.592  1.00  0.00     0.034 C 
BRANCH  11  12
ATOM     12  C   UNL     1      -8.346  34.652   4.875  1.00  0.00    -0.077 C 
ATOM     13  C   UNL     1      -7.222  34.137   5.429  1.00  0.00    -0.028 C 
ATOM     14  C   UNL     1      -8.313  35.418   3.572  1.00  0.00     0.039 C 
BRANCH  13  15
ATOM     15  C   UNL     1      -5.868  34.132   4.764  1.00  0.00     0.035 C 
BRANCH  15  16
ATOM     16  C   UNL     1      -5.387  32.692   4.557  1.00  0.00     0.079 C 
BRANCH  16  17
ATOM     17  C   UNL     1      -4.291  32.348   5.531  1.00  0.00     0.130 C 
ATOM     18  O   UNL     1      -4.002  31.176   5.726  1.00  0.00    -0.300 OA
ATOM     19  C   UNL     1      -3.541  33.424   6.261  1.00  0.00     0.087 C 
ENDBRANCH  16  17
ENDBRANCH  15  16
ENDBRANCH  13  15
ENDBRANCH  11  12
ENDBRANCH   1  11
TORSDOF 9
ENDMDL
MODEL 7
REMARK VINA RESULT:    -5.587      2.737      8.219
REMARK INTER + INTRA:          -9.397
REMARK INTER:                  -7.716
REMARK INTRA:                  -1.681
REMARK UNBOUND:                -0.871
REMARK SMILES CC(=O)CCC=C(C)CCC=C(C)CCC=C(C)C
REMARK SMILES IDX 10 1 11 2 12 3 13 4 14 5 15 6 16 7 18 8 17 9 19 10 9 11 7 12
REMARK SMILES IDX 6 13 8 14 5 15 4 16 2 17 3 18 1 19
REMARK H PARENT
REMARK Flexibility Score: inf
ROOT
ATOM      1  C   UNL     1      -5.269  36.148   3.131  1.00  0.00     0.032 C 
ENDROOT
BRANCH   1   2
ATOM      2  C   UNL     1      -4.964  34.757   3.630  1.00  0.00    -0.028 C 
ATOM      3  C   UNL     1      -5.838  33.981   4.323  1.00  0.00    -0.077 C 
ATOM      4  C   UNL     1      -7.175  34.526   4.780  1.00  0.00     0.039 C 
BRANCH   3   5
ATOM      5  C   UNL     1      -5.448  32.589   4.806  1.00  0.00     0.034 C 
BRANCH   5   6
ATOM      6  C   UNL     1      -4.344  32.531   5.879  1.00  0.00     0.032 C 
BRANCH   6   7
ATOM      7  C   UNL     1      -4.636  33.414   7.072  1.00  0.00    -0.028 C 
ATOM      8  C   UNL     1      -4.216  35.263   8.643  1.00  0.00     0.039 C 
ATOM      9  C   UNL     1      -3.864  34.469   7.408  1.00  0.00    -0.080 C 
ATOM     10  C   UNL     1      -2.666  34.869   6.576  1.00  0.00     0.039 C 
ENDBRANCH   6   7
ENDBRANCH   5   6
ENDBRANCH   3   5
ENDBRANCH   1   2
BRANCH   1  11
ATOM     11  C   UNL     1      -5.147  36.233   1.600  1.00  0.00     0.034 C 
BRANCH  11  12
ATOM     12  C   UNL     1      -6.516  36.313   0.957  1.00  0.00    -0.077 C 
ATOM     13  C   UNL     1      -7.570  36.715   1.707  1.00  0.00    -0.028 C 
ATOM     14  C   UNL     1      -6.674  35.930  -0.498  1.00  0.00     0.039 C 
BRANCH  13  15
ATOM     15  C   UNL     1      -8.956  36.968   1.166  1.00  0.00     0.035 C 
BRANCH  15  16
ATOM     16  C   UNL     1      -9.833  35.726   1.359  1.00  0.00     0.079 C 
BRANCH  16  17
ATOM     17  C   UNL     1     -10.235  35.142   0.031  1.00  0.00     0.130 C 
ATOM     18  O   UNL     1      -9.879  34.009  -0.263  1.00  0.00    -0.300 OA
ATOM     19  C   UNL     1     -11.073  35.926  -0.935  1.00  0.00     0.087 C 
ENDBRANCH  16  17
ENDBRANCH  15  16
ENDBRANCH  13  15
ENDBRANCH  11  12
ENDBRANCH   1  11
TORSDOF 9
ENDMDL
MODEL 8
REMARK VINA RESULT:    -5.553      4.521      7.386
REMARK INTER + INTRA:          -9.346
REMARK INTER:                  -6.926
REMARK INTRA:                  -2.420
REMARK UNBOUND:                -0.871
REMARK SMILES CC(=O)CCC=C(C)CCC=C(C)CCC=C(C)C
REMARK SMILES IDX 10 1 11 2 12 3 13 4 14 5 15 6 16 7 18 8 17 9 19 10 9 11 7 12
REMARK SMILES IDX 6 13 8 14 5 15 4 16 2 17 3 18 1 19
REMARK H PARENT
REMARK Flexibility Score: inf
ROOT
ATOM      1  C   UNL     1      -6.169  36.383   0.929  1.00  0.00     0.032 C 
ENDROOT
BRANCH   1   2
ATOM      2  C   UNL     1      -7.382  36.398   1.826  1.00  0.00    -0.028 C 
ATOM      3  C   UNL     1      -8.182  37.480   2.018  1.00  0.00    -0.077 C 
ATOM      4  C   UNL     1      -7.823  38.831   1.437  1.00  0.00     0.039 C 
BRANCH   3   5
ATOM      5  C   UNL     1      -9.384  37.419   2.954  1.00  0.00     0.034 C 
BRANCH   5   6
ATOM      6  C   UNL     1     -10.565  36.551   2.480  1.00  0.00     0.032 C 
BRANCH   6   7
ATOM      7  C   UNL     1     -11.134  37.004   1.154  1.00  0.00    -0.028 C 
ATOM      8  C   UNL     1     -11.519  36.878  -1.275  1.00  0.00     0.039 C 
ATOM      9  C   UNL     1     -10.946  36.320   0.005  1.00  0.00    -0.080 C 
ATOM     10  C   UNL     1     -10.180  35.017  -0.023  1.00  0.00     0.039 C 
ENDBRANCH   6   7
ENDBRANCH   5   6
ENDBRANCH   3   5
ENDBRANCH   1   2
BRANCH   1  11
ATOM     11  C   UNL     1      -6.467  35.673  -0.403  1.00  0.00     0.034 C 
BRANCH  11  12
ATOM     12  C   UNL     1      -6.625  36.680  -1.523  1.00  0.00    -0.077 C 
ATOM     13  C   UNL     1      -7.872  37.069  -1.883  1.00  0.00    -0.028 C 
ATOM     14  C   UNL     1      -5.393  37.212  -2.220  1.00  0.00     0.039 C 
BRANCH  13  15
ATOM     15  C   UNL     1      -8.171  38.157  -2.884  1.00  0.00     0.035 C 
BRANCH  15  16
ATOM     16  C   UNL     1      -8.469  37.544  -4.257  1.00  0.00     0.079 C 
BRANCH  16  17
ATOM     17  C   UNL     1      -9.948  37.559  -4.541  1.00  0.00     0.130 C 
ATOM     18  O   UNL     1     -10.552  36.502  -4.656  1.00  0.00    -0.300 OA
ATOM     19  C   UNL     1     -10.695  38.854  -4.677  1.00  0.00     0.087 C 
ENDBRANCH  16  17
ENDBRANCH  15  16
ENDBRANCH  13  15
ENDBRANCH  11  12
ENDBRANCH   1  11
TORSDOF 9
ENDMDL
MODEL 9
REMARK VINA RESULT:    -5.549      5.165      8.341
REMARK INTER + INTRA:          -9.339
REMARK INTER:                  -7.011
REMARK INTRA:                  -2.329
REMARK UNBOUND:                -0.871
REMARK SMILES CC(=O)CCC=C(C)CCC=C(C)CCC=C(C)C
REMARK SMILES IDX 10 1 11 2 12 3 13 4 14 5 15 6 16 7 18 8 17 9 19 10 9 11 7 12
REMARK SMILES IDX 6 13 8 14 5 15 4 16 2 17 3 18 1 19
REMARK H PARENT
REMARK Flexibility Score: inf
ROOT
ATOM      1  C   UNL     1     -10.999  36.772   0.484  1.00  0.00     0.032 C 
ENDROOT
BRANCH   1   2
ATOM      2  C   UNL     1      -9.503  36.641   0.634  1.00  0.00    -0.028 C 
ATOM      3  C   UNL     1      -8.758  35.659   0.063  1.00  0.00    -0.077 C 
ATOM      4  C   UNL     1      -9.412  34.508  -0.672  1.00  0.00     0.039 C 
BRANCH   3   5
ATOM      5  C   UNL     1      -7.250  35.588   0.273  1.00  0.00     0.034 C 
BRANCH   5   6
ATOM      6  C   UNL     1      -6.382  36.175  -0.856  1.00  0.00     0.032 C 
BRANCH   6   7
ATOM      7  C   UNL     1      -6.788  37.580  -1.241  1.00  0.00    -0.028 C 
ATOM      8  C   UNL     1      -7.115  39.472  -2.784  1.00  0.00     0.039 C 
ATOM      9  C   UNL     1      -6.727  38.039  -2.509  1.00  0.00    -0.080 C 
ATOM     10  C   UNL     1      -6.284  37.151  -3.650  1.00  0.00     0.039 C 
ENDBRANCH   6   7
ENDBRANCH   5   6
ENDBRANCH   3   5
ENDBRANCH   1   2
BRANCH   1  11
ATOM     11  C   UNL     1     -11.368  37.901  -0.493  1.00  0.00     0.034 C 
BRANCH  11  12
ATOM     12  C   UNL     1     -11.419  37.383  -1.915  1.00  0.00    -0.077 C 
ATOM     13  C   UNL     1     -10.295  37.427  -2.670  1.00  0.00    -0.028 C 
ATOM     14  C   UNL     1     -12.723  36.845  -2.460  1.00  0.00     0.039 C 
BRANCH  13  15
ATOM     15  C   UNL     1     -10.168  36.827  -4.048  1.00  0.00     0.035 C 
BRANCH  15  16
ATOM     16  C   UNL     1      -9.687  37.889  -5.044  1.00  0.00     0.079 C 
BRANCH  16  17
ATOM     17  C   UNL     1     -10.693  39.001  -5.170  1.00  0.00     0.130 C 
ATOM     18  O   UNL     1     -10.389  40.133  -4.820  1.00  0.00    -0.300 OA
ATOM     19  C   UNL     1     -12.063  38.744  -5.727  1.00  0.00     0.087 C 
ENDBRANCH  16  17
ENDBRANCH  15  16
ENDBRANCH  13  15
ENDBRANCH  11  12
ENDBRANCH   1  11
TORSDOF 9
ENDMDL
