MODEL 1
REMARK VINA RESULT:    -2.663      0.000      0.000
REMARK INTER + INTRA:          -4.695
REMARK INTER:                  -4.219
REMARK INTRA:                  -0.476
REMARK UNBOUND:                -0.476
REMARK SMILES CCCCCCCCCCCC(=O)[O-]
REMARK SMILES IDX 7 1 8 2 9 3 10 4 11 5 12 6 13 7 14 8 6 9 5 10 4 11 3 12 2 13
REMARK SMILES IDX 1 14
REMARK H PARENT
REMARK Flexibility Score: inf
ROOT
ATOM      1  C   UNL     1      -0.562 -16.262 -26.623  1.00  0.00     0.000 C 
ENDROOT
BRANCH   1   2
ATOM      2  C   UNL     1      -1.786 -16.798 -25.857  1.00  0.00     0.000 C 
BRANCH   2   3
ATOM      3  C   UNL     1      -1.730 -18.296 -25.494  1.00  0.00     0.000 C 
BRANCH   3   4
ATOM      4  C   UNL     1      -0.534 -19.070 -26.084  1.00  0.00     0.006 C 
BRANCH   4   5
ATOM      5  C   UNL     1      -0.731 -20.592 -26.144  1.00  0.00     0.053 C 
BRANCH   5   6
ATOM      6  C   UNL     1       0.206 -21.316 -25.227  1.00  0.00     0.041 C 
ATOM      7  O   UNL     1       0.178 -22.573 -25.156  1.00  0.00    -0.550 OA
ATOM      8  O   UNL     1       1.087 -20.601 -24.426  1.00  0.00    -0.550 OA
ENDBRANCH   5   6
ENDBRANCH   4   5
ENDBRANCH   3   4
ENDBRANCH   2   3
ENDBRANCH   1   2
BRANCH   1   9
ATOM      9  C   UNL     1      -0.780 -14.844 -27.178  1.00  0.00     0.000 C 
BRANCH   9  10
ATOM     10  C   UNL     1      -1.706 -14.000 -26.288  1.00  0.00    -0.000 C 
BRANCH  10  11
ATOM     11  C   UNL     1      -1.721 -12.514 -26.686  1.00  0.00    -0.000 C 
BRANCH  11  12
ATOM     12  C   UNL     1      -0.710 -12.183 -27.799  1.00  0.00    -0.000 C 
BRANCH  12  13
ATOM     13  C   UNL     1       0.077 -10.877 -27.587  1.00  0.00    -0.003 C 
ATOM     14  C   UNL     1       1.505 -10.947 -28.125  1.00  0.00     0.004 C 
ENDBRANCH  12  13
ENDBRANCH  11  12
ENDBRANCH  10  11
ENDBRANCH   9  10
ENDBRANCH   1   9
TORSDOF 10
ENDMDL
MODEL 2
REMARK VINA RESULT:    -1.492      4.190      8.049
REMARK INTER + INTRA:          -2.840
REMARK INTER:                  -2.863
REMARK INTRA:                   0.023
REMARK UNBOUND:                -0.476
REMARK SMILES CCCCCCCCCCCC(=O)[O-]
REMARK SMILES IDX 7 1 8 2 9 3 10 4 11 5 12 6 13 7 14 8 6 9 5 10 4 11 3 12 2 13
REMARK SMILES IDX 1 14
REMARK H PARENT
REMARK Flexibility Score: inf
ROOT
ATOM      1  C   UNL     1      -1.008 -17.008 -26.159  1.00  0.00     0.000 C 
ENDROOT
BRANCH   1   2
ATOM      2  C   UNL     1      -2.123 -15.981 -25.887  1.00  0.00     0.000 C 
BRANCH   2   3
ATOM      3  C   UNL     1      -2.092 -14.725 -26.783  1.00  0.00     0.000 C 
BRANCH   3   4
ATOM      4  C   UNL     1      -0.688 -14.148 -27.056  1.00  0.00     0.006 C 
BRANCH   4   5
ATOM      5  C   UNL     1      -0.653 -13.046 -28.125  1.00  0.00     0.053 C 
BRANCH   5   6
ATOM      6  C   UNL     1      -0.241 -11.724 -27.554  1.00  0.00     0.041 C 
ATOM      7  O   UNL     1      -0.954 -11.161 -26.682  1.00  0.00    -0.550 OA
ATOM      8  O   UNL     1       0.912 -11.097 -28.010  1.00  0.00    -0.550 OA
ENDBRANCH   5   6
ENDBRANCH   4   5
ENDBRANCH   3   4
ENDBRANCH   2   3
ENDBRANCH   1   2
BRANCH   1   9
ATOM      9  C   UNL     1      -1.348 -18.412 -25.629  1.00  0.00     0.000 C 
BRANCH   9  10
ATOM     10  C   UNL     1      -0.450 -19.502 -26.234  1.00  0.00    -0.000 C 
BRANCH  10  11
ATOM     11  C   UNL     1      -1.202 -20.820 -26.487  1.00  0.00    -0.000 C 
BRANCH  11  12
ATOM     12  C   UNL     1      -0.975 -21.860 -25.375  1.00  0.00    -0.000 C 
BRANCH  12  13
ATOM     13  C   UNL     1       0.502 -22.187 -25.091  1.00  0.00    -0.003 C 
ATOM     14  C   UNL     1       1.183 -21.146 -24.203  1.00  0.00     0.004 C 
ENDBRANCH  12  13
ENDBRANCH  11  12
ENDBRANCH  10  11
ENDBRANCH   9  10
ENDBRANCH   1   9
TORSDOF 10
ENDMDL
MODEL 3
REMARK VINA RESULT:    -0.820      0.850      1.543
REMARK INTER + INTRA:          -1.775
REMARK INTER:                  -1.386
REMARK INTRA:                  -0.389
REMARK UNBOUND:                -0.476
REMARK SMILES CCCCCCCCCCCC(=O)[O-]
REMARK SMILES IDX 7 1 8 2 9 3 10 4 11 5 12 6 13 7 14 8 6 9 5 10 4 11 3 12 2 13
REMARK SMILES IDX 1 14
REMARK H PARENT
REMARK Flexibility Score: inf
ROOT
ATOM      1  C   UNL     1      -0.351 -17.000 -26.163  1.00  0.00     0.000 C 
ENDROOT
BRANCH   1   2
ATOM      2  C   UNL     1      -0.122 -18.519 -26.071  1.00  0.00     0.000 C 
BRANCH   2   3
ATOM      3  C   UNL     1      -1.387 -19.359 -25.795  1.00  0.00     0.000 C 
BRANCH   3   4
ATOM      4  C   UNL     1      -1.371 -20.783 -26.387  1.00  0.00     0.006 C 
BRANCH   4   5
ATOM      5  C   UNL     1      -1.121 -21.895 -25.357  1.00  0.00     0.053 C 
BRANCH   5   6
ATOM      6  C   UNL     1       0.333 -22.036 -25.026  1.00  0.00     0.041 C 
ATOM      7  O   UNL     1       1.026 -22.928 -25.584  1.00  0.00    -0.550 OA
ATOM      8  O   UNL     1       0.915 -21.207 -24.075  1.00  0.00    -0.550 OA
ENDBRANCH   5   6
ENDBRANCH   4   5
ENDBRANCH   3   4
ENDBRANCH   2   3
ENDBRANCH   1   2
BRANCH   1   9
ATOM      9  C   UNL     1      -1.841 -16.617 -26.121  1.00  0.00     0.000 C 
BRANCH   9  10
ATOM     10  C   UNL     1      -2.124 -15.277 -26.819  1.00  0.00    -0.000 C 
BRANCH  10  11
ATOM     11  C   UNL     1      -1.323 -14.111 -26.214  1.00  0.00    -0.000 C 
BRANCH  11  12
ATOM     12  C   UNL     1      -1.579 -12.775 -26.933  1.00  0.00    -0.000 C 
BRANCH  12  13
ATOM     13  C   UNL     1      -0.411 -12.279 -27.804  1.00  0.00    -0.003 C 
ATOM     14  C   UNL     1       0.061 -10.875 -27.427  1.00  0.00     0.004 C 
ENDBRANCH  12  13
ENDBRANCH  11  12
ENDBRANCH  10  11
ENDBRANCH   9  10
ENDBRANCH   1   9
TORSDOF 10
ENDMDL
