MODEL 1
REMARK VINA RESULT:    -5.793      0.000      0.000
REMARK INTER + INTRA:          -6.937
REMARK INTER:                  -6.639
REMARK INTRA:                  -0.298
REMARK UNBOUND:                -0.298
REMARK SMILES COC(=O)c1ccccc1O
REMARK SMILES IDX 5 1 6 2 7 3 8 4 9 5 10 6 3 7 4 8 2 9 1 10 11 11
REMARK H PARENT 11 12
REMARK Flexibility Score: inf
ROOT
ATOM      1  C   UNL     1     129.132 124.765 127.555  1.00  0.00     0.101 A 
ATOM      2  C   UNL     1     129.350 125.258 128.859  1.00  0.00     0.019 A 
ATOM      3  C   UNL     1     129.000 124.498 129.977  1.00  0.00     0.001 A 
ATOM      4  C   UNL     1     128.429 123.236 129.815  1.00  0.00     0.004 A 
ATOM      5  C   UNL     1     128.205 122.732 128.534  1.00  0.00     0.047 A 
ATOM      6  C   UNL     1     128.551 123.484 127.401  1.00  0.00     0.130 A 
ENDROOT
BRANCH   1   7
ATOM      7  C   UNL     1     129.515 125.597 126.384  1.00  0.00     0.341 C 
ATOM      8  O   UNL     1     128.646 125.907 125.522  1.00  0.00    -0.246 OA
BRANCH   7   9
ATOM      9  O   UNL     1     130.832 126.041 126.229  1.00  0.00    -0.465 OA
ATOM     10  C   UNL     1     131.189 127.418 126.262  1.00  0.00     0.282 C 
ENDBRANCH   7   9
ENDBRANCH   1   7
BRANCH   6  11
ATOM     11  O   UNL     1     128.315 122.954 126.132  1.00  0.00    -0.507 OA
ATOM     12  H   UNL     1     129.011 122.998 125.398  1.00  0.00     0.293 HD
ENDBRANCH   6  11
TORSDOF 3
ENDMDL
MODEL 2
REMARK VINA RESULT:    -5.641      1.537      2.115
REMARK INTER + INTRA:          -6.764
REMARK INTER:                  -6.499
REMARK INTRA:                  -0.264
REMARK UNBOUND:                -0.298
REMARK SMILES COC(=O)c1ccccc1O
REMARK SMILES IDX 5 1 6 2 7 3 8 4 9 5 10 6 3 7 4 8 2 9 1 10 11 11
REMARK H PARENT 11 12
REMARK Flexibility Score: inf
ROOT
ATOM      1  C   UNL     1     130.194 125.653 127.137  1.00  0.00     0.101 A 
ATOM      2  C   UNL     1     129.608 125.650 128.420  1.00  0.00     0.019 A 
ATOM      3  C   UNL     1     128.875 124.549 128.868  1.00  0.00     0.001 A 
ATOM      4  C   UNL     1     128.714 123.434 128.047  1.00  0.00     0.004 A 
ATOM      5  C   UNL     1     129.285 123.418 126.774  1.00  0.00     0.047 A 
ATOM      6  C   UNL     1     130.024 124.517 126.311  1.00  0.00     0.130 A 
ENDROOT
BRANCH   1   7
ATOM      7  C   UNL     1     130.969 126.839 126.688  1.00  0.00     0.341 C 
ATOM      8  O   UNL     1     131.420 127.654 127.540  1.00  0.00    -0.246 OA
BRANCH   7   9
ATOM      9  O   UNL     1     131.202 127.061 125.327  1.00  0.00    -0.465 OA
ATOM     10  C   UNL     1     130.413 127.954 124.548  1.00  0.00     0.282 C 
ENDBRANCH   7   9
ENDBRANCH   1   7
BRANCH   6  11
ATOM     11  O   UNL     1     130.584 124.472 125.033  1.00  0.00    -0.507 OA
ATOM     12  H   UNL     1     130.012 124.516 124.199  1.00  0.00     0.293 HD
ENDBRANCH   6  11
TORSDOF 3
ENDMDL
MODEL 3
REMARK VINA RESULT:    -5.612      1.767      3.820
REMARK INTER + INTRA:          -6.730
REMARK INTER:                  -6.451
REMARK INTRA:                  -0.279
REMARK UNBOUND:                -0.298
REMARK SMILES COC(=O)c1ccccc1O
REMARK SMILES IDX 5 1 6 2 7 3 8 4 9 5 10 6 3 7 4 8 2 9 1 10 11 11
REMARK H PARENT 11 12
REMARK Flexibility Score: inf
ROOT
ATOM      1  C   UNL     1     129.146 124.391 127.885  1.00  0.00     0.101 A 
ATOM      2  C   UNL     1     129.659 125.592 128.417  1.00  0.00     0.019 A 
ATOM      3  C   UNL     1     130.490 126.414 127.651  1.00  0.00     0.001 A 
ATOM      4  C   UNL     1     130.823 126.052 126.347  1.00  0.00     0.004 A 
ATOM      5  C   UNL     1     130.326 124.867 125.803  1.00  0.00     0.047 A 
ATOM      6  C   UNL     1     129.490 124.032 126.560  1.00  0.00     0.130 A 
ENDROOT
BRANCH   1   7
ATOM      7  C   UNL     1     128.263 123.538 128.723  1.00  0.00     0.341 C 
ATOM      8  O   UNL     1     127.065 123.342 128.378  1.00  0.00    -0.246 OA
BRANCH   7   9
ATOM      9  O   UNL     1     128.750 122.949 129.896  1.00  0.00    -0.465 OA
ATOM     10  C   UNL     1     128.397 123.415 131.194  1.00  0.00     0.282 C 
ENDBRANCH   7   9
ENDBRANCH   1   7
BRANCH   6  11
ATOM     11  O   UNL     1     129.007 122.853 125.990  1.00  0.00    -0.507 OA
ATOM     12  H   UNL     1     129.411 122.464 125.147  1.00  0.00     0.293 HD
ENDBRANCH   6  11
TORSDOF 3
ENDMDL
MODEL 4
REMARK VINA RESULT:    -5.610      1.436      2.727
REMARK INTER + INTRA:          -6.728
REMARK INTER:                  -6.401
REMARK INTRA:                  -0.327
REMARK UNBOUND:                -0.298
REMARK SMILES COC(=O)c1ccccc1O
REMARK SMILES IDX 5 1 6 2 7 3 8 4 9 5 10 6 3 7 4 8 2 9 1 10 11 11
REMARK H PARENT 11 12
REMARK Flexibility Score: inf
ROOT
ATOM      1  C   UNL     1     128.758 123.690 128.565  1.00  0.00     0.101 A 
ATOM      2  C   UNL     1     128.283 122.438 129.009  1.00  0.00     0.019 A 
ATOM      3  C   UNL     1     128.159 122.164 130.373  1.00  0.00     0.001 A 
ATOM      4  C   UNL     1     128.506 123.131 131.315  1.00  0.00     0.004 A 
ATOM      5  C   UNL     1     128.979 124.375 130.897  1.00  0.00     0.047 A 
ATOM      6  C   UNL     1     129.108 124.665 129.530  1.00  0.00     0.130 A 
ENDROOT
BRANCH   1   7
ATOM      7  C   UNL     1     128.878 123.953 127.107  1.00  0.00     0.341 C 
ATOM      8  O   UNL     1     129.489 123.131 126.369  1.00  0.00    -0.246 OA
BRANCH   7   9
ATOM      9  O   UNL     1     128.321 125.107 126.545  1.00  0.00    -0.465 OA
ATOM     10  C   UNL     1     129.036 125.947 125.646  1.00  0.00     0.282 C 
ENDBRANCH   7   9
ENDBRANCH   1   7
BRANCH   6  11
ATOM     11  O   UNL     1     129.583 125.918 129.141  1.00  0.00    -0.507 OA
ATOM     12  H   UNL     1     129.382 126.304 128.226  1.00  0.00     0.293 HD
ENDBRANCH   6  11
TORSDOF 3
ENDMDL
MODEL 5
REMARK VINA RESULT:    -5.416      1.933      2.978
REMARK INTER + INTRA:          -6.506
REMARK INTER:                  -6.181
REMARK INTRA:                  -0.325
REMARK UNBOUND:                -0.298
REMARK SMILES COC(=O)c1ccccc1O
REMARK SMILES IDX 5 1 6 2 7 3 8 4 9 5 10 6 3 7 4 8 2 9 1 10 11 11
REMARK H PARENT 11 12
REMARK Flexibility Score: inf
ROOT
ATOM      1  C   UNL     1     130.372 125.325 126.449  1.00  0.00     0.101 A 
ATOM      2  C   UNL     1     129.848 124.035 126.223  1.00  0.00     0.019 A 
ATOM      3  C   UNL     1     129.121 123.375 127.216  1.00  0.00     0.001 A 
ATOM      4  C   UNL     1     128.904 123.988 128.449  1.00  0.00     0.004 A 
ATOM      5  C   UNL     1     129.416 125.264 128.693  1.00  0.00     0.047 A 
ATOM      6  C   UNL     1     130.148 125.938 127.705  1.00  0.00     0.130 A 
ENDROOT
BRANCH   1   7
ATOM      7  C   UNL     1     131.141 126.002 125.373  1.00  0.00     0.341 C 
ATOM      8  O   UNL     1     132.349 126.317 125.565  1.00  0.00    -0.246 OA
BRANCH   7   9
ATOM      9  O   UNL     1     130.537 126.295 124.145  1.00  0.00    -0.465 OA
ATOM     10  C   UNL     1     129.345 127.065 124.039  1.00  0.00     0.282 C 
ENDBRANCH   7   9
ENDBRANCH   1   7
BRANCH   6  11
ATOM     11  O   UNL     1     130.646 127.213 127.976  1.00  0.00    -0.507 OA
ATOM     12  H   UNL     1     131.436 127.596 127.470  1.00  0.00     0.293 HD
ENDBRANCH   6  11
TORSDOF 3
ENDMDL
MODEL 6
REMARK VINA RESULT:    -5.275      1.649      4.306
REMARK INTER + INTRA:          -6.344
REMARK INTER:                  -6.041
REMARK INTRA:                  -0.303
REMARK UNBOUND:                -0.298
REMARK SMILES COC(=O)c1ccccc1O
REMARK SMILES IDX 5 1 6 2 7 3 8 4 9 5 10 6 3 7 4 8 2 9 1 10 11 11
REMARK H PARENT 11 12
REMARK Flexibility Score: inf
ROOT
ATOM      1  C   UNL     1     129.922 124.912 126.837  1.00  0.00     0.101 A 
ATOM      2  C   UNL     1     130.583 125.009 125.594  1.00  0.00     0.019 A 
ATOM      3  C   UNL     1     131.413 126.096 125.310  1.00  0.00     0.001 A 
ATOM      4  C   UNL     1     131.598 127.102 126.257  1.00  0.00     0.004 A 
ATOM      5  C   UNL     1     130.953 127.025 127.491  1.00  0.00     0.047 A 
ATOM      6  C   UNL     1     130.116 125.939 127.791  1.00  0.00     0.130 A 
ENDROOT
BRANCH   1   7
ATOM      7  C   UNL     1     129.045 123.744 127.111  1.00  0.00     0.341 C 
ATOM      8  O   UNL     1     128.421 123.191 126.163  1.00  0.00    -0.246 OA
BRANCH   7   9
ATOM      9  O   UNL     1     128.905 123.251 128.413  1.00  0.00    -0.465 OA
ATOM     10  C   UNL     1     127.645 122.891 128.967  1.00  0.00     0.282 C 
ENDBRANCH   7   9
ENDBRANCH   1   7
BRANCH   6  11
ATOM     11  O   UNL     1     129.484 125.889 129.034  1.00  0.00    -0.507 OA
ATOM     12  H   UNL     1     128.778 126.564 129.301  1.00  0.00     0.293 HD
ENDBRANCH   6  11
TORSDOF 3
ENDMDL
MODEL 7
REMARK VINA RESULT:    -5.197      1.626      4.249
REMARK INTER + INTRA:          -6.255
REMARK INTER:                  -5.974
REMARK INTRA:                  -0.281
REMARK UNBOUND:                -0.298
REMARK SMILES COC(=O)c1ccccc1O
REMARK SMILES IDX 5 1 6 2 7 3 8 4 9 5 10 6 3 7 4 8 2 9 1 10 11 11
REMARK H PARENT 11 12
REMARK Flexibility Score: inf
ROOT
ATOM      1  C   UNL     1     129.817 125.425 126.375  1.00  0.00     0.101 A 
ATOM      2  C   UNL     1     131.201 125.534 126.626  1.00  0.00     0.019 A 
ATOM      3  C   UNL     1     132.038 126.205 125.732  1.00  0.00     0.001 A 
ATOM      4  C   UNL     1     131.511 126.778 124.575  1.00  0.00     0.004 A 
ATOM      5  C   UNL     1     130.145 126.680 124.308  1.00  0.00     0.047 A 
ATOM      6  C   UNL     1     129.292 126.009 125.198  1.00  0.00     0.130 A 
ENDROOT
BRANCH   1   7
ATOM      7  C   UNL     1     128.951 124.705 127.345  1.00  0.00     0.341 C 
ATOM      8  O   UNL     1     128.253 123.726 126.959  1.00  0.00    -0.246 OA
BRANCH   7   9
ATOM      9  O   UNL     1     128.903 125.104 128.686  1.00  0.00    -0.465 OA
ATOM     10  C   UNL     1     128.653 124.193 129.750  1.00  0.00     0.282 C 
ENDBRANCH   7   9
ENDBRANCH   1   7
BRANCH   6  11
ATOM     11  O   UNL     1     127.930 125.927 124.905  1.00  0.00    -0.507 OA
ATOM     12  H   UNL     1     127.347 126.753 124.845  1.00  0.00     0.293 HD
ENDBRANCH   6  11
TORSDOF 3
ENDMDL
MODEL 8
REMARK VINA RESULT:    -5.164      1.931      4.664
REMARK INTER + INTRA:          -6.216
REMARK INTER:                  -5.926
REMARK INTRA:                  -0.290
REMARK UNBOUND:                -0.298
REMARK SMILES COC(=O)c1ccccc1O
REMARK SMILES IDX 5 1 6 2 7 3 8 4 9 5 10 6 3 7 4 8 2 9 1 10 11 11
REMARK H PARENT 11 12
REMARK Flexibility Score: inf
ROOT
ATOM      1  C   UNL     1     129.197 126.289 126.760  1.00  0.00     0.101 A 
ATOM      2  C   UNL     1     128.613 126.146 125.484  1.00  0.00     0.019 A 
ATOM      3  C   UNL     1     129.194 126.742 124.362  1.00  0.00     0.001 A 
ATOM      4  C   UNL     1     130.364 127.489 124.492  1.00  0.00     0.004 A 
ATOM      5  C   UNL     1     130.956 127.642 125.746  1.00  0.00     0.047 A 
ATOM      6  C   UNL     1     130.385 127.049 126.882  1.00  0.00     0.130 A 
ENDROOT
BRANCH   1   7
ATOM      7  C   UNL     1     128.557 125.642 127.935  1.00  0.00     0.341 C 
ATOM      8  O   UNL     1     127.302 125.683 128.068  1.00  0.00    -0.246 OA
BRANCH   7   9
ATOM      9  O   UNL     1     129.334 124.989 128.897  1.00  0.00    -0.465 OA
ATOM     10  C   UNL     1     128.768 124.331 130.025  1.00  0.00     0.282 C 
ENDBRANCH   7   9
ENDBRANCH   1   7
BRANCH   6  11
ATOM     11  O   UNL     1     131.000 127.220 128.123  1.00  0.00    -0.507 OA
ATOM     12  H   UNL     1     131.192 128.139 128.501  1.00  0.00     0.293 HD
ENDBRANCH   6  11
TORSDOF 3
ENDMDL
MODEL 9
REMARK VINA RESULT:    -5.150      1.621      4.135
REMARK INTER + INTRA:          -6.201
REMARK INTER:                  -5.907
REMARK INTRA:                  -0.294
REMARK UNBOUND:                -0.298
REMARK SMILES COC(=O)c1ccccc1O
REMARK SMILES IDX 5 1 6 2 7 3 8 4 9 5 10 6 3 7 4 8 2 9 1 10 11 11
REMARK H PARENT 11 12
REMARK Flexibility Score: inf
ROOT
ATOM      1  C   UNL     1     130.107 125.319 126.613  1.00  0.00     0.101 A 
ATOM      2  C   UNL     1     130.191 126.217 127.697  1.00  0.00     0.019 A 
ATOM      3  C   UNL     1     130.967 127.376 127.606  1.00  0.00     0.001 A 
ATOM      4  C   UNL     1     131.670 127.657 126.435  1.00  0.00     0.004 A 
ATOM      5  C   UNL     1     131.600 126.780 125.352  1.00  0.00     0.047 A 
ATOM      6  C   UNL     1     130.825 125.613 125.429  1.00  0.00     0.130 A 
ENDROOT
BRANCH   1   7
ATOM      7  C   UNL     1     129.273 124.095 126.739  1.00  0.00     0.341 C 
ATOM      8  O   UNL     1     129.689 123.000 126.268  1.00  0.00    -0.246 OA
BRANCH   7   9
ATOM      9  O   UNL     1     128.029 124.146 127.376  1.00  0.00    -0.465 OA
ATOM     10  C   UNL     1     127.678 123.279 128.449  1.00  0.00     0.282 C 
ENDBRANCH   7   9
ENDBRANCH   1   7
BRANCH   6  11
ATOM     11  O   UNL     1     130.774 124.755 124.330  1.00  0.00    -0.507 OA
ATOM     12  H   UNL     1     129.935 124.653 123.772  1.00  0.00     0.293 HD
ENDBRANCH   6  11
TORSDOF 3
ENDMDL
