MODEL 1
REMARK VINA RESULT:    -6.364      0.000      0.000
REMARK INTER + INTRA:          -7.908
REMARK INTER:                  -7.666
REMARK INTRA:                  -0.242
REMARK UNBOUND:                -0.242
REMARK SMILES O=c1c(O)c(-c2ccc(O)c(O)c2)oc2cc(O)cc(O)c12
REMARK SMILES IDX 5 1 3 2 2 3 1 4 22 5 20 6 19 7 17 8 16 9 15 10 14 11 6 12
REMARK SMILES IDX 7 13 8 14 9 15 13 16 11 17 10 18 12 20 4 22 21 24 18 26
REMARK H PARENT 10 19 12 21 4 23 21 25 18 27
REMARK Flexibility Score: inf
ROOT
ATOM      1  C   UNL     1     -44.367 -11.227  -0.239  1.00  0.00     0.180 A 
ATOM      2  C   UNL     1     -42.974 -11.423  -0.249  1.00  0.00     0.208 A 
ATOM      3  C   UNL     1     -42.449 -12.541  -0.917  1.00  0.00     0.238 A 
ATOM      4  O   UNL     1     -41.199 -12.682  -0.968  1.00  0.00    -0.285 OA
ATOM      5  C   UNL     1     -43.322 -13.457  -1.552  1.00  0.00     0.111 A 
ATOM      6  C   UNL     1     -42.901 -14.643  -2.224  1.00  0.00     0.134 A 
ATOM      7  C   UNL     1     -43.840 -15.407  -2.929  1.00  0.00     0.093 A 
ATOM      8  C   UNL     1     -45.193 -15.062  -2.932  1.00  0.00     0.123 A 
ATOM      9  C   UNL     1     -45.622 -13.938  -2.231  1.00  0.00     0.094 A 
ATOM     10  C   UNL     1     -44.705 -13.136  -1.547  1.00  0.00     0.146 A 
ATOM     11  O   UNL     1     -45.154 -12.068  -0.900  1.00  0.00    -0.452 OA
ENDROOT
BRANCH   1  12
ATOM     12  C   UNL     1     -44.996 -10.086   0.464  1.00  0.00     0.025 A 
ATOM     13  C   UNL     1     -44.907  -8.777  -0.039  1.00  0.00     0.016 A 
ATOM     14  C   UNL     1     -45.487  -7.712   0.655  1.00  0.00     0.051 A 
ATOM     15  C   UNL     1     -46.153  -7.937   1.867  1.00  0.00     0.157 A 
ATOM     16  C   UNL     1     -45.645 -10.304   1.690  1.00  0.00     0.062 A 
ATOM     17  C   UNL     1     -46.229  -9.240   2.388  1.00  0.00     0.158 A 
BRANCH  15  18
ATOM     18  O   UNL     1     -46.733  -6.873   2.556  1.00  0.00    -0.504 OA
ATOM     19  H   UNL     1     -46.280  -6.449   3.358  1.00  0.00     0.293 HD
ENDBRANCH  15  18
BRANCH  17  20
ATOM     20  O   UNL     1     -46.878  -9.496   3.595  1.00  0.00    -0.504 OA
ATOM     21  H   UNL     1     -46.452  -9.285   4.491  1.00  0.00     0.293 HD
ENDBRANCH  17  20
ENDBRANCH   1  12
BRANCH   2  22
ATOM     22  O   UNL     1     -42.129 -10.495   0.367  1.00  0.00    -0.502 OA
ATOM     23  H   UNL     1     -42.289 -10.155   1.308  1.00  0.00     0.293 HD
ENDBRANCH   2  22
BRANCH   6  24
ATOM     24  O   UNL     1     -41.589 -15.128  -2.206  1.00  0.00    -0.507 OA
ATOM     25  H   UNL     1     -40.824 -14.733  -2.731  1.00  0.00     0.293 HD
ENDBRANCH   6  24
BRANCH   8  26
ATOM     26  O   UNL     1     -46.123 -15.836  -3.623  1.00  0.00    -0.508 OA
ATOM     27  H   UNL     1     -46.357 -16.775  -3.324  1.00  0.00     0.293 HD
ENDBRANCH   8  26
TORSDOF 6
ENDMDL
MODEL 2
REMARK VINA RESULT:    -6.335      1.989      7.285
REMARK INTER + INTRA:          -7.873
REMARK INTER:                  -7.542
REMARK INTRA:                  -0.331
REMARK UNBOUND:                -0.242
REMARK SMILES O=c1c(O)c(-c2ccc(O)c(O)c2)oc2cc(O)cc(O)c12
REMARK SMILES IDX 5 1 3 2 2 3 1 4 22 5 20 6 19 7 17 8 16 9 15 10 14 11 6 12
REMARK SMILES IDX 7 13 8 14 9 15 13 16 11 17 10 18 12 20 4 22 21 24 18 26
REMARK H PARENT 10 19 12 21 4 23 21 25 18 27
REMARK Flexibility Score: inf
ROOT
ATOM      1  C   UNL     1     -43.691 -11.884  -0.213  1.00  0.00     0.180 A 
ATOM      2  C   UNL     1     -44.978 -11.447   0.145  1.00  0.00     0.208 A 
ATOM      3  C   UNL     1     -45.132 -10.166   0.699  1.00  0.00     0.238 A 
ATOM      4  O   UNL     1     -46.293  -9.759   0.967  1.00  0.00    -0.285 OA
ATOM      5  C   UNL     1     -43.997  -9.345   0.905  1.00  0.00     0.111 A 
ATOM      6  C   UNL     1     -44.032  -8.047   1.495  1.00  0.00     0.134 A 
ATOM      7  C   UNL     1     -42.866  -7.272   1.529  1.00  0.00     0.093 A 
ATOM      8  C   UNL     1     -41.653  -7.774   1.053  1.00  0.00     0.123 A 
ATOM      9  C   UNL     1     -41.597  -9.063   0.528  1.00  0.00     0.094 A 
ATOM     10  C   UNL     1     -42.750  -9.847   0.448  1.00  0.00     0.146 A 
ATOM     11  O   UNL     1     -42.655 -11.066  -0.068  1.00  0.00    -0.452 OA
ENDROOT
BRANCH   1  12
ATOM     12  C   UNL     1     -43.446 -13.230  -0.779  1.00  0.00     0.025 A 
ATOM     13  C   UNL     1     -43.159 -14.331   0.046  1.00  0.00     0.016 A 
ATOM     14  C   UNL     1     -42.907 -15.586  -0.512  1.00  0.00     0.051 A 
ATOM     15  C   UNL     1     -42.924 -15.758  -1.903  1.00  0.00     0.157 A 
ATOM     16  C   UNL     1     -43.440 -13.402  -2.173  1.00  0.00     0.062 A 
ATOM     17  C   UNL     1     -43.189 -14.658  -2.737  1.00  0.00     0.158 A 
BRANCH  15  18
ATOM     18  O   UNL     1     -42.674 -17.012  -2.458  1.00  0.00    -0.504 OA
ATOM     19  H   UNL     1     -43.418 -17.579  -2.847  1.00  0.00     0.293 HD
ENDBRANCH  15  18
BRANCH  17  20
ATOM     20  O   UNL     1     -43.206 -14.794  -4.125  1.00  0.00    -0.504 OA
ATOM     21  H   UNL     1     -44.037 -14.605  -4.673  1.00  0.00     0.293 HD
ENDBRANCH  17  20
ENDBRANCH   1  12
BRANCH   2  22
ATOM     22  O   UNL     1     -46.088 -12.264  -0.086  1.00  0.00    -0.502 OA
ATOM     23  H   UNL     1     -46.139 -13.219   0.251  1.00  0.00     0.293 HD
ENDBRANCH   2  22
BRANCH   6  24
ATOM     24  O   UNL     1     -45.171  -7.487   2.084  1.00  0.00    -0.507 OA
ATOM     25  H   UNL     1     -45.418  -7.578   3.058  1.00  0.00     0.293 HD
ENDBRANCH   6  24
BRANCH   8  26
ATOM     26  O   UNL     1     -40.495  -7.003   1.105  1.00  0.00    -0.508 OA
ATOM     27  H   UNL     1     -40.109  -6.570   0.274  1.00  0.00     0.293 HD
ENDBRANCH   8  26
TORSDOF 6
ENDMDL
MODEL 3
REMARK VINA RESULT:    -6.287      2.955      4.042
REMARK INTER + INTRA:          -7.816
REMARK INTER:                  -7.485
REMARK INTRA:                  -0.330
REMARK UNBOUND:                -0.242
REMARK SMILES O=c1c(O)c(-c2ccc(O)c(O)c2)oc2cc(O)cc(O)c12
REMARK SMILES IDX 5 1 3 2 2 3 1 4 22 5 20 6 19 7 17 8 16 9 15 10 14 11 6 12
REMARK SMILES IDX 7 13 8 14 9 15 13 16 11 17 10 18 12 20 4 22 21 24 18 26
REMARK H PARENT 10 19 12 21 4 23 21 25 18 27
REMARK Flexibility Score: inf
ROOT
ATOM      1  C   UNL     1     -42.631 -11.424  -1.537  1.00  0.00     0.180 A 
ATOM      2  C   UNL     1     -43.983 -11.782  -1.388  1.00  0.00     0.208 A 
ATOM      3  C   UNL     1     -44.400 -13.056  -1.806  1.00  0.00     0.238 A 
ATOM      4  O   UNL     1     -45.599 -13.390  -1.621  1.00  0.00    -0.285 OA
ATOM      5  C   UNL     1     -43.465 -13.950  -2.382  1.00  0.00     0.111 A 
ATOM      6  C   UNL     1     -43.785 -15.250  -2.876  1.00  0.00     0.134 A 
ATOM      7  C   UNL     1     -42.757 -16.098  -3.304  1.00  0.00     0.093 A 
ATOM      8  C   UNL     1     -41.428 -15.670  -3.318  1.00  0.00     0.123 A 
ATOM      9  C   UNL     1     -41.112 -14.382  -2.893  1.00  0.00     0.094 A 
ATOM     10  C   UNL     1     -42.111 -13.524  -2.426  1.00  0.00     0.146 A 
ATOM     11  O   UNL     1     -41.766 -12.309  -2.020  1.00  0.00    -0.452 OA
ENDROOT
BRANCH   1  12
ATOM     12  C   UNL     1     -42.122 -10.091  -1.143  1.00  0.00     0.025 A 
ATOM     13  C   UNL     1     -42.085  -9.022  -2.056  1.00  0.00     0.016 A 
ATOM     14  C   UNL     1     -41.577  -7.780  -1.669  1.00  0.00     0.051 A 
ATOM     15  C   UNL     1     -41.086  -7.590  -0.370  1.00  0.00     0.157 A 
ATOM     16  C   UNL     1     -41.609  -9.902   0.150  1.00  0.00     0.062 A 
ATOM     17  C   UNL     1     -41.099  -8.659   0.542  1.00  0.00     0.158 A 
BRANCH  15  18
ATOM     18  O   UNL     1     -40.581  -6.348   0.014  1.00  0.00    -0.504 OA
ATOM     19  H   UNL     1     -40.494  -5.584  -0.645  1.00  0.00     0.293 HD
ENDBRANCH  15  18
BRANCH  17  20
ATOM     20  O   UNL     1     -40.612  -8.505   1.840  1.00  0.00    -0.504 OA
ATOM     21  H   UNL     1     -40.328  -7.603   2.204  1.00  0.00     0.293 HD
ENDBRANCH  17  20
ENDBRANCH   1  12
BRANCH   2  22
ATOM     22  O   UNL     1     -44.885 -10.892  -0.798  1.00  0.00    -0.502 OA
ATOM     23  H   UNL     1     -44.583 -10.066  -0.295  1.00  0.00     0.293 HD
ENDBRANCH   2  22
BRANCH   6  24
ATOM     24  O   UNL     1     -45.090 -15.742  -2.992  1.00  0.00    -0.507 OA
ATOM     25  H   UNL     1     -45.538 -15.980  -3.864  1.00  0.00     0.293 HD
ENDBRANCH   6  24
BRANCH   8  26
ATOM     26  O   UNL     1     -40.413 -16.515  -3.761  1.00  0.00    -0.508 OA
ATOM     27  H   UNL     1     -40.259 -17.424  -3.341  1.00  0.00     0.293 HD
ENDBRANCH   8  26
TORSDOF 6
ENDMDL
MODEL 4
REMARK VINA RESULT:    -6.277      2.010      2.430
REMARK INTER + INTRA:          -7.804
REMARK INTER:                  -7.505
REMARK INTRA:                  -0.299
REMARK UNBOUND:                -0.242
REMARK SMILES O=c1c(O)c(-c2ccc(O)c(O)c2)oc2cc(O)cc(O)c12
REMARK SMILES IDX 5 1 3 2 2 3 1 4 22 5 20 6 19 7 17 8 16 9 15 10 14 11 6 12
REMARK SMILES IDX 7 13 8 14 9 15 13 16 11 17 10 18 12 20 4 22 21 24 18 26
REMARK H PARENT 10 19 12 21 4 23 21 25 18 27
REMARK Flexibility Score: inf
ROOT
ATOM      1  C   UNL     1     -45.306 -11.840   0.668  1.00  0.00     0.180 A 
ATOM      2  C   UNL     1     -44.137 -11.224   0.188  1.00  0.00     0.208 A 
ATOM      3  C   UNL     1     -43.593 -11.655  -1.032  1.00  0.00     0.238 A 
ATOM      4  O   UNL     1     -42.577 -11.064  -1.483  1.00  0.00    -0.285 OA
ATOM      5  C   UNL     1     -44.214 -12.706  -1.750  1.00  0.00     0.111 A 
ATOM      6  C   UNL     1     -43.727 -13.248  -2.977  1.00  0.00     0.134 A 
ATOM      7  C   UNL     1     -44.493 -14.196  -3.665  1.00  0.00     0.093 A 
ATOM      8  C   UNL     1     -45.698 -14.669  -3.139  1.00  0.00     0.123 A 
ATOM      9  C   UNL     1     -46.152 -14.189  -1.914  1.00  0.00     0.094 A 
ATOM     10  C   UNL     1     -45.428 -13.216  -1.220  1.00  0.00     0.146 A 
ATOM     11  O   UNL     1     -45.902 -12.777  -0.060  1.00  0.00    -0.452 OA
ENDROOT
BRANCH   1  12
ATOM     12  C   UNL     1     -45.925 -11.458   1.957  1.00  0.00     0.025 A 
ATOM     13  C   UNL     1     -47.001 -10.554   2.014  1.00  0.00     0.016 A 
ATOM     14  C   UNL     1     -47.552 -10.189   3.244  1.00  0.00     0.051 A 
ATOM     15  C   UNL     1     -47.029 -10.708   4.436  1.00  0.00     0.157 A 
ATOM     16  C   UNL     1     -45.391 -11.959   3.155  1.00  0.00     0.062 A 
ATOM     17  C   UNL     1     -45.941 -11.596   4.390  1.00  0.00     0.158 A 
BRANCH  15  18
ATOM     18  O   UNL     1     -47.583 -10.343   5.663  1.00  0.00    -0.504 OA
ATOM     19  H   UNL     1     -47.027  -9.905   6.387  1.00  0.00     0.293 HD
ENDBRANCH  15  18
BRANCH  17  20
ATOM     20  O   UNL     1     -45.393 -12.125   5.558  1.00  0.00    -0.504 OA
ATOM     21  H   UNL     1     -45.183 -11.548   6.364  1.00  0.00     0.293 HD
ENDBRANCH  17  20
ENDBRANCH   1  12
BRANCH   2  22
ATOM     22  O   UNL     1     -43.551 -10.175   0.902  1.00  0.00    -0.502 OA
ATOM     23  H   UNL     1     -43.254 -10.272   1.865  1.00  0.00     0.293 HD
ENDBRANCH   2  22
BRANCH   6  24
ATOM     24  O   UNL     1     -42.492 -12.914  -3.543  1.00  0.00    -0.507 OA
ATOM     25  H   UNL     1     -42.305 -12.062  -4.051  1.00  0.00     0.293 HD
ENDBRANCH   6  24
BRANCH   8  26
ATOM     26  O   UNL     1     -46.446 -15.624  -3.823  1.00  0.00    -0.508 OA
ATOM     27  H   UNL     1     -47.353 -15.927  -3.486  1.00  0.00     0.293 HD
ENDBRANCH   8  26
TORSDOF 6
ENDMDL
MODEL 5
REMARK VINA RESULT:    -6.143      1.494      7.107
REMARK INTER + INTRA:          -7.643
REMARK INTER:                  -7.368
REMARK INTRA:                  -0.275
REMARK UNBOUND:                -0.242
REMARK SMILES O=c1c(O)c(-c2ccc(O)c(O)c2)oc2cc(O)cc(O)c12
REMARK SMILES IDX 5 1 3 2 2 3 1 4 22 5 20 6 19 7 17 8 16 9 15 10 14 11 6 12
REMARK SMILES IDX 7 13 8 14 9 15 13 16 11 17 10 18 12 20 4 22 21 24 18 26
REMARK H PARENT 10 19 12 21 4 23 21 25 18 27
REMARK Flexibility Score: inf
ROOT
ATOM      1  C   UNL     1     -45.094 -12.103  -0.288  1.00  0.00     0.180 A 
ATOM      2  C   UNL     1     -45.946 -12.228   0.823  1.00  0.00     0.208 A 
ATOM      3  C   UNL     1     -46.357 -11.068   1.500  1.00  0.00     0.238 A 
ATOM      4  O   UNL     1     -47.162 -11.182   2.460  1.00  0.00    -0.285 OA
ATOM      5  C   UNL     1     -45.899  -9.799   1.067  1.00  0.00     0.111 A 
ATOM      6  C   UNL     1     -46.221  -8.563   1.702  1.00  0.00     0.134 A 
ATOM      7  C   UNL     1     -45.819  -7.359   1.110  1.00  0.00     0.093 A 
ATOM      8  C   UNL     1     -45.051  -7.350  -0.057  1.00  0.00     0.123 A 
ATOM      9  C   UNL     1     -44.683  -8.554  -0.651  1.00  0.00     0.094 A 
ATOM     10  C   UNL     1     -45.099  -9.771  -0.105  1.00  0.00     0.146 A 
ATOM     11  O   UNL     1     -44.735 -10.896  -0.709  1.00  0.00    -0.452 OA
ENDROOT
BRANCH   1  12
ATOM     12  C   UNL     1     -44.599 -13.280  -1.036  1.00  0.00     0.025 A 
ATOM     13  C   UNL     1     -43.280 -13.742  -0.885  1.00  0.00     0.016 A 
ATOM     14  C   UNL     1     -42.827 -14.840  -1.620  1.00  0.00     0.051 A 
ATOM     15  C   UNL     1     -43.679 -15.485  -2.527  1.00  0.00     0.157 A 
ATOM     16  C   UNL     1     -45.442 -13.915  -1.962  1.00  0.00     0.062 A 
ATOM     17  C   UNL     1     -44.993 -15.017  -2.700  1.00  0.00     0.158 A 
BRANCH  15  18
ATOM     18  O   UNL     1     -43.225 -16.582  -3.258  1.00  0.00    -0.504 OA
ATOM     19  H   UNL     1     -42.652 -16.467  -4.085  1.00  0.00     0.293 HD
ENDBRANCH  15  18
BRANCH  17  20
ATOM     20  O   UNL     1     -45.864 -15.631  -3.600  1.00  0.00    -0.504 OA
ATOM     21  H   UNL     1     -46.488 -15.097  -4.193  1.00  0.00     0.293 HD
ENDBRANCH  17  20
ENDBRANCH   1  12
BRANCH   2  22
ATOM     22  O   UNL     1     -46.403 -13.487   1.221  1.00  0.00    -0.502 OA
ATOM     23  H   UNL     1     -47.359 -13.651   1.513  1.00  0.00     0.293 HD
ENDBRANCH   2  22
BRANCH   6  24
ATOM     24  O   UNL     1     -46.902  -8.463   2.919  1.00  0.00    -0.507 OA
ATOM     25  H   UNL     1     -46.504  -8.100   3.772  1.00  0.00     0.293 HD
ENDBRANCH   6  24
BRANCH   8  26
ATOM     26  O   UNL     1     -44.642  -6.148  -0.630  1.00  0.00    -0.508 OA
ATOM     27  H   UNL     1     -43.822  -6.095  -1.223  1.00  0.00     0.293 HD
ENDBRANCH   8  26
TORSDOF 6
ENDMDL
MODEL 6
REMARK VINA RESULT:    -6.098      2.680      4.102
REMARK INTER + INTRA:          -7.588
REMARK INTER:                  -7.309
REMARK INTRA:                  -0.280
REMARK UNBOUND:                -0.242
REMARK SMILES O=c1c(O)c(-c2ccc(O)c(O)c2)oc2cc(O)cc(O)c12
REMARK SMILES IDX 5 1 3 2 2 3 1 4 22 5 20 6 19 7 17 8 16 9 15 10 14 11 6 12
REMARK SMILES IDX 7 13 8 14 9 15 13 16 11 17 10 18 12 20 4 22 21 24 18 26
REMARK H PARENT 10 19 12 21 4 23 21 25 18 27
REMARK Flexibility Score: inf
ROOT
ATOM      1  C   UNL     1     -43.225 -10.490  -0.700  1.00  0.00     0.180 A 
ATOM      2  C   UNL     1     -44.461 -10.722  -0.070  1.00  0.00     0.208 A 
ATOM      3  C   UNL     1     -45.199 -11.864  -0.419  1.00  0.00     0.238 A 
ATOM      4  O   UNL     1     -46.278 -12.095   0.187  1.00  0.00    -0.285 OA
ATOM      5  C   UNL     1     -44.701 -12.752  -1.404  1.00  0.00     0.111 A 
ATOM      6  C   UNL     1     -45.384 -13.918  -1.863  1.00  0.00     0.134 A 
ATOM      7  C   UNL     1     -44.739 -14.793  -2.745  1.00  0.00     0.093 A 
ATOM      8  C   UNL     1     -43.461 -14.510  -3.235  1.00  0.00     0.123 A 
ATOM      9  C   UNL     1     -42.811 -13.344  -2.838  1.00  0.00     0.094 A 
ATOM     10  C   UNL     1     -43.414 -12.469  -1.931  1.00  0.00     0.146 A 
ATOM     11  O   UNL     1     -42.755 -11.375  -1.571  1.00  0.00    -0.452 OA
ENDROOT
BRANCH   1  12
ATOM     12  C   UNL     1     -42.403  -9.296  -0.402  1.00  0.00     0.025 A 
ATOM     13  C   UNL     1     -41.632  -9.211   0.770  1.00  0.00     0.016 A 
ATOM     14  C   UNL     1     -40.883  -8.063   1.042  1.00  0.00     0.051 A 
ATOM     15  C   UNL     1     -40.903  -6.979   0.154  1.00  0.00     0.157 A 
ATOM     16  C   UNL     1     -42.436  -8.198  -1.278  1.00  0.00     0.062 A 
ATOM     17  C   UNL     1     -41.686  -7.047  -1.010  1.00  0.00     0.158 A 
BRANCH  15  18
ATOM     18  O   UNL     1     -40.152  -5.836   0.427  1.00  0.00    -0.504 OA
ATOM     19  H   UNL     1     -40.594  -4.941   0.603  1.00  0.00     0.293 HD
ENDBRANCH  15  18
BRANCH  17  20
ATOM     20  O   UNL     1     -41.733  -5.983  -1.910  1.00  0.00    -0.504 OA
ATOM     21  H   UNL     1     -41.028  -5.853  -2.627  1.00  0.00     0.293 HD
ENDBRANCH  17  20
ENDBRANCH   1  12
BRANCH   2  22
ATOM     22  O   UNL     1     -44.924  -9.845   0.915  1.00  0.00    -0.502 OA
ATOM     23  H   UNL     1     -45.063 -10.131   1.876  1.00  0.00     0.293 HD
ENDBRANCH   2  22
BRANCH   6  24
ATOM     24  O   UNL     1     -46.697 -14.245  -1.508  1.00  0.00    -0.507 OA
ATOM     25  H   UNL     1     -47.020 -14.377  -0.561  1.00  0.00     0.293 HD
ENDBRANCH   6  24
BRANCH   8  26
ATOM     26  O   UNL     1     -42.833 -15.378  -4.125  1.00  0.00    -0.508 OA
ATOM     27  H   UNL     1     -42.123 -16.031  -3.816  1.00  0.00     0.293 HD
ENDBRANCH   8  26
TORSDOF 6
ENDMDL
MODEL 7
REMARK VINA RESULT:    -6.089      2.833      7.215
REMARK INTER + INTRA:          -7.578
REMARK INTER:                  -7.305
REMARK INTRA:                  -0.273
REMARK UNBOUND:                -0.242
REMARK SMILES O=c1c(O)c(-c2ccc(O)c(O)c2)oc2cc(O)cc(O)c12
REMARK SMILES IDX 5 1 3 2 2 3 1 4 22 5 20 6 19 7 17 8 16 9 15 10 14 11 6 12
REMARK SMILES IDX 7 13 8 14 9 15 13 16 11 17 10 18 12 20 4 22 21 24 18 26
REMARK H PARENT 10 19 12 21 4 23 21 25 18 27
REMARK Flexibility Score: inf
ROOT
ATOM      1  C   UNL     1     -44.605 -13.953   1.003  1.00  0.00     0.180 A 
ATOM      2  C   UNL     1     -44.603 -14.783   2.139  1.00  0.00     0.208 A 
ATOM      3  C   UNL     1     -45.042 -14.259   3.365  1.00  0.00     0.238 A 
ATOM      4  O   UNL     1     -45.089 -15.021   4.366  1.00  0.00    -0.285 OA
ATOM      5  C   UNL     1     -45.463 -12.909   3.445  1.00  0.00     0.111 A 
ATOM      6  C   UNL     1     -45.890 -12.264   4.644  1.00  0.00     0.134 A 
ATOM      7  C   UNL     1     -46.409 -10.964   4.581  1.00  0.00     0.093 A 
ATOM      8  C   UNL     1     -46.454 -10.264   3.374  1.00  0.00     0.123 A 
ATOM      9  C   UNL     1     -45.985 -10.865   2.208  1.00  0.00     0.094 A 
ATOM     10  C   UNL     1     -45.495 -12.173   2.232  1.00  0.00     0.146 A 
ATOM     11  O   UNL     1     -45.067 -12.712   1.097  1.00  0.00    -0.452 OA
ENDROOT
BRANCH   1  12
ATOM     12  C   UNL     1     -44.133 -14.426  -0.318  1.00  0.00     0.025 A 
ATOM     13  C   UNL     1     -42.765 -14.610  -0.584  1.00  0.00     0.016 A 
ATOM     14  C   UNL     1     -42.341 -15.033  -1.846  1.00  0.00     0.051 A 
ATOM     15  C   UNL     1     -43.275 -15.266  -2.864  1.00  0.00     0.157 A 
ATOM     16  C   UNL     1     -45.063 -14.640  -1.348  1.00  0.00     0.062 A 
ATOM     17  C   UNL     1     -44.643 -15.065  -2.614  1.00  0.00     0.158 A 
BRANCH  15  18
ATOM     18  O   UNL     1     -42.849 -15.690  -4.122  1.00  0.00    -0.504 OA
ATOM     19  H   UNL     1     -41.872 -15.875  -4.318  1.00  0.00     0.293 HD
ENDBRANCH  15  18
BRANCH  17  20
ATOM     20  O   UNL     1     -45.597 -15.281  -3.607  1.00  0.00    -0.504 OA
ATOM     21  H   UNL     1     -45.348 -15.345  -4.588  1.00  0.00     0.293 HD
ENDBRANCH  17  20
ENDBRANCH   1  12
BRANCH   2  22
ATOM     22  O   UNL     1     -44.203 -16.118   2.033  1.00  0.00    -0.502 OA
ATOM     23  H   UNL     1     -44.718 -16.797   1.485  1.00  0.00     0.293 HD
ENDBRANCH   2  22
BRANCH   6  24
ATOM     24  O   UNL     1     -45.801 -12.839   5.916  1.00  0.00    -0.507 OA
ATOM     25  H   UNL     1     -45.082 -13.486   6.205  1.00  0.00     0.293 HD
ENDBRANCH   6  24
BRANCH   8  26
ATOM     26  O   UNL     1     -46.956  -8.966   3.323  1.00  0.00    -0.508 OA
ATOM     27  H   UNL     1     -47.564  -8.604   4.048  1.00  0.00     0.293 HD
ENDBRANCH   8  26
TORSDOF 6
ENDMDL
MODEL 8
REMARK VINA RESULT:    -6.064      2.206      7.099
REMARK INTER + INTRA:          -7.547
REMARK INTER:                  -7.257
REMARK INTRA:                  -0.290
REMARK UNBOUND:                -0.242
REMARK SMILES O=c1c(O)c(-c2ccc(O)c(O)c2)oc2cc(O)cc(O)c12
REMARK SMILES IDX 5 1 3 2 2 3 1 4 22 5 20 6 19 7 17 8 16 9 15 10 14 11 6 12
REMARK SMILES IDX 7 13 8 14 9 15 13 16 11 17 10 18 12 20 4 22 21 24 18 26
REMARK H PARENT 10 19 12 21 4 23 21 25 18 27
REMARK Flexibility Score: inf
ROOT
ATOM      1  C   UNL     1     -44.912 -12.794   0.525  1.00  0.00     0.180 A 
ATOM      2  C   UNL     1     -45.309 -11.469   0.270  1.00  0.00     0.208 A 
ATOM      3  C   UNL     1     -45.856 -10.710   1.317  1.00  0.00     0.238 A 
ATOM      4  O   UNL     1     -46.160  -9.508   1.097  1.00  0.00    -0.285 OA
ATOM      5  C   UNL     1     -46.014 -11.288   2.600  1.00  0.00     0.111 A 
ATOM      6  C   UNL     1     -46.592 -10.623   3.723  1.00  0.00     0.134 A 
ATOM      7  C   UNL     1     -46.578 -11.247   4.976  1.00  0.00     0.093 A 
ATOM      8  C   UNL     1     -46.066 -12.537   5.134  1.00  0.00     0.123 A 
ATOM      9  C   UNL     1     -45.553 -13.216   4.032  1.00  0.00     0.094 A 
ATOM     10  C   UNL     1     -45.520 -12.607   2.775  1.00  0.00     0.146 A 
ATOM     11  O   UNL     1     -45.013 -13.286   1.754  1.00  0.00    -0.452 OA
ENDROOT
BRANCH   1  12
ATOM     12  C   UNL     1     -44.351 -13.664  -0.534  1.00  0.00     0.025 A 
ATOM     13  C   UNL     1     -42.964 -13.853  -0.667  1.00  0.00     0.016 A 
ATOM     14  C   UNL     1     -42.456 -14.659  -1.689  1.00  0.00     0.051 A 
ATOM     15  C   UNL     1     -43.323 -15.276  -2.600  1.00  0.00     0.157 A 
ATOM     16  C   UNL     1     -45.215 -14.267  -1.462  1.00  0.00     0.062 A 
ATOM     17  C   UNL     1     -44.710 -15.075  -2.487  1.00  0.00     0.158 A 
BRANCH  15  18
ATOM     18  O   UNL     1     -42.813 -16.081  -3.618  1.00  0.00    -0.504 OA
ATOM     19  H   UNL     1     -41.817 -16.230  -3.728  1.00  0.00     0.293 HD
ENDBRANCH  15  18
BRANCH  17  20
ATOM     20  O   UNL     1     -45.599 -15.669  -3.382  1.00  0.00    -0.504 OA
ATOM     21  H   UNL     1     -46.601 -15.530  -3.318  1.00  0.00     0.293 HD
ENDBRANCH  17  20
ENDBRANCH   1  12
BRANCH   2  22
ATOM     22  O   UNL     1     -45.125 -10.911  -0.998  1.00  0.00    -0.502 OA
ATOM     23  H   UNL     1     -44.218 -10.867  -1.446  1.00  0.00     0.293 HD
ENDBRANCH   2  22
BRANCH   6  24
ATOM     24  O   UNL     1     -47.214  -9.372   3.655  1.00  0.00    -0.507 OA
ATOM     25  H   UNL     1     -48.143  -9.211   3.296  1.00  0.00     0.293 HD
ENDBRANCH   6  24
BRANCH   8  26
ATOM     26  O   UNL     1     -46.070 -13.156   6.382  1.00  0.00    -0.508 OA
ATOM     27  H   UNL     1     -45.217 -13.499   6.806  1.00  0.00     0.293 HD
ENDBRANCH   8  26
TORSDOF 6
ENDMDL
MODEL 9
REMARK VINA RESULT:    -5.971      4.935      6.372
REMARK INTER + INTRA:          -7.435
REMARK INTER:                  -7.130
REMARK INTRA:                  -0.305
REMARK UNBOUND:                -0.242
REMARK SMILES O=c1c(O)c(-c2ccc(O)c(O)c2)oc2cc(O)cc(O)c12
REMARK SMILES IDX 5 1 3 2 2 3 1 4 22 5 20 6 19 7 17 8 16 9 15 10 14 11 6 12
REMARK SMILES IDX 7 13 8 14 9 15 13 16 11 17 10 18 12 20 4 22 21 24 18 26
REMARK H PARENT 10 19 12 21 4 23 21 25 18 27
REMARK Flexibility Score: inf
ROOT
ATOM      1  C   UNL     1     -45.541 -12.626   3.857  1.00  0.00     0.180 A 
ATOM      2  C   UNL     1     -45.769 -13.850   3.205  1.00  0.00     0.208 A 
ATOM      3  C   UNL     1     -45.106 -15.000   3.665  1.00  0.00     0.238 A 
ATOM      4  O   UNL     1     -45.355 -16.103   3.111  1.00  0.00    -0.285 OA
ATOM      5  C   UNL     1     -44.213 -14.908   4.760  1.00  0.00     0.111 A 
ATOM      6  C   UNL     1     -43.459 -16.001   5.283  1.00  0.00     0.134 A 
ATOM      7  C   UNL     1     -42.707 -15.824   6.451  1.00  0.00     0.093 A 
ATOM      8  C   UNL     1     -42.630 -14.577   7.076  1.00  0.00     0.123 A 
ATOM      9  C   UNL     1     -43.315 -13.490   6.539  1.00  0.00     0.094 A 
ATOM     10  C   UNL     1     -44.103 -13.644   5.395  1.00  0.00     0.146 A 
ATOM     11  O   UNL     1     -44.749 -12.585   4.922  1.00  0.00    -0.452 OA
ENDROOT
BRANCH   1  12
ATOM     12  C   UNL     1     -46.183 -11.367   3.415  1.00  0.00     0.025 A 
ATOM     13  C   UNL     1     -45.501 -10.442   2.607  1.00  0.00     0.016 A 
ATOM     14  C   UNL     1     -46.118  -9.249   2.222  1.00  0.00     0.051 A 
ATOM     15  C   UNL     1     -47.420  -8.957   2.650  1.00  0.00     0.157 A 
ATOM     16  C   UNL     1     -47.480 -11.060   3.859  1.00  0.00     0.062 A 
ATOM     17  C   UNL     1     -48.103  -9.867   3.475  1.00  0.00     0.158 A 
BRANCH  15  18
ATOM     18  O   UNL     1     -48.035  -7.767   2.263  1.00  0.00    -0.504 OA
ATOM     19  H   UNL     1     -49.039  -7.701   2.146  1.00  0.00     0.293 HD
ENDBRANCH  15  18
BRANCH  17  20
ATOM     20  O   UNL     1     -49.396  -9.603   3.923  1.00  0.00    -0.504 OA
ATOM     21  H   UNL     1     -49.730  -8.658   4.077  1.00  0.00     0.293 HD
ENDBRANCH  17  20
ENDBRANCH   1  12
BRANCH   2  22
ATOM     22  O   UNL     1     -46.670 -13.923   2.139  1.00  0.00    -0.502 OA
ATOM     23  H   UNL     1     -47.522 -13.375   2.110  1.00  0.00     0.293 HD
ENDBRANCH   2  22
BRANCH   6  24
ATOM     24  O   UNL     1     -43.393 -17.263   4.684  1.00  0.00    -0.507 OA
ATOM     25  H   UNL     1     -42.770 -17.508   3.929  1.00  0.00     0.293 HD
ENDBRANCH   6  24
BRANCH   8  26
ATOM     26  O   UNL     1     -41.866 -14.405   8.228  1.00  0.00    -0.508 OA
ATOM     27  H   UNL     1     -41.820 -13.512   8.705  1.00  0.00     0.293 HD
ENDBRANCH   8  26
TORSDOF 6
ENDMDL
