MODEL 1
REMARK VINA RESULT:    -2.545      0.000      0.000
REMARK INTER + INTRA:          -3.646
REMARK INTER:                  -3.438
REMARK INTRA:                  -0.208
REMARK UNBOUND:                -0.208
REMARK SMILES CCCCCCC=CC(=O)[O-]
REMARK SMILES IDX 5 1 6 2 7 3 8 4 9 5 10 6 11 7 4 8 3 9 2 10 1 11
REMARK H PARENT
REMARK Flexibility Score: inf
ROOT
ATOM      1  C   UNL     1      -6.544  52.125   0.521  1.00  0.00     0.004 C 
ENDROOT
BRANCH   1   2
ATOM      2  C   UNL     1      -5.385  51.119   0.457  1.00  0.00     0.027 C 
BRANCH   2   3
ATOM      3  C   UNL     1      -4.077  51.814   0.208  1.00  0.00    -0.025 C 
ATOM      4  C   UNL     1      -2.920  51.146   0.208  1.00  0.00     0.020 C 
BRANCH   4   5
ATOM      5  C   UNL     1      -1.634  51.812  -0.049  1.00  0.00     0.064 C 
ATOM      6  O   UNL     1      -1.314  52.112  -1.228  1.00  0.00    -0.545 OA
ATOM      7  O   UNL     1      -0.763  52.114   0.992  1.00  0.00    -0.545 OA
ENDBRANCH   4   5
ENDBRANCH   2   3
ENDBRANCH   1   2
BRANCH   1   8
ATOM      8  C   UNL     1      -7.400  52.121  -0.755  1.00  0.00     0.000 C 
BRANCH   8   9
ATOM      9  C   UNL     1      -7.893  50.713  -1.131  1.00  0.00    -0.000 C 
BRANCH   9  10
ATOM     10  C   UNL     1      -9.032  50.743  -2.160  1.00  0.00    -0.003 C 
ATOM     11  C   UNL     1      -8.773  49.821  -3.353  1.00  0.00     0.004 C 
ENDBRANCH   9  10
ENDBRANCH   8   9
ENDBRANCH   1   8
TORSDOF 6
ENDMDL
MODEL 2
REMARK VINA RESULT:    -2.379      5.451      7.363
REMARK INTER + INTRA:          -3.422
REMARK INTER:                  -3.214
REMARK INTRA:                  -0.208
REMARK UNBOUND:                -0.208
REMARK SMILES CCCCCCC=CC(=O)[O-]
REMARK SMILES IDX 5 1 6 2 7 3 8 4 9 5 10 6 11 7 4 8 3 9 2 10 1 11
REMARK H PARENT
REMARK Flexibility Score: inf
ROOT
ATOM      1  C   UNL     1      -8.032  50.862  -4.963  1.00  0.00     0.004 C 
ENDROOT
BRANCH   1   2
ATOM      2  C   UNL     1      -7.892  52.124  -5.828  1.00  0.00     0.027 C 
BRANCH   2   3
ATOM      3  C   UNL     1      -7.544  51.774  -7.245  1.00  0.00    -0.025 C 
ATOM      4  C   UNL     1      -6.352  52.080  -7.768  1.00  0.00     0.020 C 
BRANCH   4   5
ATOM      5  C   UNL     1      -5.993  51.730  -9.150  1.00  0.00     0.064 C 
ATOM      6  O   UNL     1      -4.790  51.800  -9.516  1.00  0.00    -0.545 OA
ATOM      7  O   UNL     1      -6.961  51.325 -10.062  1.00  0.00    -0.545 OA
ENDBRANCH   4   5
ENDBRANCH   2   3
ENDBRANCH   1   2
BRANCH   1   8
ATOM      8  C   UNL     1      -9.121  51.001  -3.888  1.00  0.00     0.000 C 
BRANCH   8   9
ATOM      9  C   UNL     1      -8.996  49.940  -2.780  1.00  0.00    -0.000 C 
BRANCH   9  10
ATOM     10  C   UNL     1      -8.374  50.503  -1.494  1.00  0.00    -0.003 C 
ATOM     11  C   UNL     1      -8.183  52.018  -1.546  1.00  0.00     0.004 C 
ENDBRANCH   9  10
ENDBRANCH   8   9
ENDBRANCH   1   8
TORSDOF 6
ENDMDL
MODEL 3
REMARK VINA RESULT:    -2.325      4.838      6.123
REMARK INTER + INTRA:          -3.348
REMARK INTER:                  -3.097
REMARK INTRA:                  -0.251
REMARK UNBOUND:                -0.208
REMARK SMILES CCCCCCC=CC(=O)[O-]
REMARK SMILES IDX 5 1 6 2 7 3 8 4 9 5 10 6 11 7 4 8 3 9 2 10 1 11
REMARK H PARENT
REMARK Flexibility Score: inf
ROOT
ATOM      1  C   UNL     1      -6.886  51.891  -5.220  1.00  0.00     0.004 C 
ENDROOT
BRANCH   1   2
ATOM      2  C   UNL     1      -7.084  52.118  -6.727  1.00  0.00     0.027 C 
BRANCH   2   3
ATOM      3  C   UNL     1      -5.769  52.124  -7.451  1.00  0.00    -0.025 C 
ATOM      4  C   UNL     1      -4.609  52.038  -6.794  1.00  0.00     0.020 C 
BRANCH   4   5
ATOM      5  C   UNL     1      -3.314  52.029  -7.491  1.00  0.00     0.064 C 
ATOM      6  O   UNL     1      -3.286  52.084  -8.748  1.00  0.00    -0.545 OA
ATOM      7  O   UNL     1      -2.120  51.959  -6.784  1.00  0.00    -0.545 OA
ENDBRANCH   4   5
ENDBRANCH   2   3
ENDBRANCH   1   2
BRANCH   1   8
ATOM      8  C   UNL     1      -8.210  51.641  -4.482  1.00  0.00     0.000 C 
BRANCH   8   9
ATOM      9  C   UNL     1      -8.251  50.266  -3.793  1.00  0.00    -0.000 C 
BRANCH   9  10
ATOM     10  C   UNL     1      -8.872  50.329  -2.390  1.00  0.00    -0.003 C 
ATOM     11  C   UNL     1      -9.018  51.760  -1.873  1.00  0.00     0.004 C 
ENDBRANCH   9  10
ENDBRANCH   8   9
ENDBRANCH   1   8
TORSDOF 6
ENDMDL
MODEL 4
REMARK VINA RESULT:    -2.165      4.354      6.612
REMARK INTER + INTRA:          -3.133
REMARK INTER:                  -2.843
REMARK INTRA:                  -0.290
REMARK UNBOUND:                -0.208
REMARK SMILES CCCCCCC=CC(=O)[O-]
REMARK SMILES IDX 5 1 6 2 7 3 8 4 9 5 10 6 11 7 4 8 3 9 2 10 1 11
REMARK H PARENT
REMARK Flexibility Score: inf
ROOT
ATOM      1  C   UNL     1      -8.584  50.607  -2.945  1.00  0.00     0.004 C 
ENDROOT
BRANCH   1   2
ATOM      2  C   UNL     1      -8.608  51.976  -3.643  1.00  0.00     0.027 C 
BRANCH   2   3
ATOM      3  C   UNL     1      -8.491  51.827  -5.132  1.00  0.00    -0.025 C 
ATOM      4  C   UNL     1      -7.347  52.086  -5.773  1.00  0.00     0.020 C 
BRANCH   4   5
ATOM      5  C   UNL     1      -7.214  51.931  -7.229  1.00  0.00     0.064 C 
ATOM      6  O   UNL     1      -6.099  51.618  -7.722  1.00  0.00    -0.545 OA
ATOM      7  O   UNL     1      -8.302  52.125  -8.072  1.00  0.00    -0.545 OA
ENDBRANCH   4   5
ENDBRANCH   2   3
ENDBRANCH   1   2
BRANCH   1   8
ATOM      8  C   UNL     1      -8.070  50.691  -1.499  1.00  0.00     0.000 C 
BRANCH   8   9
ATOM      9  C   UNL     1      -7.512  52.082  -1.151  1.00  0.00    -0.000 C 
BRANCH   9  10
ATOM     10  C   UNL     1      -6.860  52.125   0.239  1.00  0.00    -0.003 C 
ATOM     11  C   UNL     1      -5.576  51.299   0.313  1.00  0.00     0.004 C 
ENDBRANCH   9  10
ENDBRANCH   8   9
ENDBRANCH   1   8
TORSDOF 6
ENDMDL
MODEL 5
REMARK VINA RESULT:    -2.079      5.373      7.511
REMARK INTER + INTRA:          -3.016
REMARK INTER:                  -2.724
REMARK INTRA:                  -0.291
REMARK UNBOUND:                -0.208
REMARK SMILES CCCCCCC=CC(=O)[O-]
REMARK SMILES IDX 5 1 6 2 7 3 8 4 9 5 10 6 11 7 4 8 3 9 2 10 1 11
REMARK H PARENT
REMARK Flexibility Score: inf
ROOT
ATOM      1  C   UNL     1      -6.625  51.921  -7.214  1.00  0.00     0.004 C 
ENDROOT
BRANCH   1   2
ATOM      2  C   UNL     1      -8.018  52.094  -6.589  1.00  0.00     0.027 C 
BRANCH   2   3
ATOM      3  C   UNL     1      -7.945  52.078  -5.089  1.00  0.00    -0.025 C 
ATOM      4  C   UNL     1      -8.473  51.080  -4.375  1.00  0.00     0.020 C 
BRANCH   4   5
ATOM      5  C   UNL     1      -8.396  51.044  -2.906  1.00  0.00     0.064 C 
ATOM      6  O   UNL     1      -8.064  52.082  -2.277  1.00  0.00    -0.545 OA
ATOM      7  O   UNL     1      -8.683  49.880  -2.202  1.00  0.00    -0.545 OA
ENDBRANCH   4   5
ENDBRANCH   2   3
ENDBRANCH   1   2
BRANCH   1   8
ATOM      8  C   UNL     1      -6.645  52.056  -8.745  1.00  0.00     0.000 C 
BRANCH   8   9
ATOM      9  C   UNL     1      -6.759  50.696  -9.455  1.00  0.00    -0.000 C 
BRANCH   9  10
ATOM     10  C   UNL     1      -8.217  50.292  -9.723  1.00  0.00    -0.003 C 
ATOM     11  C   UNL     1      -8.522  48.859  -9.286  1.00  0.00     0.004 C 
ENDBRANCH   9  10
ENDBRANCH   8   9
ENDBRANCH   1   8
TORSDOF 6
ENDMDL
MODEL 6
REMARK VINA RESULT:    -2.066      5.857      8.011
REMARK INTER + INTRA:          -2.998
REMARK INTER:                  -2.756
REMARK INTRA:                  -0.242
REMARK UNBOUND:                -0.208
REMARK SMILES CCCCCCC=CC(=O)[O-]
REMARK SMILES IDX 5 1 6 2 7 3 8 4 9 5 10 6 11 7 4 8 3 9 2 10 1 11
REMARK H PARENT
REMARK Flexibility Score: inf
ROOT
ATOM      1  C   UNL     1      -6.838  51.318  -8.206  1.00  0.00     0.004 C 
ENDROOT
BRANCH   1   2
ATOM      2  C   UNL     1      -7.946  52.125  -7.511  1.00  0.00     0.027 C 
BRANCH   2   3
ATOM      3  C   UNL     1      -7.778  52.100  -6.019  1.00  0.00    -0.025 C 
ATOM      4  C   UNL     1      -8.427  51.215  -5.257  1.00  0.00     0.020 C 
BRANCH   4   5
ATOM      5  C   UNL     1      -8.261  51.170  -3.797  1.00  0.00     0.064 C 
ATOM      6  O   UNL     1      -7.647  52.101  -3.213  1.00  0.00    -0.545 OA
ATOM      7  O   UNL     1      -8.770  50.115  -3.049  1.00  0.00    -0.545 OA
ENDBRANCH   4   5
ENDBRANCH   2   3
ENDBRANCH   1   2
BRANCH   1   8
ATOM      8  C   UNL     1      -5.542  52.125  -8.381  1.00  0.00     0.000 C 
BRANCH   8   9
ATOM      9  C   UNL     1      -4.318  51.227  -8.634  1.00  0.00    -0.000 C 
BRANCH   9  10
ATOM     10  C   UNL     1      -3.406  51.114  -7.403  1.00  0.00    -0.003 C 
ATOM     11  C   UNL     1      -1.965  51.532  -7.697  1.00  0.00     0.004 C 
ENDBRANCH   9  10
ENDBRANCH   8   9
ENDBRANCH   1   8
TORSDOF 6
ENDMDL
MODEL 7
REMARK VINA RESULT:    -2.019      6.864      8.959
REMARK INTER + INTRA:          -2.934
REMARK INTER:                  -2.546
REMARK INTRA:                  -0.388
REMARK UNBOUND:                -0.208
REMARK SMILES CCCCCCC=CC(=O)[O-]
REMARK SMILES IDX 5 1 6 2 7 3 8 4 9 5 10 6 11 7 4 8 3 9 2 10 1 11
REMARK H PARENT
REMARK Flexibility Score: inf
ROOT
ATOM      1  C   UNL     1      -4.924  51.191  -8.930  1.00  0.00     0.004 C 
ENDROOT
BRANCH   1   2
ATOM      2  C   UNL     1      -6.351  51.565  -9.360  1.00  0.00     0.027 C 
BRANCH   2   3
ATOM      3  C   UNL     1      -7.191  51.946  -8.176  1.00  0.00    -0.025 C 
ATOM      4  C   UNL     1      -6.865  51.566  -6.937  1.00  0.00     0.020 C 
BRANCH   4   5
ATOM      5  C   UNL     1      -7.672  51.944  -5.766  1.00  0.00     0.064 C 
ATOM      6  O   UNL     1      -7.111  52.105  -4.651  1.00  0.00    -0.545 OA
ATOM      7  O   UNL     1      -9.046  52.125  -5.871  1.00  0.00    -0.545 OA
ENDBRANCH   4   5
ENDBRANCH   2   3
ENDBRANCH   1   2
BRANCH   1   8
ATOM      8  C   UNL     1      -3.860  52.111  -9.551  1.00  0.00     0.000 C 
BRANCH   8   9
ATOM      9  C   UNL     1      -2.519  52.053  -8.799  1.00  0.00    -0.000 C 
BRANCH   9  10
ATOM     10  C   UNL     1      -2.688  51.672  -7.321  1.00  0.00    -0.003 C 
ATOM     11  C   UNL     1      -1.404  51.859  -6.514  1.00  0.00     0.004 C 
ENDBRANCH   9  10
ENDBRANCH   8   9
ENDBRANCH   1   8
TORSDOF 6
ENDMDL
MODEL 8
REMARK VINA RESULT:    -1.813      5.145      7.049
REMARK INTER + INTRA:          -2.657
REMARK INTER:                  -2.454
REMARK INTRA:                  -0.203
REMARK UNBOUND:                -0.208
REMARK SMILES CCCCCCC=CC(=O)[O-]
REMARK SMILES IDX 5 1 6 2 7 3 8 4 9 5 10 6 11 7 4 8 3 9 2 10 1 11
REMARK H PARENT
REMARK Flexibility Score: inf
ROOT
ATOM      1  C   UNL     1      -6.962  51.874  -5.964  1.00  0.00     0.004 C 
ENDROOT
BRANCH   1   2
ATOM      2  C   UNL     1      -8.375  51.945  -5.364  1.00  0.00     0.027 C 
BRANCH   2   3
ATOM      3  C   UNL     1      -8.324  51.995  -3.864  1.00  0.00    -0.025 C 
ATOM      4  C   UNL     1      -8.697  50.951  -3.118  1.00  0.00     0.020 C 
BRANCH   4   5
ATOM      5  C   UNL     1      -8.638  50.981  -1.648  1.00  0.00     0.064 C 
ATOM      6  O   UNL     1      -9.114  50.020  -0.988  1.00  0.00    -0.545 OA
ATOM      7  O   UNL     1      -8.067  52.055  -0.976  1.00  0.00    -0.545 OA
ENDBRANCH   4   5
ENDBRANCH   2   3
ENDBRANCH   1   2
BRANCH   1   8
ATOM      8  C   UNL     1      -6.953  52.124  -7.481  1.00  0.00     0.000 C 
BRANCH   8   9
ATOM      9  C   UNL     1      -5.780  51.421  -8.187  1.00  0.00    -0.000 C 
BRANCH   9  10
ATOM     10  C   UNL     1      -6.153  50.923  -9.591  1.00  0.00    -0.003 C 
ATOM     11  C   UNL     1      -7.658  50.720  -9.765  1.00  0.00     0.004 C 
ENDBRANCH   9  10
ENDBRANCH   8   9
ENDBRANCH   1   8
TORSDOF 6
ENDMDL
MODEL 9
REMARK VINA RESULT:    -1.763      3.578      6.045
REMARK INTER + INTRA:          -2.589
REMARK INTER:                  -2.353
REMARK INTRA:                  -0.237
REMARK UNBOUND:                -0.208
REMARK SMILES CCCCCCC=CC(=O)[O-]
REMARK SMILES IDX 5 1 6 2 7 3 8 4 9 5 10 6 11 7 4 8 3 9 2 10 1 11
REMARK H PARENT
REMARK Flexibility Score: inf
ROOT
ATOM      1  C   UNL     1      -8.000  50.908  -1.104  1.00  0.00     0.004 C 
ENDROOT
BRANCH   1   2
ATOM      2  C   UNL     1      -8.965  51.651  -2.043  1.00  0.00     0.027 C 
BRANCH   2   3
ATOM      3  C   UNL     1      -8.258  52.125  -3.280  1.00  0.00    -0.025 C 
ATOM      4  C   UNL     1      -8.231  51.389  -4.395  1.00  0.00     0.020 C 
BRANCH   4   5
ATOM      5  C   UNL     1      -7.555  51.847  -5.618  1.00  0.00     0.064 C 
ATOM      6  O   UNL     1      -8.224  52.023  -6.669  1.00  0.00    -0.545 OA
ATOM      7  O   UNL     1      -6.186  52.089  -5.632  1.00  0.00    -0.545 OA
ENDBRANCH   4   5
ENDBRANCH   2   3
ENDBRANCH   1   2
BRANCH   1   8
ATOM      8  C   UNL     1      -7.054  51.861  -0.357  1.00  0.00     0.000 C 
BRANCH   8   9
ATOM      9  C   UNL     1      -5.746  51.176   0.074  1.00  0.00    -0.000 C 
BRANCH   9  10
ATOM     10  C   UNL     1      -4.539  52.124   0.019  1.00  0.00    -0.003 C 
ATOM     11  C   UNL     1      -3.220  51.417   0.331  1.00  0.00     0.004 C 
ENDBRANCH   9  10
ENDBRANCH   8   9
ENDBRANCH   1   8
TORSDOF 6
ENDMDL
