MODEL 1
REMARK VINA RESULT:    -3.643      0.000      0.000
REMARK INTER + INTRA:          -5.813
REMARK INTER:                  -5.347
REMARK INTRA:                  -0.466
REMARK UNBOUND:                -0.466
REMARK SMILES O=C([O-])CCCCCCCC(=O)[O-]
REMARK SMILES IDX 7 1 6 2 5 3 4 4 2 5 1 6 3 7 8 8 9 9 10 10 11 11 12 12 13 13
REMARK H PARENT
REMARK Flexibility Score: inf
ROOT
ATOM      1  C   UNL     1     -44.052 -49.659  35.470  1.00  0.00     0.000 C 
ENDROOT
BRANCH   1   2
ATOM      2  C   UNL     1     -44.028 -48.690  36.664  1.00  0.00     0.000 C 
BRANCH   2   3
ATOM      3  C   UNL     1     -45.423 -48.461  37.267  1.00  0.00     0.006 C 
BRANCH   3   4
ATOM      4  C   UNL     1     -46.453 -49.484  36.774  1.00  0.00     0.053 C 
BRANCH   4   5
ATOM      5  C   UNL     1     -46.622 -50.580  37.778  1.00  0.00     0.041 C 
ATOM      6  O   UNL     1     -46.992 -51.725  37.410  1.00  0.00    -0.550 OA
ATOM      7  O   UNL     1     -46.418 -50.323  39.129  1.00  0.00    -0.550 OA
ENDBRANCH   4   5
ENDBRANCH   3   4
ENDBRANCH   2   3
ENDBRANCH   1   2
BRANCH   1   8
ATOM      8  C   UNL     1     -43.103 -49.228  34.341  1.00  0.00     0.000 C 
BRANCH   8   9
ATOM      9  C   UNL     1     -42.417 -47.881  34.629  1.00  0.00     0.006 C 
BRANCH   9  10
ATOM     10  C   UNL     1     -40.905 -47.934  34.369  1.00  0.00     0.053 C 
BRANCH  10  11
ATOM     11  C   UNL     1     -40.123 -47.960  35.647  1.00  0.00     0.041 C 
ATOM     12  O   UNL     1     -40.695 -47.726  36.745  1.00  0.00    -0.550 OA
ATOM     13  O   UNL     1     -38.771 -48.278  35.630  1.00  0.00    -0.550 OA
ENDBRANCH  10  11
ENDBRANCH   9  10
ENDBRANCH   8   9
ENDBRANCH   1   8
TORSDOF 8
ENDMDL
MODEL 2
REMARK VINA RESULT:    -3.579      3.245      4.077
REMARK INTER + INTRA:          -5.719
REMARK INTER:                  -5.166
REMARK INTRA:                  -0.552
REMARK UNBOUND:                -0.466
REMARK SMILES O=C([O-])CCCCCCCC(=O)[O-]
REMARK SMILES IDX 7 1 6 2 5 3 4 4 2 5 1 6 3 7 8 8 9 9 10 10 11 11 12 12 13 13
REMARK H PARENT
REMARK Flexibility Score: inf
ROOT
ATOM      1  C   UNL     1     -43.385 -48.426  37.787  1.00  0.00     0.000 C 
ENDROOT
BRANCH   1   2
ATOM      2  C   UNL     1     -44.503 -48.507  36.733  1.00  0.00     0.000 C 
BRANCH   2   3
ATOM      3  C   UNL     1     -45.906 -48.396  37.349  1.00  0.00     0.006 C 
BRANCH   3   4
ATOM      4  C   UNL     1     -46.849 -49.507  36.871  1.00  0.00     0.053 C 
BRANCH   4   5
ATOM      5  C   UNL     1     -46.648 -50.748  37.682  1.00  0.00     0.041 C 
ATOM      6  O   UNL     1     -46.466 -51.855  37.112  1.00  0.00    -0.550 OA
ATOM      7  O   UNL     1     -46.710 -50.690  39.069  1.00  0.00    -0.550 OA
ENDBRANCH   4   5
ENDBRANCH   3   4
ENDBRANCH   2   3
ENDBRANCH   1   2
BRANCH   1   8
ATOM      8  C   UNL     1     -43.917 -48.560  39.222  1.00  0.00     0.000 C 
BRANCH   8   9
ATOM      9  C   UNL     1     -43.081 -47.761  40.238  1.00  0.00     0.006 C 
BRANCH   9  10
ATOM     10  C   UNL     1     -42.404 -46.541  39.597  1.00  0.00     0.053 C 
BRANCH  10  11
ATOM     11  C   UNL     1     -42.897 -45.257  40.191  1.00  0.00     0.041 C 
ATOM     12  O   UNL     1     -44.127 -44.984  40.178  1.00  0.00    -0.550 OA
ATOM     13  O   UNL     1     -42.004 -44.378  40.790  1.00  0.00    -0.550 OA
ENDBRANCH  10  11
ENDBRANCH   9  10
ENDBRANCH   8   9
ENDBRANCH   1   8
TORSDOF 8
ENDMDL
MODEL 3
REMARK VINA RESULT:    -3.577      1.177      5.655
REMARK INTER + INTRA:          -5.716
REMARK INTER:                  -5.050
REMARK INTRA:                  -0.666
REMARK UNBOUND:                -0.466
REMARK SMILES O=C([O-])CCCCCCCC(=O)[O-]
REMARK SMILES IDX 7 1 6 2 5 3 4 4 2 5 1 6 3 7 8 8 9 9 10 10 11 11 12 12 13 13
REMARK H PARENT
REMARK Flexibility Score: inf
ROOT
ATOM      1  C   UNL     1     -43.120 -49.175  34.296  1.00  0.00     0.000 C 
ENDROOT
BRANCH   1   2
ATOM      2  C   UNL     1     -42.377 -47.841  34.482  1.00  0.00     0.000 C 
BRANCH   2   3
ATOM      3  C   UNL     1     -40.850 -48.002  34.419  1.00  0.00     0.006 C 
BRANCH   3   4
ATOM      4  C   UNL     1     -40.181 -47.818  35.788  1.00  0.00     0.053 C 
BRANCH   4   5
ATOM      5  C   UNL     1     -40.207 -49.100  36.558  1.00  0.00     0.041 C 
ATOM      6  O   UNL     1     -40.484 -49.096  37.786  1.00  0.00    -0.550 OA
ATOM      7  O   UNL     1     -39.876 -50.295  35.930  1.00  0.00    -0.550 OA
ENDBRANCH   4   5
ENDBRANCH   3   4
ENDBRANCH   2   3
ENDBRANCH   1   2
BRANCH   1   8
ATOM      8  C   UNL     1     -43.995 -49.537  35.506  1.00  0.00     0.000 C 
BRANCH   8   9
ATOM      9  C   UNL     1     -43.850 -48.530  36.661  1.00  0.00     0.006 C 
BRANCH   9  10
ATOM     10  C   UNL     1     -45.211 -48.086  37.216  1.00  0.00     0.053 C 
BRANCH  10  11
ATOM     11  C   UNL     1     -46.090 -49.257  37.534  1.00  0.00     0.041 C 
ATOM     12  O   UNL     1     -45.796 -50.030  38.485  1.00  0.00    -0.550 OA
ATOM     13  O   UNL     1     -47.252 -49.474  36.806  1.00  0.00    -0.550 OA
ENDBRANCH  10  11
ENDBRANCH   9  10
ENDBRANCH   8   9
ENDBRANCH   1   8
TORSDOF 8
ENDMDL
MODEL 4
REMARK VINA RESULT:    -3.541      3.547      6.425
REMARK INTER + INTRA:          -5.663
REMARK INTER:                  -5.216
REMARK INTRA:                  -0.447
REMARK UNBOUND:                -0.466
REMARK SMILES O=C([O-])CCCCCCCC(=O)[O-]
REMARK SMILES IDX 7 1 6 2 5 3 4 4 2 5 1 6 3 7 8 8 9 9 10 10 11 11 12 12 13 13
REMARK H PARENT
REMARK Flexibility Score: inf
ROOT
ATOM      1  C   UNL     1     -45.071 -48.005  37.501  1.00  0.00     0.000 C 
ENDROOT
BRANCH   1   2
ATOM      2  C   UNL     1     -43.678 -48.176  38.131  1.00  0.00     0.000 C 
BRANCH   2   3
ATOM      3  C   UNL     1     -43.614 -47.652  39.574  1.00  0.00     0.006 C 
BRANCH   3   4
ATOM      4  C   UNL     1     -42.446 -46.682  39.797  1.00  0.00     0.053 C 
BRANCH   4   5
ATOM      5  C   UNL     1     -42.949 -45.370  40.311  1.00  0.00     0.041 C 
ATOM      6  O   UNL     1     -44.172 -45.085  40.231  1.00  0.00    -0.550 OA
ATOM      7  O   UNL     1     -42.057 -44.441  40.835  1.00  0.00    -0.550 OA
ENDBRANCH   4   5
ENDBRANCH   3   4
ENDBRANCH   2   3
ENDBRANCH   1   2
BRANCH   1   8
ATOM      8  C   UNL     1     -45.511 -49.238  36.697  1.00  0.00     0.000 C 
BRANCH   8   9
ATOM      9  C   UNL     1     -46.818 -49.853  37.228  1.00  0.00     0.006 C 
BRANCH   9  10
ATOM     10  C   UNL     1     -46.598 -51.246  37.835  1.00  0.00     0.053 C 
BRANCH  10  11
ATOM     11  C   UNL     1     -46.679 -51.220  39.331  1.00  0.00     0.041 C 
ATOM     12  O   UNL     1     -45.938 -50.445  39.992  1.00  0.00    -0.550 OA
ATOM     13  O   UNL     1     -47.598 -52.023  39.993  1.00  0.00    -0.550 OA
ENDBRANCH  10  11
ENDBRANCH   9  10
ENDBRANCH   8   9
ENDBRANCH   1   8
TORSDOF 8
ENDMDL
MODEL 5
REMARK VINA RESULT:    -3.521      5.421      8.018
REMARK INTER + INTRA:          -5.633
REMARK INTER:                  -5.220
REMARK INTRA:                  -0.413
REMARK UNBOUND:                -0.466
REMARK SMILES O=C([O-])CCCCCCCC(=O)[O-]
REMARK SMILES IDX 7 1 6 2 5 3 4 4 2 5 1 6 3 7 8 8 9 9 10 10 11 11 12 12 13 13
REMARK H PARENT
REMARK Flexibility Score: inf
ROOT
ATOM      1  C   UNL     1     -46.148 -54.720  38.455  1.00  0.00     0.000 C 
ENDROOT
BRANCH   1   2
ATOM      2  C   UNL     1     -46.281 -56.218  38.780  1.00  0.00     0.000 C 
BRANCH   2   3
ATOM      3  C   UNL     1     -47.734 -56.712  38.706  1.00  0.00     0.006 C 
BRANCH   3   4
ATOM      4  C   UNL     1     -47.869 -58.034  37.940  1.00  0.00     0.053 C 
BRANCH   4   5
ATOM      5  C   UNL     1     -47.202 -59.143  38.692  1.00  0.00     0.041 C 
ATOM      6  O   UNL     1     -46.314 -59.841  38.136  1.00  0.00    -0.550 OA
ATOM      7  O   UNL     1     -47.595 -59.435  39.993  1.00  0.00    -0.550 OA
ENDBRANCH   4   5
ENDBRANCH   3   4
ENDBRANCH   2   3
ENDBRANCH   1   2
BRANCH   1   8
ATOM      8  C   UNL     1     -47.457 -53.948  38.684  1.00  0.00     0.000 C 
BRANCH   8   9
ATOM      9  C   UNL     1     -47.755 -52.944  37.556  1.00  0.00     0.006 C 
BRANCH   9  10
ATOM     10  C   UNL     1     -46.522 -52.108  37.186  1.00  0.00     0.053 C 
BRANCH  10  11
ATOM     11  C   UNL     1     -46.664 -50.683  37.627  1.00  0.00     0.041 C 
ATOM     12  O   UNL     1     -47.042 -49.802  36.809  1.00  0.00    -0.550 OA
ATOM     13  O   UNL     1     -46.415 -50.334  38.948  1.00  0.00    -0.550 OA
ENDBRANCH  10  11
ENDBRANCH   9  10
ENDBRANCH   8   9
ENDBRANCH   1   8
TORSDOF 8
ENDMDL
MODEL 6
REMARK VINA RESULT:    -3.516      2.472      7.029
REMARK INTER + INTRA:          -5.627
REMARK INTER:                  -5.257
REMARK INTRA:                  -0.370
REMARK UNBOUND:                -0.466
REMARK SMILES O=C([O-])CCCCCCCC(=O)[O-]
REMARK SMILES IDX 7 1 6 2 5 3 4 4 2 5 1 6 3 7 8 8 9 9 10 10 11 11 12 12 13 13
REMARK H PARENT
REMARK Flexibility Score: inf
ROOT
ATOM      1  C   UNL     1     -46.245 -51.286  37.435  1.00  0.00     0.000 C 
ENDROOT
BRANCH   1   2
ATOM      2  C   UNL     1     -46.864 -49.880  37.342  1.00  0.00     0.000 C 
BRANCH   2   3
ATOM      3  C   UNL     1     -45.842 -48.811  36.926  1.00  0.00     0.006 C 
BRANCH   3   4
ATOM      4  C   UNL     1     -44.640 -49.403  36.179  1.00  0.00     0.053 C 
BRANCH   4   5
ATOM      5  C   UNL     1     -43.472 -48.471  36.247  1.00  0.00     0.041 C 
ATOM      6  O   UNL     1     -43.048 -48.067  37.361  1.00  0.00    -0.550 OA
ATOM      7  O   UNL     1     -42.882 -48.009  35.077  1.00  0.00    -0.550 OA
ENDBRANCH   4   5
ENDBRANCH   3   4
ENDBRANCH   2   3
ENDBRANCH   1   2
BRANCH   1   8
ATOM      8  C   UNL     1     -47.247 -52.397  37.084  1.00  0.00     0.000 C 
BRANCH   8   9
ATOM      9  C   UNL     1     -47.669 -53.220  38.314  1.00  0.00     0.006 C 
BRANCH   9  10
ATOM     10  C   UNL     1     -46.984 -52.734  39.599  1.00  0.00     0.053 C 
BRANCH  10  11
ATOM     11  C   UNL     1     -47.981 -52.285  40.624  1.00  0.00     0.041 C 
ATOM     12  O   UNL     1     -47.857 -51.160  41.177  1.00  0.00    -0.550 OA
ATOM     13  O   UNL     1     -49.065 -53.093  40.942  1.00  0.00    -0.550 OA
ENDBRANCH  10  11
ENDBRANCH   9  10
ENDBRANCH   8   9
ENDBRANCH   1   8
TORSDOF 8
ENDMDL
MODEL 7
REMARK VINA RESULT:    -3.515      5.187      8.853
REMARK INTER + INTRA:          -5.625
REMARK INTER:                  -5.368
REMARK INTRA:                  -0.257
REMARK UNBOUND:                -0.466
REMARK SMILES O=C([O-])CCCCCCCC(=O)[O-]
REMARK SMILES IDX 7 1 6 2 5 3 4 4 2 5 1 6 3 7 8 8 9 9 10 10 11 11 12 12 13 13
REMARK H PARENT
REMARK Flexibility Score: inf
ROOT
ATOM      1  C   UNL     1     -46.456 -54.138  38.707  1.00  0.00     0.000 C 
ENDROOT
BRANCH   1   2
ATOM      2  C   UNL     1     -47.643 -53.419  38.043  1.00  0.00     0.000 C 
BRANCH   2   3
ATOM      3  C   UNL     1     -47.202 -52.243  37.159  1.00  0.00     0.006 C 
BRANCH   3   4
ATOM      4  C   UNL     1     -46.590 -51.094  37.969  1.00  0.00     0.053 C 
BRANCH   4   5
ATOM      5  C   UNL     1     -46.402 -49.887  37.105  1.00  0.00     0.041 C 
ATOM      6  O   UNL     1     -47.297 -49.003  37.047  1.00  0.00    -0.550 OA
ATOM      7  O   UNL     1     -45.260 -49.761  36.324  1.00  0.00    -0.550 OA
ENDBRANCH   4   5
ENDBRANCH   3   4
ENDBRANCH   2   3
ENDBRANCH   1   2
BRANCH   1   8
ATOM      8  C   UNL     1     -46.419 -55.640  38.382  1.00  0.00     0.000 C 
BRANCH   8   9
ATOM      9  C   UNL     1     -47.577 -56.414  39.037  1.00  0.00     0.006 C 
BRANCH   9  10
ATOM     10  C   UNL     1     -48.049 -57.590  38.171  1.00  0.00     0.053 C 
BRANCH  10  11
ATOM     11  C   UNL     1     -47.351 -58.864  38.536  1.00  0.00     0.041 C 
ATOM     12  O   UNL     1     -47.777 -59.569  39.489  1.00  0.00    -0.550 OA
ATOM     13  O   UNL     1     -46.253 -59.292  37.802  1.00  0.00    -0.550 OA
ENDBRANCH  10  11
ENDBRANCH   9  10
ENDBRANCH   8   9
ENDBRANCH   1   8
TORSDOF 8
ENDMDL
MODEL 8
REMARK VINA RESULT:    -3.501      2.874      6.521
REMARK INTER + INTRA:          -5.604
REMARK INTER:                  -5.170
REMARK INTRA:                  -0.434
REMARK UNBOUND:                -0.466
REMARK SMILES O=C([O-])CCCCCCCC(=O)[O-]
REMARK SMILES IDX 7 1 6 2 5 3 4 4 2 5 1 6 3 7 8 8 9 9 10 10 11 11 12 12 13 13
REMARK H PARENT
REMARK Flexibility Score: inf
ROOT
ATOM      1  C   UNL     1     -45.763 -48.202  37.274  1.00  0.00     0.000 C 
ENDROOT
BRANCH   1   2
ATOM      2  C   UNL     1     -44.357 -48.623  36.814  1.00  0.00     0.000 C 
BRANCH   2   3
ATOM      3  C   UNL     1     -43.262 -48.217  37.813  1.00  0.00     0.006 C 
BRANCH   3   4
ATOM      4  C   UNL     1     -43.827 -47.863  39.194  1.00  0.00     0.053 C 
BRANCH   4   5
ATOM      5  C   UNL     1     -43.276 -46.555  39.664  1.00  0.00     0.041 C 
ATOM      6  O   UNL     1     -42.041 -46.321  39.581  1.00  0.00    -0.550 OA
ATOM      7  O   UNL     1     -44.118 -45.611  40.239  1.00  0.00    -0.550 OA
ENDBRANCH   4   5
ENDBRANCH   3   4
ENDBRANCH   2   3
ENDBRANCH   1   2
BRANCH   1   8
ATOM      8  C   UNL     1     -46.817 -49.292  37.024  1.00  0.00     0.000 C 
BRANCH   8   9
ATOM      9  C   UNL     1     -46.796 -50.391  38.101  1.00  0.00     0.006 C 
BRANCH   9  10
ATOM     10  C   UNL     1     -46.835 -51.800  37.491  1.00  0.00     0.053 C 
BRANCH  10  11
ATOM     11  C   UNL     1     -47.417 -52.801  38.441  1.00  0.00     0.041 C 
ATOM     12  O   UNL     1     -47.607 -53.990  38.070  1.00  0.00    -0.550 OA
ATOM     13  O   UNL     1     -47.716 -52.432  39.746  1.00  0.00    -0.550 OA
ENDBRANCH  10  11
ENDBRANCH   9  10
ENDBRANCH   8   9
ENDBRANCH   1   8
TORSDOF 8
ENDMDL
MODEL 9
REMARK VINA RESULT:    -3.487      1.160      1.702
REMARK INTER + INTRA:          -5.583
REMARK INTER:                  -5.347
REMARK INTRA:                  -0.237
REMARK UNBOUND:                -0.466
REMARK SMILES O=C([O-])CCCCCCCC(=O)[O-]
REMARK SMILES IDX 7 1 6 2 5 3 4 4 2 5 1 6 3 7 8 8 9 9 10 10 11 11 12 12 13 13
REMARK H PARENT
REMARK Flexibility Score: inf
ROOT
ATOM      1  C   UNL     1     -44.432 -49.397  36.153  1.00  0.00     0.000 C 
ENDROOT
BRANCH   1   2
ATOM      2  C   UNL     1     -45.616 -48.778  36.915  1.00  0.00     0.000 C 
BRANCH   2   3
ATOM      3  C   UNL     1     -46.771 -49.771  37.118  1.00  0.00     0.006 C 
BRANCH   3   4
ATOM      4  C   UNL     1     -46.574 -50.660  38.352  1.00  0.00     0.053 C 
BRANCH   4   5
ATOM      5  C   UNL     1     -47.112 -52.033  38.098  1.00  0.00     0.041 C 
ATOM      6  O   UNL     1     -47.316 -52.425  36.919  1.00  0.00    -0.550 OA
ATOM      7  O   UNL     1     -47.432 -52.863  39.165  1.00  0.00    -0.550 OA
ENDBRANCH   4   5
ENDBRANCH   3   4
ENDBRANCH   2   3
ENDBRANCH   1   2
BRANCH   1   8
ATOM      8  C   UNL     1     -43.306 -48.384  35.889  1.00  0.00     0.000 C 
BRANCH   8   9
ATOM      9  C   UNL     1     -42.735 -48.495  34.465  1.00  0.00     0.006 C 
BRANCH   9  10
ATOM     10  C   UNL     1     -41.508 -47.595  34.262  1.00  0.00     0.053 C 
BRANCH  10  11
ATOM     11  C   UNL     1     -40.252 -48.250  34.748  1.00  0.00     0.041 C 
ATOM     12  O   UNL     1     -39.741 -49.201  34.098  1.00  0.00    -0.550 OA
ATOM     13  O   UNL     1     -39.624 -47.789  35.898  1.00  0.00    -0.550 OA
ENDBRANCH  10  11
ENDBRANCH   9  10
ENDBRANCH   8   9
ENDBRANCH   1   8
TORSDOF 8
ENDMDL
