MODEL 1
REMARK VINA RESULT:    -4.667      0.000      0.000
REMARK INTER + INTRA:          -7.028
REMARK INTER:                  -5.758
REMARK INTRA:                  -1.270
REMARK UNBOUND:                -1.270
REMARK SMILES CC(C)=CCC[C@@H](C)c1ccc(C)cc1
REMARK SMILES IDX 6 1 7 2 8 3 9 4 13 5 12 6 11 7 14 8 10 9 15 10 5 11 4 12
REMARK SMILES IDX 2 13 1 14 3 15
REMARK H PARENT
REMARK Flexibility Score: inf
ROOT
ATOM      1  C   UNL     1     127.637 146.074 120.459  1.00  0.00     0.012 C 
ENDROOT
BRANCH   1   2
ATOM      2  C   UNL     1     128.459 144.905 119.862  1.00  0.00     0.016 C 
ATOM      3  C   UNL     1     127.991 144.523 118.448  1.00  0.00     0.013 C 
BRANCH   2   4
ATOM      4  C   UNL     1     129.937 145.255 119.855  1.00  0.00    -0.045 A 
ATOM      5  C   UNL     1     134.149 146.216 119.835  1.00  0.00     0.044 C 
ATOM      6  C   UNL     1     132.686 145.883 119.873  1.00  0.00    -0.051 A 
ATOM      7  C   UNL     1     131.728 146.906 119.833  1.00  0.00     0.004 A 
ATOM      8  C   UNL     1     132.266 144.546 119.881  1.00  0.00     0.004 A 
ATOM      9  C   UNL     1     130.365 146.596 119.832  1.00  0.00     0.004 A 
ATOM     10  C   UNL     1     130.903 144.234 119.879  1.00  0.00     0.004 A 
ENDBRANCH   2   4
ENDBRANCH   1   2
BRANCH   1  11
ATOM     11  C   UNL     1     127.200 145.860 121.920  1.00  0.00     0.028 C 
BRANCH  11  12
ATOM     12  C   UNL     1     128.114 146.557 122.900  1.00  0.00    -0.028 C 
ATOM     13  C   UNL     1     129.098 145.951 123.599  1.00  0.00    -0.080 C 
ATOM     14  C   UNL     1     129.426 144.487 123.420  1.00  0.00     0.039 C 
ATOM     15  C   UNL     1     129.902 146.777 124.570  1.00  0.00     0.039 C 
ENDBRANCH  11  12
ENDBRANCH   1  11
TORSDOF 4
ENDMDL
MODEL 2
REMARK VINA RESULT:    -4.653      1.085      1.724
REMARK INTER + INTRA:          -7.011
REMARK INTER:                  -5.652
REMARK INTRA:                  -1.359
REMARK UNBOUND:                -1.270
REMARK SMILES CC(C)=CCC[C@@H](C)c1ccc(C)cc1
REMARK SMILES IDX 6 1 7 2 8 3 9 4 13 5 12 6 11 7 14 8 10 9 15 10 5 11 4 12
REMARK SMILES IDX 2 13 1 14 3 15
REMARK H PARENT
REMARK Flexibility Score: inf
ROOT
ATOM      1  C   UNL     1     128.181 142.978 120.112  1.00  0.00     0.012 C 
ENDROOT
BRANCH   1   2
ATOM      2  C   UNL     1     128.694 143.915 118.991  1.00  0.00     0.016 C 
ATOM      3  C   UNL     1     127.647 144.961 118.577  1.00  0.00     0.013 C 
BRANCH   2   4
ATOM      4  C   UNL     1     129.980 144.597 119.427  1.00  0.00    -0.045 A 
ATOM      5  C   UNL     1     133.653 146.502 120.670  1.00  0.00     0.044 C 
ATOM      6  C   UNL     1     132.368 145.839 120.268  1.00  0.00    -0.051 A 
ATOM      7  C   UNL     1     131.245 146.613 119.944  1.00  0.00     0.004 A 
ATOM      8  C   UNL     1     132.300 144.444 120.148  1.00  0.00     0.004 A 
ATOM      9  C   UNL     1     130.058 145.998 119.535  1.00  0.00     0.004 A 
ATOM     10  C   UNL     1     131.115 143.827 119.739  1.00  0.00     0.004 A 
ENDBRANCH   2   4
ENDBRANCH   1   2
BRANCH   1  11
ATOM     11  C   UNL     1     127.265 143.664 121.142  1.00  0.00     0.028 C 
BRANCH  11  12
ATOM     12  C   UNL     1     128.047 144.409 122.198  1.00  0.00    -0.028 C 
ATOM     13  C   UNL     1     127.924 145.729 122.456  1.00  0.00    -0.080 C 
ATOM     14  C   UNL     1     126.925 146.600 121.732  1.00  0.00     0.039 C 
ATOM     15  C   UNL     1     128.803 146.336 123.520  1.00  0.00     0.039 C 
ENDBRANCH  11  12
ENDBRANCH   1  11
TORSDOF 4
ENDMDL
MODEL 3
REMARK VINA RESULT:    -4.559      1.112      4.268
REMARK INTER + INTRA:          -6.896
REMARK INTER:                  -5.335
REMARK INTRA:                  -1.560
REMARK UNBOUND:                -1.270
REMARK SMILES CC(C)=CCC[C@@H](C)c1ccc(C)cc1
REMARK SMILES IDX 6 1 7 2 8 3 9 4 13 5 12 6 11 7 14 8 10 9 15 10 5 11 4 12
REMARK SMILES IDX 2 13 1 14 3 15
REMARK H PARENT
REMARK Flexibility Score: inf
ROOT
ATOM      1  C   UNL     1     127.286 145.312 119.812  1.00  0.00     0.012 C 
ENDROOT
BRANCH   1   2
ATOM      2  C   UNL     1     127.243 144.367 121.038  1.00  0.00     0.016 C 
ATOM      3  C   UNL     1     127.765 142.959 120.710  1.00  0.00     0.013 C 
BRANCH   2   4
ATOM      4  C   UNL     1     128.028 144.969 122.190  1.00  0.00    -0.045 A 
ATOM      5  C   UNL     1     130.242 146.711 125.465  1.00  0.00     0.044 C 
ATOM      6  C   UNL     1     129.494 146.117 124.308  1.00  0.00    -0.051 A 
ATOM      7  C   UNL     1     129.772 144.811 123.883  1.00  0.00     0.004 A 
ATOM      8  C   UNL     1     128.466 146.839 123.686  1.00  0.00     0.004 A 
ATOM      9  C   UNL     1     129.051 144.243 122.828  1.00  0.00     0.004 A 
ATOM     10  C   UNL     1     127.744 146.273 122.632  1.00  0.00     0.004 A 
ENDBRANCH   2   4
ENDBRANCH   1   2
BRANCH   1  11
ATOM     11  C   UNL     1     128.584 145.223 118.989  1.00  0.00     0.028 C 
BRANCH  11  12
ATOM     12  C   UNL     1     129.624 146.219 119.446  1.00  0.00    -0.028 C 
ATOM     13  C   UNL     1     130.845 145.893 119.920  1.00  0.00    -0.080 C 
ATOM     14  C   UNL     1     131.325 144.462 119.987  1.00  0.00     0.039 C 
ATOM     15  C   UNL     1     131.759 147.003 120.372  1.00  0.00     0.039 C 
ENDBRANCH  11  12
ENDBRANCH   1  11
TORSDOF 4
ENDMDL
MODEL 4
REMARK VINA RESULT:    -4.473      2.514      3.862
REMARK INTER + INTRA:          -6.789
REMARK INTER:                  -5.813
REMARK INTRA:                  -0.976
REMARK UNBOUND:                -1.270
REMARK SMILES CC(C)=CCC[C@@H](C)c1ccc(C)cc1
REMARK SMILES IDX 6 1 7 2 8 3 9 4 13 5 12 6 11 7 14 8 10 9 15 10 5 11 4 12
REMARK SMILES IDX 2 13 1 14 3 15
REMARK H PARENT
REMARK Flexibility Score: inf
ROOT
ATOM      1  C   UNL     1     127.480 144.012 120.644  1.00  0.00     0.012 C 
ENDROOT
BRANCH   1   2
ATOM      2  C   UNL     1     128.322 144.074 119.345  1.00  0.00     0.016 C 
ATOM      3  C   UNL     1     127.626 144.876 118.234  1.00  0.00     0.013 C 
BRANCH   2   4
ATOM      4  C   UNL     1     129.694 144.656 119.640  1.00  0.00    -0.045 A 
ATOM      5  C   UNL     1     133.582 146.342 120.477  1.00  0.00     0.044 C 
ATOM      6  C   UNL     1     132.237 145.759 120.156  1.00  0.00    -0.051 A 
ATOM      7  C   UNL     1     132.081 144.372 120.030  1.00  0.00     0.004 A 
ATOM      8  C   UNL     1     131.114 146.591 120.046  1.00  0.00     0.004 A 
ATOM      9  C   UNL     1     130.822 143.824 119.766  1.00  0.00     0.004 A 
ATOM     10  C   UNL     1     129.855 146.045 119.782  1.00  0.00     0.004 A 
ENDBRANCH   2   4
ENDBRANCH   1   2
BRANCH   1  11
ATOM     11  C   UNL     1     127.735 142.760 121.504  1.00  0.00     0.028 C 
BRANCH  11  12
ATOM     12  C   UNL     1     127.190 141.504 120.865  1.00  0.00    -0.028 C 
ATOM     13  C   UNL     1     127.947 140.482 120.411  1.00  0.00    -0.080 C 
ATOM     14  C   UNL     1     129.451 140.471 120.556  1.00  0.00     0.039 C 
ATOM     15  C   UNL     1     127.255 139.310 119.763  1.00  0.00     0.039 C 
ENDBRANCH  11  12
ENDBRANCH   1  11
TORSDOF 4
ENDMDL
MODEL 5
REMARK VINA RESULT:    -4.392      2.362      5.032
REMARK INTER + INTRA:          -6.689
REMARK INTER:                  -5.349
REMARK INTRA:                  -1.340
REMARK UNBOUND:                -1.270
REMARK SMILES CC(C)=CCC[C@@H](C)c1ccc(C)cc1
REMARK SMILES IDX 6 1 7 2 8 3 9 4 13 5 12 6 11 7 14 8 10 9 15 10 5 11 4 12
REMARK SMILES IDX 2 13 1 14 3 15
REMARK H PARENT
REMARK Flexibility Score: inf
ROOT
ATOM      1  C   UNL     1     129.105 146.179 121.048  1.00  0.00     0.012 C 
ENDROOT
BRANCH   1   2
ATOM      2  C   UNL     1     127.645 145.662 121.042  1.00  0.00     0.016 C 
ATOM      3  C   UNL     1     126.876 146.095 119.783  1.00  0.00     0.013 C 
BRANCH   2   4
ATOM      4  C   UNL     1     127.625 144.150 121.182  1.00  0.00    -0.045 A 
ATOM      5  C   UNL     1     127.584 139.852 121.613  1.00  0.00     0.044 C 
ATOM      6  C   UNL     1     127.626 141.342 121.449  1.00  0.00    -0.051 A 
ATOM      7  C   UNL     1     127.055 141.945 120.319  1.00  0.00     0.004 A 
ATOM      8  C   UNL     1     128.175 142.149 122.455  1.00  0.00     0.004 A 
ATOM      9  C   UNL     1     127.061 143.336 120.182  1.00  0.00     0.004 A 
ATOM     10  C   UNL     1     128.182 143.540 122.320  1.00  0.00     0.004 A 
ENDBRANCH   2   4
ENDBRANCH   1   2
BRANCH   1  11
ATOM     11  C   UNL     1     129.856 145.971 119.720  1.00  0.00     0.028 C 
BRANCH  11  12
ATOM     12  C   UNL     1     131.268 145.477 119.931  1.00  0.00    -0.028 C 
ATOM     13  C   UNL     1     131.655 144.187 119.823  1.00  0.00    -0.080 C 
ATOM     14  C   UNL     1     130.698 143.093 119.413  1.00  0.00     0.039 C 
ATOM     15  C   UNL     1     133.097 143.845 120.100  1.00  0.00     0.039 C 
ENDBRANCH  11  12
ENDBRANCH   1  11
TORSDOF 4
ENDMDL
MODEL 6
REMARK VINA RESULT:    -4.263      1.843      3.367
REMARK INTER + INTRA:          -6.530
REMARK INTER:                  -5.717
REMARK INTRA:                  -0.813
REMARK UNBOUND:                -1.270
REMARK SMILES CC(C)=CCC[C@@H](C)c1ccc(C)cc1
REMARK SMILES IDX 6 1 7 2 8 3 9 4 13 5 12 6 11 7 14 8 10 9 15 10 5 11 4 12
REMARK SMILES IDX 2 13 1 14 3 15
REMARK H PARENT
REMARK Flexibility Score: inf
ROOT
ATOM      1  C   UNL     1     128.852 145.272 119.385  1.00  0.00     0.012 C 
ENDROOT
BRANCH   1   2
ATOM      2  C   UNL     1     129.825 146.141 120.220  1.00  0.00     0.016 C 
ATOM      3  C   UNL     1     129.540 146.053 121.728  1.00  0.00     0.013 C 
BRANCH   2   4
ATOM      4  C   UNL     1     131.262 145.745 119.928  1.00  0.00    -0.045 A 
ATOM      5  C   UNL     1     135.359 144.654 119.098  1.00  0.00     0.044 C 
ATOM      6  C   UNL     1     133.931 145.034 119.355  1.00  0.00    -0.051 A 
ATOM      7  C   UNL     1     132.955 144.041 119.520  1.00  0.00     0.004 A 
ATOM      8  C   UNL     1     133.573 146.381 119.501  1.00  0.00     0.004 A 
ATOM      9  C   UNL     1     131.630 144.393 119.796  1.00  0.00     0.004 A 
ATOM     10  C   UNL     1     132.249 146.735 119.777  1.00  0.00     0.004 A 
ENDBRANCH   2   4
ENDBRANCH   1   2
BRANCH   1  11
ATOM     11  C   UNL     1     127.573 144.856 120.133  1.00  0.00     0.028 C 
BRANCH  11  12
ATOM     12  C   UNL     1     127.259 143.388 119.961  1.00  0.00    -0.028 C 
ATOM     13  C   UNL     1     127.468 142.442 120.902  1.00  0.00    -0.080 C 
ATOM     14  C   UNL     1     127.998 142.779 122.276  1.00  0.00     0.039 C 
ATOM     15  C   UNL     1     127.137 141.010 120.565  1.00  0.00     0.039 C 
ENDBRANCH  11  12
ENDBRANCH   1  11
TORSDOF 4
ENDMDL
MODEL 7
REMARK VINA RESULT:    -4.242      2.148      4.622
REMARK INTER + INTRA:          -6.504
REMARK INTER:                  -4.947
REMARK INTRA:                  -1.557
REMARK UNBOUND:                -1.270
REMARK SMILES CC(C)=CCC[C@@H](C)c1ccc(C)cc1
REMARK SMILES IDX 6 1 7 2 8 3 9 4 13 5 12 6 11 7 14 8 10 9 15 10 5 11 4 12
REMARK SMILES IDX 2 13 1 14 3 15
REMARK H PARENT
REMARK Flexibility Score: inf
ROOT
ATOM      1  C   UNL     1     129.350 145.350 119.423  1.00  0.00     0.012 C 
ENDROOT
BRANCH   1   2
ATOM      2  C   UNL     1     128.303 146.246 120.129  1.00  0.00     0.016 C 
ATOM      3  C   UNL     1     126.875 145.992 119.618  1.00  0.00     0.013 C 
BRANCH   2   4
ATOM      4  C   UNL     1     128.372 146.046 121.633  1.00  0.00    -0.045 A 
ATOM      5  C   UNL     1     128.604 145.469 125.908  1.00  0.00     0.044 C 
ATOM      6  C   UNL     1     128.517 145.639 124.420  1.00  0.00    -0.051 A 
ATOM      7  C   UNL     1     127.296 145.974 123.817  1.00  0.00     0.004 A 
ATOM      8  C   UNL     1     129.669 145.531 123.628  1.00  0.00     0.004 A 
ATOM      9  C   UNL     1     127.222 146.168 122.435  1.00  0.00     0.004 A 
ATOM     10  C   UNL     1     129.596 145.725 122.246  1.00  0.00     0.004 A 
ENDBRANCH   2   4
ENDBRANCH   1   2
BRANCH   1  11
ATOM     11  C   UNL     1     128.833 143.951 119.043  1.00  0.00     0.028 C 
BRANCH  11  12
ATOM     12  C   UNL     1     129.438 142.863 119.900  1.00  0.00    -0.028 C 
ATOM     13  C   UNL     1     128.801 142.241 120.915  1.00  0.00    -0.080 C 
ATOM     14  C   UNL     1     127.362 142.541 121.265  1.00  0.00     0.039 C 
ATOM     15  C   UNL     1     129.554 141.199 121.703  1.00  0.00     0.039 C 
ENDBRANCH  11  12
ENDBRANCH   1  11
TORSDOF 4
ENDMDL
MODEL 8
REMARK VINA RESULT:    -4.235      1.652      4.759
REMARK INTER + INTRA:          -6.496
REMARK INTER:                  -5.024
REMARK INTRA:                  -1.471
REMARK UNBOUND:                -1.270
REMARK SMILES CC(C)=CCC[C@@H](C)c1ccc(C)cc1
REMARK SMILES IDX 6 1 7 2 8 3 9 4 13 5 12 6 11 7 14 8 10 9 15 10 5 11 4 12
REMARK SMILES IDX 2 13 1 14 3 15
REMARK H PARENT
REMARK Flexibility Score: inf
ROOT
ATOM      1  C   UNL     1     130.416 142.398 120.048  1.00  0.00     0.012 C 
ENDROOT
BRANCH   1   2
ATOM      2  C   UNL     1     128.870 142.358 120.139  1.00  0.00     0.016 C 
ATOM      3  C   UNL     1     128.358 141.085 120.833  1.00  0.00     0.013 C 
BRANCH   2   4
ATOM      4  C   UNL     1     128.356 143.595 120.855  1.00  0.00    -0.045 A 
ATOM      5  C   UNL     1     126.875 147.122 122.861  1.00  0.00     0.044 C 
ATOM      6  C   UNL     1     127.413 145.914 122.154  1.00  0.00    -0.051 A 
ATOM      7  C   UNL     1     128.282 145.036 122.817  1.00  0.00     0.004 A 
ATOM      8  C   UNL     1     127.000 145.617 120.848  1.00  0.00     0.004 A 
ATOM      9  C   UNL     1     128.756 143.890 122.172  1.00  0.00     0.004 A 
ATOM     10  C   UNL     1     127.473 144.472 120.201  1.00  0.00     0.004 A 
ENDBRANCH   2   4
ENDBRANCH   1   2
BRANCH   1  11
ATOM     11  C   UNL     1     130.972 143.594 119.254  1.00  0.00     0.028 C 
BRANCH  11  12
ATOM     12  C   UNL     1     131.920 144.437 120.074  1.00  0.00    -0.028 C 
ATOM     13  C   UNL     1     131.767 145.758 120.311  1.00  0.00    -0.080 C 
ATOM     14  C   UNL     1     130.567 146.529 119.812  1.00  0.00     0.039 C 
ATOM     15  C   UNL     1     132.821 146.469 121.120  1.00  0.00     0.039 C 
ENDBRANCH  11  12
ENDBRANCH   1  11
TORSDOF 4
ENDMDL
MODEL 9
REMARK VINA RESULT:    -2.954      1.858      3.042
REMARK INTER + INTRA:          -4.915
REMARK INTER:                  -3.480
REMARK INTRA:                  -1.435
REMARK UNBOUND:                -1.270
REMARK SMILES CC(C)=CCC[C@@H](C)c1ccc(C)cc1
REMARK SMILES IDX 6 1 7 2 8 3 9 4 13 5 12 6 11 7 14 8 10 9 15 10 5 11 4 12
REMARK SMILES IDX 2 13 1 14 3 15
REMARK H PARENT
REMARK Flexibility Score: inf
ROOT
ATOM      1  C   UNL     1     127.836 144.687 118.976  1.00  0.00     0.012 C 
ENDROOT
BRANCH   1   2
ATOM      2  C   UNL     1     127.908 145.953 119.865  1.00  0.00     0.016 C 
ATOM      3  C   UNL     1     126.875 145.929 121.003  1.00  0.00     0.013 C 
BRANCH   2   4
ATOM      4  C   UNL     1     129.310 146.120 120.424  1.00  0.00    -0.045 A 
ATOM      5  C   UNL     1     133.311 146.601 121.981  1.00  0.00     0.044 C 
ATOM      6  C   UNL     1     131.926 146.404 121.438  1.00  0.00    -0.051 A 
ATOM      7  C   UNL     1     130.852 146.176 122.309  1.00  0.00     0.004 A 
ATOM      8  C   UNL     1     131.685 146.512 120.061  1.00  0.00     0.004 A 
ATOM      9  C   UNL     1     129.555 146.027 121.807  1.00  0.00     0.004 A 
ATOM     10  C   UNL     1     130.390 146.364 119.557  1.00  0.00     0.004 A 
ENDBRANCH   2   4
ENDBRANCH   1   2
BRANCH   1  11
ATOM     11  C   UNL     1     127.565 143.384 119.751  1.00  0.00     0.028 C 
BRANCH  11  12
ATOM     12  C   UNL     1     128.840 142.674 120.142  1.00  0.00    -0.028 C 
ATOM     13  C   UNL     1     129.194 142.373 121.410  1.00  0.00    -0.080 C 
ATOM     14  C   UNL     1     128.296 142.675 122.588  1.00  0.00     0.039 C 
ATOM     15  C   UNL     1     130.519 141.693 121.643  1.00  0.00     0.039 C 
ENDBRANCH  11  12
ENDBRANCH   1  11
TORSDOF 4
ENDMDL
