MODEL 1
REMARK VINA RESULT:    -5.659      0.000      0.000
REMARK INTER + INTRA:          -6.366
REMARK INTER:                  -6.155
REMARK INTRA:                  -0.211
REMARK UNBOUND:                -0.211
REMARK SMILES O=C([O-])c1ccccc1O
REMARK SMILES IDX 4 1 9 2 5 3 8 4 6 5 7 6 2 7 1 8 3 9 10 10
REMARK H PARENT 10 11
REMARK Flexibility Score: inf
ROOT
ATOM      1  C   UNL     1     -11.778 -17.579  29.891  1.00  0.00     0.039 A 
ATOM      2  C   UNL     1     -13.064 -17.174  29.450  1.00  0.00     0.124 A 
ATOM      3  C   UNL     1     -10.647 -17.159  29.167  1.00  0.00     0.014 A 
ATOM      4  C   UNL     1     -13.189 -16.425  28.273  1.00  0.00     0.047 A 
ATOM      5  C   UNL     1     -10.788 -16.393  28.007  1.00  0.00     0.001 A 
ATOM      6  C   UNL     1     -12.057 -16.035  27.556  1.00  0.00     0.004 A 
ENDROOT
BRANCH   1   7
ATOM      7  C   UNL     1     -11.582 -18.456  31.066  1.00  0.00     0.075 C 
ATOM      8  O   UNL     1     -10.479 -19.038  31.243  1.00  0.00    -0.545 OA
ATOM      9  O   UNL     1     -12.626 -18.708  31.948  1.00  0.00    -0.545 OA
ENDBRANCH   1   7
BRANCH   2  10
ATOM     10  O   UNL     1     -14.230 -17.463  30.163  1.00  0.00    -0.507 OA
ATOM     11  H   UNL     1     -14.321 -18.259  30.780  1.00  0.00     0.293 HD
ENDBRANCH   2  10
TORSDOF 2
ENDMDL
MODEL 2
REMARK VINA RESULT:    -5.530      1.816      3.382
REMARK INTER + INTRA:          -6.226
REMARK INTER:                  -6.027
REMARK INTRA:                  -0.199
REMARK UNBOUND:                -0.211
REMARK SMILES O=C([O-])c1ccccc1O
REMARK SMILES IDX 4 1 9 2 5 3 8 4 6 5 7 6 2 7 1 8 3 9 10 10
REMARK H PARENT 10 11
REMARK Flexibility Score: inf
ROOT
ATOM      1  C   UNL     1     -12.014 -17.261  29.057  1.00  0.00     0.039 A 
ATOM      2  C   UNL     1     -12.926 -17.684  30.058  1.00  0.00     0.124 A 
ATOM      3  C   UNL     1     -10.662 -17.637  29.167  1.00  0.00     0.014 A 
ATOM      4  C   UNL     1     -12.457 -18.407  31.162  1.00  0.00     0.047 A 
ATOM      5  C   UNL     1     -10.215 -18.377  30.264  1.00  0.00     0.001 A 
ATOM      6  C   UNL     1     -11.109 -18.753  31.264  1.00  0.00     0.004 A 
ENDROOT
BRANCH   1   7
ATOM      7  C   UNL     1     -12.423 -16.408  27.920  1.00  0.00     0.075 C 
ATOM      8  O   UNL     1     -11.566 -16.018  27.083  1.00  0.00    -0.545 OA
ATOM      9  O   UNL     1     -13.735 -15.969  27.796  1.00  0.00    -0.545 OA
ENDBRANCH   1   7
BRANCH   2  10
ATOM     10  O   UNL     1     -14.298 -17.440  29.976  1.00  0.00    -0.507 OA
ATOM     11  H   UNL     1     -14.975 -18.149  29.730  1.00  0.00     0.293 HD
ENDBRANCH   2  10
TORSDOF 2
ENDMDL
MODEL 3
REMARK VINA RESULT:    -5.276      1.594      2.195
REMARK INTER + INTRA:          -5.949
REMARK INTER:                  -5.711
REMARK INTRA:                  -0.238
REMARK UNBOUND:                -0.211
REMARK SMILES O=C([O-])c1ccccc1O
REMARK SMILES IDX 4 1 9 2 5 3 8 4 6 5 7 6 2 7 1 8 3 9 10 10
REMARK H PARENT 10 11
REMARK Flexibility Score: inf
ROOT
ATOM      1  C   UNL     1     -12.307 -18.416  31.195  1.00  0.00     0.039 A 
ATOM      2  C   UNL     1     -12.970 -17.823  30.090  1.00  0.00     0.124 A 
ATOM      3  C   UNL     1     -10.924 -18.660  31.107  1.00  0.00     0.014 A 
ATOM      4  C   UNL     1     -12.256 -17.552  28.917  1.00  0.00     0.047 A 
ATOM      5  C   UNL     1     -10.221 -18.363  29.937  1.00  0.00     0.001 A 
ATOM      6  C   UNL     1     -10.888 -17.819  28.840  1.00  0.00     0.004 A 
ENDROOT
BRANCH   1   7
ATOM      7  C   UNL     1     -13.022 -18.823  32.425  1.00  0.00     0.075 C 
ATOM      8  O   UNL     1     -13.692 -17.978  33.075  1.00  0.00    -0.545 OA
ATOM      9  O   UNL     1     -12.909 -20.117  32.918  1.00  0.00    -0.545 OA
ENDBRANCH   1   7
BRANCH   2  10
ATOM     10  O   UNL     1     -14.318 -17.458  30.129  1.00  0.00    -0.507 OA
ATOM     11  H   UNL     1     -15.021 -17.983  30.632  1.00  0.00     0.293 HD
ENDBRANCH   2  10
TORSDOF 2
ENDMDL
MODEL 4
REMARK VINA RESULT:    -5.229      2.443      3.910
REMARK INTER + INTRA:          -5.899
REMARK INTER:                  -5.657
REMARK INTRA:                  -0.242
REMARK UNBOUND:                -0.211
REMARK SMILES O=C([O-])c1ccccc1O
REMARK SMILES IDX 4 1 9 2 5 3 8 4 6 5 7 6 2 7 1 8 3 9 10 10
REMARK H PARENT 10 11
REMARK Flexibility Score: inf
ROOT
ATOM      1  C   UNL     1     -10.759 -17.014  28.946  1.00  0.00     0.039 A 
ATOM      2  C   UNL     1     -10.954 -18.370  29.313  1.00  0.00     0.124 A 
ATOM      3  C   UNL     1      -9.865 -16.228  29.698  1.00  0.00     0.014 A 
ATOM      4  C   UNL     1     -10.309 -18.882  30.446  1.00  0.00     0.047 A 
ATOM      5  C   UNL     1      -9.214 -16.760  30.813  1.00  0.00     0.001 A 
ATOM      6  C   UNL     1      -9.443 -18.082  31.192  1.00  0.00     0.004 A 
ENDROOT
BRANCH   1   7
ATOM      7  C   UNL     1     -11.486 -16.383  27.824  1.00  0.00     0.075 C 
ATOM      8  O   UNL     1     -12.740 -16.485  27.746  1.00  0.00    -0.545 OA
ATOM      9  O   UNL     1     -10.799 -15.732  26.807  1.00  0.00    -0.545 OA
ENDBRANCH   1   7
BRANCH   2  10
ATOM     10  O   UNL     1     -11.745 -19.245  28.565  1.00  0.00    -0.507 OA
ATOM     11  H   UNL     1     -11.633 -20.250  28.584  1.00  0.00     0.293 HD
ENDBRANCH   2  10
TORSDOF 2
ENDMDL
MODEL 5
REMARK VINA RESULT:    -5.193      3.915      6.116
REMARK INTER + INTRA:          -5.859
REMARK INTER:                  -5.634
REMARK INTRA:                  -0.225
REMARK UNBOUND:                -0.211
REMARK SMILES O=C([O-])c1ccccc1O
REMARK SMILES IDX 4 1 9 2 5 3 8 4 6 5 7 6 2 7 1 8 3 9 10 10
REMARK H PARENT 10 11
REMARK Flexibility Score: inf
ROOT
ATOM      1  C   UNL     1     -12.795 -20.360  33.346  1.00  0.00     0.039 A 
ATOM      2  C   UNL     1     -13.943 -21.190  33.290  1.00  0.00     0.124 A 
ATOM      3  C   UNL     1     -11.700 -20.765  34.131  1.00  0.00     0.014 A 
ATOM      4  C   UNL     1     -13.993 -22.357  34.063  1.00  0.00     0.047 A 
ATOM      5  C   UNL     1     -11.757 -21.943  34.880  1.00  0.00     0.001 A 
ATOM      6  C   UNL     1     -12.905 -22.732  34.853  1.00  0.00     0.004 A 
ENDROOT
BRANCH   1   7
ATOM      7  C   UNL     1     -12.718 -19.063  32.636  1.00  0.00     0.075 C 
ATOM      8  O   UNL     1     -13.586 -18.176  32.846  1.00  0.00    -0.545 OA
ATOM      9  O   UNL     1     -11.734 -18.833  31.682  1.00  0.00    -0.545 OA
ENDBRANCH   1   7
BRANCH   2  10
ATOM     10  O   UNL     1     -15.032 -20.913  32.461  1.00  0.00    -0.507 OA
ATOM     11  H   UNL     1     -15.326 -21.520  31.707  1.00  0.00     0.293 HD
ENDBRANCH   2  10
TORSDOF 2
ENDMDL
MODEL 6
REMARK VINA RESULT:    -5.179      1.988      2.709
REMARK INTER + INTRA:          -5.844
REMARK INTER:                  -5.595
REMARK INTRA:                  -0.249
REMARK UNBOUND:                -0.211
REMARK SMILES O=C([O-])c1ccccc1O
REMARK SMILES IDX 4 1 9 2 5 3 8 4 6 5 7 6 2 7 1 8 3 9 10 10
REMARK H PARENT 10 11
REMARK Flexibility Score: inf
ROOT
ATOM      1  C   UNL     1     -11.030 -17.234  29.944  1.00  0.00     0.039 A 
ATOM      2  C   UNL     1     -10.969 -16.433  28.775  1.00  0.00     0.124 A 
ATOM      3  C   UNL     1     -12.284 -17.688  30.393  1.00  0.00     0.014 A 
ATOM      4  C   UNL     1     -12.154 -16.057  28.130  1.00  0.00     0.047 A 
ATOM      5  C   UNL     1     -13.455 -17.321  29.726  1.00  0.00     0.001 A 
ATOM      6  C   UNL     1     -13.391 -16.499  28.602  1.00  0.00     0.004 A 
ENDROOT
BRANCH   1   7
ATOM      7  C   UNL     1      -9.826 -17.581  30.731  1.00  0.00     0.075 C 
ATOM      8  O   UNL     1      -8.972 -16.696  31.004  1.00  0.00    -0.545 OA
ATOM      9  O   UNL     1      -9.585 -18.893  31.120  1.00  0.00    -0.545 OA
ENDBRANCH   1   7
BRANCH   2  10
ATOM     10  O   UNL     1      -9.761 -16.023  28.206  1.00  0.00    -0.507 OA
ATOM     11  H   UNL     1      -9.270 -16.555  27.500  1.00  0.00     0.293 HD
ENDBRANCH   2  10
TORSDOF 2
ENDMDL
MODEL 7
REMARK VINA RESULT:    -5.156      1.313      2.605
REMARK INTER + INTRA:          -5.819
REMARK INTER:                  -5.593
REMARK INTRA:                  -0.226
REMARK UNBOUND:                -0.211
REMARK SMILES O=C([O-])c1ccccc1O
REMARK SMILES IDX 4 1 9 2 5 3 8 4 6 5 7 6 2 7 1 8 3 9 10 10
REMARK H PARENT 10 11
REMARK Flexibility Score: inf
ROOT
ATOM      1  C   UNL     1     -12.382 -18.138  30.796  1.00  0.00     0.039 A 
ATOM      2  C   UNL     1     -11.150 -18.403  30.145  1.00  0.00     0.124 A 
ATOM      3  C   UNL     1     -13.340 -17.341  30.142  1.00  0.00     0.014 A 
ATOM      4  C   UNL     1     -10.884 -17.819  28.900  1.00  0.00     0.047 A 
ATOM      5  C   UNL     1     -13.067 -16.782  28.891  1.00  0.00     0.001 A 
ATOM      6  C   UNL     1     -11.838 -17.013  28.276  1.00  0.00     0.004 A 
ENDROOT
BRANCH   1   7
ATOM      7  C   UNL     1     -12.685 -18.639  32.155  1.00  0.00     0.075 C 
ATOM      8  O   UNL     1     -13.517 -18.032  32.881  1.00  0.00    -0.545 OA
ATOM      9  O   UNL     1     -12.012 -19.738  32.674  1.00  0.00    -0.545 OA
ENDBRANCH   1   7
BRANCH   2  10
ATOM     10  O   UNL     1     -10.187 -19.263  30.678  1.00  0.00    -0.507 OA
ATOM     11  H   UNL     1     -10.106 -20.237  30.418  1.00  0.00     0.293 HD
ENDBRANCH   2  10
TORSDOF 2
ENDMDL
MODEL 8
REMARK VINA RESULT:    -5.114      2.513      4.234
REMARK INTER + INTRA:          -5.773
REMARK INTER:                  -5.555
REMARK INTRA:                  -0.217
REMARK UNBOUND:                -0.211
REMARK SMILES O=C([O-])c1ccccc1O
REMARK SMILES IDX 4 1 9 2 5 3 8 4 6 5 7 6 2 7 1 8 3 9 10 10
REMARK H PARENT 10 11
REMARK Flexibility Score: inf
ROOT
ATOM      1  C   UNL     1     -12.042 -16.509  28.722  1.00  0.00     0.039 A 
ATOM      2  C   UNL     1     -10.862 -16.544  29.507  1.00  0.00     0.124 A 
ATOM      3  C   UNL     1     -13.236 -17.023  29.263  1.00  0.00     0.014 A 
ATOM      4  C   UNL     1     -10.890 -17.144  30.772  1.00  0.00     0.047 A 
ATOM      5  C   UNL     1     -13.251 -17.599  30.535  1.00  0.00     0.001 A 
ATOM      6  C   UNL     1     -12.078 -17.668  31.285  1.00  0.00     0.004 A 
ENDROOT
BRANCH   1   7
ATOM      7  C   UNL     1     -12.060 -15.984  27.338  1.00  0.00     0.075 C 
ATOM      8  O   UNL     1     -13.153 -15.847  26.728  1.00  0.00    -0.545 OA
ATOM      9  O   UNL     1     -10.875 -15.702  26.670  1.00  0.00    -0.545 OA
ENDBRANCH   1   7
BRANCH   2  10
ATOM     10  O   UNL     1      -9.661 -15.969  29.087  1.00  0.00    -0.507 OA
ATOM     11  H   UNL     1      -9.601 -15.297  28.333  1.00  0.00     0.293 HD
ENDBRANCH   2  10
TORSDOF 2
ENDMDL
MODEL 9
REMARK VINA RESULT:    -4.847      1.343      2.717
REMARK INTER + INTRA:          -5.483
REMARK INTER:                  -5.248
REMARK INTRA:                  -0.235
REMARK UNBOUND:                -0.211
REMARK SMILES O=C([O-])c1ccccc1O
REMARK SMILES IDX 4 1 9 2 5 3 8 4 6 5 7 6 2 7 1 8 3 9 10 10
REMARK H PARENT 10 11
REMARK Flexibility Score: inf
ROOT
ATOM      1  C   UNL     1     -11.998 -16.646  29.084  1.00  0.00     0.039 A 
ATOM      2  C   UNL     1     -10.592 -16.496  28.981  1.00  0.00     0.124 A 
ATOM      3  C   UNL     1     -12.800 -16.315  27.976  1.00  0.00     0.014 A 
ATOM      4  C   UNL     1     -10.035 -15.964  27.812  1.00  0.00     0.047 A 
ATOM      5  C   UNL     1     -12.227 -15.805  26.809  1.00  0.00     0.001 A 
ATOM      6  C   UNL     1     -10.848 -15.621  26.730  1.00  0.00     0.004 A 
ENDROOT
BRANCH   1   7
ATOM      7  C   UNL     1     -12.659 -17.105  30.326  1.00  0.00     0.075 C 
ATOM      8  O   UNL     1     -13.842 -17.537  30.289  1.00  0.00    -0.545 OA
ATOM      9  O   UNL     1     -12.016 -17.002  31.553  1.00  0.00    -0.545 OA
ENDBRANCH   1   7
BRANCH   2  10
ATOM     10  O   UNL     1      -9.717 -16.893  29.995  1.00  0.00    -0.507 OA
ATOM     11  H   UNL     1      -8.796 -16.496  30.121  1.00  0.00     0.293 HD
ENDBRANCH   2  10
TORSDOF 2
ENDMDL
