MODEL 1
REMARK VINA RESULT:    -4.469      0.000      0.000
REMARK INTER + INTRA:          -7.172
REMARK INTER:                  -6.560
REMARK INTRA:                  -0.613
REMARK UNBOUND:                -0.613
REMARK SMILES O=C([O-])CCCCCCCC(=O)[O-]
REMARK SMILES IDX 7 1 6 2 5 3 4 4 2 5 1 6 3 7 8 8 9 9 10 10 11 11 12 12 13 13
REMARK H PARENT
REMARK Flexibility Score: inf
ROOT
ATOM      1  C   UNL     1      10.527 -12.966  24.414  1.00  0.00     0.000 C 
ENDROOT
BRANCH   1   2
ATOM      2  C   UNL     1      11.930 -12.644  23.873  1.00  0.00     0.000 C 
BRANCH   2   3
ATOM      3  C   UNL     1      12.837 -11.992  24.928  1.00  0.00     0.006 C 
BRANCH   3   4
ATOM      4  C   UNL     1      13.217 -12.997  26.019  1.00  0.00     0.053 C 
BRANCH   4   5
ATOM      5  C   UNL     1      14.310 -13.901  25.541  1.00  0.00     0.041 C 
ATOM      6  O   UNL     1      14.241 -15.141  25.747  1.00  0.00    -0.550 OA
ATOM      7  O   UNL     1      15.427 -13.368  24.911  1.00  0.00    -0.550 OA
ENDBRANCH   4   5
ENDBRANCH   3   4
ENDBRANCH   2   3
ENDBRANCH   1   2
BRANCH   1   8
ATOM      8  C   UNL     1       9.594 -11.746  24.403  1.00  0.00     0.000 C 
BRANCH   8   9
ATOM      9  C   UNL     1       9.083 -11.433  25.817  1.00  0.00     0.006 C 
BRANCH   9  10
ATOM     10  C   UNL     1       8.885 -12.703  26.656  1.00  0.00     0.053 C 
BRANCH  10  11
ATOM     11  C   UNL     1       9.292 -12.496  28.083  1.00  0.00     0.041 C 
ATOM     12  O   UNL     1      10.452 -12.808  28.462  1.00  0.00    -0.550 OA
ATOM     13  O   UNL     1       8.403 -11.927  28.985  1.00  0.00    -0.550 OA
ENDBRANCH  10  11
ENDBRANCH   9  10
ENDBRANCH   8   9
ENDBRANCH   1   8
TORSDOF 8
ENDMDL
MODEL 2
REMARK VINA RESULT:    -4.380      1.187      1.556
REMARK INTER + INTRA:          -7.041
REMARK INTER:                  -6.580
REMARK INTRA:                  -0.461
REMARK UNBOUND:                -0.613
REMARK SMILES O=C([O-])CCCCCCCC(=O)[O-]
REMARK SMILES IDX 7 1 6 2 5 3 4 4 2 5 1 6 3 7 8 8 9 9 10 10 11 11 12 12 13 13
REMARK H PARENT
REMARK Flexibility Score: inf
ROOT
ATOM      1  C   UNL     1      11.532 -12.551  25.224  1.00  0.00     0.000 C 
ENDROOT
BRANCH   1   2
ATOM      2  C   UNL     1      12.839 -11.791  24.947  1.00  0.00     0.000 C 
BRANCH   2   3
ATOM      3  C   UNL     1      14.023 -12.327  25.767  1.00  0.00     0.006 C 
BRANCH   3   4
ATOM      4  C   UNL     1      13.545 -13.308  26.841  1.00  0.00     0.053 C 
BRANCH   4   5
ATOM      5  C   UNL     1      14.585 -14.353  27.097  1.00  0.00     0.041 C 
ATOM      6  O   UNL     1      14.403 -15.536  26.707  1.00  0.00    -0.550 OA
ATOM      7  O   UNL     1      15.733 -14.030  27.808  1.00  0.00    -0.550 OA
ENDBRANCH   4   5
ENDBRANCH   3   4
ENDBRANCH   2   3
ENDBRANCH   1   2
BRANCH   1   8
ATOM      8  C   UNL     1      10.291 -11.797  24.722  1.00  0.00     0.000 C 
BRANCH   8   9
ATOM      9  C   UNL     1       9.216 -11.722  25.816  1.00  0.00     0.006 C 
BRANCH   9  10
ATOM     10  C   UNL     1       9.244 -12.945  26.742  1.00  0.00     0.053 C 
BRANCH  10  11
ATOM     11  C   UNL     1       9.323 -12.549  28.185  1.00  0.00     0.041 C 
ATOM     12  O   UNL     1       8.398 -11.873  28.708  1.00  0.00    -0.550 OA
ATOM     13  O   UNL     1      10.401 -12.954  28.960  1.00  0.00    -0.550 OA
ENDBRANCH  10  11
ENDBRANCH   9  10
ENDBRANCH   8   9
ENDBRANCH   1   8
TORSDOF 8
ENDMDL
MODEL 3
REMARK VINA RESULT:    -4.332      1.224      1.861
REMARK INTER + INTRA:          -6.971
REMARK INTER:                  -6.658
REMARK INTRA:                  -0.313
REMARK UNBOUND:                -0.613
REMARK SMILES O=C([O-])CCCCCCCC(=O)[O-]
REMARK SMILES IDX 7 1 6 2 5 3 4 4 2 5 1 6 3 7 8 8 9 9 10 10 11 11 12 12 13 13
REMARK H PARENT
REMARK Flexibility Score: inf
ROOT
ATOM      1  C   UNL     1       9.884 -12.030  24.441  1.00  0.00     0.000 C 
ENDROOT
BRANCH   1   2
ATOM      2  C   UNL     1      11.230 -12.719  24.167  1.00  0.00     0.000 C 
BRANCH   2   3
ATOM      3  C   UNL     1      12.356 -12.208  25.080  1.00  0.00     0.006 C 
BRANCH   3   4
ATOM      4  C   UNL     1      13.469 -13.250  25.213  1.00  0.00     0.053 C 
BRANCH   4   5
ATOM      5  C   UNL     1      14.156 -13.118  26.535  1.00  0.00     0.041 C 
ATOM      6  O   UNL     1      14.929 -12.147  26.753  1.00  0.00    -0.550 OA
ATOM      7  O   UNL     1      13.981 -14.091  27.510  1.00  0.00    -0.550 OA
ENDBRANCH   4   5
ENDBRANCH   3   4
ENDBRANCH   2   3
ENDBRANCH   1   2
BRANCH   1   8
ATOM      8  C   UNL     1       9.017 -12.805  25.446  1.00  0.00     0.000 C 
BRANCH   8   9
ATOM      9  C   UNL     1       9.033 -12.125  26.822  1.00  0.00     0.006 C 
BRANCH   9  10
ATOM     10  C   UNL     1       8.556 -13.064  27.940  1.00  0.00     0.053 C 
BRANCH  10  11
ATOM     11  C   UNL     1       9.028 -12.609  29.287  1.00  0.00     0.041 C 
ATOM     12  O   UNL     1       8.273 -11.924  30.025  1.00  0.00    -0.550 OA
ATOM     13  O   UNL     1      10.290 -12.971  29.741  1.00  0.00    -0.550 OA
ENDBRANCH  10  11
ENDBRANCH   9  10
ENDBRANCH   8   9
ENDBRANCH   1   8
TORSDOF 8
ENDMDL
MODEL 4
REMARK VINA RESULT:    -4.273      0.990      5.177
REMARK INTER + INTRA:          -6.884
REMARK INTER:                  -6.561
REMARK INTRA:                  -0.323
REMARK UNBOUND:                -0.613
REMARK SMILES O=C([O-])CCCCCCCC(=O)[O-]
REMARK SMILES IDX 7 1 6 2 5 3 4 4 2 5 1 6 3 7 8 8 9 9 10 10 11 11 12 12 13 13
REMARK H PARENT
REMARK Flexibility Score: inf
ROOT
ATOM      1  C   UNL     1      11.176 -12.734  24.186  1.00  0.00     0.000 C 
ENDROOT
BRANCH   1   2
ATOM      2  C   UNL     1       9.715 -12.285  24.350  1.00  0.00     0.000 C 
BRANCH   2   3
ATOM      3  C   UNL     1       9.016 -12.960  25.540  1.00  0.00     0.006 C 
BRANCH   3   4
ATOM      4  C   UNL     1       8.975 -12.026  26.752  1.00  0.00     0.053 C 
BRANCH   4   5
ATOM      5  C   UNL     1       9.060 -12.812  28.022  1.00  0.00     0.041 C 
ATOM      6  O   UNL     1       8.068 -13.477  28.423  1.00  0.00    -0.550 OA
ATOM      7  O   UNL     1      10.218 -12.772  28.788  1.00  0.00    -0.550 OA
ENDBRANCH   4   5
ENDBRANCH   3   4
ENDBRANCH   2   3
ENDBRANCH   1   2
BRANCH   1   8
ATOM      8  C   UNL     1      12.154 -11.879  25.006  1.00  0.00     0.000 C 
BRANCH   8   9
ATOM      9  C   UNL     1      13.581 -12.440  24.918  1.00  0.00     0.006 C 
BRANCH   9  10
ATOM     10  C   UNL     1      14.027 -13.100  26.230  1.00  0.00     0.053 C 
BRANCH  10  11
ATOM     11  C   UNL     1      14.419 -14.532  26.026  1.00  0.00     0.041 C 
ATOM     12  O   UNL     1      14.514 -15.309  27.012  1.00  0.00    -0.550 OA
ATOM     13  O   UNL     1      14.646 -15.016  24.745  1.00  0.00    -0.550 OA
ENDBRANCH  10  11
ENDBRANCH   9  10
ENDBRANCH   8   9
ENDBRANCH   1   8
TORSDOF 8
ENDMDL
MODEL 5
REMARK VINA RESULT:    -4.242      1.117      5.340
REMARK INTER + INTRA:          -6.838
REMARK INTER:                  -6.436
REMARK INTRA:                  -0.402
REMARK UNBOUND:                -0.613
REMARK SMILES O=C([O-])CCCCCCCC(=O)[O-]
REMARK SMILES IDX 7 1 6 2 5 3 4 4 2 5 1 6 3 7 8 8 9 9 10 10 11 11 12 12 13 13
REMARK H PARENT
REMARK Flexibility Score: inf
ROOT
ATOM      1  C   UNL     1      11.413 -12.062  25.000  1.00  0.00     0.000 C 
ENDROOT
BRANCH   1   2
ATOM      2  C   UNL     1       9.954 -11.864  24.560  1.00  0.00     0.000 C 
BRANCH   2   3
ATOM      3  C   UNL     1       8.998 -11.666  25.747  1.00  0.00     0.006 C 
BRANCH   3   4
ATOM      4  C   UNL     1       8.722 -12.996  26.454  1.00  0.00     0.053 C 
BRANCH   4   5
ATOM      5  C   UNL     1       8.938 -12.859  27.929  1.00  0.00     0.041 C 
ATOM      6  O   UNL     1      10.091 -12.631  28.382  1.00  0.00    -0.550 OA
ATOM      7  O   UNL     1       7.875 -13.032  28.806  1.00  0.00    -0.550 OA
ENDBRANCH   4   5
ENDBRANCH   3   4
ENDBRANCH   2   3
ENDBRANCH   1   2
BRANCH   1   8
ATOM      8  C   UNL     1      12.045 -13.328  24.401  1.00  0.00     0.000 C 
BRANCH   8   9
ATOM      9  C   UNL     1      13.541 -13.406  24.738  1.00  0.00     0.006 C 
BRANCH   9  10
ATOM     10  C   UNL     1      13.790 -13.571  26.244  1.00  0.00     0.053 C 
BRANCH  10  11
ATOM     11  C   UNL     1      14.621 -14.781  26.541  1.00  0.00     0.041 C 
ATOM     12  O   UNL     1      14.251 -15.917  26.145  1.00  0.00    -0.550 OA
ATOM     13  O   UNL     1      15.823 -14.649  27.225  1.00  0.00    -0.550 OA
ENDBRANCH  10  11
ENDBRANCH   9  10
ENDBRANCH   8   9
ENDBRANCH   1   8
TORSDOF 8
ENDMDL
MODEL 6
REMARK VINA RESULT:    -4.232      5.698      8.381
REMARK INTER + INTRA:          -6.824
REMARK INTER:                  -6.332
REMARK INTRA:                  -0.492
REMARK UNBOUND:                -0.613
REMARK SMILES O=C([O-])CCCCCCCC(=O)[O-]
REMARK SMILES IDX 7 1 6 2 5 3 4 4 2 5 1 6 3 7 8 8 9 9 10 10 11 11 12 12 13 13
REMARK H PARENT
REMARK Flexibility Score: inf
ROOT
ATOM      1  C   UNL     1      19.488 -16.612  24.336  1.00  0.00     0.000 C 
ENDROOT
BRANCH   1   2
ATOM      2  C   UNL     1      19.264 -17.588  23.170  1.00  0.00     0.000 C 
BRANCH   2   3
ATOM      3  C   UNL     1      19.276 -16.891  21.801  1.00  0.00     0.006 C 
BRANCH   3   4
ATOM      4  C   UNL     1      18.712 -17.810  20.714  1.00  0.00     0.053 C 
BRANCH   4   5
ATOM      5  C   UNL     1      17.338 -17.370  20.317  1.00  0.00     0.041 C 
ATOM      6  O   UNL     1      16.805 -17.828  19.272  1.00  0.00    -0.550 OA
ATOM      7  O   UNL     1      16.667 -16.419  21.073  1.00  0.00    -0.550 OA
ENDBRANCH   4   5
ENDBRANCH   3   4
ENDBRANCH   2   3
ENDBRANCH   1   2
BRANCH   1   8
ATOM      8  C   UNL     1      19.389 -15.141  23.904  1.00  0.00     0.000 C 
BRANCH   8   9
ATOM      9  C   UNL     1      18.191 -14.452  24.572  1.00  0.00     0.006 C 
BRANCH   9  10
ATOM     10  C   UNL     1      17.287 -15.448  25.313  1.00  0.00     0.053 C 
BRANCH  10  11
ATOM     11  C   UNL     1      15.837 -15.203  25.028  1.00  0.00     0.041 C 
ATOM     12  O   UNL     1      15.482 -14.726  23.918  1.00  0.00    -0.550 OA
ATOM     13  O   UNL     1      14.876 -15.532  25.975  1.00  0.00    -0.550 OA
ENDBRANCH  10  11
ENDBRANCH   9  10
ENDBRANCH   8   9
ENDBRANCH   1   8
TORSDOF 8
ENDMDL
MODEL 7
REMARK VINA RESULT:    -4.203      1.927      5.632
REMARK INTER + INTRA:          -6.782
REMARK INTER:                  -6.453
REMARK INTRA:                  -0.329
REMARK UNBOUND:                -0.613
REMARK SMILES O=C([O-])CCCCCCCC(=O)[O-]
REMARK SMILES IDX 7 1 6 2 5 3 4 4 2 5 1 6 3 7 8 8 9 9 10 10 11 11 12 12 13 13
REMARK H PARENT
REMARK Flexibility Score: inf
ROOT
ATOM      1  C   UNL     1      10.069 -11.566  24.839  1.00  0.00     0.000 C 
ENDROOT
BRANCH   1   2
ATOM      2  C   UNL     1       9.021 -11.783  25.942  1.00  0.00     0.000 C 
BRANCH   2   3
ATOM      3  C   UNL     1       9.580 -12.550  27.150  1.00  0.00     0.006 C 
BRANCH   3   4
ATOM      4  C   UNL     1       8.497 -12.769  28.209  1.00  0.00     0.053 C 
BRANCH   4   5
ATOM      5  C   UNL     1       9.048 -12.531  29.580  1.00  0.00     0.041 C 
ATOM      6  O   UNL     1      10.197 -12.948  29.881  1.00  0.00    -0.550 OA
ATOM      7  O   UNL     1       8.273 -11.892  30.539  1.00  0.00    -0.550 OA
ENDBRANCH   4   5
ENDBRANCH   3   4
ENDBRANCH   2   3
ENDBRANCH   1   2
BRANCH   1   8
ATOM      8  C   UNL     1       9.512 -11.837  23.432  1.00  0.00     0.000 C 
BRANCH   8   9
ATOM      9  C   UNL     1      10.528 -12.611  22.580  1.00  0.00     0.006 C 
BRANCH   9  10
ATOM     10  C   UNL     1      11.622 -13.268  23.434  1.00  0.00     0.053 C 
BRANCH  10  11
ATOM     11  C   UNL     1      12.992 -12.833  23.013  1.00  0.00     0.041 C 
ATOM     12  O   UNL     1      13.805 -12.389  23.865  1.00  0.00    -0.550 OA
ATOM     13  O   UNL     1      13.383 -12.951  21.686  1.00  0.00    -0.550 OA
ENDBRANCH  10  11
ENDBRANCH   9  10
ENDBRANCH   8   9
ENDBRANCH   1   8
TORSDOF 8
ENDMDL
MODEL 8
REMARK VINA RESULT:    -4.198      1.447      5.408
REMARK INTER + INTRA:          -6.774
REMARK INTER:                  -6.138
REMARK INTRA:                  -0.636
REMARK UNBOUND:                -0.613
REMARK SMILES O=C([O-])CCCCCCCC(=O)[O-]
REMARK SMILES IDX 7 1 6 2 5 3 4 4 2 5 1 6 3 7 8 8 9 9 10 10 11 11 12 12 13 13
REMARK H PARENT
REMARK Flexibility Score: inf
ROOT
ATOM      1  C   UNL     1      13.008 -11.910  24.751  1.00  0.00     0.000 C 
ENDROOT
BRANCH   1   2
ATOM      2  C   UNL     1      12.098 -13.092  24.379  1.00  0.00     0.000 C 
BRANCH   2   3
ATOM      3  C   UNL     1      10.622 -12.687  24.250  1.00  0.00     0.006 C 
BRANCH   3   4
ATOM      4  C   UNL     1      10.223 -11.711  25.360  1.00  0.00     0.053 C 
BRANCH   4   5
ATOM      5  C   UNL     1       9.326 -12.383  26.351  1.00  0.00     0.041 C 
ATOM      6  O   UNL     1       9.634 -12.404  27.572  1.00  0.00    -0.550 OA
ATOM      7  O   UNL     1       8.175 -13.030  25.920  1.00  0.00    -0.550 OA
ENDBRANCH   4   5
ENDBRANCH   3   4
ENDBRANCH   2   3
ENDBRANCH   1   2
BRANCH   1   8
ATOM      8  C   UNL     1      14.084 -12.292  25.779  1.00  0.00     0.000 C 
BRANCH   8   9
ATOM      9  C   UNL     1      13.530 -13.288  26.808  1.00  0.00     0.006 C 
BRANCH   9  10
ATOM     10  C   UNL     1      14.574 -14.332  27.227  1.00  0.00     0.053 C 
BRANCH  10  11
ATOM     11  C   UNL     1      14.971 -15.212  26.082  1.00  0.00     0.041 C 
ATOM     12  O   UNL     1      14.093 -15.823  25.418  1.00  0.00    -0.550 OA
ATOM     13  O   UNL     1      16.308 -15.332  25.727  1.00  0.00    -0.550 OA
ENDBRANCH  10  11
ENDBRANCH   9  10
ENDBRANCH   8   9
ENDBRANCH   1   8
TORSDOF 8
ENDMDL
MODEL 9
REMARK VINA RESULT:    -4.176      1.515      2.408
REMARK INTER + INTRA:          -6.742
REMARK INTER:                  -6.139
REMARK INTRA:                  -0.603
REMARK UNBOUND:                -0.613
REMARK SMILES O=C([O-])CCCCCCCC(=O)[O-]
REMARK SMILES IDX 7 1 6 2 5 3 4 4 2 5 1 6 3 7 8 8 9 9 10 10 11 11 12 12 13 13
REMARK H PARENT
REMARK Flexibility Score: inf
ROOT
ATOM      1  C   UNL     1      13.089 -11.920  24.850  1.00  0.00     0.000 C 
ENDROOT
BRANCH   1   2
ATOM      2  C   UNL     1      14.178 -12.313  25.861  1.00  0.00     0.000 C 
BRANCH   2   3
ATOM      3  C   UNL     1      13.702 -13.376  26.864  1.00  0.00     0.006 C 
BRANCH   3   4
ATOM      4  C   UNL     1      14.825 -14.364  27.189  1.00  0.00     0.053 C 
BRANCH   4   5
ATOM      5  C   UNL     1      15.091 -15.258  26.019  1.00  0.00     0.041 C 
ATOM      6  O   UNL     1      14.150 -15.906  25.490  1.00  0.00    -0.550 OA
ATOM      7  O   UNL     1      16.387 -15.413  25.544  1.00  0.00    -0.550 OA
ENDBRANCH   4   5
ENDBRANCH   3   4
ENDBRANCH   2   3
ENDBRANCH   1   2
BRANCH   1   8
ATOM      8  C   UNL     1      12.300 -13.131  24.330  1.00  0.00     0.000 C 
BRANCH   8   9
ATOM      9  C   UNL     1      10.794 -12.836  24.308  1.00  0.00     0.006 C 
BRANCH   9  10
ATOM     10  C   UNL     1      10.381 -11.843  25.404  1.00  0.00     0.053 C 
BRANCH  10  11
ATOM     11  C   UNL     1       9.347 -12.424  26.320  1.00  0.00     0.041 C 
ATOM     12  O   UNL     1       9.500 -12.361  27.568  1.00  0.00    -0.550 OA
ATOM     13  O   UNL     1       8.200 -13.003  25.795  1.00  0.00    -0.550 OA
ENDBRANCH  10  11
ENDBRANCH   9  10
ENDBRANCH   8   9
ENDBRANCH   1   8
TORSDOF 8
ENDMDL
