MODEL 1
REMARK VINA RESULT:    -2.997      0.000      0.000
REMARK INTER + INTRA:          -4.820
REMARK INTER:                  -4.574
REMARK INTRA:                  -0.246
REMARK UNBOUND:                -0.246
REMARK SMILES CC1=CCC[C@H](C)C(=O)C[C@@H](C(C)C)C(=O)C1
REMARK SMILES IDX 8 1 9 2 6 3 7 4 5 5 4 6 3 7 2 8 1 9 10 11 11 12 15 13 16 14
REMARK SMILES IDX 17 15 12 17 13 18 14 19
REMARK H PARENT
REMARK Flexibility Score: 70.00
ROOT
ATOM      1  C   UNL     1     -24.220 -11.335  -5.383  1.00  0.00     0.136 C 
ATOM      2  O   UNL     1     -23.461 -11.796  -4.544  1.00  0.00    -0.299 OA
ENDROOT
BRANCH   1   3
ATOM      3  C   UNL     1     -25.214 -10.245  -4.956  1.00  0.00     0.053 C 
ATOM      4  C   UNL     1     -24.863  -9.655  -3.586  1.00  0.00     0.016 C 
BRANCH   3   5
ATOM      5  C   UNL     1     -25.143  -9.228  -6.068  1.00  0.00     0.015 C 
BRANCH   5   6
ATOM      6  C   UNL     1     -24.162  -8.111  -6.266  1.00  0.00     0.028 C 
BRANCH   6   7
ATOM      7  C   UNL     1     -24.484  -7.437  -7.606  1.00  0.00    -0.028 C 
ATOM      8  C   UNL     1     -24.127  -7.808  -8.891  1.00  0.00    -0.070 CG0
ATOM      9  C   UNL     1     -24.739  -6.990 -10.005  1.00  0.00     0.039 C 
ATOM     10  G   UNL     1     -23.141  -8.931  -9.316  1.00  0.00     0.000 G0
ENDBRANCH   6   7
ENDBRANCH   5   6
ENDBRANCH   3   5
ENDBRANCH   1   3
BRANCH   1  11
ATOM     11  C   UNL     1     -24.130 -11.838  -6.836  1.00  0.00     0.087 C 
BRANCH  11  12
ATOM     12  C   UNL     1     -23.084 -11.191  -7.840  1.00  0.00     0.066 C 
BRANCH  12  13
ATOM     13  C   UNL     1     -23.616 -10.370  -9.038  1.00  0.00     0.140 C 
ATOM     14  O   UNL     1     -24.382 -10.896  -9.832  1.00  0.00    -0.299 OA
BRANCH  13  15
ATOM     15  C   UNL     1     -23.138  -8.938  -9.329  1.00  0.00     0.106 CG0
ATOM     16  G   UNL     1     -24.109  -7.805  -8.895  1.00  0.00     0.000 G0
ENDBRANCH  13  15
ENDBRANCH  12  13
BRANCH  12  17
ATOM     17  C   UNL     1     -21.944 -12.169  -8.285  1.00  0.00    -0.006 C 
ATOM     18  C   UNL     1     -20.546 -11.640  -7.921  1.00  0.00     0.008 C 
ATOM     19  C   UNL     1     -22.119 -13.600  -7.755  1.00  0.00     0.008 C 
ENDBRANCH  12  17
ENDBRANCH  11  12
ENDBRANCH   1  11
TORSDOF 1
ENDMDL
MODEL 2
REMARK VINA RESULT:    -2.932      2.040      3.938
REMARK INTER + INTRA:          -4.721
REMARK INTER:                  -4.363
REMARK INTRA:                  -0.358
REMARK UNBOUND:                -0.246
REMARK SMILES CC1=CCC[C@H](C)C(=O)C[C@@H](C(C)C)C(=O)C1
REMARK SMILES IDX 8 1 9 2 6 3 7 4 5 5 4 6 3 7 2 8 1 9 10 11 11 12 15 13 16 14
REMARK SMILES IDX 17 15 12 17 13 18 14 19
REMARK H PARENT
REMARK Flexibility Score: 70.00
ROOT
ATOM      1  C   UNL     1     -24.290  -8.078  -8.272  1.00  0.00     0.136 C 
ATOM      2  O   UNL     1     -25.025  -8.223  -9.236  1.00  0.00    -0.299 OA
ENDROOT
BRANCH   1   3
ATOM      3  C   UNL     1     -24.357  -6.760  -7.486  1.00  0.00     0.053 C 
ATOM      4  C   UNL     1     -25.662  -6.001  -7.753  1.00  0.00     0.016 C 
BRANCH   3   5
ATOM      5  C   UNL     1     -24.209  -7.184  -6.045  1.00  0.00     0.015 C 
BRANCH   5   6
ATOM      6  C   UNL     1     -25.273  -7.533  -5.049  1.00  0.00     0.028 C 
BRANCH   6   7
ATOM      7  C   UNL     1     -24.893  -8.875  -4.408  1.00  0.00    -0.028 C 
ATOM      8  C   UNL     1     -24.993 -10.158  -4.918  1.00  0.00    -0.070 CG0
ATOM      9  C   UNL     1     -24.388 -11.251  -4.067  1.00  0.00     0.039 C 
ATOM     10  G   UNL     1     -25.692 -10.607  -6.231  1.00  0.00     0.000 G0
ENDBRANCH   6   7
ENDBRANCH   5   6
ENDBRANCH   3   5
ENDBRANCH   1   3
BRANCH   1  11
ATOM     11  C   UNL     1     -23.352  -9.229  -7.861  1.00  0.00     0.087 C 
BRANCH  11  12
ATOM     12  C   UNL     1     -23.765 -10.736  -8.150  1.00  0.00     0.066 C 
BRANCH  12  13
ATOM     13  C   UNL     1     -24.803 -11.411  -7.223  1.00  0.00     0.140 C 
ATOM     14  O   UNL     1     -24.995 -12.615  -7.316  1.00  0.00    -0.299 OA
BRANCH  13  15
ATOM     15  C   UNL     1     -25.681 -10.608  -6.249  1.00  0.00     0.106 CG0
ATOM     16  G   UNL     1     -24.989 -10.166  -4.930  1.00  0.00     0.000 G0
ENDBRANCH  13  15
ENDBRANCH  12  13
BRANCH  12  17
ATOM     17  C   UNL     1     -22.550 -11.684  -8.426  1.00  0.00    -0.006 C 
ATOM     18  C   UNL     1     -21.592 -11.113  -9.486  1.00  0.00     0.008 C 
ATOM     19  C   UNL     1     -21.766 -12.065  -7.161  1.00  0.00     0.008 C 
ENDBRANCH  12  17
ENDBRANCH  11  12
ENDBRANCH   1  11
TORSDOF 1
ENDMDL
MODEL 3
REMARK VINA RESULT:    -2.860     16.085     18.229
REMARK INTER + INTRA:          -4.611
REMARK INTER:                  -3.939
REMARK INTRA:                  -0.672
REMARK UNBOUND:                -0.246
REMARK SMILES CC1=CCC[C@H](C)C(=O)C[C@@H](C(C)C)C(=O)C1
REMARK SMILES IDX 8 1 9 2 6 3 7 4 5 5 4 6 3 7 2 8 1 9 10 11 11 12 15 13 16 14
REMARK SMILES IDX 17 15 12 17 13 18 14 19
REMARK H PARENT
REMARK Flexibility Score: 70.00
ROOT
ATOM      1  C   UNL     1      -7.020 -14.150  -1.205  1.00  0.00     0.136 C 
ATOM      2  O   UNL     1      -5.966 -13.548  -1.340  1.00  0.00    -0.299 OA
ENDROOT
BRANCH   1   3
ATOM      3  C   UNL     1      -7.123 -15.216  -0.104  1.00  0.00     0.053 C 
ATOM      4  C   UNL     1      -6.840 -14.633   1.285  1.00  0.00     0.016 C 
BRANCH   3   5
ATOM      5  C   UNL     1      -8.527 -15.751  -0.241  1.00  0.00     0.015 C 
BRANCH   5   6
ATOM      6  C   UNL     1      -8.982 -17.155  -0.506  1.00  0.00     0.028 C 
BRANCH   6   7
ATOM      7  C   UNL     1      -7.811 -17.913  -1.146  1.00  0.00    -0.028 C 
ATOM      8  C   UNL     1      -7.314 -17.846  -2.436  1.00  0.00    -0.070 CG0
ATOM      9  C   UNL     1      -6.048 -18.631  -2.694  1.00  0.00     0.039 C 
ATOM     10  G   UNL     1      -7.928 -17.100  -3.654  1.00  0.00     0.000 G0
ENDBRANCH   6   7
ENDBRANCH   5   6
ENDBRANCH   3   5
ENDBRANCH   1   3
BRANCH   1  11
ATOM     11  C   UNL     1      -8.211 -13.797  -2.116  1.00  0.00     0.087 C 
BRANCH  11  12
ATOM     12  C   UNL     1      -8.328 -14.448  -3.561  1.00  0.00     0.066 C 
BRANCH  12  13
ATOM     13  C   UNL     1      -7.439 -15.667  -3.900  1.00  0.00     0.140 C 
ATOM     14  O   UNL     1      -6.355 -15.487  -4.434  1.00  0.00    -0.299 OA
BRANCH  13  15
ATOM     15  C   UNL     1      -7.911 -17.114  -3.681  1.00  0.00     0.106 CG0
ATOM     16  G   UNL     1      -7.316 -17.833  -2.439  1.00  0.00     0.000 G0
ENDBRANCH  13  15
ENDBRANCH  12  13
BRANCH  12  17
ATOM     17  C   UNL     1      -8.328 -13.403  -4.728  1.00  0.00    -0.006 C 
ATOM     18  C   UNL     1      -9.182 -13.862  -5.922  1.00  0.00     0.008 C 
ATOM     19  C   UNL     1      -8.749 -11.993  -4.292  1.00  0.00     0.008 C 
ENDBRANCH  12  17
ENDBRANCH  11  12
ENDBRANCH   1  11
TORSDOF 1
ENDMDL
MODEL 4
REMARK VINA RESULT:    -2.670     14.674     16.509
REMARK INTER + INTRA:          -4.321
REMARK INTER:                  -3.707
REMARK INTRA:                  -0.614
REMARK UNBOUND:                -0.246
REMARK SMILES CC1=CCC[C@H](C)C(=O)C[C@@H](C(C)C)C(=O)C1
REMARK SMILES IDX 8 1 9 2 6 3 7 4 5 5 4 6 3 7 2 8 1 9 10 11 11 12 15 13 16 14
REMARK SMILES IDX 17 15 12 17 13 18 14 19
REMARK H PARENT
REMARK Flexibility Score: 70.00
ROOT
ATOM      1  C   UNL     1      -9.190 -11.889  -4.157  1.00  0.00     0.136 C 
ATOM      2  O   UNL     1      -9.475 -11.441  -3.058  1.00  0.00    -0.299 OA
ENDROOT
BRANCH   1   3
ATOM      3  C   UNL     1      -9.103 -10.921  -5.347  1.00  0.00     0.053 C 
ATOM      4  C   UNL     1      -7.653 -10.548  -5.675  1.00  0.00     0.016 C 
BRANCH   3   5
ATOM      5  C   UNL     1      -9.788 -11.659  -6.471  1.00  0.00     0.015 C 
BRANCH   5   6
ATOM      6  C   UNL     1      -9.269 -11.988  -7.839  1.00  0.00     0.028 C 
BRANCH   6   7
ATOM      7  C   UNL     1      -9.244 -13.517  -7.974  1.00  0.00    -0.028 C 
ATOM      8  C   UNL     1      -8.325 -14.432  -7.493  1.00  0.00    -0.070 CG0
ATOM      9  C   UNL     1      -8.684 -15.887  -7.687  1.00  0.00     0.039 C 
ATOM     10  G   UNL     1      -6.953 -14.140  -6.823  1.00  0.00     0.000 G0
ENDBRANCH   6   7
ENDBRANCH   5   6
ENDBRANCH   3   5
ENDBRANCH   1   3
BRANCH   1  11
ATOM     11  C   UNL     1      -8.899 -13.394  -4.304  1.00  0.00     0.087 C 
BRANCH  11  12
ATOM     12  C   UNL     1      -7.413 -13.936  -4.168  1.00  0.00     0.066 C 
BRANCH  12  13
ATOM     13  C   UNL     1      -6.770 -14.653  -5.378  1.00  0.00     0.140 C 
ATOM     14  O   UNL     1      -6.031 -15.607  -5.186  1.00  0.00    -0.299 OA
BRANCH  13  15
ATOM     15  C   UNL     1      -6.947 -14.149  -6.820  1.00  0.00     0.106 CG0
ATOM     16  G   UNL     1      -8.326 -14.447  -7.471  1.00  0.00     0.000 G0
ENDBRANCH  13  15
ENDBRANCH  12  13
BRANCH  12  17
ATOM     17  C   UNL     1      -7.142 -14.717  -2.838  1.00  0.00    -0.006 C 
ATOM     18  C   UNL     1      -6.704 -13.787  -1.693  1.00  0.00     0.008 C 
ATOM     19  C   UNL     1      -8.323 -15.588  -2.384  1.00  0.00     0.008 C 
ENDBRANCH  12  17
ENDBRANCH  11  12
ENDBRANCH   1  11
TORSDOF 1
ENDMDL
MODEL 5
REMARK VINA RESULT:    -2.665     14.616     17.072
REMARK INTER + INTRA:          -4.314
REMARK INTER:                  -3.917
REMARK INTRA:                  -0.397
REMARK UNBOUND:                -0.246
REMARK SMILES CC1=CCC[C@H](C)C(=O)C[C@@H](C(C)C)C(=O)C1
REMARK SMILES IDX 8 1 9 2 6 3 7 4 5 5 4 6 3 7 2 8 1 9 10 11 11 12 15 13 16 14
REMARK SMILES IDX 17 15 12 17 13 18 14 19
REMARK H PARENT
REMARK Flexibility Score: 70.00
ROOT
ATOM      1  C   UNL     1      -8.134 -15.014  -2.080  1.00  0.00     0.136 C 
ATOM      2  O   UNL     1      -9.070 -15.437  -1.419  1.00  0.00    -0.299 OA
ENDROOT
BRANCH   1   3
ATOM      3  C   UNL     1      -6.914 -15.923  -2.293  1.00  0.00     0.053 C 
ATOM      4  C   UNL     1      -6.384 -16.487  -0.970  1.00  0.00     0.016 C 
BRANCH   3   5
ATOM      5  C   UNL     1      -7.414 -16.995  -3.230  1.00  0.00     0.015 C 
BRANCH   5   6
ATOM      6  C   UNL     1      -7.016 -17.271  -4.648  1.00  0.00     0.028 C 
BRANCH   6   7
ATOM      7  C   UNL     1      -8.224 -16.961  -5.543  1.00  0.00    -0.028 C 
ATOM      8  C   UNL     1      -8.447 -15.886  -6.386  1.00  0.00    -0.070 CG0
ATOM      9  C   UNL     1      -9.694 -15.967  -7.237  1.00  0.00     0.039 C 
ATOM     10  G   UNL     1      -7.595 -14.594  -6.525  1.00  0.00     0.000 G0
ENDBRANCH   6   7
ENDBRANCH   5   6
ENDBRANCH   3   5
ENDBRANCH   1   3
BRANCH   1  11
ATOM     11  C   UNL     1      -8.224 -13.606  -2.698  1.00  0.00     0.087 C 
BRANCH  11  12
ATOM     12  C   UNL     1      -8.486 -13.435  -4.255  1.00  0.00     0.066 C 
BRANCH  12  13
ATOM     13  C   UNL     1      -7.346 -13.781  -5.242  1.00  0.00     0.140 C 
ATOM     14  O   UNL     1      -6.224 -13.342  -5.039  1.00  0.00    -0.299 OA
BRANCH  13  15
ATOM     15  C   UNL     1      -7.591 -14.581  -6.532  1.00  0.00     0.106 CG0
ATOM     16  G   UNL     1      -8.434 -15.877  -6.369  1.00  0.00     0.000 G0
ENDBRANCH  13  15
ENDBRANCH  12  13
BRANCH  12  17
ATOM     17  C   UNL     1      -9.174 -12.081  -4.637  1.00  0.00    -0.006 C 
ATOM     18  C   UNL     1     -10.358 -12.278  -5.600  1.00  0.00     0.008 C 
ATOM     19  C   UNL     1      -9.617 -11.252  -3.423  1.00  0.00     0.008 C 
ENDBRANCH  12  17
ENDBRANCH  11  12
ENDBRANCH   1  11
TORSDOF 1
ENDMDL
MODEL 6
REMARK VINA RESULT:    -2.656     13.994     16.593
REMARK INTER + INTRA:          -4.300
REMARK INTER:                  -3.748
REMARK INTRA:                  -0.552
REMARK UNBOUND:                -0.246
REMARK SMILES CC1=CCC[C@H](C)C(=O)C[C@@H](C(C)C)C(=O)C1
REMARK SMILES IDX 8 1 9 2 6 3 7 4 5 5 4 6 3 7 2 8 1 9 10 11 11 12 15 13 16 14
REMARK SMILES IDX 17 15 12 17 13 18 14 19
REMARK H PARENT
REMARK Flexibility Score: 70.00
ROOT
ATOM      1  C   UNL     1      -9.386 -12.723  -5.369  1.00  0.00     0.136 C 
ATOM      2  O   UNL     1     -10.461 -12.253  -5.704  1.00  0.00    -0.299 OA
ENDROOT
BRANCH   1   3
ATOM      3  C   UNL     1      -8.737 -12.224  -4.069  1.00  0.00     0.053 C 
ATOM      4  C   UNL     1      -9.656 -11.266  -3.303  1.00  0.00     0.016 C 
BRANCH   3   5
ATOM      5  C   UNL     1      -8.434 -13.487  -3.301  1.00  0.00     0.015 C 
BRANCH   5   6
ATOM      6  C   UNL     1      -7.104 -14.082  -2.948  1.00  0.00     0.028 C 
BRANCH   6   7
ATOM      7  C   UNL     1      -7.292 -15.600  -2.811  1.00  0.00    -0.028 C 
ATOM      8  C   UNL     1      -7.265 -16.585  -3.783  1.00  0.00    -0.070 CG0
ATOM      9  C   UNL     1      -7.345 -18.007  -3.277  1.00  0.00     0.039 C 
ATOM     10  G   UNL     1      -7.211 -16.399  -5.324  1.00  0.00     0.000 G0
ENDBRANCH   6   7
ENDBRANCH   5   6
ENDBRANCH   3   5
ENDBRANCH   1   3
BRANCH   1  11
ATOM     11  C   UNL     1      -8.738 -13.816  -6.239  1.00  0.00     0.087 C 
BRANCH  11  12
ATOM     12  C   UNL     1      -9.415 -15.249  -6.356  1.00  0.00     0.066 C 
BRANCH  12  13
ATOM     13  C   UNL     1      -8.556 -16.501  -6.067  1.00  0.00     0.140 C 
ATOM     14  O   UNL     1      -8.991 -17.606  -6.358  1.00  0.00    -0.299 OA
BRANCH  13  15
ATOM     15  C   UNL     1      -7.207 -16.421  -5.333  1.00  0.00     0.106 CG0
ATOM     16  G   UNL     1      -7.274 -16.561  -3.787  1.00  0.00     0.000 G0
ENDBRANCH  13  15
ENDBRANCH  12  13
BRANCH  12  17
ATOM     17  C   UNL     1     -10.277 -15.439  -7.649  1.00  0.00    -0.006 C 
ATOM     18  C   UNL     1     -11.743 -15.020  -7.441  1.00  0.00     0.008 C 
ATOM     19  C   UNL     1      -9.699 -14.732  -8.884  1.00  0.00     0.008 C 
ENDBRANCH  12  17
ENDBRANCH  11  12
ENDBRANCH   1  11
TORSDOF 1
ENDMDL
MODEL 7
REMARK VINA RESULT:    -2.651     14.214     16.060
REMARK INTER + INTRA:          -4.293
REMARK INTER:                  -3.665
REMARK INTRA:                  -0.627
REMARK UNBOUND:                -0.246
REMARK SMILES CC1=CCC[C@H](C)C(=O)C[C@@H](C(C)C)C(=O)C1
REMARK SMILES IDX 8 1 9 2 6 3 7 4 5 5 4 6 3 7 2 8 1 9 10 11 11 12 15 13 16 14
REMARK SMILES IDX 17 15 12 17 13 18 14 19
REMARK H PARENT
REMARK Flexibility Score: 70.00
ROOT
ATOM      1  C   UNL     1      -7.324 -12.506  -5.030  1.00  0.00     0.136 C 
ATOM      2  O   UNL     1      -6.264 -13.111  -5.006  1.00  0.00    -0.299 OA
ENDROOT
BRANCH   1   3
ATOM      3  C   UNL     1      -8.570 -13.180  -4.436  1.00  0.00     0.053 C 
ATOM      4  C   UNL     1      -8.430 -13.413  -2.928  1.00  0.00     0.016 C 
BRANCH   3   5
ATOM      5  C   UNL     1      -9.697 -12.239  -4.782  1.00  0.00     0.015 C 
BRANCH   5   6
ATOM      6  C   UNL     1     -10.723 -12.352  -5.870  1.00  0.00     0.028 C 
BRANCH   6   7
ATOM      7  C   UNL     1     -10.406 -13.615  -6.682  1.00  0.00    -0.028 C 
ATOM      8  C   UNL     1      -9.596 -13.772  -7.793  1.00  0.00    -0.070 CG0
ATOM      9  C   UNL     1      -9.392 -15.194  -8.262  1.00  0.00     0.039 C 
ATOM     10  G   UNL     1      -8.915 -12.659  -8.638  1.00  0.00     0.000 G0
ENDBRANCH   6   7
ENDBRANCH   5   6
ENDBRANCH   3   5
ENDBRANCH   1   3
BRANCH   1  11
ATOM     11  C   UNL     1      -7.367 -11.085  -5.623  1.00  0.00     0.087 C 
BRANCH  11  12
ATOM     12  C   UNL     1      -7.496 -10.879  -7.192  1.00  0.00     0.066 C 
BRANCH  12  13
ATOM     13  C   UNL     1      -7.568 -12.129  -8.101  1.00  0.00     0.140 C 
ATOM     14  O   UNL     1      -6.531 -12.667  -8.462  1.00  0.00    -0.299 OA
BRANCH  13  15
ATOM     15  C   UNL     1      -8.898 -12.668  -8.653  1.00  0.00     0.106 CG0
ATOM     16  G   UNL     1      -9.594 -13.754  -7.788  1.00  0.00     0.000 G0
ENDBRANCH  13  15
ENDBRANCH  12  13
BRANCH  12  17
ATOM     17  C   UNL     1      -6.511  -9.811  -7.775  1.00  0.00    -0.006 C 
ATOM     18  C   UNL     1      -6.985  -9.257  -9.130  1.00  0.00     0.008 C 
ATOM     19  C   UNL     1      -6.216  -8.654  -6.809  1.00  0.00     0.008 C 
ENDBRANCH  12  17
ENDBRANCH  11  12
ENDBRANCH   1  11
TORSDOF 1
ENDMDL
MODEL 8
REMARK VINA RESULT:    -2.602     14.839     16.937
REMARK INTER + INTRA:          -4.218
REMARK INTER:                  -3.714
REMARK INTRA:                  -0.503
REMARK UNBOUND:                -0.246
REMARK SMILES CC1=CCC[C@H](C)C(=O)C[C@@H](C(C)C)C(=O)C1
REMARK SMILES IDX 8 1 9 2 6 3 7 4 5 5 4 6 3 7 2 8 1 9 10 11 11 12 15 13 16 14
REMARK SMILES IDX 17 15 12 17 13 18 14 19
REMARK H PARENT
REMARK Flexibility Score: 70.00
ROOT
ATOM      1  C   UNL     1      -8.028  -9.100  -5.430  1.00  0.00     0.136 C 
ATOM      2  O   UNL     1      -8.091  -8.785  -4.252  1.00  0.00    -0.299 OA
ENDROOT
BRANCH   1   3
ATOM      3  C   UNL     1      -7.368  -8.126  -6.418  1.00  0.00     0.053 C 
ATOM      4  C   UNL     1      -6.059  -7.551  -5.865  1.00  0.00     0.016 C 
BRANCH   3   5
ATOM      5  C   UNL     1      -7.166  -8.950  -7.666  1.00  0.00     0.015 C 
BRANCH   5   6
ATOM      6  C   UNL     1      -5.886  -9.403  -8.302  1.00  0.00     0.028 C 
BRANCH   6   7
ATOM      7  C   UNL     1      -6.145 -10.767  -8.956  1.00  0.00    -0.028 C 
ATOM      8  C   UNL     1      -6.276 -12.016  -8.375  1.00  0.00    -0.070 CG0
ATOM      9  C   UNL     1      -6.673 -13.136  -9.309  1.00  0.00     0.039 C 
ATOM     10  G   UNL     1      -6.018 -12.407  -6.893  1.00  0.00     0.000 G0
ENDBRANCH   6   7
ENDBRANCH   5   6
ENDBRANCH   3   5
ENDBRANCH   1   3
BRANCH   1  11
ATOM     11  C   UNL     1      -8.581 -10.467  -5.875  1.00  0.00     0.087 C 
BRANCH  11  12
ATOM     12  C   UNL     1      -8.041 -11.802  -5.204  1.00  0.00     0.066 C 
BRANCH  12  13
ATOM     13  C   UNL     1      -7.267 -12.813  -6.081  1.00  0.00     0.140 C 
ATOM     14  O   UNL     1      -7.604 -13.988  -6.080  1.00  0.00    -0.299 OA
BRANCH  13  15
ATOM     15  C   UNL     1      -6.018 -12.416  -6.886  1.00  0.00     0.106 CG0
ATOM     16  G   UNL     1      -6.274 -11.999  -8.361  1.00  0.00     0.000 G0
ENDBRANCH  13  15
ENDBRANCH  12  13
BRANCH  12  17
ATOM     17  C   UNL     1      -9.093 -12.526  -4.298  1.00  0.00    -0.006 C 
ATOM     18  C   UNL     1      -8.479 -13.038  -2.984  1.00  0.00     0.008 C 
ATOM     19  C   UNL     1     -10.338 -11.678  -4.001  1.00  0.00     0.008 C 
ENDBRANCH  12  17
ENDBRANCH  11  12
ENDBRANCH   1  11
TORSDOF 1
ENDMDL
MODEL 9
REMARK VINA RESULT:    -2.552     14.185     15.558
REMARK INTER + INTRA:          -4.140
REMARK INTER:                  -3.451
REMARK INTRA:                  -0.689
REMARK UNBOUND:                -0.246
REMARK SMILES CC1=CCC[C@H](C)C(=O)C[C@@H](C(C)C)C(=O)C1
REMARK SMILES IDX 8 1 9 2 6 3 7 4 5 5 4 6 3 7 2 8 1 9 10 11 11 12 15 13 16 14
REMARK SMILES IDX 17 15 12 17 13 18 14 19
REMARK H PARENT
REMARK Flexibility Score: 70.00
ROOT
ATOM      1  C   UNL     1      -9.912 -12.163  -5.591  1.00  0.00     0.136 C 
ATOM      2  O   UNL     1     -10.424 -11.229  -6.188  1.00  0.00    -0.299 OA
ENDROOT
BRANCH   1   3
ATOM      3  C   UNL     1      -9.002 -11.861  -4.392  1.00  0.00     0.053 C 
ATOM      4  C   UNL     1      -8.653 -13.129  -3.605  1.00  0.00     0.016 C 
BRANCH   3   5
ATOM      5  C   UNL     1      -7.792 -11.201  -5.007  1.00  0.00     0.015 C 
BRANCH   5   6
ATOM      6  C   UNL     1      -6.687 -11.817  -5.812  1.00  0.00     0.028 C 
BRANCH   6   7
ATOM      7  C   UNL     1      -6.675 -11.136  -7.188  1.00  0.00    -0.028 C 
ATOM      8  C   UNL     1      -7.093 -11.618  -8.416  1.00  0.00    -0.070 CG0
ATOM      9  C   UNL     1      -7.072 -10.623  -9.553  1.00  0.00     0.039 C 
ATOM     10  G   UNL     1      -7.533 -13.066  -8.770  1.00  0.00     0.000 G0
ENDBRANCH   6   7
ENDBRANCH   5   6
ENDBRANCH   3   5
ENDBRANCH   1   3
BRANCH   1  11
ATOM     11  C   UNL     1     -10.223 -13.604  -6.041  1.00  0.00     0.087 C 
BRANCH  11  12
ATOM     12  C   UNL     1      -9.375 -14.276  -7.203  1.00  0.00     0.066 C 
BRANCH  12  13
ATOM     13  C   UNL     1      -8.996 -13.421  -8.435  1.00  0.00     0.140 C 
ATOM     14  O   UNL     1      -9.870 -13.072  -9.214  1.00  0.00    -0.299 OA
BRANCH  13  15
ATOM     15  C   UNL     1      -7.537 -13.073  -8.775  1.00  0.00     0.106 CG0
ATOM     16  G   UNL     1      -7.090 -11.628  -8.415  1.00  0.00     0.000 G0
ENDBRANCH  13  15
ENDBRANCH  12  13
BRANCH  12  17
ATOM     17  C   UNL     1      -9.898 -15.689  -7.633  1.00  0.00    -0.006 C 
ATOM     18  C   UNL     1      -9.250 -16.824  -6.821  1.00  0.00     0.008 C 
ATOM     19  C   UNL     1     -11.428 -15.818  -7.590  1.00  0.00     0.008 C 
ENDBRANCH  12  17
ENDBRANCH  11  12
ENDBRANCH   1  11
TORSDOF 1
ENDMDL
