MODEL 1
REMARK VINA RESULT:    -4.564      0.000      0.000
REMARK INTER + INTRA:          -5.063
REMARK INTER:                  -4.964
REMARK INTRA:                  -0.099
REMARK UNBOUND:                -0.099
REMARK SMILES Cc1ccc(C(C)C)cc1O
REMARK SMILES IDX 1 1 2 2 10 3 9 4 5 5 4 6 3 7 11 8 6 10 7 11 8 12
REMARK H PARENT 11 9
REMARK Flexibility Score: inf
ROOT
ATOM      1  C   UNL     1     162.045 162.116 176.953  1.00  0.00     0.048 C 
ATOM      2  C   UNL     1     161.833 161.848 178.415  1.00  0.00    -0.009 A 
ATOM      3  C   UNL     1     160.765 162.455 179.099  1.00  0.00     0.118 A 
ATOM      4  C   UNL     1     160.573 162.200 180.465  1.00  0.00     0.050 A 
ATOM      5  C   UNL     1     161.439 161.341 181.164  1.00  0.00    -0.042 A 
ATOM      6  C   UNL     1     162.504 160.738 180.470  1.00  0.00     0.004 A 
ATOM      7  C   UNL     1     162.699 160.990 179.111  1.00  0.00     0.007 A 
ENDROOT
BRANCH   3   8
ATOM      8  O   UNL     1     159.897 163.310 178.421  1.00  0.00    -0.508 OA
ATOM      9  H   UNL     1     159.279 163.942 178.915  1.00  0.00     0.293 HD
ENDBRANCH   3   8
BRANCH   5  10
ATOM     10  C   UNL     1     161.216 161.076 182.641  1.00  0.00     0.013 C 
ATOM     11  C   UNL     1     159.876 160.370 182.880  1.00  0.00     0.012 C 
ATOM     12  C   UNL     1     161.311 162.372 183.456  1.00  0.00     0.012 C 
ENDBRANCH   5  10
TORSDOF 2
ENDMDL
MODEL 2
REMARK VINA RESULT:    -4.446      3.783      4.516
REMARK INTER + INTRA:          -4.935
REMARK INTER:                  -4.808
REMARK INTRA:                  -0.127
REMARK UNBOUND:                -0.099
REMARK SMILES Cc1ccc(C(C)C)cc1O
REMARK SMILES IDX 1 1 2 2 10 3 9 4 5 5 4 6 3 7 11 8 6 10 7 11 8 12
REMARK H PARENT 11 9
REMARK Flexibility Score: inf
ROOT
ATOM      1  C   UNL     1     166.591 161.772 183.010  1.00  0.00     0.048 C 
ATOM      2  C   UNL     1     165.092 161.845 183.061  1.00  0.00    -0.009 A 
ATOM      3  C   UNL     1     164.450 163.071 183.310  1.00  0.00     0.118 A 
ATOM      4  C   UNL     1     163.049 163.132 183.356  1.00  0.00     0.050 A 
ATOM      5  C   UNL     1     162.274 161.977 183.156  1.00  0.00    -0.042 A 
ATOM      6  C   UNL     1     162.925 160.755 182.906  1.00  0.00     0.004 A 
ATOM      7  C   UNL     1     164.320 160.691 182.861  1.00  0.00     0.007 A 
ENDROOT
BRANCH   3   8
ATOM      8  O   UNL     1     165.205 164.226 183.511  1.00  0.00    -0.508 OA
ATOM      9  H   UNL     1     165.428 164.560 184.441  1.00  0.00     0.293 HD
ENDBRANCH   3   8
BRANCH   5  10
ATOM     10  C   UNL     1     160.760 162.061 183.209  1.00  0.00     0.013 C 
ATOM     11  C   UNL     1     160.115 160.814 182.589  1.00  0.00     0.012 C 
ATOM     12  C   UNL     1     160.252 163.339 182.531  1.00  0.00     0.012 C 
ENDBRANCH   5  10
TORSDOF 2
ENDMDL
MODEL 3
REMARK VINA RESULT:    -4.362      3.608      4.516
REMARK INTER + INTRA:          -4.843
REMARK INTER:                  -4.731
REMARK INTRA:                  -0.112
REMARK UNBOUND:                -0.099
REMARK SMILES Cc1ccc(C(C)C)cc1O
REMARK SMILES IDX 1 1 2 2 10 3 9 4 5 5 4 6 3 7 11 8 6 10 7 11 8 12
REMARK H PARENT 11 9
REMARK Flexibility Score: inf
ROOT
ATOM      1  C   UNL     1     166.646 161.949 182.598  1.00  0.00     0.048 C 
ATOM      2  C   UNL     1     165.163 162.056 182.813  1.00  0.00    -0.009 A 
ATOM      3  C   UNL     1     164.311 161.015 182.406  1.00  0.00     0.118 A 
ATOM      4  C   UNL     1     162.927 161.122 182.610  1.00  0.00     0.050 A 
ATOM      5  C   UNL     1     162.378 162.263 183.218  1.00  0.00    -0.042 A 
ATOM      6  C   UNL     1     163.239 163.300 183.623  1.00  0.00     0.004 A 
ATOM      7  C   UNL     1     164.617 163.197 183.421  1.00  0.00     0.007 A 
ENDROOT
BRANCH   3   8
ATOM      8  O   UNL     1     164.841 159.876 181.801  1.00  0.00    -0.508 OA
ATOM      9  H   UNL     1     165.804 159.838 181.490  1.00  0.00     0.293 HD
ENDBRANCH   3   8
BRANCH   5  10
ATOM     10  C   UNL     1     160.879 162.363 183.431  1.00  0.00     0.013 C 
ATOM     11  C   UNL     1     160.201 161.001 183.233  1.00  0.00     0.012 C 
ATOM     12  C   UNL     1     160.259 163.427 182.517  1.00  0.00     0.012 C 
ENDBRANCH   5  10
TORSDOF 2
ENDMDL
MODEL 4
REMARK VINA RESULT:    -4.354      2.500      3.651
REMARK INTER + INTRA:          -4.835
REMARK INTER:                  -4.710
REMARK INTRA:                  -0.125
REMARK UNBOUND:                -0.099
REMARK SMILES Cc1ccc(C(C)C)cc1O
REMARK SMILES IDX 1 1 2 2 10 3 9 4 5 5 4 6 3 7 11 8 6 10 7 11 8 12
REMARK H PARENT 11 9
REMARK Flexibility Score: inf
ROOT
ATOM      1  C   UNL     1     166.281 160.186 181.132  1.00  0.00     0.048 C 
ATOM      2  C   UNL     1     164.848 160.506 181.448  1.00  0.00    -0.009 A 
ATOM      3  C   UNL     1     163.895 160.586 180.418  1.00  0.00     0.118 A 
ATOM      4  C   UNL     1     162.558 160.885 180.722  1.00  0.00     0.050 A 
ATOM      5  C   UNL     1     162.157 161.108 182.050  1.00  0.00    -0.042 A 
ATOM      6  C   UNL     1     163.118 161.025 183.074  1.00  0.00     0.004 A 
ATOM      7  C   UNL     1     164.449 160.728 182.776  1.00  0.00     0.007 A 
ENDROOT
BRANCH   3   8
ATOM      8  O   UNL     1     164.277 160.367 179.095  1.00  0.00    -0.508 OA
ATOM      9  H   UNL     1     165.204 160.035 178.858  1.00  0.00     0.293 HD
ENDBRANCH   3   8
BRANCH   5  10
ATOM     10  C   UNL     1     160.707 161.430 182.361  1.00  0.00     0.013 C 
ATOM     11  C   UNL     1     160.596 162.364 183.572  1.00  0.00     0.012 C 
ATOM     12  C   UNL     1     159.889 160.150 182.573  1.00  0.00     0.012 C 
ENDBRANCH   5  10
TORSDOF 2
ENDMDL
MODEL 5
REMARK VINA RESULT:    -4.274      2.421      3.750
REMARK INTER + INTRA:          -4.748
REMARK INTER:                  -4.622
REMARK INTRA:                  -0.126
REMARK UNBOUND:                -0.099
REMARK SMILES Cc1ccc(C(C)C)cc1O
REMARK SMILES IDX 1 1 2 2 10 3 9 4 5 5 4 6 3 7 11 8 6 10 7 11 8 12
REMARK H PARENT 11 9
REMARK Flexibility Score: inf
ROOT
ATOM      1  C   UNL     1     160.679 166.835 181.740  1.00  0.00     0.048 C 
ATOM      2  C   UNL     1     160.586 165.367 181.433  1.00  0.00    -0.009 A 
ATOM      3  C   UNL     1     160.790 164.903 180.121  1.00  0.00     0.118 A 
ATOM      4  C   UNL     1     160.702 163.532 179.842  1.00  0.00     0.050 A 
ATOM      5  C   UNL     1     160.410 162.609 180.862  1.00  0.00    -0.042 A 
ATOM      6  C   UNL     1     160.208 163.083 182.171  1.00  0.00     0.004 A 
ATOM      7  C   UNL     1     160.295 164.448 182.452  1.00  0.00     0.007 A 
ENDROOT
BRANCH   3   8
ATOM      8  O   UNL     1     161.080 165.806 179.099  1.00  0.00    -0.508 OA
ATOM      9  H   UNL     1     160.434 166.543 178.841  1.00  0.00     0.293 HD
ENDBRANCH   3   8
BRANCH   5  10
ATOM     10  C   UNL     1     160.318 161.129 180.542  1.00  0.00     0.013 C 
ATOM     11  C   UNL     1     159.918 160.319 181.782  1.00  0.00     0.012 C 
ATOM     12  C   UNL     1     161.632 160.609 179.945  1.00  0.00     0.012 C 
ENDBRANCH   5  10
TORSDOF 2
ENDMDL
MODEL 6
REMARK VINA RESULT:    -4.247      3.218      4.034
REMARK INTER + INTRA:          -4.719
REMARK INTER:                  -4.594
REMARK INTRA:                  -0.125
REMARK UNBOUND:                -0.099
REMARK SMILES Cc1ccc(C(C)C)cc1O
REMARK SMILES IDX 1 1 2 2 10 3 9 4 5 5 4 6 3 7 11 8 6 10 7 11 8 12
REMARK H PARENT 11 9
REMARK Flexibility Score: inf
ROOT
ATOM      1  C   UNL     1     166.154 160.415 180.548  1.00  0.00     0.048 C 
ATOM      2  C   UNL     1     164.830 160.621 181.227  1.00  0.00    -0.009 A 
ATOM      3  C   UNL     1     164.714 160.455 182.618  1.00  0.00     0.118 A 
ATOM      4  C   UNL     1     163.474 160.649 183.245  1.00  0.00     0.050 A 
ATOM      5  C   UNL     1     162.340 161.009 182.497  1.00  0.00    -0.042 A 
ATOM      6  C   UNL     1     162.467 161.173 181.105  1.00  0.00     0.004 A 
ATOM      7  C   UNL     1     163.699 160.980 180.478  1.00  0.00     0.007 A 
ENDROOT
BRANCH   3   8
ATOM      8  O   UNL     1     165.829 160.097 183.374  1.00  0.00    -0.508 OA
ATOM      9  H   UNL     1     166.768 160.157 182.998  1.00  0.00     0.293 HD
ENDBRANCH   3   8
BRANCH   5  10
ATOM     10  C   UNL     1     161.007 161.215 183.191  1.00  0.00     0.013 C 
ATOM     11  C   UNL     1     159.906 160.369 182.538  1.00  0.00     0.012 C 
ATOM     12  C   UNL     1     160.620 162.699 183.216  1.00  0.00     0.012 C 
ENDBRANCH   5  10
TORSDOF 2
ENDMDL
MODEL 7
REMARK VINA RESULT:    -4.205     20.018     20.662
REMARK INTER + INTRA:          -4.672
REMARK INTER:                  -4.547
REMARK INTRA:                  -0.125
REMARK UNBOUND:                -0.099
REMARK SMILES Cc1ccc(C(C)C)cc1O
REMARK SMILES IDX 1 1 2 2 10 3 9 4 5 5 4 6 3 7 11 8 6 10 7 11 8 12
REMARK H PARENT 11 9
REMARK Flexibility Score: inf
ROOT
ATOM      1  C   UNL     1     179.125 169.146 182.513  1.00  0.00     0.048 C 
ATOM      2  C   UNL     1     178.913 170.619 182.723  1.00  0.00    -0.009 A 
ATOM      3  C   UNL     1     177.616 171.130 182.903  1.00  0.00     0.118 A 
ATOM      4  C   UNL     1     177.426 172.506 183.098  1.00  0.00     0.050 A 
ATOM      5  C   UNL     1     178.522 173.386 183.115  1.00  0.00    -0.042 A 
ATOM      6  C   UNL     1     179.816 172.865 182.935  1.00  0.00     0.004 A 
ATOM      7  C   UNL     1     180.009 171.496 182.739  1.00  0.00     0.007 A 
ENDROOT
BRANCH   3   8
ATOM      8  O   UNL     1     176.519 170.269 182.888  1.00  0.00    -0.508 OA
ATOM      9  H   UNL     1     175.630 170.535 183.294  1.00  0.00     0.293 HD
ENDBRANCH   3   8
BRANCH   5  10
ATOM     10  C   UNL     1     178.298 174.872 183.328  1.00  0.00     0.013 C 
ATOM     11  C   UNL     1     179.459 175.499 184.110  1.00  0.00     0.012 C 
ATOM     12  C   UNL     1     176.958 175.136 184.024  1.00  0.00     0.012 C 
ENDBRANCH   5  10
TORSDOF 2
ENDMDL
MODEL 8
REMARK VINA RESULT:    -4.179     20.183     20.813
REMARK INTER + INTRA:          -4.644
REMARK INTER:                  -4.525
REMARK INTRA:                  -0.119
REMARK UNBOUND:                -0.099
REMARK SMILES Cc1ccc(C(C)C)cc1O
REMARK SMILES IDX 1 1 2 2 10 3 9 4 5 5 4 6 3 7 11 8 6 10 7 11 8 12
REMARK H PARENT 11 9
REMARK Flexibility Score: inf
ROOT
ATOM      1  C   UNL     1     175.011 177.007 182.282  1.00  0.00     0.048 C 
ATOM      2  C   UNL     1     175.991 175.886 182.481  1.00  0.00    -0.009 A 
ATOM      3  C   UNL     1     176.985 175.633 181.519  1.00  0.00     0.118 A 
ATOM      4  C   UNL     1     177.896 174.585 181.712  1.00  0.00     0.050 A 
ATOM      5  C   UNL     1     177.830 173.779 182.862  1.00  0.00    -0.042 A 
ATOM      6  C   UNL     1     176.833 174.040 183.819  1.00  0.00     0.004 A 
ATOM      7  C   UNL     1     175.923 175.082 183.630  1.00  0.00     0.007 A 
ENDROOT
BRANCH   3   8
ATOM      8  O   UNL     1     177.064 176.424 180.373  1.00  0.00    -0.508 OA
ATOM      9  H   UNL     1     177.779 177.133 180.265  1.00  0.00     0.293 HD
ENDBRANCH   3   8
BRANCH   5  10
ATOM     10  C   UNL     1     178.824 172.649 183.055  1.00  0.00     0.013 C 
ATOM     11  C   UNL     1     179.770 172.533 181.853  1.00  0.00     0.012 C 
ATOM     12  C   UNL     1     178.107 171.320 183.323  1.00  0.00     0.012 C 
ENDBRANCH   5  10
TORSDOF 2
ENDMDL
MODEL 9
REMARK VINA RESULT:    -4.134      3.166      3.987
REMARK INTER + INTRA:          -4.596
REMARK INTER:                  -4.471
REMARK INTRA:                  -0.125
REMARK UNBOUND:                -0.099
REMARK SMILES Cc1ccc(C(C)C)cc1O
REMARK SMILES IDX 1 1 2 2 10 3 9 4 5 5 4 6 3 7 11 8 6 10 7 11 8 12
REMARK H PARENT 11 9
REMARK Flexibility Score: inf
ROOT
ATOM      1  C   UNL     1     162.587 167.429 181.324  1.00  0.00     0.048 C 
ATOM      2  C   UNL     1     161.969 166.087 181.597  1.00  0.00    -0.009 A 
ATOM      3  C   UNL     1     160.634 165.834 181.238  1.00  0.00     0.118 A 
ATOM      4  C   UNL     1     160.065 164.578 181.497  1.00  0.00     0.050 A 
ATOM      5  C   UNL     1     160.816 163.564 182.115  1.00  0.00    -0.042 A 
ATOM      6  C   UNL     1     162.152 163.826 182.471  1.00  0.00     0.004 A 
ATOM      7  C   UNL     1     162.721 165.075 182.215  1.00  0.00     0.007 A 
ENDROOT
BRANCH   3   8
ATOM      8  O   UNL     1     159.876 166.830 180.624  1.00  0.00    -0.508 OA
ATOM      9  H   UNL     1     159.653 167.697 181.098  1.00  0.00     0.293 HD
ENDBRANCH   3   8
BRANCH   5  10
ATOM     10  C   UNL     1     160.185 162.211 182.388  1.00  0.00     0.013 C 
ATOM     11  C   UNL     1     160.806 161.550 183.625  1.00  0.00     0.012 C 
ATOM     12  C   UNL     1     160.288 161.295 181.162  1.00  0.00     0.012 C 
ENDBRANCH   5  10
TORSDOF 2
ENDMDL
