MODEL 1
REMARK VINA RESULT:    -5.941      0.000      0.000
REMARK INTER + INTRA:         -12.765
REMARK INTER:                 -10.803
REMARK INTRA:                  -1.962
REMARK UNBOUND:                -1.962
REMARK SMILES CCCCCC=CCC=CCCCCCCCC(=O)[O-]
REMARK SMILES IDX 11 1 12 2 13 3 14 4 15 5 16 6 17 7 18 8 19 9 20 10 10 11
REMARK SMILES IDX 9 12 8 13 7 14 6 15 5 16 4 17 3 18 2 19 1 20
REMARK H PARENT
REMARK Flexibility Score: inf
ROOT
ATOM      1  C   UNL     1      -6.695 -13.150  31.315  1.00  0.00     0.027 C 
ENDROOT
BRANCH   1   2
ATOM      2  C   UNL     1      -7.490 -14.370  31.809  1.00  0.00     0.004 C 
BRANCH   2   3
ATOM      3  C   UNL     1      -8.959 -14.068  32.158  1.00  0.00     0.000 C 
BRANCH   3   4
ATOM      4  C   UNL     1      -9.925 -15.225  31.829  1.00  0.00     0.000 C 
BRANCH   4   5
ATOM      5  C   UNL     1      -9.227 -16.368  31.080  1.00  0.00     0.000 C 
BRANCH   5   6
ATOM      6  C   UNL     1      -9.320 -17.681  31.867  1.00  0.00     0.006 C 
BRANCH   6   7
ATOM      7  C   UNL     1     -10.235 -18.685  31.159  1.00  0.00     0.053 C 
BRANCH   7   8
ATOM      8  C   UNL     1     -11.470 -18.931  31.966  1.00  0.00     0.041 C 
ATOM      9  O   UNL     1     -12.610 -18.782  31.447  1.00  0.00    -0.550 OA
ATOM     10  O   UNL     1     -11.365 -19.275  33.310  1.00  0.00    -0.550 OA
ENDBRANCH   7   8
ENDBRANCH   6   7
ENDBRANCH   5   6
ENDBRANCH   4   5
ENDBRANCH   3   4
ENDBRANCH   2   3
ENDBRANCH   1   2
BRANCH   1  11
ATOM     11  C   UNL     1      -6.222 -13.306  29.894  1.00  0.00    -0.031 C 
ATOM     12  C   UNL     1      -6.483 -14.413  29.181  1.00  0.00    -0.027 C 
BRANCH  12  13
ATOM     13  C   UNL     1      -5.999 -14.567  27.767  1.00  0.00     0.054 C 
BRANCH  13  14
ATOM     14  C   UNL     1      -7.123 -14.355  26.790  1.00  0.00    -0.027 C 
ATOM     15  C   UNL     1      -8.257 -15.068  26.870  1.00  0.00    -0.031 C 
BRANCH  15  16
ATOM     16  C   UNL     1      -9.369 -14.886  25.874  1.00  0.00     0.027 C 
BRANCH  16  17
ATOM     17  C   UNL     1     -10.704 -15.362  26.467  1.00  0.00     0.004 C 
BRANCH  17  18
ATOM     18  C   UNL     1     -10.526 -16.113  27.796  1.00  0.00     0.000 C 
BRANCH  18  19
ATOM     19  C   UNL     1     -11.736 -16.994  28.150  1.00  0.00    -0.003 C 
ATOM     20  C   UNL     1     -12.702 -16.255  29.074  1.00  0.00     0.004 C 
ENDBRANCH  18  19
ENDBRANCH  17  18
ENDBRANCH  16  17
ENDBRANCH  15  16
ENDBRANCH  13  14
ENDBRANCH  12  13
ENDBRANCH   1  11
TORSDOF 14
ENDMDL
MODEL 2
REMARK VINA RESULT:    -5.859      0.936      4.392
REMARK INTER + INTRA:         -12.616
REMARK INTER:                 -10.780
REMARK INTRA:                  -1.836
REMARK UNBOUND:                -1.962
REMARK SMILES CCCCCC=CCC=CCCCCCCCC(=O)[O-]
REMARK SMILES IDX 11 1 12 2 13 3 14 4 15 5 16 6 17 7 18 8 19 9 20 10 10 11
REMARK SMILES IDX 9 12 8 13 7 14 6 15 5 16 4 17 3 18 2 19 1 20
REMARK H PARENT
REMARK Flexibility Score: inf
ROOT
ATOM      1  C   UNL     1      -9.232 -14.825  25.733  1.00  0.00     0.027 C 
ENDROOT
BRANCH   1   2
ATOM      2  C   UNL     1     -10.613 -15.239  26.267  1.00  0.00     0.004 C 
BRANCH   2   3
ATOM      3  C   UNL     1     -10.570 -16.011  27.599  1.00  0.00     0.000 C 
BRANCH   3   4
ATOM      4  C   UNL     1     -11.926 -16.626  28.003  1.00  0.00     0.000 C 
BRANCH   4   5
ATOM      5  C   UNL     1     -12.437 -16.076  29.342  1.00  0.00     0.000 C 
BRANCH   5   6
ATOM      6  C   UNL     1     -12.953 -17.205  30.242  1.00  0.00     0.006 C 
BRANCH   6   7
ATOM      7  C   UNL     1     -12.124 -17.310  31.526  1.00  0.00     0.053 C 
BRANCH   7   8
ATOM      8  C   UNL     1     -11.300 -18.558  31.520  1.00  0.00     0.041 C 
ATOM      9  O   UNL     1     -11.265 -19.301  32.539  1.00  0.00    -0.550 OA
ATOM     10  O   UNL     1     -10.526 -18.876  30.408  1.00  0.00    -0.550 OA
ENDBRANCH   7   8
ENDBRANCH   6   7
ENDBRANCH   5   6
ENDBRANCH   4   5
ENDBRANCH   3   4
ENDBRANCH   2   3
ENDBRANCH   1   2
BRANCH   1  11
ATOM     11  C   UNL     1      -8.217 -14.653  26.832  1.00  0.00    -0.031 C 
ATOM     12  C   UNL     1      -6.909 -14.867  26.623  1.00  0.00    -0.027 C 
BRANCH  12  13
ATOM     13  C   UNL     1      -5.902 -14.704  27.727  1.00  0.00     0.054 C 
BRANCH  13  14
ATOM     14  C   UNL     1      -6.514 -14.005  28.911  1.00  0.00    -0.027 C 
ATOM     15  C   UNL     1      -5.761 -13.601  29.945  1.00  0.00    -0.031 C 
BRANCH  15  16
ATOM     16  C   UNL     1      -6.373 -12.935  31.146  1.00  0.00     0.027 C 
BRANCH  16  17
ATOM     17  C   UNL     1      -6.963 -13.986  32.100  1.00  0.00     0.004 C 
BRANCH  17  18
ATOM     18  C   UNL     1      -8.489 -14.109  31.971  1.00  0.00     0.000 C 
BRANCH  18  19
ATOM     19  C   UNL     1      -8.928 -15.443  31.344  1.00  0.00    -0.003 C 
ATOM     20  C   UNL     1      -8.100 -16.605  31.888  1.00  0.00     0.004 C 
ENDBRANCH  18  19
ENDBRANCH  17  18
ENDBRANCH  16  17
ENDBRANCH  15  16
ENDBRANCH  13  14
ENDBRANCH  12  13
ENDBRANCH   1  11
TORSDOF 14
ENDMDL
MODEL 3
REMARK VINA RESULT:    -5.719      1.416      5.018
REMARK INTER + INTRA:         -12.362
REMARK INTER:                 -11.124
REMARK INTRA:                  -1.238
REMARK UNBOUND:                -1.962
REMARK SMILES CCCCCC=CCC=CCCCCCCCC(=O)[O-]
REMARK SMILES IDX 11 1 12 2 13 3 14 4 15 5 16 6 17 7 18 8 19 9 20 10 10 11
REMARK SMILES IDX 9 12 8 13 7 14 6 15 5 16 4 17 3 18 2 19 1 20
REMARK H PARENT
REMARK Flexibility Score: inf
ROOT
ATOM      1  C   UNL     1     -10.734 -15.264  26.243  1.00  0.00     0.027 C 
ENDROOT
BRANCH   1   2
ATOM      2  C   UNL     1     -10.850 -16.072  27.545  1.00  0.00     0.004 C 
BRANCH   2   3
ATOM      3  C   UNL     1     -12.297 -16.301  28.019  1.00  0.00     0.000 C 
BRANCH   3   4
ATOM      4  C   UNL     1     -12.440 -17.449  29.041  1.00  0.00     0.000 C 
BRANCH   4   5
ATOM      5  C   UNL     1     -11.402 -18.557  28.819  1.00  0.00     0.000 C 
BRANCH   5   6
ATOM      6  C   UNL     1     -10.477 -18.700  30.033  1.00  0.00     0.006 C 
BRANCH   6   7
ATOM      7  C   UNL     1     -11.237 -18.445  31.338  1.00  0.00     0.053 C 
BRANCH   7   8
ATOM      8  C   UNL     1     -10.521 -17.435  32.177  1.00  0.00     0.041 C 
ATOM      9  O   UNL     1     -11.173 -16.594  32.855  1.00  0.00    -0.550 OA
ATOM     10  O   UNL     1      -9.131 -17.384  32.169  1.00  0.00    -0.550 OA
ENDBRANCH   7   8
ENDBRANCH   6   7
ENDBRANCH   5   6
ENDBRANCH   4   5
ENDBRANCH   3   4
ENDBRANCH   2   3
ENDBRANCH   1   2
BRANCH   1  11
ATOM     11  C   UNL     1      -9.382 -14.623  26.081  1.00  0.00    -0.031 C 
ATOM     12  C   UNL     1      -8.290 -15.117  26.684  1.00  0.00    -0.027 C 
BRANCH  12  13
ATOM     13  C   UNL     1      -6.944 -14.465  26.527  1.00  0.00     0.054 C 
BRANCH  13  14
ATOM     14  C   UNL     1      -6.262 -14.320  27.860  1.00  0.00    -0.027 C 
ATOM     15  C   UNL     1      -6.930 -14.508  29.008  1.00  0.00    -0.031 C 
BRANCH  15  16
ATOM     16  C   UNL     1      -6.261 -14.328  30.342  1.00  0.00     0.027 C 
BRANCH  16  17
ATOM     17  C   UNL     1      -7.301 -13.997  31.424  1.00  0.00     0.004 C 
BRANCH  17  18
ATOM     18  C   UNL     1      -6.907 -12.773  32.267  1.00  0.00     0.000 C 
BRANCH  18  19
ATOM     19  C   UNL     1      -5.905 -11.854  31.550  1.00  0.00    -0.003 C 
ATOM     20  C   UNL     1      -4.764 -11.452  32.482  1.00  0.00     0.004 C 
ENDBRANCH  18  19
ENDBRANCH  17  18
ENDBRANCH  16  17
ENDBRANCH  15  16
ENDBRANCH  13  14
ENDBRANCH  12  13
ENDBRANCH   1  11
TORSDOF 14
ENDMDL
MODEL 4
REMARK VINA RESULT:    -5.707      1.691      4.963
REMARK INTER + INTRA:         -12.340
REMARK INTER:                 -10.712
REMARK INTRA:                  -1.628
REMARK UNBOUND:                -1.962
REMARK SMILES CCCCCC=CCC=CCCCCCCCC(=O)[O-]
REMARK SMILES IDX 11 1 12 2 13 3 14 4 15 5 16 6 17 7 18 8 19 9 20 10 10 11
REMARK SMILES IDX 9 12 8 13 7 14 6 15 5 16 4 17 3 18 2 19 1 20
REMARK H PARENT
REMARK Flexibility Score: inf
ROOT
ATOM      1  C   UNL     1     -11.999 -16.392  27.408  1.00  0.00     0.027 C 
ENDROOT
BRANCH   1   2
ATOM      2  C   UNL     1     -12.179 -16.683  28.907  1.00  0.00     0.004 C 
BRANCH   2   3
ATOM      3  C   UNL     1     -11.950 -18.155  29.295  1.00  0.00     0.000 C 
BRANCH   3   4
ATOM      4  C   UNL     1     -10.490 -18.473  29.681  1.00  0.00     0.000 C 
BRANCH   4   5
ATOM      5  C   UNL     1     -10.346 -18.825  31.168  1.00  0.00     0.000 C 
BRANCH   5   6
ATOM      6  C   UNL     1      -9.335 -17.902  31.858  1.00  0.00     0.006 C 
BRANCH   6   7
ATOM      7  C   UNL     1      -9.149 -16.601  31.070  1.00  0.00     0.053 C 
BRANCH   7   8
ATOM      8  C   UNL     1      -9.777 -15.453  31.794  1.00  0.00     0.041 C 
ATOM      9  O   UNL     1      -9.168 -14.352  31.888  1.00  0.00    -0.550 OA
ATOM     10  O   UNL     1     -11.013 -15.612  32.412  1.00  0.00    -0.550 OA
ENDBRANCH   7   8
ENDBRANCH   6   7
ENDBRANCH   5   6
ENDBRANCH   4   5
ENDBRANCH   3   4
ENDBRANCH   2   3
ENDBRANCH   1   2
BRANCH   1  11
ATOM     11  C   UNL     1     -10.734 -15.627  27.117  1.00  0.00    -0.031 C 
ATOM     12  C   UNL     1     -10.421 -15.228  25.875  1.00  0.00    -0.027 C 
BRANCH  12  13
ATOM     13  C   UNL     1      -9.151 -14.475  25.590  1.00  0.00     0.054 C 
BRANCH  13  14
ATOM     14  C   UNL     1      -8.246 -14.479  26.791  1.00  0.00    -0.027 C 
ATOM     15  C   UNL     1      -6.912 -14.520  26.657  1.00  0.00    -0.031 C 
BRANCH  15  16
ATOM     16  C   UNL     1      -6.005 -14.561  27.855  1.00  0.00     0.027 C 
BRANCH  16  17
ATOM     17  C   UNL     1      -6.820 -14.436  29.152  1.00  0.00     0.004 C 
BRANCH  17  18
ATOM     18  C   UNL     1      -5.983 -13.908  30.327  1.00  0.00     0.000 C 
BRANCH  18  19
ATOM     19  C   UNL     1      -5.977 -12.373  30.412  1.00  0.00    -0.003 C 
ATOM     20  C   UNL     1      -6.044 -11.903  31.864  1.00  0.00     0.004 C 
ENDBRANCH  18  19
ENDBRANCH  17  18
ENDBRANCH  16  17
ENDBRANCH  15  16
ENDBRANCH  13  14
ENDBRANCH  12  13
ENDBRANCH   1  11
TORSDOF 14
ENDMDL
MODEL 5
REMARK VINA RESULT:    -5.627      2.787      6.016
REMARK INTER + INTRA:         -12.195
REMARK INTER:                 -10.802
REMARK INTRA:                  -1.393
REMARK UNBOUND:                -1.962
REMARK SMILES CCCCCC=CCC=CCCCCCCCC(=O)[O-]
REMARK SMILES IDX 11 1 12 2 13 3 14 4 15 5 16 6 17 7 18 8 19 9 20 10 10 11
REMARK SMILES IDX 9 12 8 13 7 14 6 15 5 16 4 17 3 18 2 19 1 20
REMARK H PARENT
REMARK Flexibility Score: inf
ROOT
ATOM      1  C   UNL     1      -9.864 -14.551  25.545  1.00  0.00     0.027 C 
ENDROOT
BRANCH   1   2
ATOM      2  C   UNL     1      -8.492 -13.934  25.861  1.00  0.00     0.004 C 
BRANCH   2   3
ATOM      3  C   UNL     1      -7.498 -14.908  26.519  1.00  0.00     0.000 C 
BRANCH   3   4
ATOM      4  C   UNL     1      -7.162 -14.554  27.983  1.00  0.00     0.000 C 
BRANCH   4   5
ATOM      5  C   UNL     1      -5.659 -14.334  28.197  1.00  0.00     0.000 C 
BRANCH   5   6
ATOM      6  C   UNL     1      -5.361 -13.926  29.645  1.00  0.00     0.006 C 
BRANCH   6   7
ATOM      7  C   UNL     1      -6.648 -13.843  30.471  1.00  0.00     0.053 C 
BRANCH   7   8
ATOM      8  C   UNL     1      -6.370 -13.271  31.824  1.00  0.00     0.041 C 
ATOM      9  O   UNL     1      -5.691 -12.214  31.940  1.00  0.00    -0.550 OA
ATOM     10  O   UNL     1      -6.816 -13.932  32.964  1.00  0.00    -0.550 OA
ENDBRANCH   7   8
ENDBRANCH   6   7
ENDBRANCH   5   6
ENDBRANCH   4   5
ENDBRANCH   3   4
ENDBRANCH   2   3
ENDBRANCH   1   2
BRANCH   1  11
ATOM     11  C   UNL     1     -10.369 -15.433  26.656  1.00  0.00    -0.031 C 
ATOM     12  C   UNL     1     -11.660 -15.791  26.741  1.00  0.00    -0.027 C 
BRANCH  12  13
ATOM     13  C   UNL     1     -12.160 -16.662  27.859  1.00  0.00     0.054 C 
BRANCH  13  14
ATOM     14  C   UNL     1     -11.012 -17.252  28.631  1.00  0.00    -0.027 C 
ATOM     15  C   UNL     1     -11.178 -18.338  29.401  1.00  0.00    -0.031 C 
BRANCH  15  16
ATOM     16  C   UNL     1     -10.042 -18.910  30.203  1.00  0.00     0.027 C 
BRANCH  16  17
ATOM     17  C   UNL     1      -9.734 -18.014  31.413  1.00  0.00     0.004 C 
BRANCH  17  18
ATOM     18  C   UNL     1     -10.828 -18.079  32.490  1.00  0.00     0.000 C 
BRANCH  18  19
ATOM     19  C   UNL     1     -11.577 -16.746  32.660  1.00  0.00    -0.003 C 
ATOM     20  C   UNL     1     -10.776 -15.587  32.069  1.00  0.00     0.004 C 
ENDBRANCH  18  19
ENDBRANCH  17  18
ENDBRANCH  16  17
ENDBRANCH  15  16
ENDBRANCH  13  14
ENDBRANCH  12  13
ENDBRANCH   1  11
TORSDOF 14
ENDMDL
MODEL 6
REMARK VINA RESULT:    -5.621      2.238      5.569
REMARK INTER + INTRA:         -12.184
REMARK INTER:                 -10.671
REMARK INTRA:                  -1.513
REMARK UNBOUND:                -1.962
REMARK SMILES CCCCCC=CCC=CCCCCCCCC(=O)[O-]
REMARK SMILES IDX 11 1 12 2 13 3 14 4 15 5 16 6 17 7 18 8 19 9 20 10 10 11
REMARK SMILES IDX 9 12 8 13 7 14 6 15 5 16 4 17 3 18 2 19 1 20
REMARK H PARENT
REMARK Flexibility Score: inf
ROOT
ATOM      1  C   UNL     1      -8.961 -14.634  25.975  1.00  0.00     0.027 C 
ENDROOT
BRANCH   1   2
ATOM      2  C   UNL     1      -7.598 -15.265  26.303  1.00  0.00     0.004 C 
BRANCH   2   3
ATOM      3  C   UNL     1      -6.527 -14.255  26.754  1.00  0.00     0.000 C 
BRANCH   3   4
ATOM      4  C   UNL     1      -5.431 -14.872  27.648  1.00  0.00     0.000 C 
BRANCH   4   5
ATOM      5  C   UNL     1      -5.325 -14.168  29.007  1.00  0.00     0.000 C 
BRANCH   5   6
ATOM      6  C   UNL     1      -6.711 -13.789  29.543  1.00  0.00     0.006 C 
BRANCH   6   7
ATOM      7  C   UNL     1      -7.342 -14.954  30.312  1.00  0.00     0.053 C 
BRANCH   7   8
ATOM      8  C   UNL     1      -7.319 -14.687  31.783  1.00  0.00     0.041 C 
ATOM      9  O   UNL     1      -6.771 -15.506  32.570  1.00  0.00    -0.550 OA
ATOM     10  O   UNL     1      -7.951 -13.558  32.295  1.00  0.00    -0.550 OA
ENDBRANCH   7   8
ENDBRANCH   6   7
ENDBRANCH   5   6
ENDBRANCH   4   5
ENDBRANCH   3   4
ENDBRANCH   2   3
ENDBRANCH   1   2
BRANCH   1  11
ATOM     11  C   UNL     1     -10.095 -15.290  26.717  1.00  0.00    -0.031 C 
ATOM     12  C   UNL     1     -11.307 -15.442  26.162  1.00  0.00    -0.027 C 
BRANCH  12  13
ATOM     13  C   UNL     1     -12.437 -16.088  26.913  1.00  0.00     0.054 C 
BRANCH  13  14
ATOM     14  C   UNL     1     -11.984 -16.545  28.273  1.00  0.00    -0.027 C 
ATOM     15  C   UNL     1     -12.674 -16.229  29.379  1.00  0.00    -0.031 C 
BRANCH  15  16
ATOM     16  C   UNL     1     -12.206 -16.652  30.743  1.00  0.00     0.027 C 
BRANCH  16  17
ATOM     17  C   UNL     1     -10.730 -16.273  30.946  1.00  0.00     0.004 C 
BRANCH  17  18
ATOM     18  C   UNL     1      -9.958 -17.321  31.762  1.00  0.00     0.000 C 
BRANCH  18  19
ATOM     19  C   UNL     1     -10.507 -18.745  31.573  1.00  0.00    -0.003 C 
ATOM     20  C   UNL     1     -11.283 -19.202  32.807  1.00  0.00     0.004 C 
ENDBRANCH  18  19
ENDBRANCH  17  18
ENDBRANCH  16  17
ENDBRANCH  15  16
ENDBRANCH  13  14
ENDBRANCH  12  13
ENDBRANCH   1  11
TORSDOF 14
ENDMDL
MODEL 7
REMARK VINA RESULT:    -5.471      1.964      4.199
REMARK INTER + INTRA:         -11.910
REMARK INTER:                 -10.524
REMARK INTRA:                  -1.386
REMARK UNBOUND:                -1.962
REMARK SMILES CCCCCC=CCC=CCCCCCCCC(=O)[O-]
REMARK SMILES IDX 11 1 12 2 13 3 14 4 15 5 16 6 17 7 18 8 19 9 20 10 10 11
REMARK SMILES IDX 9 12 8 13 7 14 6 15 5 16 4 17 3 18 2 19 1 20
REMARK H PARENT
REMARK Flexibility Score: inf
ROOT
ATOM      1  C   UNL     1      -9.843 -16.302  31.317  1.00  0.00     0.027 C 
ENDROOT
BRANCH   1   2
ATOM      2  C   UNL     1      -9.367 -17.645  31.897  1.00  0.00     0.004 C 
BRANCH   2   3
ATOM      3  C   UNL     1     -10.441 -18.748  31.898  1.00  0.00     0.000 C 
BRANCH   3   4
ATOM      4  C   UNL     1     -11.884 -18.208  31.817  1.00  0.00     0.000 C 
BRANCH   4   5
ATOM      5  C   UNL     1     -12.513 -18.438  30.436  1.00  0.00     0.000 C 
BRANCH   5   6
ATOM      6  C   UNL     1     -13.503 -17.321  30.087  1.00  0.00     0.006 C 
BRANCH   6   7
ATOM      7  C   UNL     1     -12.785 -16.125  29.455  1.00  0.00     0.053 C 
BRANCH   7   8
ATOM      8  C   UNL     1     -12.628 -16.323  27.981  1.00  0.00     0.041 C 
ATOM      9  O   UNL     1     -13.543 -15.964  27.190  1.00  0.00    -0.550 OA
ATOM     10  O   UNL     1     -11.494 -16.955  27.480  1.00  0.00    -0.550 OA
ENDBRANCH   7   8
ENDBRANCH   6   7
ENDBRANCH   5   6
ENDBRANCH   4   5
ENDBRANCH   3   4
ENDBRANCH   2   3
ENDBRANCH   1   2
BRANCH   1  11
ATOM     11  C   UNL     1      -8.707 -15.468  30.786  1.00  0.00    -0.031 C 
ATOM     12  C   UNL     1      -7.928 -14.738  31.599  1.00  0.00    -0.027 C 
BRANCH  12  13
ATOM     13  C   UNL     1      -6.803 -13.899  31.061  1.00  0.00     0.054 C 
BRANCH  13  14
ATOM     14  C   UNL     1      -6.201 -14.532  29.836  1.00  0.00    -0.027 C 
ATOM     15  C   UNL     1      -6.417 -14.026  28.613  1.00  0.00    -0.031 C 
BRANCH  15  16
ATOM     16  C   UNL     1      -5.847 -14.677  27.384  1.00  0.00     0.027 C 
BRANCH  16  17
ATOM     17  C   UNL     1      -6.938 -14.856  26.316  1.00  0.00     0.004 C 
BRANCH  17  18
ATOM     18  C   UNL     1      -8.347 -14.952  26.922  1.00  0.00     0.000 C 
BRANCH  18  19
ATOM     19  C   UNL     1      -9.446 -14.488  25.951  1.00  0.00    -0.003 C 
ATOM     20  C   UNL     1      -9.049 -13.190  25.251  1.00  0.00     0.004 C 
ENDBRANCH  18  19
ENDBRANCH  17  18
ENDBRANCH  16  17
ENDBRANCH  15  16
ENDBRANCH  13  14
ENDBRANCH  12  13
ENDBRANCH   1  11
TORSDOF 14
ENDMDL
MODEL 8
REMARK VINA RESULT:    -5.425      2.888      5.527
REMARK INTER + INTRA:         -11.827
REMARK INTER:                 -10.365
REMARK INTRA:                  -1.462
REMARK UNBOUND:                -1.962
REMARK SMILES CCCCCC=CCC=CCCCCCCCC(=O)[O-]
REMARK SMILES IDX 11 1 12 2 13 3 14 4 15 5 16 6 17 7 18 8 19 9 20 10 10 11
REMARK SMILES IDX 9 12 8 13 7 14 6 15 5 16 4 17 3 18 2 19 1 20
REMARK H PARENT
REMARK Flexibility Score: inf
ROOT
ATOM      1  C   UNL     1      -7.507 -15.486  31.882  1.00  0.00     0.027 C 
ENDROOT
BRANCH   1   2
ATOM      2  C   UNL     1      -7.728 -13.965  31.922  1.00  0.00     0.004 C 
BRANCH   2   3
ATOM      3  C   UNL     1      -6.604 -13.182  32.625  1.00  0.00     0.000 C 
BRANCH   3   4
ATOM      4  C   UNL     1      -6.200 -11.886  31.891  1.00  0.00     0.000 C 
BRANCH   4   5
ATOM      5  C   UNL     1      -4.888 -12.046  31.111  1.00  0.00     0.000 C 
BRANCH   5   6
ATOM      6  C   UNL     1      -5.157 -12.277  29.619  1.00  0.00     0.006 C 
BRANCH   6   7
ATOM      7  C   UNL     1      -4.843 -13.722  29.219  1.00  0.00     0.053 C 
BRANCH   7   8
ATOM      8  C   UNL     1      -5.892 -14.251  28.294  1.00  0.00     0.041 C 
ATOM      9  O   UNL     1      -7.107 -14.235  28.633  1.00  0.00    -0.550 OA
ATOM     10  O   UNL     1      -5.525 -14.814  27.075  1.00  0.00    -0.550 OA
ENDBRANCH   7   8
ENDBRANCH   6   7
ENDBRANCH   5   6
ENDBRANCH   4   5
ENDBRANCH   3   4
ENDBRANCH   2   3
ENDBRANCH   1   2
BRANCH   1  11
ATOM     11  C   UNL     1      -8.706 -16.230  31.356  1.00  0.00    -0.031 C 
ATOM     12  C   UNL     1      -9.084 -17.411  31.868  1.00  0.00    -0.027 C 
BRANCH  12  13
ATOM     13  C   UNL     1     -10.275 -18.154  31.330  1.00  0.00     0.054 C 
BRANCH  13  14
ATOM     14  C   UNL     1     -10.813 -17.480  30.098  1.00  0.00    -0.027 C 
ATOM     15  C   UNL     1     -12.041 -16.940  30.080  1.00  0.00    -0.031 C 
BRANCH  15  16
ATOM     16  C   UNL     1     -12.598 -16.299  28.840  1.00  0.00     0.027 C 
BRANCH  16  17
ATOM     17  C   UNL     1     -11.820 -16.765  27.599  1.00  0.00     0.004 C 
BRANCH  17  18
ATOM     18  C   UNL     1     -11.357 -15.594  26.718  1.00  0.00     0.000 C 
BRANCH  18  19
ATOM     19  C   UNL     1      -9.832 -15.395  26.745  1.00  0.00    -0.003 C 
ATOM     20  C   UNL     1      -9.397 -14.344  25.725  1.00  0.00     0.004 C 
ENDBRANCH  18  19
ENDBRANCH  17  18
ENDBRANCH  16  17
ENDBRANCH  15  16
ENDBRANCH  13  14
ENDBRANCH  12  13
ENDBRANCH   1  11
TORSDOF 14
ENDMDL
MODEL 9
REMARK VINA RESULT:    -5.381      3.824      6.145
REMARK INTER + INTRA:         -11.747
REMARK INTER:                 -10.180
REMARK INTRA:                  -1.567
REMARK UNBOUND:                -1.962
REMARK SMILES CCCCCC=CCC=CCCCCCCCC(=O)[O-]
REMARK SMILES IDX 11 1 12 2 13 3 14 4 15 5 16 6 17 7 18 8 19 9 20 10 10 11
REMARK SMILES IDX 9 12 8 13 7 14 6 15 5 16 4 17 3 18 2 19 1 20
REMARK H PARENT
REMARK Flexibility Score: inf
ROOT
ATOM      1  C   UNL     1      -6.790 -14.461  26.643  1.00  0.00     0.027 C 
ENDROOT
BRANCH   1   2
ATOM      2  C   UNL     1      -6.071 -14.382  28.000  1.00  0.00     0.004 C 
BRANCH   2   3
ATOM      3  C   UNL     1      -7.003 -14.525  29.217  1.00  0.00     0.000 C 
BRANCH   3   4
ATOM      4  C   UNL     1      -6.271 -14.425  30.572  1.00  0.00     0.000 C 
BRANCH   4   5
ATOM      5  C   UNL     1      -7.013 -13.523  31.568  1.00  0.00     0.000 C 
BRANCH   5   6
ATOM      6  C   UNL     1      -6.396 -12.120  31.608  1.00  0.00     0.006 C 
BRANCH   6   7
ATOM      7  C   UNL     1      -5.010 -12.108  30.957  1.00  0.00     0.053 C 
BRANCH   7   8
ATOM      8  C   UNL     1      -4.036 -11.355  31.805  1.00  0.00     0.041 C 
ATOM      9  O   UNL     1      -4.274 -11.163  33.029  1.00  0.00    -0.550 OA
ATOM     10  O   UNL     1      -2.887 -10.816  31.234  1.00  0.00    -0.550 OA
ENDBRANCH   7   8
ENDBRANCH   6   7
ENDBRANCH   5   6
ENDBRANCH   4   5
ENDBRANCH   3   4
ENDBRANCH   2   3
ENDBRANCH   1   2
BRANCH   1  11
ATOM     11  C   UNL     1      -8.224 -14.903  26.775  1.00  0.00    -0.031 C 
ATOM     12  C   UNL     1      -9.148 -14.581  25.856  1.00  0.00    -0.027 C 
BRANCH  12  13
ATOM     13  C   UNL     1     -10.580 -15.015  26.000  1.00  0.00     0.054 C 
BRANCH  13  14
ATOM     14  C   UNL     1     -10.732 -15.989  27.137  1.00  0.00    -0.027 C 
ATOM     15  C   UNL     1     -11.944 -16.350  27.586  1.00  0.00    -0.031 C 
BRANCH  15  16
ATOM     16  C   UNL     1     -12.100 -17.294  28.745  1.00  0.00     0.027 C 
BRANCH  16  17
ATOM     17  C   UNL     1     -10.950 -17.110  29.747  1.00  0.00     0.004 C 
BRANCH  17  18
ATOM     18  C   UNL     1     -11.229 -15.997  30.769  1.00  0.00     0.000 C 
BRANCH  18  19
ATOM     19  C   UNL     1     -10.179 -15.940  31.890  1.00  0.00    -0.003 C 
ATOM     20  C   UNL     1      -9.047 -16.934  31.634  1.00  0.00     0.004 C 
ENDBRANCH  18  19
ENDBRANCH  17  18
ENDBRANCH  16  17
ENDBRANCH  15  16
ENDBRANCH  13  14
ENDBRANCH  12  13
ENDBRANCH   1  11
TORSDOF 14
ENDMDL
