MODEL 1
REMARK VINA RESULT:    -2.224      0.000      0.000
REMARK INTER + INTRA:          -7.304
REMARK INTER:                  -5.605
REMARK INTRA:                  -1.699
REMARK UNBOUND:                -1.699
REMARK SMILES CCCCCCCCCCCCCCCCCCCCCCCCCCCC(=O)[O-]
REMARK SMILES IDX 15 1 16 2 17 3 18 4 19 5 20 6 21 7 22 8 23 9 24 10 25 11
REMARK SMILES IDX 26 12 27 13 28 14 29 15 30 16 14 17 13 18 12 19 11 20 10 21
REMARK SMILES IDX 9 22 8 23 7 24 6 25 5 26 4 27 3 28 2 29 1 30
REMARK H PARENT
REMARK Flexibility Score: inf
ROOT
ATOM      1  C   UNL     1       0.981 -34.691  22.607  1.00  0.00     0.000 C 
ENDROOT
BRANCH   1   2
ATOM      2  C   UNL     1       1.856 -33.460  22.890  1.00  0.00     0.000 C 
BRANCH   2   3
ATOM      3  C   UNL     1       1.697 -32.998  24.343  1.00  0.00     0.000 C 
BRANCH   3   4
ATOM      4  C   UNL     1       0.453 -32.111  24.507  1.00  0.00     0.000 C 
BRANCH   4   5
ATOM      5  C   UNL     1      -0.861 -32.913  24.512  1.00  0.00     0.000 C 
BRANCH   5   6
ATOM      6  C   UNL     1      -2.077 -32.175  23.924  1.00  0.00     0.000 C 
BRANCH   6   7
ATOM      7  C   UNL     1      -2.916 -33.052  22.983  1.00  0.00     0.000 C 
BRANCH   7   8
ATOM      8  C   UNL     1      -2.192 -34.370  22.673  1.00  0.00     0.000 C 
BRANCH   8   9
ATOM      9  C   UNL     1      -3.119 -35.425  22.050  1.00  0.00     0.000 C 
BRANCH   9  10
ATOM     10  C   UNL     1      -2.467 -36.816  21.966  1.00  0.00     0.000 C 
BRANCH  10  11
ATOM     11  C   UNL     1      -1.808 -37.067  20.592  1.00  0.00     0.000 C 
BRANCH  11  12
ATOM     12  C   UNL     1      -2.631 -37.992  19.677  1.00  0.00     0.006 C 
BRANCH  12  13
ATOM     13  C   UNL     1      -4.055 -37.481  19.436  1.00  0.00     0.053 C 
BRANCH  13  14
ATOM     14  C   UNL     1      -4.220 -37.040  18.016  1.00  0.00     0.041 C 
ATOM     15  O   UNL     1      -4.206 -37.887  17.085  1.00  0.00    -0.550 OA
ATOM     16  O   UNL     1      -4.430 -35.698  17.724  1.00  0.00    -0.550 OA
ENDBRANCH  13  14
ENDBRANCH  12  13
ENDBRANCH  11  12
ENDBRANCH  10  11
ENDBRANCH   9  10
ENDBRANCH   8   9
ENDBRANCH   7   8
ENDBRANCH   6   7
ENDBRANCH   5   6
ENDBRANCH   4   5
ENDBRANCH   3   4
ENDBRANCH   2   3
ENDBRANCH   1   2
BRANCH   1  17
ATOM     17  C   UNL     1       1.431 -35.464  21.357  1.00  0.00     0.000 C 
BRANCH  17  18
ATOM     18  C   UNL     1       2.642 -36.371  21.633  1.00  0.00     0.000 C 
BRANCH  18  19
ATOM     19  C   UNL     1       2.373 -37.842  21.277  1.00  0.00     0.000 C 
BRANCH  19  20
ATOM     20  C   UNL     1       1.029 -38.045  20.562  1.00  0.00     0.000 C 
BRANCH  20  21
ATOM     21  C   UNL     1       1.223 -38.125  19.043  1.00  0.00     0.000 C 
BRANCH  21  22
ATOM     22  C   UNL     1       1.589 -36.752  18.458  1.00  0.00    -0.000 C 
BRANCH  22  23
ATOM     23  C   UNL     1       3.084 -36.647  18.088  1.00  0.00    -0.000 C 
BRANCH  23  24
ATOM     24  C   UNL     1       3.784 -38.010  17.926  1.00  0.00    -0.000 C 
BRANCH  24  25
ATOM     25  C   UNL     1       5.314 -37.947  17.750  1.00  0.00    -0.000 C 
BRANCH  25  26
ATOM     26  C   UNL     1       6.124 -38.117  19.050  1.00  0.00    -0.000 C 
BRANCH  26  27
ATOM     27  C   UNL     1       6.044 -36.925  20.022  1.00  0.00    -0.000 C 
BRANCH  27  28
ATOM     28  C   UNL     1       6.120 -37.332  21.511  1.00  0.00    -0.000 C 
BRANCH  28  29
ATOM     29  C   UNL     1       6.066 -36.139  22.482  1.00  0.00    -0.003 C 
ATOM     30  C   UNL     1       5.123 -36.383  23.660  1.00  0.00     0.004 C 
ENDBRANCH  28  29
ENDBRANCH  27  28
ENDBRANCH  26  27
ENDBRANCH  25  26
ENDBRANCH  24  25
ENDBRANCH  23  24
ENDBRANCH  22  23
ENDBRANCH  21  22
ENDBRANCH  20  21
ENDBRANCH  19  20
ENDBRANCH  18  19
ENDBRANCH  17  18
ENDBRANCH   1  17
TORSDOF 26
ENDMDL
MODEL 2
REMARK VINA RESULT:    -2.091      2.595      7.929
REMARK INTER + INTRA:          -6.968
REMARK INTER:                  -5.000
REMARK INTRA:                  -1.968
REMARK UNBOUND:                -1.699
REMARK SMILES CCCCCCCCCCCCCCCCCCCCCCCCCCCC(=O)[O-]
REMARK SMILES IDX 15 1 16 2 17 3 18 4 19 5 20 6 21 7 22 8 23 9 24 10 25 11
REMARK SMILES IDX 26 12 27 13 28 14 29 15 30 16 14 17 13 18 12 19 11 20 10 21
REMARK SMILES IDX 9 22 8 23 7 24 6 25 5 26 4 27 3 28 2 29 1 30
REMARK H PARENT
REMARK Flexibility Score: inf
ROOT
ATOM      1  C   UNL     1       1.300 -35.508  19.992  1.00  0.00     0.000 C 
ENDROOT
BRANCH   1   2
ATOM      2  C   UNL     1       2.712 -35.523  19.387  1.00  0.00     0.000 C 
BRANCH   2   3
ATOM      3  C   UNL     1       2.697 -36.127  17.978  1.00  0.00     0.000 C 
BRANCH   3   4
ATOM      4  C   UNL     1       4.095 -36.620  17.574  1.00  0.00     0.000 C 
BRANCH   4   5
ATOM      5  C   UNL     1       4.398 -38.045  18.071  1.00  0.00     0.000 C 
BRANCH   5   6
ATOM      6  C   UNL     1       5.326 -38.124  19.296  1.00  0.00     0.000 C 
BRANCH   6   7
ATOM      7  C   UNL     1       5.999 -36.784  19.628  1.00  0.00     0.000 C 
BRANCH   7   8
ATOM      8  C   UNL     1       5.986 -36.526  21.142  1.00  0.00     0.000 C 
BRANCH   8   9
ATOM      9  C   UNL     1       5.438 -37.717  21.943  1.00  0.00     0.000 C 
BRANCH   9  10
ATOM     10  C   UNL     1       4.238 -37.338  22.829  1.00  0.00     0.000 C 
BRANCH  10  11
ATOM     11  C   UNL     1       4.372 -35.913  23.409  1.00  0.00     0.000 C 
BRANCH  11  12
ATOM     12  C   UNL     1       3.134 -35.032  23.166  1.00  0.00     0.006 C 
BRANCH  12  13
ATOM     13  C   UNL     1       3.196 -33.695  23.912  1.00  0.00     0.053 C 
BRANCH  13  14
ATOM     14  C   UNL     1       1.878 -32.990  23.831  1.00  0.00     0.041 C 
ATOM     15  O   UNL     1       0.883 -33.567  23.323  1.00  0.00    -0.550 OA
ATOM     16  O   UNL     1       1.741 -31.711  24.357  1.00  0.00    -0.550 OA
ENDBRANCH  13  14
ENDBRANCH  12  13
ENDBRANCH  11  12
ENDBRANCH  10  11
ENDBRANCH   9  10
ENDBRANCH   8   9
ENDBRANCH   7   8
ENDBRANCH   6   7
ENDBRANCH   5   6
ENDBRANCH   4   5
ENDBRANCH   3   4
ENDBRANCH   2   3
ENDBRANCH   1   2
BRANCH   1  17
ATOM     17  C   UNL     1       1.211 -36.297  21.309  1.00  0.00     0.000 C 
BRANCH  17  18
ATOM     18  C   UNL     1       1.007 -37.804  21.076  1.00  0.00     0.000 C 
BRANCH  18  19
ATOM     19  C   UNL     1       0.544 -38.125  19.646  1.00  0.00     0.000 C 
BRANCH  19  20
ATOM     20  C   UNL     1      -0.975 -37.987  19.467  1.00  0.00     0.000 C 
BRANCH  20  21
ATOM     21  C   UNL     1      -1.700 -38.123  20.812  1.00  0.00     0.000 C 
BRANCH  21  22
ATOM     22  C   UNL     1      -3.224 -38.059  20.628  1.00  0.00    -0.000 C 
BRANCH  22  23
ATOM     23  C   UNL     1      -3.752 -36.610  20.569  1.00  0.00    -0.000 C 
BRANCH  23  24
ATOM     24  C   UNL     1      -3.887 -35.938  21.948  1.00  0.00    -0.000 C 
BRANCH  24  25
ATOM     25  C   UNL     1      -2.576 -35.813  22.750  1.00  0.00    -0.000 C 
BRANCH  25  26
ATOM     26  C   UNL     1      -1.851 -34.462  22.602  1.00  0.00    -0.000 C 
BRANCH  26  27
ATOM     27  C   UNL     1      -2.654 -33.241  23.086  1.00  0.00    -0.000 C 
BRANCH  27  28
ATOM     28  C   UNL     1      -1.812 -32.218  23.882  1.00  0.00    -0.000 C 
BRANCH  28  29
ATOM     29  C   UNL     1      -2.546 -30.894  24.159  1.00  0.00    -0.003 C 
ATOM     30  C   UNL     1      -1.638 -29.675  23.991  1.00  0.00     0.004 C 
ENDBRANCH  28  29
ENDBRANCH  27  28
ENDBRANCH  26  27
ENDBRANCH  25  26
ENDBRANCH  24  25
ENDBRANCH  23  24
ENDBRANCH  22  23
ENDBRANCH  21  22
ENDBRANCH  20  21
ENDBRANCH  19  20
ENDBRANCH  18  19
ENDBRANCH  17  18
ENDBRANCH   1  17
TORSDOF 26
ENDMDL
MODEL 3
REMARK VINA RESULT:    -1.807      2.625      5.172
REMARK INTER + INTRA:          -6.253
REMARK INTER:                  -4.154
REMARK INTRA:                  -2.099
REMARK UNBOUND:                -1.699
REMARK SMILES CCCCCCCCCCCCCCCCCCCCCCCCCCCC(=O)[O-]
REMARK SMILES IDX 15 1 16 2 17 3 18 4 19 5 20 6 21 7 22 8 23 9 24 10 25 11
REMARK SMILES IDX 26 12 27 13 28 14 29 15 30 16 14 17 13 18 12 19 11 20 10 21
REMARK SMILES IDX 9 22 8 23 7 24 6 25 5 26 4 27 3 28 2 29 1 30
REMARK H PARENT
REMARK Flexibility Score: inf
ROOT
ATOM      1  C   UNL     1       1.119 -34.979  19.728  1.00  0.00     0.000 C 
ENDROOT
BRANCH   1   2
ATOM      2  C   UNL     1       0.975 -35.652  21.102  1.00  0.00     0.000 C 
BRANCH   2   3
ATOM      3  C   UNL     1      -0.424 -36.257  21.270  1.00  0.00     0.000 C 
BRANCH   3   4
ATOM      4  C   UNL     1      -0.407 -37.770  21.004  1.00  0.00     0.000 C 
BRANCH   4   5
ATOM      5  C   UNL     1      -0.667 -38.125  19.529  1.00  0.00     0.000 C 
BRANCH   5   6
ATOM      6  C   UNL     1      -2.139 -38.038  19.087  1.00  0.00     0.000 C 
BRANCH   6   7
ATOM      7  C   UNL     1      -2.744 -36.641  19.287  1.00  0.00     0.000 C 
BRANCH   7   8
ATOM      8  C   UNL     1      -3.969 -36.703  20.211  1.00  0.00     0.000 C 
BRANCH   8   9
ATOM      9  C   UNL     1      -3.650 -37.327  21.578  1.00  0.00     0.000 C 
BRANCH   9  10
ATOM     10  C   UNL     1      -3.809 -36.330  22.740  1.00  0.00     0.000 C 
BRANCH  10  11
ATOM     11  C   UNL     1      -3.378 -34.901  22.343  1.00  0.00     0.000 C 
BRANCH  11  12
ATOM     12  C   UNL     1      -2.031 -34.475  22.954  1.00  0.00     0.006 C 
BRANCH  12  13
ATOM     13  C   UNL     1      -1.774 -32.968  22.842  1.00  0.00     0.053 C 
BRANCH  13  14
ATOM     14  C   UNL     1      -1.878 -32.319  24.186  1.00  0.00     0.041 C 
ATOM     15  O   UNL     1      -1.848 -33.019  25.230  1.00  0.00    -0.550 OA
ATOM     16  O   UNL     1      -1.964 -30.935  24.285  1.00  0.00    -0.550 OA
ENDBRANCH  13  14
ENDBRANCH  12  13
ENDBRANCH  11  12
ENDBRANCH  10  11
ENDBRANCH   9  10
ENDBRANCH   8   9
ENDBRANCH   7   8
ENDBRANCH   6   7
ENDBRANCH   5   6
ENDBRANCH   4   5
ENDBRANCH   3   4
ENDBRANCH   2   3
ENDBRANCH   1   2
BRANCH   1  17
ATOM     17  C   UNL     1       2.526 -35.149  19.130  1.00  0.00     0.000 C 
BRANCH  17  18
ATOM     18  C   UNL     1       2.540 -36.114  17.933  1.00  0.00     0.000 C 
BRANCH  18  19
ATOM     19  C   UNL     1       2.254 -37.568  18.340  1.00  0.00     0.000 C 
BRANCH  19  20
ATOM     20  C   UNL     1       3.272 -38.112  19.353  1.00  0.00     0.000 C 
BRANCH  20  21
ATOM     21  C   UNL     1       4.686 -38.125  18.758  1.00  0.00     0.000 C 
BRANCH  21  22
ATOM     22  C   UNL     1       5.655 -37.299  19.618  1.00  0.00    -0.000 C 
BRANCH  22  23
ATOM     23  C   UNL     1       6.097 -38.046  20.894  1.00  0.00    -0.000 C 
BRANCH  23  24
ATOM     24  C   UNL     1       5.132 -37.876  22.082  1.00  0.00    -0.000 C 
BRANCH  24  25
ATOM     25  C   UNL     1       5.451 -36.697  23.024  1.00  0.00    -0.000 C 
BRANCH  25  26
ATOM     26  C   UNL     1       5.010 -35.314  22.505  1.00  0.00    -0.000 C 
BRANCH  26  27
ATOM     27  C   UNL     1       3.509 -35.011  22.672  1.00  0.00    -0.000 C 
BRANCH  27  28
ATOM     28  C   UNL     1       3.204 -33.979  23.782  1.00  0.00    -0.000 C 
BRANCH  28  29
ATOM     29  C   UNL     1       1.854 -33.261  23.606  1.00  0.00    -0.003 C 
ATOM     30  C   UNL     1       1.521 -32.344  24.783  1.00  0.00     0.004 C 
ENDBRANCH  28  29
ENDBRANCH  27  28
ENDBRANCH  26  27
ENDBRANCH  25  26
ENDBRANCH  24  25
ENDBRANCH  23  24
ENDBRANCH  22  23
ENDBRANCH  21  22
ENDBRANCH  20  21
ENDBRANCH  19  20
ENDBRANCH  18  19
ENDBRANCH  17  18
ENDBRANCH   1  17
TORSDOF 26
ENDMDL
MODEL 4
REMARK VINA RESULT:    -1.639      2.178      6.907
REMARK INTER + INTRA:          -5.830
REMARK INTER:                  -4.652
REMARK INTRA:                  -1.178
REMARK UNBOUND:                -1.699
REMARK SMILES CCCCCCCCCCCCCCCCCCCCCCCCCCCC(=O)[O-]
REMARK SMILES IDX 15 1 16 2 17 3 18 4 19 5 20 6 21 7 22 8 23 9 24 10 25 11
REMARK SMILES IDX 26 12 27 13 28 14 29 15 30 16 14 17 13 18 12 19 11 20 10 21
REMARK SMILES IDX 9 22 8 23 7 24 6 25 5 26 4 27 3 28 2 29 1 30
REMARK H PARENT
REMARK Flexibility Score: inf
ROOT
ATOM      1  C   UNL     1      -1.790 -30.351  24.242  1.00  0.00     0.000 C 
ENDROOT
BRANCH   1   2
ATOM      2  C   UNL     1      -0.305 -30.621  23.951  1.00  0.00     0.000 C 
BRANCH   2   3
ATOM      3  C   UNL     1       0.000 -32.122  24.018  1.00  0.00     0.000 C 
BRANCH   3   4
ATOM      4  C   UNL     1       1.425 -32.373  24.535  1.00  0.00     0.000 C 
BRANCH   4   5
ATOM      5  C   UNL     1       2.392 -32.840  23.432  1.00  0.00     0.000 C 
BRANCH   5   6
ATOM      6  C   UNL     1       2.525 -34.366  23.286  1.00  0.00     0.000 C 
BRANCH   6   7
ATOM      7  C   UNL     1       3.933 -34.809  22.860  1.00  0.00     0.000 C 
BRANCH   7   8
ATOM      8  C   UNL     1       3.913 -36.244  22.314  1.00  0.00     0.000 C 
BRANCH   8   9
ATOM      9  C   UNL     1       5.214 -36.622  21.590  1.00  0.00     0.000 C 
BRANCH   9  10
ATOM     10  C   UNL     1       5.204 -38.067  21.061  1.00  0.00     0.000 C 
BRANCH  10  11
ATOM     11  C   UNL     1       5.211 -38.122  19.518  1.00  0.00     0.000 C 
BRANCH  11  12
ATOM     12  C   UNL     1       5.579 -36.780  18.859  1.00  0.00     0.006 C 
BRANCH  12  13
ATOM     13  C   UNL     1       4.545 -36.319  17.825  1.00  0.00     0.053 C 
BRANCH  13  14
ATOM     14  C   UNL     1       3.184 -36.246  18.444  1.00  0.00     0.041 C 
ATOM     15  O   UNL     1       2.969 -35.467  19.408  1.00  0.00    -0.550 OA
ATOM     16  O   UNL     1       2.144 -37.009  17.927  1.00  0.00    -0.550 OA
ENDBRANCH  13  14
ENDBRANCH  12  13
ENDBRANCH  11  12
ENDBRANCH  10  11
ENDBRANCH   9  10
ENDBRANCH   8   9
ENDBRANCH   7   8
ENDBRANCH   6   7
ENDBRANCH   5   6
ENDBRANCH   4   5
ENDBRANCH   3   4
ENDBRANCH   2   3
ENDBRANCH   1   2
BRANCH   1  17
ATOM     17  C   UNL     1      -2.720 -31.379  23.578  1.00  0.00     0.000 C 
BRANCH  17  18
ATOM     18  C   UNL     1      -2.405 -32.820  24.013  1.00  0.00     0.000 C 
BRANCH  18  19
ATOM     19  C   UNL     1      -3.248 -33.863  23.262  1.00  0.00     0.000 C 
BRANCH  19  20
ATOM     20  C   UNL     1      -2.441 -35.110  22.870  1.00  0.00     0.000 C 
BRANCH  20  21
ATOM     21  C   UNL     1      -0.981 -34.747  22.572  1.00  0.00     0.000 C 
BRANCH  21  22
ATOM     22  C   UNL     1      -0.699 -34.786  21.062  1.00  0.00    -0.000 C 
BRANCH  22  23
ATOM     23  C   UNL     1       0.487 -35.708  20.706  1.00  0.00    -0.000 C 
BRANCH  23  24
ATOM     24  C   UNL     1       0.255 -37.188  21.063  1.00  0.00    -0.000 C 
BRANCH  24  25
ATOM     25  C   UNL     1      -0.040 -38.115  19.867  1.00  0.00    -0.000 C 
BRANCH  25  26
ATOM     26  C   UNL     1      -1.508 -38.124  19.399  1.00  0.00    -0.000 C 
BRANCH  26  27
ATOM     27  C   UNL     1      -2.545 -37.960  20.525  1.00  0.00    -0.000 C 
BRANCH  27  28
ATOM     28  C   UNL     1      -3.843 -37.251  20.076  1.00  0.00    -0.000 C 
BRANCH  28  29
ATOM     29  C   UNL     1      -4.297 -37.632  18.655  1.00  0.00    -0.003 C 
ATOM     30  C   UNL     1      -4.377 -36.423  17.723  1.00  0.00     0.004 C 
ENDBRANCH  28  29
ENDBRANCH  27  28
ENDBRANCH  26  27
ENDBRANCH  25  26
ENDBRANCH  24  25
ENDBRANCH  23  24
ENDBRANCH  22  23
ENDBRANCH  21  22
ENDBRANCH  20  21
ENDBRANCH  19  20
ENDBRANCH  18  19
ENDBRANCH  17  18
ENDBRANCH   1  17
TORSDOF 26
ENDMDL
MODEL 5
REMARK VINA RESULT:    -1.323      2.701      5.222
REMARK INTER + INTRA:          -5.032
REMARK INTER:                  -4.308
REMARK INTRA:                  -0.724
REMARK UNBOUND:                -1.699
REMARK SMILES CCCCCCCCCCCCCCCCCCCCCCCCCCCC(=O)[O-]
REMARK SMILES IDX 15 1 16 2 17 3 18 4 19 5 20 6 21 7 22 8 23 9 24 10 25 11
REMARK SMILES IDX 26 12 27 13 28 14 29 15 30 16 14 17 13 18 12 19 11 20 10 21
REMARK SMILES IDX 9 22 8 23 7 24 6 25 5 26 4 27 3 28 2 29 1 30
REMARK H PARENT
REMARK Flexibility Score: inf
ROOT
ATOM      1  C   UNL     1      -0.014 -35.556  21.051  1.00  0.00     0.000 C 
ENDROOT
BRANCH   1   2
ATOM      2  C   UNL     1      -1.330 -35.687  20.269  1.00  0.00     0.000 C 
BRANCH   2   3
ATOM      3  C   UNL     1      -1.556 -37.135  19.820  1.00  0.00     0.000 C 
BRANCH   3   4
ATOM      4  C   UNL     1      -2.919 -37.291  19.127  1.00  0.00     0.000 C 
BRANCH   4   5
ATOM      5  C   UNL     1      -4.069 -37.560  20.115  1.00  0.00     0.000 C 
BRANCH   5   6
ATOM      6  C   UNL     1      -3.644 -37.686  21.589  1.00  0.00     0.000 C 
BRANCH   6   7
ATOM      7  C   UNL     1      -4.242 -36.590  22.483  1.00  0.00     0.000 C 
BRANCH   7   8
ATOM      8  C   UNL     1      -3.643 -35.218  22.139  1.00  0.00     0.000 C 
BRANCH   8   9
ATOM      9  C   UNL     1      -2.718 -34.680  23.242  1.00  0.00     0.000 C 
BRANCH   9  10
ATOM     10  C   UNL     1      -2.319 -33.210  23.021  1.00  0.00     0.000 C 
BRANCH  10  11
ATOM     11  C   UNL     1      -1.481 -32.653  24.192  1.00  0.00     0.000 C 
BRANCH  11  12
ATOM     12  C   UNL     1      -0.982 -31.216  23.960  1.00  0.00     0.006 C 
BRANCH  12  13
ATOM     13  C   UNL     1       0.545 -31.118  23.885  1.00  0.00     0.053 C 
BRANCH  13  14
ATOM     14  C   UNL     1       1.176 -32.360  24.432  1.00  0.00     0.041 C 
ATOM     15  O   UNL     1       1.021 -32.668  25.641  1.00  0.00    -0.550 OA
ATOM     16  O   UNL     1       1.900 -33.200  23.594  1.00  0.00    -0.550 OA
ENDBRANCH  13  14
ENDBRANCH  12  13
ENDBRANCH  11  12
ENDBRANCH  10  11
ENDBRANCH   9  10
ENDBRANCH   8   9
ENDBRANCH   7   8
ENDBRANCH   6   7
ENDBRANCH   5   6
ENDBRANCH   4   5
ENDBRANCH   3   4
ENDBRANCH   2   3
ENDBRANCH   1   2
BRANCH   1  17
ATOM     17  C   UNL     1       0.633 -36.917  21.356  1.00  0.00     0.000 C 
BRANCH  17  18
ATOM     18  C   UNL     1       1.743 -37.275  20.354  1.00  0.00     0.000 C 
BRANCH  18  19
ATOM     19  C   UNL     1       1.224 -38.096  19.163  1.00  0.00     0.000 C 
BRANCH  19  20
ATOM     20  C   UNL     1       2.055 -37.885  17.888  1.00  0.00     0.000 C 
BRANCH  20  21
ATOM     21  C   UNL     1       2.561 -36.441  17.796  1.00  0.00     0.000 C 
BRANCH  21  22
ATOM     22  C   UNL     1       4.095 -36.387  17.859  1.00  0.00    -0.000 C 
BRANCH  22  23
ATOM     23  C   UNL     1       4.734 -37.790  17.923  1.00  0.00    -0.000 C 
BRANCH  23  24
ATOM     24  C   UNL     1       6.123 -37.813  18.589  1.00  0.00    -0.000 C 
BRANCH  24  25
ATOM     25  C   UNL     1       6.124 -38.124  20.099  1.00  0.00    -0.000 C 
BRANCH  25  26
ATOM     26  C   UNL     1       4.825 -37.750  20.839  1.00  0.00    -0.000 C 
BRANCH  26  27
ATOM     27  C   UNL     1       4.862 -37.975  22.362  1.00  0.00    -0.000 C 
BRANCH  27  28
ATOM     28  C   UNL     1       5.568 -36.842  23.141  1.00  0.00    -0.000 C 
BRANCH  28  29
ATOM     29  C   UNL     1       5.392 -35.451  22.506  1.00  0.00    -0.003 C 
ATOM     30  C   UNL     1       3.947 -35.174  22.094  1.00  0.00     0.004 C 
ENDBRANCH  28  29
ENDBRANCH  27  28
ENDBRANCH  26  27
ENDBRANCH  25  26
ENDBRANCH  24  25
ENDBRANCH  23  24
ENDBRANCH  22  23
ENDBRANCH  21  22
ENDBRANCH  20  21
ENDBRANCH  19  20
ENDBRANCH  18  19
ENDBRANCH  17  18
ENDBRANCH   1  17
TORSDOF 26
ENDMDL
MODEL 6
REMARK VINA RESULT:    -1.200      2.635      4.988
REMARK INTER + INTRA:          -4.723
REMARK INTER:                  -4.441
REMARK INTRA:                  -0.281
REMARK UNBOUND:                -1.699
REMARK SMILES CCCCCCCCCCCCCCCCCCCCCCCCCCCC(=O)[O-]
REMARK SMILES IDX 15 1 16 2 17 3 18 4 19 5 20 6 21 7 22 8 23 9 24 10 25 11
REMARK SMILES IDX 26 12 27 13 28 14 29 15 30 16 14 17 13 18 12 19 11 20 10 21
REMARK SMILES IDX 9 22 8 23 7 24 6 25 5 26 4 27 3 28 2 29 1 30
REMARK H PARENT
REMARK Flexibility Score: inf
ROOT
ATOM      1  C   UNL     1       0.125 -35.122  21.096  1.00  0.00     0.000 C 
ENDROOT
BRANCH   1   2
ATOM      2  C   UNL     1      -1.103 -36.016  20.863  1.00  0.00     0.000 C 
BRANCH   2   3
ATOM      3  C   UNL     1      -0.692 -37.486  20.729  1.00  0.00     0.000 C 
BRANCH   3   4
ATOM      4  C   UNL     1      -1.313 -38.121  19.475  1.00  0.00     0.000 C 
BRANCH   4   5
ATOM      5  C   UNL     1      -2.455 -37.280  18.878  1.00  0.00     0.000 C 
BRANCH   5   6
ATOM      6  C   UNL     1      -3.772 -38.042  18.645  1.00  0.00     0.000 C 
BRANCH   6   7
ATOM      7  C   UNL     1      -4.727 -37.975  19.846  1.00  0.00     0.000 C 
BRANCH   7   8
ATOM      8  C   UNL     1      -3.966 -37.605  21.128  1.00  0.00     0.000 C 
BRANCH   8   9
ATOM      9  C   UNL     1      -4.840 -36.846  22.138  1.00  0.00     0.000 C 
BRANCH   9  10
ATOM     10  C   UNL     1      -4.399 -35.384  22.328  1.00  0.00     0.000 C 
BRANCH  10  11
ATOM     11  C   UNL     1      -3.010 -35.278  22.995  1.00  0.00     0.000 C 
BRANCH  11  12
ATOM     12  C   UNL     1      -2.697 -33.874  23.541  1.00  0.00     0.006 C 
BRANCH  12  13
ATOM     13  C   UNL     1      -1.309 -33.369  23.132  1.00  0.00     0.053 C 
BRANCH  13  14
ATOM     14  C   UNL     1      -0.957 -32.131  23.895  1.00  0.00     0.041 C 
ATOM     15  O   UNL     1      -1.858 -31.325  24.243  1.00  0.00    -0.550 OA
ATOM     16  O   UNL     1       0.363 -31.890  24.258  1.00  0.00    -0.550 OA
ENDBRANCH  13  14
ENDBRANCH  12  13
ENDBRANCH  11  12
ENDBRANCH  10  11
ENDBRANCH   9  10
ENDBRANCH   8   9
ENDBRANCH   7   8
ENDBRANCH   6   7
ENDBRANCH   5   6
ENDBRANCH   4   5
ENDBRANCH   3   4
ENDBRANCH   2   3
ENDBRANCH   1   2
BRANCH   1  17
ATOM     17  C   UNL     1       1.367 -35.613  20.334  1.00  0.00     0.000 C 
BRANCH  17  18
ATOM     18  C   UNL     1       1.737 -37.063  20.688  1.00  0.00     0.000 C 
BRANCH  18  19
ATOM     19  C   UNL     1       2.432 -37.797  19.530  1.00  0.00     0.000 C 
BRANCH  19  20
ATOM     20  C   UNL     1       2.333 -37.036  18.199  1.00  0.00     0.000 C 
BRANCH  20  21
ATOM     21  C   UNL     1       3.717 -36.868  17.560  1.00  0.00     0.000 C 
BRANCH  21  22
ATOM     22  C   UNL     1       4.576 -38.125  17.760  1.00  0.00    -0.000 C 
BRANCH  22  23
ATOM     23  C   UNL     1       5.990 -37.797  18.284  1.00  0.00    -0.000 C 
BRANCH  23  24
ATOM     24  C   UNL     1       6.001 -37.117  19.666  1.00  0.00    -0.000 C 
BRANCH  24  25
ATOM     25  C   UNL     1       5.590 -38.020  20.847  1.00  0.00    -0.000 C 
BRANCH  25  26
ATOM     26  C   UNL     1       5.560 -37.320  22.219  1.00  0.00    -0.000 C 
BRANCH  26  27
ATOM     27  C   UNL     1       5.802 -35.800  22.174  1.00  0.00    -0.000 C 
BRANCH  27  28
ATOM     28  C   UNL     1       4.510 -34.970  22.000  1.00  0.00    -0.000 C 
BRANCH  28  29
ATOM     29  C   UNL     1       3.367 -35.397  22.939  1.00  0.00    -0.003 C 
ATOM     30  C   UNL     1       2.740 -34.214  23.676  1.00  0.00     0.004 C 
ENDBRANCH  28  29
ENDBRANCH  27  28
ENDBRANCH  26  27
ENDBRANCH  25  26
ENDBRANCH  24  25
ENDBRANCH  23  24
ENDBRANCH  22  23
ENDBRANCH  21  22
ENDBRANCH  20  21
ENDBRANCH  19  20
ENDBRANCH  18  19
ENDBRANCH  17  18
ENDBRANCH   1  17
TORSDOF 26
ENDMDL
