MODEL 1
REMARK VINA RESULT:    -3.802      0.000      0.000
REMARK INTER + INTRA:          -4.793
REMARK INTER:                  -4.691
REMARK INTRA:                  -0.102
REMARK UNBOUND:                -0.102
REMARK SMILES CCCCCC(=O)[O-]
REMARK SMILES IDX 4 1 5 2 6 3 7 4 8 5 3 6 2 7 1 8
REMARK H PARENT
REMARK Flexibility Score: inf
ROOT
ATOM      1  C   UNL     1      -5.377  35.157  22.469  1.00  0.00     0.006 C 
ENDROOT
BRANCH   1   2
ATOM      2  C   UNL     1      -4.337  35.474  21.390  1.00  0.00     0.053 C 
BRANCH   2   3
ATOM      3  C   UNL     1      -5.011  35.854  20.110  1.00  0.00     0.041 C 
ATOM      4  O   UNL     1      -5.536  34.970  19.384  1.00  0.00    -0.550 OA
ATOM      5  O   UNL     1      -5.101  37.190  19.742  1.00  0.00    -0.550 OA
ENDBRANCH   2   3
ENDBRANCH   1   2
BRANCH   1   6
ATOM      6  C   UNL     1      -5.770  36.421  23.243  1.00  0.00     0.000 C 
BRANCH   6   7
ATOM      7  C   UNL     1      -5.799  36.155  24.753  1.00  0.00    -0.003 C 
ATOM      8  C   UNL     1      -5.077  37.259  25.521  1.00  0.00     0.004 C 
ENDBRANCH   6   7
ENDBRANCH   1   6
TORSDOF 4
ENDMDL
MODEL 2
REMARK VINA RESULT:    -3.777      0.675      1.386
REMARK INTER + INTRA:          -4.762
REMARK INTER:                  -4.660
REMARK INTRA:                  -0.103
REMARK UNBOUND:                -0.102
REMARK SMILES CCCCCC(=O)[O-]
REMARK SMILES IDX 4 1 5 2 6 3 7 4 8 5 3 6 2 7 1 8
REMARK H PARENT
REMARK Flexibility Score: inf
ROOT
ATOM      1  C   UNL     1      -5.607  35.973  22.384  1.00  0.00     0.006 C 
ENDROOT
BRANCH   1   2
ATOM      2  C   UNL     1      -4.634  35.417  21.340  1.00  0.00     0.053 C 
BRANCH   2   3
ATOM      3  C   UNL     1      -5.109  35.738  19.958  1.00  0.00     0.041 C 
ATOM      4  O   UNL     1      -5.010  36.911  19.511  1.00  0.00    -0.550 OA
ATOM      5  O   UNL     1      -5.615  34.731  19.147  1.00  0.00    -0.550 OA
ENDBRANCH   2   3
ENDBRANCH   1   2
BRANCH   1   6
ATOM      6  C   UNL     1      -6.034  34.883  23.374  1.00  0.00     0.000 C 
BRANCH   6   7
ATOM      7  C   UNL     1      -6.125  35.440  24.800  1.00  0.00    -0.003 C 
ATOM      8  C   UNL     1      -5.380  36.766  24.922  1.00  0.00     0.004 C 
ENDBRANCH   6   7
ENDBRANCH   1   6
TORSDOF 4
ENDMDL
MODEL 3
REMARK VINA RESULT:    -3.564      2.581      4.233
REMARK INTER + INTRA:          -4.500
REMARK INTER:                  -4.465
REMARK INTRA:                  -0.035
REMARK UNBOUND:                -0.102
REMARK SMILES CCCCCC(=O)[O-]
REMARK SMILES IDX 4 1 5 2 6 3 7 4 8 5 3 6 2 7 1 8
REMARK H PARENT
REMARK Flexibility Score: inf
ROOT
ATOM      1  C   UNL     1      -6.058  35.483  22.348  1.00  0.00     0.006 C 
ENDROOT
BRANCH   1   2
ATOM      2  C   UNL     1      -5.778  35.456  23.853  1.00  0.00     0.053 C 
BRANCH   2   3
ATOM      3  C   UNL     1      -5.436  36.826  24.347  1.00  0.00     0.041 C 
ATOM      4  O   UNL     1      -5.078  36.997  25.542  1.00  0.00    -0.550 OA
ATOM      5  O   UNL     1      -5.465  37.906  23.474  1.00  0.00    -0.550 OA
ENDBRANCH   2   3
ENDBRANCH   1   2
BRANCH   1   6
ATOM      6  C   UNL     1      -4.754  35.413  21.544  1.00  0.00     0.000 C 
BRANCH   6   7
ATOM      7  C   UNL     1      -4.986  35.813  20.083  1.00  0.00    -0.003 C 
ATOM      8  C   UNL     1      -5.064  37.329  19.932  1.00  0.00     0.004 C 
ENDBRANCH   6   7
ENDBRANCH   1   6
TORSDOF 4
ENDMDL
MODEL 4
REMARK VINA RESULT:    -3.525      2.998      4.357
REMARK INTER + INTRA:          -4.452
REMARK INTER:                  -4.353
REMARK INTRA:                  -0.099
REMARK UNBOUND:                -0.102
REMARK SMILES CCCCCC(=O)[O-]
REMARK SMILES IDX 4 1 5 2 6 3 7 4 8 5 3 6 2 7 1 8
REMARK H PARENT
REMARK Flexibility Score: inf
ROOT
ATOM      1  C   UNL     1      -5.312  36.619  22.229  1.00  0.00     0.006 C 
ENDROOT
BRANCH   1   2
ATOM      2  C   UNL     1      -5.041  37.910  21.451  1.00  0.00     0.053 C 
BRANCH   2   3
ATOM      3  C   UNL     1      -5.257  39.104  22.326  1.00  0.00     0.041 C 
ATOM      4  O   UNL     1      -4.950  39.059  23.546  1.00  0.00    -0.550 OA
ATOM      5  O   UNL     1      -5.750  40.284  21.783  1.00  0.00    -0.550 OA
ENDBRANCH   2   3
ENDBRANCH   1   2
BRANCH   1   6
ATOM      6  C   UNL     1      -5.882  35.532  21.310  1.00  0.00     0.000 C 
BRANCH   6   7
ATOM      7  C   UNL     1      -5.328  35.669  19.887  1.00  0.00    -0.003 C 
ATOM      8  C   UNL     1      -5.782  34.509  19.006  1.00  0.00     0.004 C 
ENDBRANCH   6   7
ENDBRANCH   1   6
TORSDOF 4
ENDMDL
MODEL 5
REMARK VINA RESULT:    -3.438      2.785      3.543
REMARK INTER + INTRA:          -4.344
REMARK INTER:                  -4.127
REMARK INTRA:                  -0.218
REMARK UNBOUND:                -0.102
REMARK SMILES CCCCCC(=O)[O-]
REMARK SMILES IDX 4 1 5 2 6 3 7 4 8 5 3 6 2 7 1 8
REMARK H PARENT
REMARK Flexibility Score: inf
ROOT
ATOM      1  C   UNL     1      -4.651  35.652  21.355  1.00  0.00     0.006 C 
ENDROOT
BRANCH   1   2
ATOM      2  C   UNL     1      -6.008  35.287  21.962  1.00  0.00     0.053 C 
BRANCH   2   3
ATOM      3  C   UNL     1      -5.858  34.940  23.409  1.00  0.00     0.041 C 
ATOM      4  O   UNL     1      -6.080  33.765  23.805  1.00  0.00    -0.550 OA
ATOM      5  O   UNL     1      -5.426  35.902  24.314  1.00  0.00    -0.550 OA
ENDBRANCH   2   3
ENDBRANCH   1   2
BRANCH   1   6
ATOM      6  C   UNL     1      -4.756  36.914  20.489  1.00  0.00     0.000 C 
BRANCH   6   7
ATOM      7  C   UNL     1      -5.612  37.983  21.178  1.00  0.00    -0.003 C 
ATOM      8  C   UNL     1      -4.779  38.812  22.151  1.00  0.00     0.004 C 
ENDBRANCH   6   7
ENDBRANCH   1   6
TORSDOF 4
ENDMDL
MODEL 6
REMARK VINA RESULT:    -3.302      2.726      4.626
REMARK INTER + INTRA:          -4.177
REMARK INTER:                  -4.060
REMARK INTRA:                  -0.117
REMARK UNBOUND:                -0.102
REMARK SMILES CCCCCC(=O)[O-]
REMARK SMILES IDX 4 1 5 2 6 3 7 4 8 5 3 6 2 7 1 8
REMARK H PARENT
REMARK Flexibility Score: inf
ROOT
ATOM      1  C   UNL     1      -4.668  36.023  21.788  1.00  0.00     0.006 C 
ENDROOT
BRANCH   1   2
ATOM      2  C   UNL     1      -5.748  36.576  22.723  1.00  0.00     0.053 C 
BRANCH   2   3
ATOM      3  C   UNL     1      -5.849  35.739  23.958  1.00  0.00     0.041 C 
ATOM      4  O   UNL     1      -5.843  36.282  25.094  1.00  0.00    -0.550 OA
ATOM      5  O   UNL     1      -6.001  34.362  23.854  1.00  0.00    -0.550 OA
ENDBRANCH   2   3
ENDBRANCH   1   2
BRANCH   1   6
ATOM      6  C   UNL     1      -5.119  36.093  20.324  1.00  0.00     0.000 C 
BRANCH   6   7
ATOM      7  C   UNL     1      -6.125  34.981  20.004  1.00  0.00    -0.003 C 
ATOM      8  C   UNL     1      -5.750  34.252  18.718  1.00  0.00     0.004 C 
ENDBRANCH   6   7
ENDBRANCH   1   6
TORSDOF 4
ENDMDL
MODEL 7
REMARK VINA RESULT:    -3.148      1.969      2.308
REMARK INTER + INTRA:          -3.987
REMARK INTER:                  -3.807
REMARK INTRA:                  -0.180
REMARK UNBOUND:                -0.102
REMARK SMILES CCCCCC(=O)[O-]
REMARK SMILES IDX 4 1 5 2 6 3 7 4 8 5 3 6 2 7 1 8
REMARK H PARENT
REMARK Flexibility Score: inf
ROOT
ATOM      1  C   UNL     1      -4.449  38.102  21.299  1.00  0.00     0.006 C 
ENDROOT
BRANCH   1   2
ATOM      2  C   UNL     1      -5.298  37.334  20.282  1.00  0.00     0.053 C 
BRANCH   2   3
ATOM      3  C   UNL     1      -4.943  35.881  20.295  1.00  0.00     0.041 C 
ATOM      4  O   UNL     1      -5.299  35.134  19.347  1.00  0.00    -0.550 OA
ATOM      5  O   UNL     1      -4.178  35.362  21.332  1.00  0.00    -0.550 OA
ENDBRANCH   2   3
ENDBRANCH   1   2
BRANCH   1   6
ATOM      6  C   UNL     1      -5.321  39.024  22.160  1.00  0.00     0.000 C 
BRANCH   6   7
ATOM      7  C   UNL     1      -5.021  38.831  23.651  1.00  0.00    -0.003 C 
ATOM      8  C   UNL     1      -5.360  37.413  24.102  1.00  0.00     0.004 C 
ENDBRANCH   6   7
ENDBRANCH   1   6
TORSDOF 4
ENDMDL
MODEL 8
REMARK VINA RESULT:    -1.944      2.984      4.246
REMARK INTER + INTRA:          -2.501
REMARK INTER:                  -2.556
REMARK INTRA:                   0.055
REMARK UNBOUND:                -0.102
REMARK SMILES CCCCCC(=O)[O-]
REMARK SMILES IDX 4 1 5 2 6 3 7 4 8 5 3 6 2 7 1 8
REMARK H PARENT
REMARK Flexibility Score: inf
ROOT
ATOM      1  C   UNL     1      -5.515  38.438  23.954  1.00  0.00     0.006 C 
ENDROOT
BRANCH   1   2
ATOM      2  C   UNL     1      -5.044  37.211  24.740  1.00  0.00     0.053 C 
BRANCH   2   3
ATOM      3  C   UNL     1      -5.778  35.987  24.290  1.00  0.00     0.041 C 
ATOM      4  O   UNL     1      -6.122  35.112  25.126  1.00  0.00    -0.550 OA
ATOM      5  O   UNL     1      -6.125  35.838  22.953  1.00  0.00    -0.550 OA
ENDBRANCH   2   3
ENDBRANCH   1   2
BRANCH   1   6
ATOM      6  C   UNL     1      -4.686  38.626  22.678  1.00  0.00     0.000 C 
BRANCH   6   7
ATOM      7  C   UNL     1      -5.591  38.869  21.465  1.00  0.00    -0.003 C 
ATOM      8  C   UNL     1      -5.269  37.896  20.334  1.00  0.00     0.004 C 
ENDBRANCH   6   7
ENDBRANCH   1   6
TORSDOF 4
ENDMDL
